REMARK SMILES CC1(C)[C@@]2(CC[C@@H]2C(=O)NCc2ccco2)[C@]1(C)C(=O)NCCCCNC(=O)c1ccc(-c2c3nc(c(-c4cc(S(=O)(=O)[O-])ccc4F)c4ccc([nH]4)c(-c4cc(S(=O)(=O)[O-])ccc4F)c4nc(c(-c5cc(S(=O)(=O)[O-])ccc5F)c5ccc2[nH]5)C=C4)C=C3)cc1
REMARK SMILES IDX 23 1 22 2 21 3 19 4 20 5 17 7 1 8 2 9 3 10 4 11 18 12 5 13
REMARK SMILES IDX 7 14 6 15 8 16 9 17 10 18 11 20 12 21 13 22 16 23 14 24
REMARK SMILES IDX 15 25 24 26 25 27 26 28 27 29 28 31 29 32 30 33 91 34 31 35
REMARK SMILES IDX 90 36 32 37 33 38 34 39 84 40 35 41 89 42 83 43 85 44 36 45
REMARK SMILES IDX 88 46 82 47 81 48 37 50 69 51 49 52 68 53 50 54 53 55 67 56
REMARK SMILES IDX 86 57 51 58 52 59 66 61 87 62 54 63 38 64 39 65 47 66 40 67
REMARK SMILES IDX 46 68 48 69 45 70 41 71 42 72 43 73 44 74 70 75 71 76 79 77
REMARK SMILES IDX 72 78 78 79 80 80 77 81 73 82 74 83 75 84 76 85 55 86 56 87
REMARK SMILES IDX 64 88 57 89 63 90 65 91 62 92 58 93 59 94 60 95 61 96
REMARK H PARENT 21 6 10 19 26 30 85 49 53 60
REMARK Flexibility Score: inf
ROOT
ATOM      1  C   UNL     1      -2.655   3.402   0.323  1.00  0.00     0.023 C 
ENDROOT
BRANCH   1   2
ATOM      2  C   UNL     1      -1.862   2.185   0.785  1.00  0.00     0.116 C 
BRANCH   2   3
ATOM      3  N   UNL     1      -2.340   0.944   0.235  1.00  0.00    -0.356 N 
ATOM      4  C   UNL     1      -1.742   0.058  -0.616  1.00  0.00     0.227 C 
ATOM      5  O   UNL     1      -2.022  -1.129  -0.430  1.00  0.00    -0.274 OA
ATOM      6  H   UNL     1      -3.248   0.691   0.519  1.00  0.00     0.163 HD
BRANCH   4   7
ATOM      7  C   UNL     1      -0.902   0.385  -1.848  1.00  0.00     0.059 C 
ATOM      8  C   UNL     1       1.141   0.146  -0.197  1.00  0.00     0.013 C 
ATOM      9  C   UNL     1       0.636   0.234  -1.626  1.00  0.00    -0.013 C 
ATOM     10  C   UNL     1       1.441  -0.676  -2.530  1.00  0.00     0.013 C 
ATOM     11  C   UNL     1       0.075   1.526  -2.186  1.00  0.00     0.003 C 
ATOM     12  C   UNL     1      -1.522  -0.324  -3.070  1.00  0.00     0.023 C 
ATOM     13  C   UNL     1       0.258   1.999  -3.609  1.00  0.00     0.010 C 
ATOM     14  C   UNL     1       0.213   2.925  -1.662  1.00  0.00     0.086 C 
ATOM     15  C   UNL     1       0.161   3.423  -3.100  1.00  0.00     0.015 C 
BRANCH  14  16
ATOM     16  C   UNL     1       1.350   3.309  -0.692  1.00  0.00     0.224 C 
ATOM     17  O   UNL     1       1.110   3.694   0.466  1.00  0.00    -0.275 OA
ATOM     18  N   UNL     1       2.681   3.305  -1.013  1.00  0.00    -0.349 N 
ATOM     19  H   UNL     1       3.278   3.526  -0.262  1.00  0.00     0.163 HD
BRANCH  18  20
ATOM     20  C   UNL     1       3.367   3.034  -2.251  1.00  0.00     0.191 C 
BRANCH  20  21
ATOM     21  C   UNL     1       3.579   4.296  -3.006  1.00  0.00     0.122 A 
ATOM     22  C   UNL     1       3.257   5.623  -2.788  1.00  0.00     0.047 A 
ATOM     23  O   UNL     1       4.216   4.172  -4.208  1.00  0.00    -0.467 OA
ATOM     24  C   UNL     1       3.707   6.340  -3.921  1.00  0.00     0.042 A 
ATOM     25  C   UNL     1       4.289   5.413  -4.752  1.00  0.00     0.195 A 
ENDBRANCH  20  21
ENDBRANCH  18  20
ENDBRANCH  14  16
ENDBRANCH   4   7
ENDBRANCH   2   3
ENDBRANCH   1   2
BRANCH   1  26
ATOM     26  C   UNL     1      -3.958   3.650   1.075  1.00  0.00     0.023 C 
BRANCH  26  27
ATOM     27  C   UNL     1      -3.833   3.752   2.591  1.00  0.00     0.116 C 
BRANCH  27  28
ATOM     28  N   UNL     1      -2.841   4.717   3.051  1.00  0.00    -0.352 N 
ATOM     29  C   UNL     1      -2.865   5.446   4.220  1.00  0.00     0.251 C 
ATOM     30  H   UNL     1      -2.067   4.863   2.461  1.00  0.00     0.163 HD
ATOM     31  O   UNL     1      -2.005   6.281   4.465  1.00  0.00    -0.269 OA
BRANCH  29  32
ATOM     32  C   UNL     1      -3.992   5.226   5.149  1.00  0.00     0.039 A 
ATOM     33  C   UNL     1      -4.821   6.301   5.478  1.00  0.00     0.014 A 
ATOM     34  C   UNL     1      -4.290   3.932   5.583  1.00  0.00     0.014 A 
ATOM     35  C   UNL     1      -6.011   6.061   6.168  1.00  0.00     0.010 A 
ATOM     36  C   UNL     1      -5.506   3.689   6.208  1.00  0.00     0.010 A 
ATOM     37  C   UNL     1      -6.385   4.748   6.492  1.00  0.00    -0.014 A 
BRANCH  37  38
ATOM     38  C   UNL     1      -7.692   4.433   7.121  1.00  0.00     0.031 A 
ATOM     39  C   UNL     1      -7.719   3.797   8.481  1.00  0.00     0.074 A 
ATOM     40  C   UNL     1      -8.830   4.586   6.417  1.00  0.00     0.049 A 
ATOM     41  N   UNL     1      -8.718   3.251   9.124  1.00  0.00    -0.248 NA
ATOM     42  C   UNL     1      -6.432   3.724   9.187  1.00  0.00     0.031 C 
ATOM     43  C   UNL     1      -8.922   5.141   5.065  1.00  0.00     0.029 A 
ATOM     44  N   UNL     1     -10.125   4.254   6.728  1.00  0.00    -0.354 N 
ATOM     45  C   UNL     1      -8.172   2.727  10.291  1.00  0.00     0.074 A 
ATOM     46  C   UNL     1      -6.747   2.986  10.239  1.00  0.00     0.031 C 
ATOM     47  C   UNL     1     -10.202   5.102   4.660  1.00  0.00     0.029 A 
ATOM     48  C   UNL     1     -11.014   4.482   5.702  1.00  0.00     0.049 A 
ATOM     49  H   UNL     1     -10.393   3.886   7.601  1.00  0.00     0.167 HD
ATOM     50  C   UNL     1      -8.804   2.101  11.314  1.00  0.00     0.034 A 
ATOM     51  C   UNL     1     -12.327   4.196   5.601  1.00  0.00     0.034 A 
ATOM     52  C   UNL     1     -10.229   1.887  11.358  1.00  0.00     0.049 A 
ATOM     53  C   UNL     1     -13.020   3.531   6.760  1.00  0.00     0.074 A 
ATOM     54  C   UNL     1     -10.992   1.351  12.381  1.00  0.00     0.029 A 
ATOM     55  N   UNL     1     -11.109   2.193  10.326  1.00  0.00    -0.354 N 
ATOM     56  N   UNL     1     -12.504   3.092   7.885  1.00  0.00    -0.248 NA
ATOM     57  C   UNL     1     -14.470   3.329   6.641  1.00  0.00     0.031 C 
ATOM     58  C   UNL     1     -12.322   1.286  11.949  1.00  0.00     0.029 A 
ATOM     59  C   UNL     1     -12.400   1.836  10.679  1.00  0.00     0.049 A 
ATOM     60  H   UNL     1     -10.851   2.604   9.469  1.00  0.00     0.167 HD
ATOM     61  C   UNL     1     -13.572   2.585   8.619  1.00  0.00     0.074 A 
ATOM     62  C   UNL     1     -14.759   2.772   7.810  1.00  0.00     0.031 C 
ATOM     63  C   UNL     1     -13.570   2.026   9.855  1.00  0.00     0.034 A 
BRANCH  50  64
ATOM     64  C   UNL     1      -7.944   1.580  12.440  1.00  0.00     0.023 A 
ATOM     65  C   UNL     1      -7.163   2.439  13.232  1.00  0.00     0.031 A 
ATOM     66  C   UNL     1      -7.851   0.198  12.682  1.00  0.00     0.131 A 
ATOM     67  C   UNL     1      -6.250   1.906  14.153  1.00  0.00     0.055 A 
ATOM     68  C   UNL     1      -7.006  -0.322  13.665  1.00  0.00     0.041 A 
ATOM     69  F   UNL     1      -8.559  -0.674  11.947  1.00  0.00    -0.206 F 
ATOM     70  C   UNL     1      -6.183   0.532  14.393  1.00  0.00     0.022 A 
BRANCH  67  71
ATOM     71  S   UNL     1      -5.031   3.022  14.901  1.00  0.00     0.124 S 
ATOM     72  O   UNL     1      -4.376   3.578  13.719  1.00  0.00    -0.237 OA
ATOM     73  O   UNL     1      -5.869   3.942  15.659  1.00  0.00    -0.237 OA
ATOM     74  O   UNL     1      -4.197   2.130  15.704  1.00  0.00    -0.744 OA
ENDBRANCH  67  71
ENDBRANCH  50  64
BRANCH  51  75
ATOM     75  C   UNL     1     -13.063   4.513   4.347  1.00  0.00     0.023 A 
ATOM     76  C   UNL     1     -14.011   5.546   4.304  1.00  0.00     0.031 A 
ATOM     77  C   UNL     1     -12.821   3.784   3.169  1.00  0.00     0.131 A 
ATOM     78  C   UNL     1     -14.706   5.805   3.112  1.00  0.00     0.055 A 
ATOM     79  C   UNL     1     -13.488   4.069   1.977  1.00  0.00     0.041 A 
ATOM     80  F   UNL     1     -11.912   2.797   3.158  1.00  0.00    -0.206 F 
ATOM     81  C   UNL     1     -14.444   5.081   1.946  1.00  0.00     0.022 A 
BRANCH  78  82
ATOM     82  S   UNL     1     -15.990   7.087   3.114  1.00  0.00     0.124 S 
ATOM     83  O   UNL     1     -16.940   6.555   4.085  1.00  0.00    -0.237 OA
ATOM     84  O   UNL     1     -15.240   8.267   3.530  1.00  0.00    -0.237 OA
ATOM     85  O   UNL     1     -16.456   7.104   1.729  1.00  0.00    -0.744 OA
ENDBRANCH  78  82
ENDBRANCH  51  75
BRANCH  63  86
ATOM     86  C   UNL     1     -14.904   1.626  10.429  1.00  0.00     0.023 A 
ATOM     87  C   UNL     1     -15.602   0.500   9.963  1.00  0.00     0.031 A 
ATOM     88  C   UNL     1     -15.466   2.375  11.478  1.00  0.00     0.131 A 
ATOM     89  C   UNL     1     -16.843   0.170  10.528  1.00  0.00     0.055 A 
ATOM     90  C   UNL     1     -16.679   2.018  12.064  1.00  0.00     0.041 A 
ATOM     91  F   UNL     1     -14.834   3.459  11.957  1.00  0.00    -0.206 F 
ATOM     92  C   UNL     1     -17.378   0.913  11.586  1.00  0.00     0.022 A 
BRANCH  89  93
ATOM     93  S   UNL     1     -17.775  -1.227   9.842  1.00  0.00     0.124 S 
ATOM     94  O   UNL     1     -18.057  -0.765   8.487  1.00  0.00    -0.237 OA
ATOM     95  O   UNL     1     -16.823  -2.327   9.956  1.00  0.00    -0.237 OA
ATOM     96  O   UNL     1     -18.940  -1.326  10.719  1.00  0.00    -0.744 OA
ENDBRANCH  89  93
ENDBRANCH  63  86
ENDBRANCH  37  38
ENDBRANCH  29  32
ENDBRANCH  27  28
ENDBRANCH  26  27
ENDBRANCH   1  26
TORSDOF 17
