REMARK SMILES CCCCS[C@@H]1CCC[C@]([NH3+])(C(=O)NCCCCNC(=O)c2ccc(-c3c4nc(c(-c5cc(S(=O)(=O)[O-])ccc5F)c5ccc([nH]5)c(-c5cc(S(=O)(=O)[O-])ccc5F)c5nc(c(-c6cc(S(=O)(=O)[O-])ccc6F)c6ccc3[nH]6)C=C5)C=C4)cc2)C1
REMARK SMILES IDX 16 1 15 2 14 3 12 4 13 5 10 7 6 8 7 9 85 10 8 11 9 12 5 13
REMARK SMILES IDX 4 14 3 15 2 16 1 17 11 18 17 22 18 23 19 24 20 25 21 27
REMARK SMILES IDX 22 28 23 29 84 30 24 31 83 32 25 33 26 34 27 35 77 36 28 37
REMARK SMILES IDX 82 38 76 39 78 40 29 41 81 42 75 43 74 44 30 46 62 47 42 48
REMARK SMILES IDX 61 49 43 50 46 51 60 52 79 53 44 54 45 55 59 57 80 58 47 59
REMARK SMILES IDX 31 60 32 61 40 62 33 63 39 64 41 65 38 66 34 67 35 68 36 69
REMARK SMILES IDX 37 70 63 71 64 72 72 73 65 74 71 75 73 76 70 77 66 78 67 79
REMARK SMILES IDX 68 80 69 81 48 82 49 83 57 84 50 85 56 86 58 87 55 88 51 89
REMARK SMILES IDX 52 90 53 91 54 92
REMARK H PARENT 14 6 11 19 11 20 11 21 19 26 78 45 46 56
REMARK Flexibility Score: inf
ROOT
ATOM      1  C   UNL     1      -6.120  -2.838   0.228  1.00  0.00     0.023 C 
ENDROOT
BRANCH   1   2
ATOM      2  C   UNL     1      -5.914  -1.790  -0.866  1.00  0.00     0.116 C 
BRANCH   2   3
ATOM      3  N   UNL     1      -6.247  -0.459  -0.397  1.00  0.00    -0.351 N 
ATOM      4  C   UNL     1      -5.473   0.568   0.069  1.00  0.00     0.281 C 
ATOM      5  O   UNL     1      -6.077   1.559   0.492  1.00  0.00    -0.268 OA
ATOM      6  H   UNL     1      -7.210  -0.256  -0.418  1.00  0.00     0.163 HD
BRANCH   4   7
ATOM      7  C   UNL     1      -3.907   0.504   0.029  1.00  0.00     0.175 C 
ATOM      8  C   UNL     1      -1.843  -0.674   1.012  1.00  0.00     0.053 C 
ATOM      9  C   UNL     1      -1.390   0.615   1.686  1.00  0.00     0.015 C 
ATOM     10  C   UNL     1      -3.370  -0.690   0.854  1.00  0.00     0.093 C 
ATOM     11  C   UNL     1      -1.832   1.815   0.850  1.00  0.00     0.008 C 
ATOM     12  C   UNL     1      -3.347   1.817   0.640  1.00  0.00     0.079 C 
BRANCH   8  13
ATOM     13  S   UNL     1      -1.310  -2.189   1.885  1.00  0.00    -0.158 SA
BRANCH  13  14
ATOM     14  C   UNL     1       0.504  -2.163   1.651  1.00  0.00     0.070 C 
BRANCH  14  15
ATOM     15  C   UNL     1       1.032  -2.534   0.258  1.00  0.00     0.011 C 
BRANCH  15  16
ATOM     16  C   UNL     1       1.048  -1.455  -0.830  1.00  0.00    -0.003 C 
ATOM     17  C   UNL     1       1.782  -0.177  -0.455  1.00  0.00     0.004 C 
ENDBRANCH  15  16
ENDBRANCH  14  15
ENDBRANCH  13  14
ENDBRANCH   8  13
BRANCH   7  18
ATOM     18  N   UNL     1      -3.480   0.474  -1.392  1.00  0.00    -0.345 N 
ATOM     19  H   UNL     1      -2.462   0.432  -1.440  1.00  0.00     0.345 HD
ATOM     20  H   UNL     1      -3.808   1.318  -1.863  1.00  0.00     0.345 HD
ATOM     21  H   UNL     1      -3.876  -0.347  -1.849  1.00  0.00     0.345 HD
ENDBRANCH   7  18
ENDBRANCH   4   7
ENDBRANCH   2   3
ENDBRANCH   1   2
BRANCH   1  22
ATOM     22  C   UNL     1      -7.583  -3.189   0.504  1.00  0.00     0.023 C 
BRANCH  22  23
ATOM     23  C   UNL     1      -8.371  -3.686  -0.704  1.00  0.00     0.116 C 
BRANCH  23  24
ATOM     24  N   UNL     1      -7.750  -4.816  -1.377  1.00  0.00    -0.352 N 
ATOM     25  C   UNL     1      -8.366  -5.871  -2.011  1.00  0.00     0.251 C 
ATOM     26  H   UNL     1      -6.765  -4.829  -1.378  1.00  0.00     0.163 HD
ATOM     27  O   UNL     1      -7.705  -6.801  -2.452  1.00  0.00    -0.269 OA
BRANCH  25  28
ATOM     28  C   UNL     1      -9.841  -5.878  -2.102  1.00  0.00     0.039 A 
ATOM     29  C   UNL     1     -10.541  -6.987  -1.624  1.00  0.00     0.014 A 
ATOM     30  C   UNL     1     -10.523  -4.758  -2.586  1.00  0.00     0.014 A 
ATOM     31  C   UNL     1     -11.934  -6.941  -1.555  1.00  0.00     0.010 A 
ATOM     32  C   UNL     1     -11.905  -4.689  -2.454  1.00  0.00     0.010 A 
ATOM     33  C   UNL     1     -12.623  -5.775  -1.929  1.00  0.00    -0.014 A 
BRANCH  33  34
ATOM     34  C   UNL     1     -14.095  -5.662  -1.771  1.00  0.00     0.031 A 
ATOM     35  C   UNL     1     -14.966  -5.502  -2.985  1.00  0.00     0.074 A 
ATOM     36  C   UNL     1     -14.632  -5.614  -0.536  1.00  0.00     0.049 A 
ATOM     37  N   UNL     1     -16.251  -5.271  -3.059  1.00  0.00    -0.248 NA
ATOM     38  C   UNL     1     -14.290  -5.579  -4.290  1.00  0.00     0.031 C 
ATOM     39  C   UNL     1     -13.881  -5.715   0.718  1.00  0.00     0.029 A 
ATOM     40  N   UNL     1     -15.933  -5.452  -0.129  1.00  0.00    -0.354 N 
ATOM     41  C   UNL     1     -16.536  -5.157  -4.415  1.00  0.00     0.074 A 
ATOM     42  C   UNL     1     -15.279  -5.286  -5.121  1.00  0.00     0.031 C 
ATOM     43  C   UNL     1     -14.735  -5.627   1.751  1.00  0.00     0.029 A 
ATOM     44  C   UNL     1     -16.085  -5.419   1.238  1.00  0.00     0.049 A 
ATOM     45  H   UNL     1     -16.686  -5.367  -0.757  1.00  0.00     0.167 HD
ATOM     46  C   UNL     1     -17.740  -4.981  -5.016  1.00  0.00     0.034 A 
ATOM     47  C   UNL     1     -17.186  -5.226   1.991  1.00  0.00     0.034 A 
ATOM     48  C   UNL     1     -18.984  -4.871  -4.295  1.00  0.00     0.049 A 
ATOM     49  C   UNL     1     -18.511  -5.016   1.303  1.00  0.00     0.074 A 
ATOM     50  C   UNL     1     -20.267  -4.758  -4.802  1.00  0.00     0.029 A 
ATOM     51  N   UNL     1     -19.102  -4.854  -2.911  1.00  0.00    -0.354 N 
ATOM     52  N   UNL     1     -18.773  -4.962   0.017  1.00  0.00    -0.248 NA
ATOM     53  C   UNL     1     -19.687  -4.849   2.166  1.00  0.00     0.031 C 
ATOM     54  C   UNL     1     -21.152  -4.612  -3.728  1.00  0.00     0.029 A 
ATOM     55  C   UNL     1     -20.431  -4.702  -2.548  1.00  0.00     0.049 A 
ATOM     56  H   UNL     1     -18.351  -4.938  -2.280  1.00  0.00     0.167 HD
ATOM     57  C   UNL     1     -20.149  -4.781  -0.081  1.00  0.00     0.074 A 
ATOM     58  C   UNL     1     -20.662  -4.747   1.274  1.00  0.00     0.031 C 
ATOM     59  C   UNL     1     -20.922  -4.659  -1.190  1.00  0.00     0.034 A 
BRANCH  46  60
ATOM     60  C   UNL     1     -17.752  -4.873  -6.521  1.00  0.00     0.023 A 
ATOM     61  C   UNL     1     -17.338  -5.939  -7.339  1.00  0.00     0.031 A 
ATOM     62  C   UNL     1     -18.147  -3.678  -7.147  1.00  0.00     0.131 A 
ATOM     63  C   UNL     1     -17.250  -5.763  -8.728  1.00  0.00     0.055 A 
ATOM     64  C   UNL     1     -18.137  -3.537  -8.536  1.00  0.00     0.041 A 
ATOM     65  F   UNL     1     -18.534  -2.620  -6.418  1.00  0.00    -0.206 F 
ATOM     66  C   UNL     1     -17.670  -4.578  -9.335  1.00  0.00     0.022 A 
BRANCH  63  67
ATOM     67  S   UNL     1     -16.441  -7.053  -9.713  1.00  0.00     0.124 S 
ATOM     68  O   UNL     1     -15.109  -7.088  -9.115  1.00  0.00    -0.237 OA
ATOM     69  O   UNL     1     -17.284  -8.216  -9.464  1.00  0.00    -0.237 OA
ATOM     70  O   UNL     1     -16.491  -6.526 -11.076  1.00  0.00    -0.744 OA
ENDBRANCH  63  67
ENDBRANCH  46  60
BRANCH  47  71
ATOM     71  C   UNL     1     -17.090  -5.206   3.478  1.00  0.00     0.023 A 
ATOM     72  C   UNL     1     -17.703  -6.202   4.255  1.00  0.00     0.031 A 
ATOM     73  C   UNL     1     -16.416  -4.169   4.147  1.00  0.00     0.131 A 
ATOM     74  C   UNL     1     -17.667  -6.118   5.655  1.00  0.00     0.055 A 
ATOM     75  C   UNL     1     -16.342  -4.116   5.540  1.00  0.00     0.041 A 
ATOM     76  F   UNL     1     -15.806  -3.196   3.450  1.00  0.00    -0.206 F 
ATOM     77  C   UNL     1     -16.981  -5.088   6.303  1.00  0.00     0.022 A 
BRANCH  74  78
ATOM     78  S   UNL     1     -18.598  -7.338   6.622  1.00  0.00     0.124 S 
ATOM     79  O   UNL     1     -19.953  -7.148   6.117  1.00  0.00    -0.237 OA
ATOM     80  O   UNL     1     -17.941  -8.586   6.246  1.00  0.00    -0.237 OA
ATOM     81  O   UNL     1     -18.381  -6.914   8.004  1.00  0.00    -0.744 OA
ENDBRANCH  74  78
ENDBRANCH  47  71
BRANCH  59  82
ATOM     82  C   UNL     1     -22.407  -4.521  -0.976  1.00  0.00     0.023 A 
ATOM     83  C   UNL     1     -22.968  -3.361  -0.414  1.00  0.00     0.031 A 
ATOM     84  C   UNL     1     -23.272  -5.569  -1.339  1.00  0.00     0.131 A 
ATOM     85  C   UNL     1     -24.351  -3.295  -0.188  1.00  0.00     0.055 A 
ATOM     86  C   UNL     1     -24.652  -5.475  -1.161  1.00  0.00     0.041 A 
ATOM     87  F   UNL     1     -22.787  -6.698  -1.879  1.00  0.00    -0.206 F 
ATOM     88  C   UNL     1     -25.198  -4.338  -0.573  1.00  0.00     0.022 A 
BRANCH  85  89
ATOM     89  S   UNL     1     -25.024  -1.852   0.680  1.00  0.00     0.124 S 
ATOM     90  O   UNL     1     -24.337  -1.924   1.966  1.00  0.00    -0.237 OA
ATOM     91  O   UNL     1     -24.631  -0.750  -0.191  1.00  0.00    -0.237 OA
ATOM     92  O   UNL     1     -26.461  -2.120   0.729  1.00  0.00    -0.744 OA
ENDBRANCH  85  89
ENDBRANCH  59  82
ENDBRANCH  33  34
ENDBRANCH  25  28
ENDBRANCH  23  24
ENDBRANCH  22  23
ENDBRANCH   1  22
TORSDOF 19
