REMARK SMILES C=C[C@@H]1[C@@H](O)C[C@H]2[C@]3(CC[C@]4(C)[C@@H]([C@H](C)CCC=C(C)C)CC[C@]24C)C[C@]13CCC(=O)NCCCCNC(=O)c1ccc(-c2c3nc(c(-c4cc(S(=O)(=O)[O-])ccc4F)c4ccc([nH]4)c(-c4cc(S(=O)(=O)[O-])ccc4F)c4nc(c(-c5cc(S(=O)(=O)[O-])ccc5F)c5ccc2[nH]5)C=C4)C=C3)cc1
REMARK SMILES IDX 33 1 32 2 30 3 31 4 29 6 28 7 27 8 3 9 4 10 6 11 8 12 26 13
REMARK SMILES IDX 7 14 9 15 24 16 10 17 11 18 23 19 25 20 13 21 12 22 22 23
REMARK SMILES IDX 2 24 1 25 5 26 14 28 15 29 16 30 17 31 18 32 19 33 20 34
REMARK SMILES IDX 21 35 34 36 35 37 36 38 37 39 38 40 39 42 40 43 41 44 102 45
REMARK SMILES IDX 42 46 101 47 43 48 44 49 45 50 95 51 46 52 100 53 94 54
REMARK SMILES IDX 96 55 47 56 99 57 93 58 92 59 48 61 80 62 60 63 79 64 61 65
REMARK SMILES IDX 64 66 78 67 97 68 62 69 63 70 77 72 98 73 65 74 49 75 50 76
REMARK SMILES IDX 58 77 51 78 57 79 59 80 56 81 52 82 53 83 54 84 55 85 81 86
REMARK SMILES IDX 82 87 90 88 83 89 89 90 91 91 88 92 84 93 85 94 86 95 87 96
REMARK SMILES IDX 66 97 67 98 75 99 68 100 74 101 76 102 73 103 69 104 70 105
REMARK SMILES IDX 71 106 72 107
REMARK H PARENT 32 5 5 27 37 41 96 60 64 71
REMARK Flexibility Score: inf
ROOT
ATOM      1  C   UNL     1       1.784  -1.602   1.503  1.00  0.00     0.116 C 
ENDROOT
BRANCH   1   2
ATOM      2  N   UNL     1       2.065  -2.925   0.980  1.00  0.00    -0.356 N 
ATOM      3  C   UNL     1       1.357  -3.774   0.188  1.00  0.00     0.220 C 
ATOM      4  O   UNL     1       1.807  -4.919   0.065  1.00  0.00    -0.275 OA
ATOM      5  H   UNL     1       2.942  -3.279   1.252  1.00  0.00     0.163 HD
BRANCH   3   6
ATOM      6  C   UNL     1       0.164  -3.343  -0.656  1.00  0.00     0.100 C 
BRANCH   6   7
ATOM      7  C   UNL     1      -1.266  -3.285  -0.092  1.00  0.00     0.018 C 
BRANCH   7   8
ATOM      8  C   UNL     1      -1.639  -2.155   0.889  1.00  0.00    -0.014 C 
ATOM      9  C   UNL     1      -1.880  -0.747   0.215  1.00  0.00     0.047 C 
ATOM     10  C   UNL     1      -2.506   0.370   1.103  1.00  0.00     0.122 C 
ATOM     11  C   UNL     1      -2.653   0.065   2.577  1.00  0.00     0.037 C 
ATOM     12  C   UNL     1      -2.570  -2.454   2.133  1.00  0.00    -0.019 C 
ATOM     13  C   UNL     1      -1.103  -2.408   2.275  1.00  0.00     0.016 C 
ATOM     14  C   UNL     1      -3.338  -1.290   2.813  1.00  0.00     0.005 C 
ATOM     15  C   UNL     1      -3.173  -3.820   2.381  1.00  0.00     0.008 C 
ATOM     16  C   UNL     1      -3.639  -1.556   4.365  1.00  0.00    -0.023 C 
ATOM     17  C   UNL     1      -3.319  -4.075   3.881  1.00  0.00     0.008 C 
ATOM     18  C   UNL     1      -4.178  -3.027   4.599  1.00  0.00    -0.024 C 
ATOM     19  C   UNL     1      -4.877  -0.718   4.824  1.00  0.00     0.008 C 
ATOM     20  C   UNL     1      -2.415  -1.169   5.231  1.00  0.00     0.012 C 
ATOM     21  C   UNL     1      -5.594  -2.881   3.960  1.00  0.00    -0.002 C 
ATOM     22  C   UNL     1      -4.254  -3.394   6.111  1.00  0.00     0.012 C 
ATOM     23  C   UNL     1      -6.132  -1.585   4.579  1.00  0.00     0.005 C 
BRANCH   9  24
ATOM     24  C   UNL     1      -0.783  -0.205  -0.707  1.00  0.00    -0.028 C 
ATOM     25  C   UNL     1      -0.145   0.976  -0.726  1.00  0.00     0.004 C 
ENDBRANCH   9  24
BRANCH  10  26
ATOM     26  O   UNL     1      -3.803   0.721   0.589  1.00  0.00    -0.392 OA
ATOM     27  H   UNL     1      -4.398  -0.041   0.666  1.00  0.00     0.210 HD
ENDBRANCH  10  26
BRANCH  21  28
ATOM     28  C   UNL     1      -6.540  -4.081   3.708  1.00  0.00    -0.010 C 
ATOM     29  C   UNL     1      -7.833  -3.558   3.067  1.00  0.00     0.008 C 
BRANCH  28  30
ATOM     30  C   UNL     1      -6.684  -5.167   4.797  1.00  0.00     0.008 C 
BRANCH  30  31
ATOM     31  C   UNL     1      -8.047  -5.399   5.459  1.00  0.00     0.027 C 
BRANCH  31  32
ATOM     32  C   UNL     1      -9.006  -6.140   4.568  1.00  0.00    -0.028 C 
ATOM     33  C   UNL     1      -9.588  -7.334   4.780  1.00  0.00    -0.080 C 
ATOM     34  C   UNL     1     -10.471  -7.937   3.721  1.00  0.00     0.039 C 
ATOM     35  C   UNL     1      -9.417  -8.136   6.035  1.00  0.00     0.039 C 
ENDBRANCH  31  32
ENDBRANCH  30  31
ENDBRANCH  28  30
ENDBRANCH  21  28
ENDBRANCH   7   8
ENDBRANCH   6   7
ENDBRANCH   3   6
ENDBRANCH   1   2
BRANCH   1  36
ATOM     36  C   UNL     1       1.636  -1.661   3.030  1.00  0.00     0.023 C 
BRANCH  36  37
ATOM     37  C   UNL     1       2.834  -1.264   3.855  1.00  0.00     0.023 C 
BRANCH  37  38
ATOM     38  C   UNL     1       3.124   0.224   3.773  1.00  0.00     0.116 C 
BRANCH  38  39
ATOM     39  N   UNL     1       2.026   1.099   4.207  1.00  0.00    -0.352 N 
ATOM     40  C   UNL     1       2.078   2.169   5.075  1.00  0.00     0.251 C 
ATOM     41  H   UNL     1       1.140   0.895   3.829  1.00  0.00     0.163 HD
ATOM     42  O   UNL     1       1.067   2.793   5.381  1.00  0.00    -0.269 OA
BRANCH  40  43
ATOM     43  C   UNL     1       3.389   2.496   5.661  1.00  0.00     0.039 A 
ATOM     44  C   UNL     1       3.556   2.410   7.043  1.00  0.00     0.014 A 
ATOM     45  C   UNL     1       4.483   2.615   4.805  1.00  0.00     0.014 A 
ATOM     46  C   UNL     1       4.848   2.311   7.560  1.00  0.00     0.010 A 
ATOM     47  C   UNL     1       5.747   2.361   5.310  1.00  0.00     0.010 A 
ATOM     48  C   UNL     1       5.948   2.208   6.692  1.00  0.00    -0.014 A 
BRANCH  48  49
ATOM     49  C   UNL     1       7.328   1.960   7.191  1.00  0.00     0.031 A 
ATOM     50  C   UNL     1       8.421   2.925   6.809  1.00  0.00     0.074 A 
ATOM     51  C   UNL     1       7.616   0.839   7.886  1.00  0.00     0.049 A 
ATOM     52  N   UNL     1       9.711   2.832   6.995  1.00  0.00    -0.248 NA
ATOM     53  C   UNL     1       8.011   4.125   6.059  1.00  0.00     0.031 C 
ATOM     54  C   UNL     1       6.660  -0.213   8.249  1.00  0.00     0.029 A 
ATOM     55  N   UNL     1       8.804   0.389   8.408  1.00  0.00    -0.354 N 
ATOM     56  C   UNL     1      10.263   3.931   6.344  1.00  0.00     0.074 A 
ATOM     57  C   UNL     1       9.178   4.627   5.692  1.00  0.00     0.031 C 
ATOM     58  C   UNL     1       7.291  -1.157   8.968  1.00  0.00     0.029 A 
ATOM     59  C   UNL     1       8.703  -0.810   9.080  1.00  0.00     0.049 A 
ATOM     60  H   UNL     1       9.652   0.879   8.311  1.00  0.00     0.167 HD
ATOM     61  C   UNL     1      11.551   4.346   6.327  1.00  0.00     0.034 A 
ATOM     62  C   UNL     1       9.645  -1.541   9.710  1.00  0.00     0.034 A 
ATOM     63  C   UNL     1      12.604   3.687   7.052  1.00  0.00     0.049 A 
ATOM     64  C   UNL     1      11.064  -1.024   9.727  1.00  0.00     0.074 A 
ATOM     65  C   UNL     1      13.925   4.071   7.191  1.00  0.00     0.029 A 
ATOM     66  N   UNL     1      12.449   2.511   7.774  1.00  0.00    -0.354 N 
ATOM     67  N   UNL     1      11.555   0.058   9.165  1.00  0.00    -0.248 NA
ATOM     68  C   UNL     1      12.052  -1.814  10.472  1.00  0.00     0.031 C 
ATOM     69  C   UNL     1      14.581   3.102   7.956  1.00  0.00     0.029 A 
ATOM     70  C   UNL     1      13.655   2.147   8.348  1.00  0.00     0.049 A 
ATOM     71  H   UNL     1      11.607   2.011   7.865  1.00  0.00     0.167 HD
ATOM     72  C   UNL     1      12.900   0.093   9.523  1.00  0.00     0.074 A 
ATOM     73  C   UNL     1      13.137  -1.063  10.362  1.00  0.00     0.031 C 
ATOM     74  C   UNL     1      13.858   0.995   9.191  1.00  0.00     0.034 A 
BRANCH  61  75
ATOM     75  C   UNL     1      11.880   5.567   5.504  1.00  0.00     0.023 A 
ATOM     76  C   UNL     1      11.333   6.828   5.800  1.00  0.00     0.031 A 
ATOM     77  C   UNL     1      12.732   5.463   4.391  1.00  0.00     0.131 A 
ATOM     78  C   UNL     1      11.581   7.915   4.950  1.00  0.00     0.055 A 
ATOM     79  C   UNL     1      13.043   6.569   3.598  1.00  0.00     0.041 A 
ATOM     80  F   UNL     1      13.266   4.280   4.047  1.00  0.00    -0.206 F 
ATOM     81  C   UNL     1      12.455   7.802   3.867  1.00  0.00     0.022 A 
BRANCH  78  82
ATOM     82  S   UNL     1      10.644   9.446   5.208  1.00  0.00     0.124 S 
ATOM     83  O   UNL     1       9.276   8.996   4.959  1.00  0.00    -0.237 OA
ATOM     84  O   UNL     1      10.962   9.784   6.590  1.00  0.00    -0.237 OA
ATOM     85  O   UNL     1      11.188  10.354   4.202  1.00  0.00    -0.744 OA
ENDBRANCH  78  82
ENDBRANCH  61  75
BRANCH  62  86
ATOM     86  C   UNL     1       9.304  -2.831  10.383  1.00  0.00     0.023 A 
ATOM     87  C   UNL     1       9.472  -2.988  11.769  1.00  0.00     0.031 A 
ATOM     88  C   UNL     1       8.883  -3.951   9.644  1.00  0.00     0.131 A 
ATOM     89  C   UNL     1       9.289  -4.248  12.363  1.00  0.00     0.055 A 
ATOM     90  C   UNL     1       8.644  -5.188  10.248  1.00  0.00     0.041 A 
ATOM     91  F   UNL     1       8.699  -3.859   8.317  1.00  0.00    -0.206 F 
ATOM     92  C   UNL     1       8.865  -5.346  11.613  1.00  0.00     0.022 A 
BRANCH  89  93
ATOM     93  S   UNL     1       9.731  -4.456  14.111  1.00  0.00     0.124 S 
ATOM     94  O   UNL     1      11.110  -3.982  14.127  1.00  0.00    -0.237 OA
ATOM     95  O   UNL     1       8.750  -3.603  14.773  1.00  0.00    -0.237 OA
ATOM     96  O   UNL     1       9.560  -5.890  14.335  1.00  0.00    -0.744 OA
ENDBRANCH  89  93
ENDBRANCH  62  86
BRANCH  74  97
ATOM     97  C   UNL     1      15.227   0.792   9.787  1.00  0.00     0.023 A 
ATOM     98  C   UNL     1      16.038  -0.292   9.417  1.00  0.00     0.031 A 
ATOM     99  C   UNL     1      15.722   1.702  10.738  1.00  0.00     0.131 A 
ATOM    100  C   UNL     1      17.283  -0.473  10.036  1.00  0.00     0.055 A 
ATOM    101  C   UNL     1      16.986   1.550  11.306  1.00  0.00     0.041 A 
ATOM    102  F   UNL     1      14.986   2.756  11.123  1.00  0.00    -0.206 F 
ATOM    103  C   UNL     1      17.770   0.451  10.966  1.00  0.00     0.022 A 
BRANCH 100 104
ATOM    104  S   UNL     1      18.224  -1.978   9.670  1.00  0.00     0.124 S 
ATOM    105  O   UNL     1      17.293  -3.025  10.078  1.00  0.00    -0.237 OA
ATOM    106  O   UNL     1      18.460  -1.858   8.235  1.00  0.00    -0.237 OA
ATOM    107  O   UNL     1      19.417  -1.849  10.506  1.00  0.00    -0.744 OA
ENDBRANCH 100 104
ENDBRANCH  74  97
ENDBRANCH  48  49
ENDBRANCH  40  43
ENDBRANCH  38  39
ENDBRANCH  37  38
ENDBRANCH  36  37
ENDBRANCH   1  36
TORSDOF 22
