REMARK SMILES COc1ccc(C(=O)C2=C(NCCCCNC(=O)c3ccc(-c4c5nc(c(-c6cc(S(=O)(=O)[O-])ccc6F)c6ccc([nH]6)c(-c6cc(S(=O)(=O)[O-])ccc6F)c6nc(c(-c7cc(S(=O)(=O)[O-])ccc7F)c7ccc4[nH]7)C=C6)C=C5)cc3)C(=O)N(CC(=O)[O-])[C@H]2c2ccccc2)cc1
REMARK SMILES IDX 13 1 12 2 11 3 10 5 9 6 89 7 82 8 84 9 83 10 7 11 8 12 6 13
REMARK SMILES IDX 3 14 4 15 97 16 5 17 96 18 2 19 1 20 90 21 91 22 95 23 92 24
REMARK SMILES IDX 94 25 93 26 85 27 86 28 87 29 88 30 14 31 15 32 16 33 17 34
REMARK SMILES IDX 18 36 19 37 20 38 81 39 21 40 80 41 22 42 23 43 24 44 74 45
REMARK SMILES IDX 25 46 79 47 73 48 75 49 26 50 78 51 72 52 71 53 27 55 59 56
REMARK SMILES IDX 39 57 58 58 40 59 43 60 57 61 76 62 41 63 42 64 56 66 77 67
REMARK SMILES IDX 44 68 28 69 29 70 37 71 30 72 36 73 38 74 35 75 31 76 32 77
REMARK SMILES IDX 33 78 34 79 60 80 61 81 69 82 62 83 68 84 70 85 67 86 63 87
REMARK SMILES IDX 64 88 65 89 66 90 45 91 46 92 54 93 47 94 53 95 55 96 52 97
REMARK SMILES IDX 48 98 49 99 50 100 51 101
REMARK H PARENT 11 4 16 35 75 54 43 65
REMARK Flexibility Score: inf
ROOT
ATOM      1  C   UNL     1       0.620   6.964   2.465  1.00  0.00     0.023 C 
ENDROOT
BRANCH   1   2
ATOM      2  C   UNL     1       0.964   7.718   1.182  1.00  0.00     0.113 C 
BRANCH   2   3
ATOM      3  N   UNL     1       2.383   7.963   1.099  1.00  0.00    -0.380 N 
ATOM      4  H   UNL     1       2.736   8.580   1.780  1.00  0.00     0.160 HD
BRANCH   3   5
ATOM      5  C   UNL     1       3.317   7.475   0.225  1.00  0.00     0.110 C 
ATOM      6  C   UNL     1       3.355   6.599  -0.793  1.00  0.00     0.056 C 
ATOM      7  C   UNL     1       4.707   6.483  -1.432  1.00  0.00     0.153 C 
ATOM      8  C   UNL     1       4.705   8.059   0.267  1.00  0.00     0.271 C 
ATOM      9  N   UNL     1       5.400   7.604  -0.831  1.00  0.00    -0.320 N 
ATOM     10  O   UNL     1       5.116   8.802   1.147  1.00  0.00    -0.267 OA
BRANCH   6  11
ATOM     11  C   UNL     1       2.130   6.115  -1.461  1.00  0.00     0.193 C 
ATOM     12  O   UNL     1       1.509   6.872  -2.206  1.00  0.00    -0.289 OA
BRANCH  11  13
ATOM     13  C   UNL     1       1.616   4.735  -1.243  1.00  0.00     0.023 A 
ATOM     14  C   UNL     1       0.568   2.129  -0.963  1.00  0.00     0.118 A 
ATOM     15  C   UNL     1      -0.272   3.197  -1.277  1.00  0.00     0.047 A 
ATOM     16  C   UNL     1       1.931   2.364  -0.808  1.00  0.00     0.047 A 
ATOM     17  C   UNL     1       0.245   4.493  -1.415  1.00  0.00     0.016 A 
ATOM     18  C   UNL     1       2.446   3.657  -0.946  1.00  0.00     0.016 A 
BRANCH  14  19
ATOM     19  O   UNL     1      -0.028   0.901  -0.883  1.00  0.00    -0.497 OA
ATOM     20  C   UNL     1       0.651  -0.066  -0.087  1.00  0.00     0.278 C 
ENDBRANCH  14  19
ENDBRANCH  11  13
ENDBRANCH   6  11
BRANCH   7  21
ATOM     21  C   UNL     1       5.514   5.229  -1.081  1.00  0.00    -0.021 A 
ATOM     22  C   UNL     1       5.616   4.782   0.254  1.00  0.00     0.006 A 
ATOM     23  C   UNL     1       6.386   4.685  -2.038  1.00  0.00     0.006 A 
ATOM     24  C   UNL     1       6.606   3.878   0.630  1.00  0.00     0.000 A 
ATOM     25  C   UNL     1       7.394   3.800  -1.649  1.00  0.00     0.000 A 
ATOM     26  C   UNL     1       7.514   3.413  -0.316  1.00  0.00     0.000 A 
ENDBRANCH   7  21
BRANCH   9  27
ATOM     27  C   UNL     1       6.843   7.804  -0.955  1.00  0.00     0.173 C 
BRANCH  27  28
ATOM     28  C   UNL     1       7.322   9.210  -1.250  1.00  0.00     0.061 C 
ATOM     29  O   UNL     1       8.487   9.578  -1.177  1.00  0.00    -0.548 OA
ATOM     30  O   UNL     1       6.395  10.020  -1.793  1.00  0.00    -0.548 OA
ENDBRANCH  27  28
ENDBRANCH   9  27
ENDBRANCH   3   5
ENDBRANCH   2   3
ENDBRANCH   1   2
BRANCH   1  31
ATOM     31  C   UNL     1       0.880   7.734   3.763  1.00  0.00     0.023 C 
BRANCH  31  32
ATOM     32  C   UNL     1       0.252   9.122   3.838  1.00  0.00     0.116 C 
BRANCH  32  33
ATOM     33  N   UNL     1      -1.186   9.101   3.628  1.00  0.00    -0.352 N 
ATOM     34  C   UNL     1      -2.185   9.711   4.346  1.00  0.00     0.251 C 
ATOM     35  H   UNL     1      -1.489   8.570   2.856  1.00  0.00     0.163 HD
ATOM     36  O   UNL     1      -3.356   9.432   4.101  1.00  0.00    -0.269 OA
BRANCH  34  37
ATOM     37  C   UNL     1      -1.855  10.671   5.424  1.00  0.00     0.039 A 
ATOM     38  C   UNL     1      -2.606  10.642   6.601  1.00  0.00     0.014 A 
ATOM     39  C   UNL     1      -0.832  11.611   5.275  1.00  0.00     0.014 A 
ATOM     40  C   UNL     1      -2.305  11.527   7.639  1.00  0.00     0.010 A 
ATOM     41  C   UNL     1      -0.473  12.429   6.344  1.00  0.00     0.010 A 
ATOM     42  C   UNL     1      -1.220  12.413   7.531  1.00  0.00    -0.014 A 
BRANCH  42  43
ATOM     43  C   UNL     1      -0.901  13.363   8.632  1.00  0.00     0.031 A 
ATOM     44  C   UNL     1      -0.993  14.849   8.395  1.00  0.00     0.074 A 
ATOM     45  C   UNL     1      -0.528  12.891   9.839  1.00  0.00     0.049 A 
ATOM     46  N   UNL     1      -0.749  15.836   9.219  1.00  0.00    -0.248 NA
ATOM     47  C   UNL     1      -1.387  15.284   7.045  1.00  0.00     0.031 C 
ATOM     48  C   UNL     1      -0.361  11.476  10.179  1.00  0.00     0.029 A 
ATOM     49  N   UNL     1      -0.227  13.547  11.007  1.00  0.00    -0.354 N 
ATOM     50  C   UNL     1      -0.968  17.001   8.492  1.00  0.00     0.074 A 
ATOM     51  C   UNL     1      -1.276  16.599   7.137  1.00  0.00     0.031 C 
ATOM     52  C   UNL     1      -0.023  11.371  11.474  1.00  0.00     0.029 A 
ATOM     53  C   UNL     1       0.096  12.707  12.049  1.00  0.00     0.049 A 
ATOM     54  H   UNL     1      -0.240  14.528  11.091  1.00  0.00     0.167 HD
ATOM     55  C   UNL     1      -0.958  18.288   8.921  1.00  0.00     0.034 A 
ATOM     56  C   UNL     1       0.453  12.983  13.319  1.00  0.00     0.034 A 
ATOM     57  C   UNL     1      -0.654  18.678  10.275  1.00  0.00     0.049 A 
ATOM     58  C   UNL     1       0.497  14.428  13.759  1.00  0.00     0.074 A 
ATOM     59  C   UNL     1      -0.625  19.950  10.820  1.00  0.00     0.029 A 
ATOM     60  N   UNL     1      -0.327  17.800  11.300  1.00  0.00    -0.354 N 
ATOM     61  N   UNL     1       0.240  15.515  13.066  1.00  0.00    -0.248 NA
ATOM     62  C   UNL     1       0.858  14.682  15.160  1.00  0.00     0.031 C 
ATOM     63  C   UNL     1      -0.221  19.847  12.155  1.00  0.00     0.029 A 
ATOM     64  C   UNL     1      -0.078  18.505  12.468  1.00  0.00     0.049 A 
ATOM     65  H   UNL     1      -0.280  16.821  11.211  1.00  0.00     0.167 HD
ATOM     66  C   UNL     1       0.374  16.575  13.960  1.00  0.00     0.074 A 
ATOM     67  C   UNL     1       0.697  15.992  15.245  1.00  0.00     0.031 C 
ATOM     68  C   UNL     1       0.247  17.910  13.742  1.00  0.00     0.034 A 
BRANCH  55  69
ATOM     69  C   UNL     1      -1.287  19.360   7.910  1.00  0.00     0.023 A 
ATOM     70  C   UNL     1      -2.551  19.422   7.295  1.00  0.00     0.031 A 
ATOM     71  C   UNL     1      -0.334  20.327   7.548  1.00  0.00     0.131 A 
ATOM     72  C   UNL     1      -2.806  20.385   6.308  1.00  0.00     0.055 A 
ATOM     73  C   UNL     1      -0.621  21.334   6.624  1.00  0.00     0.041 A 
ATOM     74  F   UNL     1       0.898  20.306   8.083  1.00  0.00    -0.206 F 
ATOM     75  C   UNL     1      -1.859  21.360   5.989  1.00  0.00     0.022 A 
BRANCH  72  76
ATOM     76  S   UNL     1      -4.345  20.264   5.357  1.00  0.00     0.124 S 
ATOM     77  O   UNL     1      -4.203  18.950   4.734  1.00  0.00    -0.237 OA
ATOM     78  O   UNL     1      -5.366  20.373   6.392  1.00  0.00    -0.237 OA
ATOM     79  O   UNL     1      -4.267  21.395   4.435  1.00  0.00    -0.744 OA
ENDBRANCH  72  76
ENDBRANCH  55  69
BRANCH  56  80
ATOM     80  C   UNL     1       0.818  11.891  14.272  1.00  0.00     0.023 A 
ATOM     81  C   UNL     1       0.114  11.707  15.473  1.00  0.00     0.031 A 
ATOM     82  C   UNL     1       1.941  11.076  14.041  1.00  0.00     0.131 A 
ATOM     83  C   UNL     1       0.586  10.795  16.431  1.00  0.00     0.055 A 
ATOM     84  C   UNL     1       2.362  10.117  14.963  1.00  0.00     0.041 A 
ATOM     85  F   UNL     1       2.654  11.205  12.910  1.00  0.00    -0.206 F 
ATOM     86  C   UNL     1       1.696   9.988  16.178  1.00  0.00     0.022 A 
BRANCH  83  87
ATOM     87  S   UNL     1      -0.186  10.785  18.073  1.00  0.00     0.124 S 
ATOM     88  O   UNL     1      -0.062  12.184  18.466  1.00  0.00    -0.237 OA
ATOM     89  O   UNL     1      -1.535  10.321  17.771  1.00  0.00    -0.237 OA
ATOM     90  O   UNL     1       0.640   9.847  18.831  1.00  0.00    -0.744 OA
ENDBRANCH  83  87
ENDBRANCH  56  80
BRANCH  68  91
ATOM     91  C   UNL     1       0.412  18.816  14.940  1.00  0.00     0.023 A 
ATOM     92  C   UNL     1       1.627  18.898  15.644  1.00  0.00     0.031 A 
ATOM     93  C   UNL     1      -0.674  19.577  15.409  1.00  0.00     0.131 A 
ATOM     94  C   UNL     1       1.701  19.649  16.826  1.00  0.00     0.055 A 
ATOM     95  C   UNL     1      -0.570  20.387  16.541  1.00  0.00     0.041 A 
ATOM     96  F   UNL     1      -1.859  19.540  14.779  1.00  0.00    -0.206 F 
ATOM     97  C   UNL     1       0.616  20.410  17.268  1.00  0.00     0.022 A 
BRANCH  94  98
ATOM     98  S   UNL     1       3.189  19.503  17.853  1.00  0.00     0.124 S 
ATOM     99  O   UNL     1       3.258  18.064  18.084  1.00  0.00    -0.237 OA
ATOM    100  O   UNL     1       4.222  20.059  16.984  1.00  0.00    -0.237 OA
ATOM    101  O   UNL     1       2.872  20.307  19.032  1.00  0.00    -0.744 OA
ENDBRANCH  94  98
ENDBRANCH  68  91
ENDBRANCH  42  43
ENDBRANCH  34  37
ENDBRANCH  32  33
ENDBRANCH  31  32
ENDBRANCH   1  31
TORSDOF 20
