REMARK SMILES CS(=O)(=O)Nc1ccc(-c2cc(Cl)cc3c2O[C@H](C(F)(F)F)C(C(=O)NCCCCNC(=O)c2ccc(-c4c5nc(c(-c6cc(S(=O)(=O)[O-])ccc6F)c6ccc([nH]6)c(-c6cc(S(=O)(=O)[O-])ccc6F)c6nc(c(-c7cc(S(=O)(=O)[O-])ccc7F)c7ccc4[nH]7)C=C6)C=C5)cc2)=C3)cc1
REMARK SMILES IDX 28 1 27 2 26 3 24 4 25 5 23 7 10 8 11 9 16 10 12 11 15 12
REMARK SMILES IDX 17 13 13 14 14 15 97 16 18 17 9 18 6 19 7 20 99 21 8 22
REMARK SMILES IDX 98 23 5 24 2 26 1 27 3 28 4 29 19 30 20 31 21 32 22 33 29 34
REMARK SMILES IDX 30 35 31 36 32 37 33 39 34 40 35 41 96 42 36 43 95 44 37 45
REMARK SMILES IDX 38 46 39 47 89 48 40 49 94 50 88 51 90 52 41 53 93 54 87 55
REMARK SMILES IDX 86 56 42 58 74 59 54 60 73 61 55 62 58 63 72 64 91 65 56 66
REMARK SMILES IDX 57 67 71 69 92 70 59 71 43 72 44 73 52 74 45 75 51 76 53 77
REMARK SMILES IDX 50 78 46 79 47 80 48 81 49 82 75 83 76 84 84 85 77 86 83 87
REMARK SMILES IDX 85 88 82 89 78 90 79 91 80 92 81 93 60 94 61 95 69 96 62 97
REMARK SMILES IDX 68 98 70 99 67 100 63 101 64 102 65 103 66 104
REMARK H PARENT 26 6 5 25 31 38 90 57 58 68
REMARK Flexibility Score: inf
ROOT
ATOM      1  C   UNL     1      10.790  -7.244  -8.087  1.00  0.00     0.023 C 
ENDROOT
BRANCH   1   2
ATOM      2  C   UNL     1      10.339  -5.858  -7.605  1.00  0.00     0.116 C 
BRANCH   2   3
ATOM      3  N   UNL     1       8.906  -5.728  -7.766  1.00  0.00    -0.352 N 
ATOM      4  C   UNL     1       7.982  -5.315  -6.868  1.00  0.00     0.251 C 
ATOM      5  O   UNL     1       6.858  -5.805  -6.912  1.00  0.00    -0.270 OA
ATOM      6  H   UNL     1       8.555  -5.975  -8.652  1.00  0.00     0.163 HD
BRANCH   4   7
ATOM      7  C   UNL     1       8.339  -4.201  -5.937  1.00  0.00     0.067 C 
ATOM      8  C   UNL     1       4.861  -4.014  -3.820  1.00  0.00     0.026 A 
ATOM      9  C   UNL     1       3.808  -4.076  -4.772  1.00  0.00     0.033 A 
ATOM     10  C   UNL     1       6.146  -3.770  -4.336  1.00  0.00     0.135 A 
ATOM     11  C   UNL     1       3.981  -3.739  -6.112  1.00  0.00     0.042 A 
ATOM     12  C   UNL     1       6.278  -3.311  -5.672  1.00  0.00     0.019 A 
ATOM     13  O   UNL     1       7.311  -4.019  -3.625  1.00  0.00    -0.475 OA
ATOM     14  Cl  UNL     1       2.658  -3.871  -7.200  1.00  0.00    -0.084 Cl
ATOM     15  C   UNL     1       5.202  -3.276  -6.554  1.00  0.00     0.032 A 
ATOM     16  C   UNL     1       7.644  -3.073  -6.189  1.00  0.00     0.025 C 
ATOM     17  C   UNL     1       8.410  -4.597  -4.465  1.00  0.00     0.314 C 
BRANCH   8  18
ATOM     18  C   UNL     1       4.404  -3.986  -2.400  1.00  0.00    -0.014 A 
ATOM     19  C   UNL     1       2.503  -3.248  -0.412  1.00  0.00     0.048 A 
ATOM     20  C   UNL     1       2.461  -4.511  -1.008  1.00  0.00     0.027 A 
ATOM     21  C   UNL     1       3.603  -2.435  -0.672  1.00  0.00     0.027 A 
ATOM     22  C   UNL     1       3.416  -4.891  -1.964  1.00  0.00     0.011 A 
ATOM     23  C   UNL     1       4.548  -2.803  -1.654  1.00  0.00     0.011 A 
BRANCH  19  24
ATOM     24  N   UNL     1       1.326  -2.833   0.275  1.00  0.00    -0.284 N 
ATOM     25  H   UNL     1       0.588  -3.485   0.301  1.00  0.00     0.180 HD
BRANCH  24  26
ATOM     26  S   UNL     1       1.046  -1.385   1.037  1.00  0.00     0.229 S 
ATOM     27  C   UNL     1       0.967  -0.194  -0.292  1.00  0.00     0.183 C 
ATOM     28  O   UNL     1       2.165  -1.061   1.895  1.00  0.00    -0.207 OA
ATOM     29  O   UNL     1      -0.293  -1.501   1.577  1.00  0.00    -0.207 OA
ENDBRANCH  24  26
ENDBRANCH  19  24
ENDBRANCH   8  18
BRANCH  17  30
ATOM     30  C   UNL     1       9.803  -4.203  -3.925  1.00  0.00     0.429 C 
ATOM     31  F   UNL     1       9.751  -3.179  -3.044  1.00  0.00    -0.167 F 
ATOM     32  F   UNL     1      10.400  -5.248  -3.303  1.00  0.00    -0.167 F 
ATOM     33  F   UNL     1      10.655  -3.816  -4.912  1.00  0.00    -0.167 F 
ENDBRANCH  17  30
ENDBRANCH   4   7
ENDBRANCH   2   3
ENDBRANCH   1   2
BRANCH   1  34
ATOM     34  C   UNL     1      10.498  -7.552  -9.563  1.00  0.00     0.023 C 
BRANCH  34  35
ATOM     35  C   UNL     1      11.067  -6.544 -10.556  1.00  0.00     0.116 C 
BRANCH  35  36
ATOM     36  N   UNL     1      12.520  -6.529 -10.538  1.00  0.00    -0.352 N 
ATOM     37  C   UNL     1      13.402  -6.756 -11.567  1.00  0.00     0.251 C 
ATOM     38  H   UNL     1      12.930  -6.328  -9.666  1.00  0.00     0.163 HD
ATOM     39  O   UNL     1      14.594  -6.913 -11.319  1.00  0.00    -0.269 OA
BRANCH  37  40
ATOM     40  C   UNL     1      12.909  -6.840 -12.961  1.00  0.00     0.039 A 
ATOM     41  C   UNL     1      13.374  -7.869 -13.783  1.00  0.00     0.014 A 
ATOM     42  C   UNL     1      11.989  -5.911 -13.454  1.00  0.00     0.014 A 
ATOM     43  C   UNL     1      12.864  -8.006 -15.077  1.00  0.00     0.010 A 
ATOM     44  C   UNL     1      11.427  -6.094 -14.716  1.00  0.00     0.010 A 
ATOM     45  C   UNL     1      11.857  -7.145 -15.542  1.00  0.00    -0.014 A 
BRANCH  45  46
ATOM     46  C   UNL     1      11.239  -7.332 -16.884  1.00  0.00     0.031 A 
ATOM     47  C   UNL     1      11.367  -6.259 -17.933  1.00  0.00     0.074 A 
ATOM     48  C   UNL     1      10.506  -8.436 -17.133  1.00  0.00     0.049 A 
ATOM     49  N   UNL     1      10.835  -6.200 -19.126  1.00  0.00    -0.248 NA
ATOM     50  C   UNL     1      12.178  -5.083 -17.580  1.00  0.00     0.031 C 
ATOM     51  C   UNL     1      10.273  -9.527 -16.183  1.00  0.00     0.029 A 
ATOM     52  N   UNL     1       9.810  -8.823 -18.253  1.00  0.00    -0.354 N 
ATOM     53  C   UNL     1      11.228  -4.977 -19.660  1.00  0.00     0.074 A 
ATOM     54  C   UNL     1      12.000  -4.304 -18.637  1.00  0.00     0.031 C 
ATOM     55  C   UNL     1       9.507 -10.464 -16.766  1.00  0.00     0.029 A 
ATOM     56  C   UNL     1       9.149 -10.022 -18.110  1.00  0.00     0.049 A 
ATOM     57  H   UNL     1       9.787  -8.291 -19.081  1.00  0.00     0.167 HD
ATOM     58  C   UNL     1      10.981  -4.471 -20.894  1.00  0.00     0.034 A 
ATOM     59  C   UNL     1       8.331 -10.682 -18.955  1.00  0.00     0.034 A 
ATOM     60  C   UNL     1      10.225  -5.165 -21.908  1.00  0.00     0.049 A 
ATOM     61  C   UNL     1       8.058 -10.089 -20.316  1.00  0.00     0.074 A 
ATOM     62  C   UNL     1       9.983  -4.778 -23.215  1.00  0.00     0.029 A 
ATOM     63  N   UNL     1       9.577  -6.381 -21.730  1.00  0.00    -0.354 N 
ATOM     64  N   UNL     1       8.497  -8.962 -20.828  1.00  0.00    -0.248 NA
ATOM     65  C   UNL     1       7.191 -10.860 -21.216  1.00  0.00     0.031 C 
ATOM     66  C   UNL     1       9.123  -5.714 -23.798  1.00  0.00     0.029 A 
ATOM     67  C   UNL     1       8.902  -6.735 -22.888  1.00  0.00     0.049 A 
ATOM     68  H   UNL     1       9.595  -6.913 -20.902  1.00  0.00     0.167 HD
ATOM     69  C   UNL     1       7.985  -8.909 -22.123  1.00  0.00     0.074 A 
ATOM     70  C   UNL     1       7.221 -10.124 -22.316  1.00  0.00     0.031 C 
ATOM     71  C   UNL     1       8.136  -7.947 -23.068  1.00  0.00     0.034 A 
BRANCH  58  72
ATOM     72  C   UNL     1      11.505  -3.089 -21.205  1.00  0.00     0.023 A 
ATOM     73  C   UNL     1      12.881  -2.800 -21.224  1.00  0.00     0.031 A 
ATOM     74  C   UNL     1      10.611  -2.040 -21.487  1.00  0.00     0.131 A 
ATOM     75  C   UNL     1      13.319  -1.486 -21.452  1.00  0.00     0.055 A 
ATOM     76  C   UNL     1      11.056  -0.753 -21.794  1.00  0.00     0.041 A 
ATOM     77  F   UNL     1       9.285  -2.248 -21.462  1.00  0.00    -0.206 F 
ATOM     78  C   UNL     1      12.418  -0.467 -21.764  1.00  0.00     0.022 A 
BRANCH  75  79
ATOM     79  S   UNL     1      15.073  -1.101 -21.201  1.00  0.00     0.124 S 
ATOM     80  O   UNL     1      15.263  -1.485 -19.804  1.00  0.00    -0.237 OA
ATOM     81  O   UNL     1      15.727  -1.949 -22.191  1.00  0.00    -0.237 OA
ATOM     82  O   UNL     1      15.150   0.335 -21.460  1.00  0.00    -0.744 OA
ENDBRANCH  75  79
ENDBRANCH  58  72
BRANCH  59  83
ATOM     83  C   UNL     1       7.683 -11.963 -18.542  1.00  0.00     0.023 A 
ATOM     84  C   UNL     1       7.939 -13.162 -19.227  1.00  0.00     0.031 A 
ATOM     85  C   UNL     1       6.749 -11.995 -17.491  1.00  0.00     0.131 A 
ATOM     86  C   UNL     1       7.228 -14.325 -18.893  1.00  0.00     0.055 A 
ATOM     87  C   UNL     1       6.090 -13.169 -17.121  1.00  0.00     0.041 A 
ATOM     88  F   UNL     1       6.465 -10.879 -16.799  1.00  0.00    -0.206 F 
ATOM     89  C   UNL     1       6.316 -14.341 -17.836  1.00  0.00     0.022 A 
BRANCH  86  90
ATOM     90  S   UNL     1       7.430 -15.795 -19.937  1.00  0.00     0.124 S 
ATOM     91  O   UNL     1       7.072 -15.276 -21.252  1.00  0.00    -0.237 OA
ATOM     92  O   UNL     1       8.838 -16.118 -19.736  1.00  0.00    -0.237 OA
ATOM     93  O   UNL     1       6.484 -16.751 -19.364  1.00  0.00    -0.744 OA
ENDBRANCH  86  90
ENDBRANCH  59  83
BRANCH  71  94
ATOM     94  C   UNL     1       7.503  -8.197 -24.416  1.00  0.00     0.023 A 
ATOM     95  C   UNL     1       6.109  -8.264 -24.581  1.00  0.00     0.031 A 
ATOM     96  C   UNL     1       8.312  -8.375 -25.553  1.00  0.00     0.131 A 
ATOM     97  C   UNL     1       5.568  -8.560 -25.843  1.00  0.00     0.055 A 
ATOM     98  C   UNL     1       7.767  -8.601 -26.817  1.00  0.00     0.041 A 
ATOM     99  F   UNL     1       9.650  -8.325 -25.454  1.00  0.00    -0.206 F 
ATOM    100  C   UNL     1       6.387  -8.709 -26.965  1.00  0.00     0.022 A 
BRANCH  97 101
ATOM    101  S   UNL     1       3.782  -8.843 -25.981  1.00  0.00     0.124 S 
ATOM    102  O   UNL     1       3.578  -9.950 -25.053  1.00  0.00    -0.237 OA
ATOM    103  O   UNL     1       3.229  -7.556 -25.569  1.00  0.00    -0.237 OA
ATOM    104  O   UNL     1       3.595  -9.174 -27.392  1.00  0.00    -0.744 OA
ENDBRANCH  97 101
ENDBRANCH  71  94
ENDBRANCH  45  46
ENDBRANCH  37  40
ENDBRANCH  35  36
ENDBRANCH  34  35
ENDBRANCH   1  34
TORSDOF 18
