REMARK SMILES C[C@H]1C[C@H](C)CN(S(=O)(=O)N[C@@H](CCC(N)=O)C(=O)NCCCCNC(=O)c2ccc(-c3c4nc(c(-c5cc(S(=O)(=O)[O-])ccc5F)c5ccc([nH]5)c(-c5cc(S(=O)(=O)[O-])ccc5F)c5nc(c(-c6cc(S(=O)(=O)[O-])ccc6F)c6ccc3[nH]6)C=C5)C=C4)cc2)C1
REMARK SMILES IDX 22 1 21 2 20 3 18 4 19 5 12 7 11 8 8 10 9 11 10 12 7 13 1 14
REMARK SMILES IDX 2 15 3 16 91 17 4 18 5 19 6 20 13 21 14 22 15 23 16 24 17 25
REMARK SMILES IDX 23 28 24 29 25 30 26 31 27 33 28 34 29 35 90 36 30 37 89 38
REMARK SMILES IDX 31 39 32 40 33 41 83 42 34 43 88 44 82 45 84 46 35 47 87 48
REMARK SMILES IDX 81 49 80 50 36 52 68 53 48 54 67 55 49 56 52 57 66 58 85 59
REMARK SMILES IDX 50 60 51 61 65 63 86 64 53 65 37 66 38 67 46 68 39 69 45 70
REMARK SMILES IDX 47 71 44 72 40 73 41 74 42 75 43 76 69 77 70 78 78 79 71 80
REMARK SMILES IDX 77 81 79 82 76 83 72 84 73 85 74 86 75 87 54 88 55 89 63 90
REMARK SMILES IDX 56 91 62 92 64 93 61 94 57 95 58 96 59 97 60 98
REMARK H PARENT 20 6 11 9 16 26 16 27 25 32 84 51 52 62
REMARK Flexibility Score: inf
ROOT
ATOM      1  C   UNL     1      -7.893   1.874  -1.135  1.00  0.00     0.023 C 
ENDROOT
BRANCH   1   2
ATOM      2  C   UNL     1      -7.241   0.695  -0.422  1.00  0.00     0.116 C 
BRANCH   2   3
ATOM      3  N   UNL     1      -6.864  -0.364  -1.336  1.00  0.00    -0.355 N 
ATOM      4  C   UNL     1      -5.895  -1.313  -1.246  1.00  0.00     0.238 C 
ATOM      5  O   UNL     1      -5.802  -2.119  -2.178  1.00  0.00    -0.273 OA
ATOM      6  H   UNL     1      -7.400  -0.403  -2.161  1.00  0.00     0.163 HD
BRANCH   4   7
ATOM      7  C   UNL     1      -4.886  -1.353  -0.091  1.00  0.00     0.160 C 
BRANCH   7   8
ATOM      8  N   UNL     1      -4.244  -0.030   0.059  1.00  0.00    -0.190 NA
ATOM      9  H   UNL     1      -3.744   0.113  -0.819  1.00  0.00     0.143 HD
BRANCH   8  10
ATOM     10  S   UNL     1      -3.192   0.471   1.221  1.00  0.00     0.280 S 
ATOM     11  O   UNL     1      -3.643   0.021   2.517  1.00  0.00    -0.195 OA
ATOM     12  O   UNL     1      -2.990   1.877   0.968  1.00  0.00    -0.195 OA
BRANCH  10  13
ATOM     13  N   UNL     1      -1.708  -0.300   0.863  1.00  0.00    -0.188 NA
ATOM     14  C   UNL     1       1.743   0.015   2.591  1.00  0.00     0.009 C 
ATOM     15  C   UNL     1       0.738  -0.396   1.514  1.00  0.00     0.001 C 
ATOM     16  C   UNL     1       0.688  -1.922   1.421  1.00  0.00     0.009 C 
ATOM     17  C   UNL     1      -0.648   0.188   1.819  1.00  0.00     0.106 C 
ATOM     18  C   UNL     1      -0.375  -2.381   0.433  1.00  0.00     0.001 C 
ATOM     19  C   UNL     1      -0.000  -2.073  -1.022  1.00  0.00     0.009 C 
ATOM     20  C   UNL     1      -1.730  -1.784   0.814  1.00  0.00     0.106 C 
ENDBRANCH  10  13
ENDBRANCH   8  10
ENDBRANCH   7   8
BRANCH   7  21
ATOM     21  C   UNL     1      -5.318  -2.090   1.184  1.00  0.00     0.040 C 
BRANCH  21  22
ATOM     22  C   UNL     1      -6.634  -1.707   1.859  1.00  0.00     0.102 C 
BRANCH  22  23
ATOM     23  C   UNL     1      -7.830  -2.380   1.213  1.00  0.00     0.217 C 
ATOM     24  N   UNL     1      -9.035  -2.087   1.770  1.00  0.00    -0.370 N 
ATOM     25  O   UNL     1      -7.755  -3.150   0.264  1.00  0.00    -0.275 OA
ATOM     26  H   UNL     1      -9.087  -1.467   2.533  1.00  0.00     0.159 HD
ATOM     27  H   UNL     1      -9.856  -2.493   1.410  1.00  0.00     0.159 HD
ENDBRANCH  22  23
ENDBRANCH  21  22
ENDBRANCH   7  21
ENDBRANCH   4   7
ENDBRANCH   2   3
ENDBRANCH   1   2
BRANCH   1  28
ATOM     28  C   UNL     1      -9.174   1.526  -1.898  1.00  0.00     0.023 C 
BRANCH  28  29
ATOM     29  C   UNL     1     -10.204   0.729  -1.104  1.00  0.00     0.116 C 
BRANCH  29  30
ATOM     30  N   UNL     1     -10.670   1.444   0.076  1.00  0.00    -0.352 N 
ATOM     31  C   UNL     1     -11.930   1.913   0.364  1.00  0.00     0.251 C 
ATOM     32  H   UNL     1      -9.987   1.615   0.765  1.00  0.00     0.163 HD
ATOM     33  O   UNL     1     -12.105   2.655   1.325  1.00  0.00    -0.269 OA
BRANCH  31  34
ATOM     34  C   UNL     1     -13.057   1.536  -0.514  1.00  0.00     0.039 A 
ATOM     35  C   UNL     1     -13.897   2.534  -1.012  1.00  0.00     0.014 A 
ATOM     36  C   UNL     1     -13.247   0.202  -0.881  1.00  0.00     0.014 A 
ATOM     37  C   UNL     1     -14.881   2.201  -1.945  1.00  0.00     0.010 A 
ATOM     38  C   UNL     1     -14.168  -0.113  -1.875  1.00  0.00     0.010 A 
ATOM     39  C   UNL     1     -14.995   0.883  -2.419  1.00  0.00    -0.014 A 
BRANCH  39  40
ATOM     40  C   UNL     1     -15.968   0.522  -3.484  1.00  0.00     0.031 A 
ATOM     41  C   UNL     1     -17.055  -0.477  -3.201  1.00  0.00     0.074 A 
ATOM     42  C   UNL     1     -15.820   1.026  -4.725  1.00  0.00     0.049 A 
ATOM     43  N   UNL     1     -17.936  -0.998  -4.015  1.00  0.00    -0.248 NA
ATOM     44  C   UNL     1     -17.135  -0.985  -1.823  1.00  0.00     0.031 C 
ATOM     45  C   UNL     1     -14.773   1.964  -5.137  1.00  0.00     0.029 A 
ATOM     46  N   UNL     1     -16.538   0.807  -5.875  1.00  0.00    -0.354 N 
ATOM     47  C   UNL     1     -18.660  -1.912  -3.256  1.00  0.00     0.074 A 
ATOM     48  C   UNL     1     -18.067  -1.917  -1.935  1.00  0.00     0.031 C 
ATOM     49  C   UNL     1     -14.927   2.251  -6.439  1.00  0.00     0.029 A 
ATOM     50  C   UNL     1     -16.047   1.480  -6.970  1.00  0.00     0.049 A 
ATOM     51  H   UNL     1     -17.330   0.224  -5.913  1.00  0.00     0.167 HD
ATOM     52  C   UNL     1     -19.731  -2.659  -3.622  1.00  0.00     0.034 A 
ATOM     53  C   UNL     1     -16.434   1.461  -8.261  1.00  0.00     0.034 A 
ATOM     54  C   UNL     1     -20.308  -2.632  -4.945  1.00  0.00     0.049 A 
ATOM     55  C   UNL     1     -17.612   0.608  -8.657  1.00  0.00     0.074 A 
ATOM     56  C   UNL     1     -21.438  -3.285  -5.404  1.00  0.00     0.029 A 
ATOM     57  N   UNL     1     -19.789  -1.931  -6.027  1.00  0.00    -0.354 N 
ATOM     58  N   UNL     1     -18.335  -0.196  -7.911  1.00  0.00    -0.248 NA
ATOM     59  C   UNL     1     -18.033   0.668 -10.062  1.00  0.00     0.031 C 
ATOM     60  C   UNL     1     -21.550  -3.053  -6.779  1.00  0.00     0.029 A 
ATOM     61  C   UNL     1     -20.548  -2.175  -7.163  1.00  0.00     0.049 A 
ATOM     62  H   UNL     1     -18.997  -1.347  -5.993  1.00  0.00     0.167 HD
ATOM     63  C   UNL     1     -19.314  -0.719  -8.753  1.00  0.00     0.074 A 
ATOM     64  C   UNL     1     -19.093  -0.129 -10.058  1.00  0.00     0.031 C 
ATOM     65  C   UNL     1     -20.309  -1.597  -8.467  1.00  0.00     0.034 A 
BRANCH  52  66
ATOM     66  C   UNL     1     -20.311  -3.596  -2.584  1.00  0.00     0.023 A 
ATOM     67  C   UNL     1     -20.812  -3.126  -1.357  1.00  0.00     0.031 A 
ATOM     68  C   UNL     1     -20.311  -4.985  -2.801  1.00  0.00     0.131 A 
ATOM     69  C   UNL     1     -21.190  -4.036  -0.358  1.00  0.00     0.055 A 
ATOM     70  C   UNL     1     -20.785  -5.882  -1.841  1.00  0.00     0.041 A 
ATOM     71  F   UNL     1     -19.828  -5.500  -3.942  1.00  0.00    -0.206 F 
ATOM     72  C   UNL     1     -21.208  -5.410  -0.602  1.00  0.00     0.022 A 
BRANCH  69  73
ATOM     73  S   UNL     1     -21.472  -3.407   1.320  1.00  0.00     0.124 S 
ATOM     74  O   UNL     1     -20.209  -2.724   1.595  1.00  0.00    -0.237 OA
ATOM     75  O   UNL     1     -22.637  -2.549   1.144  1.00  0.00    -0.237 OA
ATOM     76  O   UNL     1     -21.699  -4.618   2.107  1.00  0.00    -0.744 OA
ENDBRANCH  69  73
ENDBRANCH  52  66
BRANCH  53  77
ATOM     77  C   UNL     1     -15.682   2.256  -9.274  1.00  0.00     0.023 A 
ATOM     78  C   UNL     1     -16.270   3.349  -9.931  1.00  0.00     0.031 A 
ATOM     79  C   UNL     1     -14.353   1.928  -9.599  1.00  0.00     0.131 A 
ATOM     80  C   UNL     1     -15.538   4.059 -10.897  1.00  0.00     0.055 A 
ATOM     81  C   UNL     1     -13.614   2.668 -10.523  1.00  0.00     0.041 A 
ATOM     82  F   UNL     1     -13.742   0.895  -8.996  1.00  0.00    -0.206 F 
ATOM     83  C   UNL     1     -14.210   3.736 -11.185  1.00  0.00     0.022 A 
BRANCH  80  84
ATOM     84  S   UNL     1     -16.367   5.384 -11.818  1.00  0.00     0.124 S 
ATOM     85  O   UNL     1     -17.452   4.659 -12.469  1.00  0.00    -0.237 OA
ATOM     86  O   UNL     1     -16.755   6.300 -10.751  1.00  0.00    -0.237 OA
ATOM     87  O   UNL     1     -15.323   5.881 -12.712  1.00  0.00    -0.744 OA
ENDBRANCH  80  84
ENDBRANCH  53  77
BRANCH  65  88
ATOM     88  C   UNL     1     -21.269  -1.943  -9.582  1.00  0.00     0.023 A 
ATOM     89  C   UNL     1     -20.864  -2.660 -10.721  1.00  0.00     0.031 A 
ATOM     90  C   UNL     1     -22.619  -1.556  -9.492  1.00  0.00     0.131 A 
ATOM     91  C   UNL     1     -21.788  -2.928 -11.744  1.00  0.00     0.055 A 
ATOM     92  C   UNL     1     -23.547  -1.881 -10.481  1.00  0.00     0.041 A 
ATOM     93  F   UNL     1     -23.062  -0.863  -8.430  1.00  0.00    -0.206 F 
ATOM     94  C   UNL     1     -23.131  -2.561 -11.621  1.00  0.00     0.022 A 
BRANCH  91  95
ATOM     95  S   UNL     1     -21.195  -3.685 -13.282  1.00  0.00     0.124 S 
ATOM     96  O   UNL     1     -20.198  -2.718 -13.730  1.00  0.00    -0.237 OA
ATOM     97  O   UNL     1     -20.676  -4.968 -12.819  1.00  0.00    -0.237 OA
ATOM     98  O   UNL     1     -22.396  -3.765 -14.111  1.00  0.00    -0.744 OA
ENDBRANCH  91  95
ENDBRANCH  65  88
ENDBRANCH  39  40
ENDBRANCH  31  34
ENDBRANCH  29  30
ENDBRANCH  28  29
ENDBRANCH   1  28
TORSDOF 20
