REMARK SMILES O=C(CCNC(=O)[C@H]1CCCN(S(=O)(=O)c2ccc(Cl)cc2)C1)NCCCCNC(=O)c1ccc(-c2c3nc(c(-c4cc(S(=O)(=O)[O-])ccc4F)c4ccc([nH]4)c(-c4cc(S(=O)(=O)[O-])ccc4F)c4nc(c(-c5cc(S(=O)(=O)[O-])ccc5F)c5ccc2[nH]5)C=C4)C=C3)cc1
REMARK SMILES IDX 25 1 24 2 1 3 2 4 3 6 4 7 5 8 6 9 7 11 8 12 9 13 23 14 10 15
REMARK SMILES IDX 12 16 11 17 13 18 14 19 15 20 16 21 17 22 22 23 18 24 21 25
REMARK SMILES IDX 19 26 20 27 26 28 27 29 28 30 29 31 30 32 31 34 32 35 33 36
REMARK SMILES IDX 94 37 34 38 93 39 35 40 36 41 37 42 87 43 38 44 92 45 86 46
REMARK SMILES IDX 88 47 39 48 91 49 85 50 84 51 40 53 72 54 52 55 71 56 53 57
REMARK SMILES IDX 56 58 70 59 89 60 54 61 55 62 69 64 90 65 57 66 41 67 42 68
REMARK SMILES IDX 50 69 43 70 49 71 51 72 48 73 44 74 45 75 46 76 47 77 73 78
REMARK SMILES IDX 74 79 82 80 75 81 81 82 83 83 80 84 76 85 77 86 78 87 79 88
REMARK SMILES IDX 58 89 59 90 67 91 60 92 66 93 68 94 65 95 61 96 62 97 63 98
REMARK SMILES IDX 64 99
REMARK H PARENT 24 5 5 10 29 33 88 52 56 63
REMARK Flexibility Score: inf
ROOT
ATOM      1  C   UNL     1      12.608  -2.611   5.108  1.00  0.00     0.116 C 
ENDROOT
BRANCH   1   2
ATOM      2  N   UNL     1      11.170  -2.668   4.938  1.00  0.00    -0.356 N 
ATOM      3  O   UNL     1      10.628  -1.761   6.983  1.00  0.00    -0.275 OA
ATOM      4  C   UNL     1      10.291  -2.225   5.900  1.00  0.00     0.221 C 
ATOM      5  H   UNL     1      10.808  -3.039   4.101  1.00  0.00     0.163 HD
BRANCH   4   6
ATOM      6  C   UNL     1       8.842  -2.323   5.486  1.00  0.00     0.121 C 
BRANCH   6   7
ATOM      7  C   UNL     1       8.449  -1.131   4.626  1.00  0.00     0.125 C 
BRANCH   7   8
ATOM      8  N   UNL     1       8.988  -1.221   3.271  1.00  0.00    -0.355 N 
ATOM      9  C   UNL     1       8.388  -1.294   2.051  1.00  0.00     0.224 C 
ATOM     10  H   UNL     1       9.972  -1.232   3.233  1.00  0.00     0.163 HD
ATOM     11  O   UNL     1       9.127  -1.404   1.071  1.00  0.00    -0.275 OA
BRANCH   9  12
ATOM     12  C   UNL     1       6.875  -1.250   1.887  1.00  0.00     0.093 C 
ATOM     13  C   UNL     1       6.218  -2.510   2.440  1.00  0.00     0.016 C 
ATOM     14  C   UNL     1       6.335   0.090   2.396  1.00  0.00     0.116 C 
ATOM     15  C   UNL     1       4.713  -2.340   2.487  1.00  0.00     0.018 C 
ATOM     16  N   UNL     1       4.884   0.118   2.792  1.00  0.00    -0.197 NA
ATOM     17  C   UNL     1       4.362  -1.152   3.362  1.00  0.00     0.102 C 
BRANCH  16  18
ATOM     18  S   UNL     1       4.574   1.504   3.788  1.00  0.00     0.243 S 
ATOM     19  O   UNL     1       4.949   1.154   5.142  1.00  0.00    -0.207 OA
ATOM     20  O   UNL     1       5.160   2.656   3.135  1.00  0.00    -0.207 OA
BRANCH  18  21
ATOM     21  C   UNL     1       2.808   1.709   3.749  1.00  0.00     0.082 A 
ATOM     22  C   UNL     1       2.004   0.975   4.629  1.00  0.00     0.023 A 
ATOM     23  C   UNL     1       2.247   2.698   2.933  1.00  0.00     0.023 A 
ATOM     24  C   UNL     1       0.625   1.190   4.647  1.00  0.00     0.022 A 
ATOM     25  C   UNL     1       0.870   2.926   2.974  1.00  0.00     0.022 A 
ATOM     26  C   UNL     1       0.064   2.166   3.822  1.00  0.00     0.041 A 
ATOM     27  Cl  UNL     1      -1.633   2.447   3.869  1.00  0.00    -0.084 Cl
ENDBRANCH  18  21
ENDBRANCH  16  18
ENDBRANCH   9  12
ENDBRANCH   7   8
ENDBRANCH   6   7
ENDBRANCH   4   6
ENDBRANCH   1   2
BRANCH   1  28
ATOM     28  C   UNL     1      13.281  -3.926   4.721  1.00  0.00     0.023 C 
BRANCH  28  29
ATOM     29  C   UNL     1      13.082  -4.355   3.264  1.00  0.00     0.023 C 
BRANCH  29  30
ATOM     30  C   UNL     1      13.549  -3.352   2.211  1.00  0.00     0.116 C 
BRANCH  30  31
ATOM     31  N   UNL     1      14.980  -3.107   2.274  1.00  0.00    -0.352 N 
ATOM     32  C   UNL     1      15.925  -3.180   1.277  1.00  0.00     0.251 C 
ATOM     33  H   UNL     1      15.324  -2.851   3.160  1.00  0.00     0.163 HD
ATOM     34  O   UNL     1      17.115  -3.104   1.572  1.00  0.00    -0.269 OA
BRANCH  32  35
ATOM     35  C   UNL     1      15.518  -3.381  -0.133  1.00  0.00     0.039 A 
ATOM     36  C   UNL     1      16.231  -4.295  -0.915  1.00  0.00     0.014 A 
ATOM     37  C   UNL     1      14.455  -2.667  -0.694  1.00  0.00     0.014 A 
ATOM     38  C   UNL     1      15.837  -4.543  -2.233  1.00  0.00     0.010 A 
ATOM     39  C   UNL     1      14.024  -2.960  -1.987  1.00  0.00     0.010 A 
ATOM     40  C   UNL     1      14.708  -3.904  -2.770  1.00  0.00    -0.014 A 
BRANCH  40  41
ATOM     41  C   UNL     1      14.226  -4.213  -4.143  1.00  0.00     0.031 A 
ATOM     42  C   UNL     1      14.250  -3.153  -5.212  1.00  0.00     0.074 A 
ATOM     43  C   UNL     1      13.705  -5.427  -4.410  1.00  0.00     0.049 A 
ATOM     44  N   UNL     1      13.792  -3.200  -6.437  1.00  0.00    -0.248 NA
ATOM     45  C   UNL     1      14.845  -1.861  -4.840  1.00  0.00     0.031 C 
ATOM     46  C   UNL     1      13.591  -6.527  -3.450  1.00  0.00     0.029 A 
ATOM     47  N   UNL     1      13.159  -5.936  -5.563  1.00  0.00    -0.354 N 
ATOM     48  C   UNL     1      14.032  -1.943  -6.981  1.00  0.00     0.074 A 
ATOM     49  C   UNL     1      14.625  -1.141  -5.930  1.00  0.00     0.031 C 
ATOM     50  C   UNL     1      13.023  -7.582  -4.056  1.00  0.00     0.029 A 
ATOM     51  C   UNL     1      12.693  -7.224  -5.432  1.00  0.00     0.049 A 
ATOM     52  H   UNL     1      13.106  -5.428  -6.404  1.00  0.00     0.167 HD
ATOM     53  C   UNL     1      13.797  -1.503  -8.243  1.00  0.00     0.034 A 
ATOM     54  C   UNL     1      12.056  -8.021  -6.313  1.00  0.00     0.034 A 
ATOM     55  C   UNL     1      13.210  -2.315  -9.282  1.00  0.00     0.049 A 
ATOM     56  C   UNL     1      11.787  -7.506  -7.704  1.00  0.00     0.074 A 
ATOM     57  C   UNL     1      12.972  -1.985 -10.606  1.00  0.00     0.029 A 
ATOM     58  N   UNL     1      12.761  -3.619  -9.115  1.00  0.00    -0.354 N 
ATOM     59  N   UNL     1      12.058  -6.327  -8.214  1.00  0.00    -0.248 NA
ATOM     60  C   UNL     1      11.137  -8.433  -8.639  1.00  0.00     0.031 C 
ATOM     61  C   UNL     1      12.327  -3.064 -11.221  1.00  0.00     0.029 A 
ATOM     62  C   UNL     1      12.225  -4.096 -10.302  1.00  0.00     0.049 A 
ATOM     63  H   UNL     1      12.815  -4.131  -8.276  1.00  0.00     0.167 HD
ATOM     64  C   UNL     1      11.636  -6.383  -9.540  1.00  0.00     0.074 A 
ATOM     65  C   UNL     1      11.106  -7.715  -9.751  1.00  0.00     0.031 C 
ATOM     66  C   UNL     1      11.686  -5.422 -10.497  1.00  0.00     0.034 A 
BRANCH  53  67
ATOM     67  C   UNL     1      14.154  -0.069  -8.553  1.00  0.00     0.023 A 
ATOM     68  C   UNL     1      15.482   0.390  -8.491  1.00  0.00     0.031 A 
ATOM     69  C   UNL     1      13.153   0.861  -8.886  1.00  0.00     0.131 A 
ATOM     70  C   UNL     1      15.764   1.751  -8.678  1.00  0.00     0.055 A 
ATOM     71  C   UNL     1      13.450   2.200  -9.151  1.00  0.00     0.041 A 
ATOM     72  F   UNL     1      11.865   0.487  -8.944  1.00  0.00    -0.206 F 
ATOM     73  C   UNL     1      14.760   2.655  -9.032  1.00  0.00     0.022 A 
BRANCH  70  74
ATOM     74  S   UNL     1      17.437   2.347  -8.312  1.00  0.00     0.124 S 
ATOM     75  O   UNL     1      17.581   1.977  -6.906  1.00  0.00    -0.237 OA
ATOM     76  O   UNL     1      18.254   1.596  -9.258  1.00  0.00    -0.237 OA
ATOM     77  O   UNL     1      17.352   3.784  -8.564  1.00  0.00    -0.744 OA
ENDBRANCH  70  74
ENDBRANCH  53  67
BRANCH  54  78
ATOM     78  C   UNL     1      11.609  -9.384  -5.908  1.00  0.00     0.023 A 
ATOM     79  C   UNL     1      12.171 -10.532  -6.489  1.00  0.00     0.031 A 
ATOM     80  C   UNL     1      10.585  -9.556  -4.960  1.00  0.00     0.131 A 
ATOM     81  C   UNL     1      11.675 -11.800  -6.149  1.00  0.00     0.055 A 
ATOM     82  C   UNL     1      10.129 -10.822  -4.589  1.00  0.00     0.041 A 
ATOM     83  F   UNL     1      10.019  -8.491  -4.370  1.00  0.00    -0.206 F 
ATOM     84  C   UNL     1      10.667 -11.954  -5.195  1.00  0.00     0.022 A 
BRANCH  81  85
ATOM     85  S   UNL     1      12.318 -13.249  -7.032  1.00  0.00     0.124 S 
ATOM     86  O   UNL     1      12.006 -12.916  -8.417  1.00  0.00    -0.237 OA
ATOM     87  O   UNL     1      13.730 -13.223  -6.667  1.00  0.00    -0.237 OA
ATOM     88  O   UNL     1      11.551 -14.358  -6.468  1.00  0.00    -0.744 OA
ENDBRANCH  81  85
ENDBRANCH  54  78
BRANCH  66  89
ATOM     89  C   UNL     1      11.192  -5.800 -11.872  1.00  0.00     0.023 A 
ATOM     90  C   UNL     1       9.835  -6.062 -12.124  1.00  0.00     0.031 A 
ATOM     91  C   UNL     1      12.100  -5.915 -12.940  1.00  0.00     0.131 A 
ATOM     92  C   UNL     1       9.430  -6.478 -13.402  1.00  0.00     0.055 A 
ATOM     93  C   UNL     1      11.683  -6.275 -14.222  1.00  0.00     0.041 A 
ATOM     94  F   UNL     1      13.408  -5.678 -12.753  1.00  0.00    -0.206 F 
ATOM     95  C   UNL     1      10.343  -6.571 -14.456  1.00  0.00     0.022 A 
BRANCH  92  96
ATOM     96  S   UNL     1       7.704  -6.977 -13.651  1.00  0.00     0.124 S 
ATOM     97  O   UNL     1       7.562  -8.069 -12.693  1.00  0.00    -0.237 OA
ATOM     98  O   UNL     1       6.975  -5.753 -13.335  1.00  0.00    -0.237 OA
ATOM     99  O   UNL     1       7.661  -7.377 -15.057  1.00  0.00    -0.744 OA
ENDBRANCH  92  96
ENDBRANCH  66  89
ENDBRANCH  40  41
ENDBRANCH  32  35
ENDBRANCH  30  31
ENDBRANCH  29  30
ENDBRANCH  28  29
ENDBRANCH   1  28
TORSDOF 19
