REMARK SMILES O=C(Cn1c(-c2nc(-c3ccc(C(F)(F)F)cc3)no2)cc2ccccc21)NCCCCNC(=O)c1ccc(-c2c3nc(c(-c4cc(S(=O)(=O)[O-])ccc4F)c4ccc([nH]4)c(-c4cc(S(=O)(=O)[O-])ccc4F)c4nc(c(-c5cc(S(=O)(=O)[O-])ccc5F)c5ccc2[nH]5)C=C4)C=C3)cc1
REMARK SMILES IDX 30 1 29 2 28 3 1 4 2 5 3 7 4 8 5 9 27 10 21 11 22 12 26 13
REMARK SMILES IDX 23 14 25 15 24 16 6 17 7 18 20 19 8 20 19 21 9 22 10 23
REMARK SMILES IDX 18 24 11 25 17 26 12 27 13 28 14 29 15 30 16 31 31 32 32 33
REMARK SMILES IDX 33 34 34 35 35 37 36 38 37 39 98 40 38 41 97 42 39 43 40 44
REMARK SMILES IDX 41 45 91 46 42 47 96 48 90 49 92 50 43 51 95 52 89 53 88 54
REMARK SMILES IDX 44 56 76 57 56 58 75 59 57 60 60 61 74 62 93 63 58 64 59 65
REMARK SMILES IDX 73 67 94 68 61 69 45 70 46 71 54 72 47 73 53 74 55 75 52 76
REMARK SMILES IDX 48 77 49 78 50 79 51 80 77 81 78 82 86 83 79 84 85 85 87 86
REMARK SMILES IDX 84 87 80 88 81 89 82 90 83 91 62 92 63 93 71 94 64 95 70 96
REMARK SMILES IDX 72 97 69 98 65 99 66 100 67 101 68 102
REMARK H PARENT 28 6 33 36 92 55 60 66
REMARK Flexibility Score: inf
ROOT
ATOM      1  C   UNL     1       2.721   0.669   3.698  1.00  0.00     0.023 C 
ENDROOT
BRANCH   1   2
ATOM      2  C   UNL     1       2.117   1.030   2.347  1.00  0.00     0.116 C 
BRANCH   2   3
ATOM      3  N   UNL     1       2.758   0.372   1.222  1.00  0.00    -0.355 N 
ATOM      4  O   UNL     1       0.794  -0.232   0.184  1.00  0.00    -0.273 OA
ATOM      5  C   UNL     1       2.019  -0.142   0.172  1.00  0.00     0.239 C 
ATOM      6  H   UNL     1       3.739   0.291   1.207  1.00  0.00     0.163 HD
BRANCH   5   7
ATOM      7  C   UNL     1       2.833  -0.639  -0.998  1.00  0.00     0.222 C 
BRANCH   7   8
ATOM      8  N   UNL     1       3.463   0.366  -1.862  1.00  0.00    -0.327 N 
ATOM      9  C   UNL     1       3.250   1.728  -1.946  1.00  0.00     0.109 A 
ATOM     10  C   UNL     1       4.502   0.011  -2.731  1.00  0.00     0.049 A 
ATOM     11  C   UNL     1       4.130   2.230  -2.887  1.00  0.00     0.042 A 
ATOM     12  C   UNL     1       4.942   1.177  -3.358  1.00  0.00     0.000 A 
ATOM     13  C   UNL     1       5.113  -1.230  -2.995  1.00  0.00     0.027 A 
ATOM     14  C   UNL     1       6.037   1.122  -4.243  1.00  0.00     0.010 A 
ATOM     15  C   UNL     1       6.200  -1.262  -3.878  1.00  0.00     0.002 A 
ATOM     16  C   UNL     1       6.662  -0.102  -4.490  1.00  0.00     0.001 A 
BRANCH   9  17
ATOM     17  C   UNL     1       2.456   2.557  -1.092  1.00  0.00     0.274 A 
ATOM     18  N   UNL     1       1.143   2.681  -1.071  1.00  0.00    -0.185 NA
ATOM     19  O   UNL     1       3.076   3.418  -0.230  1.00  0.00    -0.332 OA
ATOM     20  C   UNL     1       0.949   3.675  -0.121  1.00  0.00     0.202 A 
ATOM     21  N   UNL     1       2.093   4.144   0.402  1.00  0.00    -0.057 NA
BRANCH  20  22
ATOM     22  C   UNL     1      -0.347   4.204   0.311  1.00  0.00     0.023 A 
ATOM     23  C   UNL     1      -0.375   5.264   1.237  1.00  0.00     0.013 A 
ATOM     24  C   UNL     1      -1.568   3.693  -0.143  1.00  0.00     0.013 A 
ATOM     25  C   UNL     1      -1.577   5.792   1.709  1.00  0.00     0.014 A 
ATOM     26  C   UNL     1      -2.783   4.225   0.331  1.00  0.00     0.014 A 
ATOM     27  C   UNL     1      -2.798   5.276   1.265  1.00  0.00     0.056 A 
BRANCH  27  28
ATOM     28  C   UNL     1      -4.080   5.851   1.817  1.00  0.00     0.416 C 
ATOM     29  F   UNL     1      -4.207   5.653   3.159  1.00  0.00    -0.166 F 
ATOM     30  F   UNL     1      -4.167   7.200   1.633  1.00  0.00    -0.166 F 
ATOM     31  F   UNL     1      -5.205   5.330   1.254  1.00  0.00    -0.166 F 
ENDBRANCH  27  28
ENDBRANCH  20  22
ENDBRANCH   9  17
ENDBRANCH   7   8
ENDBRANCH   5   7
ENDBRANCH   2   3
ENDBRANCH   1   2
BRANCH   1  32
ATOM     32  C   UNL     1       4.201   1.021   3.889  1.00  0.00     0.023 C 
BRANCH  32  33
ATOM     33  C   UNL     1       4.600   2.462   3.561  1.00  0.00     0.116 C 
BRANCH  33  34
ATOM     34  N   UNL     1       3.870   3.480   4.288  1.00  0.00    -0.352 N 
ATOM     35  C   UNL     1       4.079   4.162   5.458  1.00  0.00     0.251 C 
ATOM     36  H   UNL     1       3.033   3.741   3.840  1.00  0.00     0.163 HD
ATOM     37  O   UNL     1       3.368   5.156   5.631  1.00  0.00    -0.269 OA
BRANCH  35  38
ATOM     38  C   UNL     1       5.016   3.751   6.542  1.00  0.00     0.039 A 
ATOM     39  C   UNL     1       5.905   2.680   6.482  1.00  0.00     0.014 A 
ATOM     40  C   UNL     1       4.911   4.466   7.754  1.00  0.00     0.014 A 
ATOM     41  C   UNL     1       6.564   2.254   7.631  1.00  0.00     0.010 A 
ATOM     42  C   UNL     1       5.586   4.056   8.901  1.00  0.00     0.010 A 
ATOM     43  C   UNL     1       6.367   2.910   8.852  1.00  0.00    -0.014 A 
BRANCH  43  44
ATOM     44  C   UNL     1       7.087   2.400  10.018  1.00  0.00     0.031 A 
ATOM     45  C   UNL     1       8.564   2.439   9.873  1.00  0.00     0.074 A 
ATOM     46  C   UNL     1       6.505   1.974  11.159  1.00  0.00     0.049 A 
ATOM     47  N   UNL     1       9.363   1.442   9.684  1.00  0.00    -0.248 NA
ATOM     48  C   UNL     1       9.210   3.754   9.755  1.00  0.00     0.031 C 
ATOM     49  C   UNL     1       5.114   2.180  11.575  1.00  0.00     0.029 A 
ATOM     50  N   UNL     1       7.056   1.341  12.240  1.00  0.00    -0.354 N 
ATOM     51  C   UNL     1      10.647   1.986   9.669  1.00  0.00     0.074 A 
ATOM     52  C   UNL     1      10.476   3.407   9.516  1.00  0.00     0.031 C 
ATOM     53  C   UNL     1       4.996   1.907  12.894  1.00  0.00     0.029 A 
ATOM     54  C   UNL     1       6.246   1.338  13.369  1.00  0.00     0.049 A 
ATOM     55  H   UNL     1       7.948   0.924  12.220  1.00  0.00     0.167 HD
ATOM     56  C   UNL     1      11.725   1.245  10.056  1.00  0.00     0.034 A 
ATOM     57  C   UNL     1       6.577   0.933  14.619  1.00  0.00     0.034 A 
ATOM     58  C   UNL     1      11.374  -0.143  10.180  1.00  0.00     0.049 A 
ATOM     59  C   UNL     1       7.733   0.018  14.538  1.00  0.00     0.074 A 
ATOM     60  C   UNL     1      11.260  -1.233   9.349  1.00  0.00     0.029 A 
ATOM     61  N   UNL     1      10.741  -0.447  11.354  1.00  0.00    -0.354 N 
ATOM     62  N   UNL     1       7.674  -1.172  14.011  1.00  0.00    -0.248 NA
ATOM     63  C   UNL     1       9.077   0.541  14.763  1.00  0.00     0.031 C 
ATOM     64  C   UNL     1      10.421  -2.163  10.027  1.00  0.00     0.029 A 
ATOM     65  C   UNL     1      10.075  -1.639  11.271  1.00  0.00     0.049 A 
ATOM     66  H   UNL     1      10.762   0.121  12.158  1.00  0.00     0.167 HD
ATOM     67  C   UNL     1       8.913  -1.332  13.430  1.00  0.00     0.074 A 
ATOM     68  C   UNL     1       9.783  -0.363  14.081  1.00  0.00     0.031 C 
ATOM     69  C   UNL     1       9.053  -1.979  12.240  1.00  0.00     0.034 A 
BRANCH  56  70
ATOM     70  C   UNL     1      12.949   1.797  10.759  1.00  0.00     0.023 A 
ATOM     71  C   UNL     1      13.026   3.112  11.250  1.00  0.00     0.031 A 
ATOM     72  C   UNL     1      13.981   0.928  11.178  1.00  0.00     0.131 A 
ATOM     73  C   UNL     1      14.065   3.525  12.097  1.00  0.00     0.055 A 
ATOM     74  C   UNL     1      14.984   1.321  12.075  1.00  0.00     0.041 A 
ATOM     75  F   UNL     1      14.019  -0.351  10.771  1.00  0.00    -0.206 F 
ATOM     76  C   UNL     1      15.028   2.627  12.543  1.00  0.00     0.022 A 
BRANCH  73  77
ATOM     77  S   UNL     1      14.160   5.251  12.647  1.00  0.00     0.124 S 
ATOM     78  O   UNL     1      14.122   5.108  14.099  1.00  0.00    -0.237 OA
ATOM     79  O   UNL     1      15.444   5.666  12.086  1.00  0.00    -0.237 OA
ATOM     80  O   UNL     1      12.989   5.869  12.035  1.00  0.00    -0.744 OA
ENDBRANCH  73  77
ENDBRANCH  56  70
BRANCH  57  81
ATOM     81  C   UNL     1       6.225   1.600  15.893  1.00  0.00     0.023 A 
ATOM     82  C   UNL     1       6.139   3.003  15.920  1.00  0.00     0.031 A 
ATOM     83  C   UNL     1       6.323   0.929  17.125  1.00  0.00     0.131 A 
ATOM     84  C   UNL     1       6.224   3.693  17.135  1.00  0.00     0.055 A 
ATOM     85  C   UNL     1       6.382   1.621  18.341  1.00  0.00     0.041 A 
ATOM     86  F   UNL     1       6.443  -0.407  17.165  1.00  0.00    -0.206 F 
ATOM     87  C   UNL     1       6.354   3.012  18.348  1.00  0.00     0.022 A 
BRANCH  84  88
ATOM     88  S   UNL     1       6.298   5.505  17.157  1.00  0.00     0.124 S 
ATOM     89  O   UNL     1       5.251   5.842  18.116  1.00  0.00    -0.237 OA
ATOM     90  O   UNL     1       7.664   5.740  17.605  1.00  0.00    -0.237 OA
ATOM     91  O   UNL     1       6.009   5.874  15.771  1.00  0.00    -0.744 OA
ENDBRANCH  84  88
ENDBRANCH  57  81
BRANCH  69  92
ATOM     92  C   UNL     1       8.012  -2.978  11.833  1.00  0.00     0.023 A 
ATOM     93  C   UNL     1       8.478  -4.273  11.558  1.00  0.00     0.031 A 
ATOM     94  C   UNL     1       6.667  -2.687  11.550  1.00  0.00     0.131 A 
ATOM     95  C   UNL     1       7.643  -5.211  10.952  1.00  0.00     0.055 A 
ATOM     96  C   UNL     1       5.809  -3.656  11.016  1.00  0.00     0.041 A 
ATOM     97  F   UNL     1       6.167  -1.453  11.709  1.00  0.00    -0.206 F 
ATOM     98  C   UNL     1       6.302  -4.918  10.694  1.00  0.00     0.022 A 
BRANCH  95  99
ATOM     99  S   UNL     1       8.338  -6.763  10.331  1.00  0.00     0.124 S 
ATOM    100  O   UNL     1       7.660  -7.758  11.156  1.00  0.00    -0.237 OA
ATOM    101  O   UNL     1       7.942  -6.737   8.924  1.00  0.00    -0.237 OA
ATOM    102  O   UNL     1       9.773  -6.627  10.568  1.00  0.00    -0.744 OA
ENDBRANCH  95  99
ENDBRANCH  69  92
ENDBRANCH  43  44
ENDBRANCH  35  38
ENDBRANCH  33  34
ENDBRANCH  32  33
ENDBRANCH   1  32
TORSDOF 18
