REMARK SMILES CC(C)N1C(=O)C[C@@H]([N@@H+]2CC[C@H](C(=O)NCCCCNC(=O)c3ccc(-c4c5nc(c(-c6cc(S(=O)(=O)[O-])ccc6F)c6ccc([nH]6)c(-c6cc(S(=O)(=O)[O-])ccc6F)c6nc(c(-c7cc(S(=O)(=O)[O-])ccc7F)c7ccc4[nH]7)C=C6)C=C5)cc3)[C@@H]2C)C1=O
REMARK SMILES IDX 18 1 17 2 16 3 15 4 13 5 14 6 12 8 9 9 10 10 86 11 11 13
REMARK SMILES IDX 87 14 8 15 4 16 5 17 88 18 6 19 7 20 89 21 2 22 1 23 3 24
REMARK SMILES IDX 19 25 20 26 21 27 22 29 23 30 24 31 85 32 25 33 84 34 26 35
REMARK SMILES IDX 27 36 28 37 78 38 29 39 83 40 77 41 79 42 30 43 82 44 76 45
REMARK SMILES IDX 75 46 31 48 63 49 43 50 62 51 44 52 47 53 61 54 80 55 45 56
REMARK SMILES IDX 46 57 60 59 81 60 48 61 32 62 33 63 41 64 34 65 40 66 42 67
REMARK SMILES IDX 39 68 35 69 36 70 37 71 38 72 64 73 65 74 73 75 66 76 72 77
REMARK SMILES IDX 74 78 71 79 67 80 68 81 69 82 70 83 49 84 50 85 58 86 51 87
REMARK SMILES IDX 57 88 59 89 56 90 52 91 53 92 54 93 55 94
REMARK H PARENT 15 7 9 12 20 28 79 47 47 58
REMARK Flexibility Score: inf
ROOT
ATOM      1  C   UNL     1      -9.748   3.185  -1.619  1.00  0.00     0.023 C 
ENDROOT
BRANCH   1   2
ATOM      2  C   UNL     1      -9.268   1.733  -1.635  1.00  0.00     0.023 C 
BRANCH   2   3
ATOM      3  C   UNL     1      -8.066   1.456  -2.534  1.00  0.00     0.116 C 
BRANCH   3   4
ATOM      4  N   UNL     1      -6.881   2.183  -2.115  1.00  0.00    -0.356 N 
ATOM      5  C   UNL     1      -5.644   1.733  -1.769  1.00  0.00     0.229 C 
ATOM      6  O   UNL     1      -4.769   2.571  -1.546  1.00  0.00    -0.275 OA
ATOM      7  H   UNL     1      -6.991   3.160  -2.075  1.00  0.00     0.163 HD
BRANCH   5   8
ATOM      8  C   UNL     1      -5.379   0.239  -1.638  1.00  0.00     0.142 C 
ATOM      9  N   UNL     1      -3.764  -0.413   0.037  1.00  0.00    -0.321 N 
ATOM     10  C   UNL     1      -3.041  -0.011  -1.171  1.00  0.00     0.264 C 
ATOM     11  C   UNL     1      -5.213  -0.233  -0.182  1.00  0.00     0.194 C 
ATOM     12  H   UNL     1      -3.639  -1.414   0.194  1.00  0.00     0.349 HD
ATOM     13  C   UNL     1      -4.053  -0.127  -2.293  1.00  0.00     0.081 C 
ATOM     14  C   UNL     1      -6.047   0.531   0.849  1.00  0.00     0.076 C 
BRANCH   9  15
ATOM     15  C   UNL     1      -3.177   0.042   1.308  1.00  0.00     0.284 C 
ATOM     16  N   UNL     1      -0.914   0.722   1.419  1.00  0.00    -0.275 N 
ATOM     17  C   UNL     1      -1.645   1.873   1.493  1.00  0.00     0.236 C 
ATOM     18  C   UNL     1      -1.718  -0.393   1.425  1.00  0.00     0.288 C 
ATOM     19  O   UNL     1      -1.227   3.018   1.572  1.00  0.00    -0.274 OA
ATOM     20  C   UNL     1      -3.104   1.546   1.527  1.00  0.00     0.176 C 
ATOM     21  O   UNL     1      -1.331  -1.554   1.485  1.00  0.00    -0.267 OA
BRANCH  16  22
ATOM     22  C   UNL     1       0.548   0.612   1.344  1.00  0.00     0.087 C 
ATOM     23  C   UNL     1       0.978   0.082  -0.030  1.00  0.00     0.031 C 
ATOM     24  C   UNL     1       1.319   1.899   1.646  1.00  0.00     0.031 C 
ENDBRANCH  16  22
ENDBRANCH   9  15
ENDBRANCH   5   8
ENDBRANCH   3   4
ENDBRANCH   2   3
ENDBRANCH   1   2
BRANCH   1  25
ATOM     25  C   UNL     1     -10.027   3.801  -2.987  1.00  0.00     0.116 C 
BRANCH  25  26
ATOM     26  N   UNL     1     -11.020   3.060  -3.751  1.00  0.00    -0.352 N 
ATOM     27  C   UNL     1     -12.159   3.511  -4.375  1.00  0.00     0.251 C 
ATOM     28  H   UNL     1     -10.851   2.093  -3.832  1.00  0.00     0.163 HD
ATOM     29  O   UNL     1     -12.949   2.700  -4.849  1.00  0.00    -0.269 OA
BRANCH  27  30
ATOM     30  C   UNL     1     -12.447   4.961  -4.436  1.00  0.00     0.039 A 
ATOM     31  C   UNL     1     -13.731   5.405  -4.114  1.00  0.00     0.014 A 
ATOM     32  C   UNL     1     -11.453   5.882  -4.782  1.00  0.00     0.014 A 
ATOM     33  C   UNL     1     -13.995   6.776  -4.052  1.00  0.00     0.010 A 
ATOM     34  C   UNL     1     -11.697   7.247  -4.646  1.00  0.00     0.010 A 
ATOM     35  C   UNL     1     -12.966   7.708  -4.264  1.00  0.00    -0.014 A 
BRANCH  35  36
ATOM     36  C   UNL     1     -13.191   9.162  -4.040  1.00  0.00     0.031 A 
ATOM     37  C   UNL     1     -13.053  10.143  -5.170  1.00  0.00     0.074 A 
ATOM     38  C   UNL     1     -13.446   9.603  -2.791  1.00  0.00     0.049 A 
ATOM     39  N   UNL     1     -13.146  11.448  -5.149  1.00  0.00    -0.248 NA
ATOM     40  C   UNL     1     -12.742   9.583  -6.493  1.00  0.00     0.031 C 
ATOM     41  C   UNL     1     -13.553   8.752  -1.603  1.00  0.00     0.029 A 
ATOM     42  N   UNL     1     -13.649  10.872  -2.307  1.00  0.00    -0.354 N 
ATOM     43  C   UNL     1     -12.893  11.869  -6.450  1.00  0.00     0.074 A 
ATOM     44  C   UNL     1     -12.587  10.681  -7.219  1.00  0.00     0.031 C 
ATOM     45  C   UNL     1     -13.820   9.519  -0.535  1.00  0.00     0.029 A 
ATOM     46  C   UNL     1     -13.850  10.918  -0.947  1.00  0.00     0.049 A 
ATOM     47  H   UNL     1     -13.650  11.673  -2.879  1.00  0.00     0.167 HD
ATOM     48  C   UNL     1     -12.929  13.128  -6.956  1.00  0.00     0.034 A 
ATOM     49  C   UNL     1     -14.016  11.967  -0.116  1.00  0.00     0.034 A 
ATOM     50  C   UNL     1     -13.236  14.300  -6.169  1.00  0.00     0.049 A 
ATOM     51  C   UNL     1     -14.019  13.359  -0.694  1.00  0.00     0.074 A 
ATOM     52  C   UNL     1     -13.379  15.609  -6.595  1.00  0.00     0.029 A 
ATOM     53  N   UNL     1     -13.423  14.312  -4.792  1.00  0.00    -0.354 N 
ATOM     54  N   UNL     1     -13.857  13.735  -1.941  1.00  0.00    -0.248 NA
ATOM     55  C   UNL     1     -14.234  14.465   0.247  1.00  0.00     0.031 C 
ATOM     56  C   UNL     1     -13.561  16.420  -5.470  1.00  0.00     0.029 A 
ATOM     57  C   UNL     1     -13.626  15.611  -4.347  1.00  0.00     0.049 A 
ATOM     58  H   UNL     1     -13.413  13.514  -4.215  1.00  0.00     0.167 HD
ATOM     59  C   UNL     1     -13.967  15.122  -1.937  1.00  0.00     0.074 A 
ATOM     60  C   UNL     1     -14.234  15.511  -0.567  1.00  0.00     0.031 C 
ATOM     61  C   UNL     1     -13.859  15.994  -2.973  1.00  0.00     0.034 A 
BRANCH  48  62
ATOM     62  C   UNL     1     -12.588  13.301  -8.419  1.00  0.00     0.023 A 
ATOM     63  C   UNL     1     -13.346  12.694  -9.436  1.00  0.00     0.031 A 
ATOM     64  C   UNL     1     -11.470  14.064  -8.803  1.00  0.00     0.131 A 
ATOM     65  C   UNL     1     -12.929  12.787 -10.773  1.00  0.00     0.055 A 
ATOM     66  C   UNL     1     -11.113  14.227 -10.143  1.00  0.00     0.041 A 
ATOM     67  F   UNL     1     -10.693  14.652  -7.879  1.00  0.00    -0.206 F 
ATOM     68  C   UNL     1     -11.833  13.572 -11.136  1.00  0.00     0.022 A 
BRANCH  65  69
ATOM     69  S   UNL     1     -13.740  11.734 -12.007  1.00  0.00     0.124 S 
ATOM     70  O   UNL     1     -13.544  10.403 -11.436  1.00  0.00    -0.237 OA
ATOM     71  O   UNL     1     -15.109  12.236 -12.000  1.00  0.00    -0.237 OA
ATOM     72  O   UNL     1     -12.984  11.994 -13.231  1.00  0.00    -0.744 OA
ENDBRANCH  65  69
ENDBRANCH  48  62
BRANCH  49  73
ATOM     73  C   UNL     1     -14.158  11.743   1.352  1.00  0.00     0.023 A 
ATOM     74  C   UNL     1     -15.346  12.063   2.027  1.00  0.00     0.031 A 
ATOM     75  C   UNL     1     -13.092  11.216   2.104  1.00  0.00     0.131 A 
ATOM     76  C   UNL     1     -15.429  11.883   3.418  1.00  0.00     0.055 A 
ATOM     77  C   UNL     1     -13.198  10.989   3.477  1.00  0.00     0.041 A 
ATOM     78  F   UNL     1     -11.935  10.890   1.507  1.00  0.00    -0.206 F 
ATOM     79  C   UNL     1     -14.370  11.333   4.144  1.00  0.00     0.022 A 
BRANCH  76  80
ATOM     80  S   UNL     1     -16.923  12.443   4.281  1.00  0.00     0.124 S 
ATOM     81  O   UNL     1     -16.939  13.865   3.955  1.00  0.00    -0.237 OA
ATOM     82  O   UNL     1     -17.958  11.629   3.653  1.00  0.00    -0.237 OA
ATOM     83  O   UNL     1     -16.646  12.126   5.680  1.00  0.00    -0.744 OA
ENDBRANCH  76  80
ENDBRANCH  49  73
BRANCH  61  84
ATOM     84  C   UNL     1     -14.050  17.460  -2.658  1.00  0.00     0.023 A 
ATOM     85  C   UNL     1     -13.152  18.162  -1.835  1.00  0.00     0.031 A 
ATOM     86  C   UNL     1     -15.153  18.161  -3.178  1.00  0.00     0.131 A 
ATOM     87  C   UNL     1     -13.403  19.504  -1.509  1.00  0.00     0.055 A 
ATOM     88  C   UNL     1     -15.360  19.514  -2.906  1.00  0.00     0.041 A 
ATOM     89  F   UNL     1     -16.049  17.542  -3.964  1.00  0.00    -0.206 F 
ATOM     90  C   UNL     1     -14.490  20.190  -2.056  1.00  0.00     0.022 A 
BRANCH  87  91
ATOM     91  S   UNL     1     -12.347  20.314  -0.276  1.00  0.00     0.124 S 
ATOM     92  O   UNL     1     -12.530  19.455   0.889  1.00  0.00    -0.237 OA
ATOM     93  O   UNL     1     -11.032  20.261  -0.908  1.00  0.00    -0.237 OA
ATOM     94  O   UNL     1     -12.923  21.652  -0.157  1.00  0.00    -0.744 OA
ENDBRANCH  87  91
ENDBRANCH  61  84
ENDBRANCH  35  36
ENDBRANCH  27  30
ENDBRANCH  25  26
ENDBRANCH   1  25
TORSDOF 16
