REMARK SMILES NS(=O)(=O)c1ccc(N2N=C(C(=O)NCCCCNC(=O)c3ccc(-c4c5nc(c(-c6cc(S(=O)(=O)[O-])ccc6F)c6ccc([nH]6)c(-c6cc(S(=O)(=O)[O-])ccc6F)c6nc(c(-c7cc(S(=O)(=O)[O-])ccc7F)c7ccc4[nH]7)C=C6)C=C5)cc3)C[C@H]2c2cccs2)cc1
REMARK SMILES IDX 16 1 15 2 14 3 12 4 13 5 11 7 9 8 10 9 86 10 85 11 8 12 5 13
REMARK SMILES IDX 6 14 93 15 7 16 92 17 2 18 3 19 4 20 1 21 87 24 88 25 91 26
REMARK SMILES IDX 89 27 90 28 17 29 18 30 19 31 20 32 21 34 22 35 23 36 84 37
REMARK SMILES IDX 24 38 83 39 25 40 26 41 27 42 77 43 28 44 82 45 76 46 78 47
REMARK SMILES IDX 29 48 81 49 75 50 74 51 30 53 62 54 42 55 61 56 43 57 46 58
REMARK SMILES IDX 60 59 79 60 44 61 45 62 59 64 80 65 47 66 31 67 32 68 40 69
REMARK SMILES IDX 33 70 39 71 41 72 38 73 34 74 35 75 36 76 37 77 63 78 64 79
REMARK SMILES IDX 72 80 65 81 71 82 73 83 70 84 66 85 67 86 68 87 69 88 48 89
REMARK SMILES IDX 49 90 57 91 50 92 56 93 58 94 55 95 51 96 52 97 53 98 54 99
REMARK H PARENT 14 6 1 22 1 23 19 33 78 52 46 63
REMARK Flexibility Score: inf
ROOT
ATOM      1  C   UNL     1       1.044 -10.425   6.899  1.00  0.00     0.023 C 
ENDROOT
BRANCH   1   2
ATOM      2  C   UNL     1       2.119  -9.357   7.054  1.00  0.00     0.116 C 
BRANCH   2   3
ATOM      3  N   UNL     1       2.837  -9.136   5.812  1.00  0.00    -0.351 N 
ATOM      4  C   UNL     1       2.938  -8.087   4.933  1.00  0.00     0.267 C 
ATOM      5  O   UNL     1       3.587  -8.263   3.904  1.00  0.00    -0.268 OA
ATOM      6  H   UNL     1       3.372  -9.916   5.538  1.00  0.00     0.163 HD
BRANCH   4   7
ATOM      7  C   UNL     1       2.334  -6.712   5.179  1.00  0.00     0.128 C 
ATOM      8  N   UNL     1       2.017  -4.604   4.949  1.00  0.00    -0.256 N 
ATOM      9  N   UNL     1       2.568  -5.716   4.377  1.00  0.00    -0.171 NA
ATOM     10  C   UNL     1       1.236  -4.898   6.159  1.00  0.00     0.154 C 
ATOM     11  C   UNL     1       1.448  -6.402   6.331  1.00  0.00     0.097 C 
BRANCH   8  12
ATOM     12  C   UNL     1       1.673  -3.517   4.143  1.00  0.00     0.060 A 
ATOM     13  C   UNL     1       0.906  -1.292   2.610  1.00  0.00     0.082 A 
ATOM     14  C   UNL     1       0.660  -2.580   2.130  1.00  0.00     0.024 A 
ATOM     15  C   UNL     1       1.550  -1.102   3.831  1.00  0.00     0.024 A 
ATOM     16  C   UNL     1       1.055  -3.685   2.894  1.00  0.00     0.029 A 
ATOM     17  C   UNL     1       1.935  -2.213   4.581  1.00  0.00     0.029 A 
BRANCH  13  18
ATOM     18  S   UNL     1       0.415   0.114   1.662  1.00  0.00     0.238 S 
ATOM     19  O   UNL     1       1.025   1.304   2.218  1.00  0.00    -0.207 OA
ATOM     20  O   UNL     1      -0.998   0.025   1.394  1.00  0.00    -0.207 OA
BRANCH  18  21
ATOM     21  N   UNL     1       1.196  -0.132   0.198  1.00  0.00    -0.225 NA
ATOM     22  H   UNL     1       0.978   0.635  -0.438  1.00  0.00     0.137 HD
ATOM     23  H   UNL     1       0.882  -1.012  -0.212  1.00  0.00     0.137 HD
ENDBRANCH  18  21
ENDBRANCH  13  18
ENDBRANCH   8  12
BRANCH  10  24
ATOM     24  C   UNL     1       1.535  -4.077   7.411  1.00  0.00     0.030 A 
ATOM     25  C   UNL     1       1.002  -2.840   7.740  1.00  0.00     0.017 A 
ATOM     26  S   UNL     1       2.617  -4.598   8.645  1.00  0.00    -0.147 S 
ATOM     27  C   UNL     1       1.462  -2.347   8.995  1.00  0.00     0.012 A 
ATOM     28  C   UNL     1       2.299  -3.239   9.620  1.00  0.00     0.065 A 
ENDBRANCH  10  24
ENDBRANCH   4   7
ENDBRANCH   2   3
ENDBRANCH   1   2
BRANCH   1  29
ATOM     29  C   UNL     1       1.584 -11.851   6.879  1.00  0.00     0.023 C 
BRANCH  29  30
ATOM     30  C   UNL     1       2.432 -12.234   8.088  1.00  0.00     0.116 C 
BRANCH  30  31
ATOM     31  N   UNL     1       1.752 -12.016   9.358  1.00  0.00    -0.352 N 
ATOM     32  C   UNL     1       1.656 -12.864  10.437  1.00  0.00     0.251 C 
ATOM     33  H   UNL     1       1.301 -11.147   9.457  1.00  0.00     0.163 HD
ATOM     34  O   UNL     1       0.924 -12.579  11.379  1.00  0.00    -0.269 OA
BRANCH  32  35
ATOM     35  C   UNL     1       2.412 -14.133  10.420  1.00  0.00     0.039 A 
ATOM     36  C   UNL     1       1.744 -15.323  10.708  1.00  0.00     0.014 A 
ATOM     37  C   UNL     1       3.759 -14.147  10.049  1.00  0.00     0.014 A 
ATOM     38  C   UNL     1       2.408 -16.539  10.542  1.00  0.00     0.010 A 
ATOM     39  C   UNL     1       4.390 -15.361   9.799  1.00  0.00     0.010 A 
ATOM     40  C   UNL     1       3.720 -16.570  10.038  1.00  0.00    -0.014 A 
BRANCH  40  41
ATOM     41  C   UNL     1       4.399 -17.858   9.741  1.00  0.00     0.031 A 
ATOM     42  C   UNL     1       5.660 -18.233  10.469  1.00  0.00     0.074 A 
ATOM     43  C   UNL     1       3.912 -18.659   8.771  1.00  0.00     0.049 A 
ATOM     44  N   UNL     1       6.429 -19.279  10.308  1.00  0.00    -0.248 NA
ATOM     45  C   UNL     1       6.135 -17.289  11.493  1.00  0.00     0.031 C 
ATOM     46  C   UNL     1       2.722 -18.381   7.964  1.00  0.00     0.029 A 
ATOM     47  N   UNL     1       4.358 -19.867   8.294  1.00  0.00    -0.354 N 
ATOM     48  C   UNL     1       7.482 -19.116  11.202  1.00  0.00     0.074 A 
ATOM     49  C   UNL     1       7.287 -17.836  11.850  1.00  0.00     0.031 C 
ATOM     50  C   UNL     1       2.514 -19.403   7.119  1.00  0.00     0.029 A 
ATOM     51  C   UNL     1       3.583 -20.382   7.280  1.00  0.00     0.049 A 
ATOM     52  H   UNL     1       5.158 -20.322   8.645  1.00  0.00     0.167 HD
ATOM     53  C   UNL     1       8.502 -19.968  11.476  1.00  0.00     0.034 A 
ATOM     54  C   UNL     1       3.725 -21.508   6.552  1.00  0.00     0.034 A 
ATOM     55  C   UNL     1       8.677 -21.241  10.821  1.00  0.00     0.049 A 
ATOM     56  C   UNL     1       4.890 -22.419   6.845  1.00  0.00     0.074 A 
ATOM     57  C   UNL     1       9.640 -22.206  11.059  1.00  0.00     0.029 A 
ATOM     58  N   UNL     1       7.882 -21.724   9.788  1.00  0.00    -0.354 N 
ATOM     59  N   UNL     1       5.845 -22.280   7.737  1.00  0.00    -0.248 NA
ATOM     60  C   UNL     1       4.992 -23.643   6.040  1.00  0.00     0.031 C 
ATOM     61  C   UNL     1       9.480 -23.227  10.117  1.00  0.00     0.029 A 
ATOM     62  C   UNL     1       8.359 -22.951   9.351  1.00  0.00     0.049 A 
ATOM     63  H   UNL     1       7.094 -21.262   9.420  1.00  0.00     0.167 HD
ATOM     64  C   UNL     1       6.643 -23.415   7.618  1.00  0.00     0.074 A 
ATOM     65  C   UNL     1       6.046 -24.234   6.583  1.00  0.00     0.031 C 
ATOM     66  C   UNL     1       7.765 -23.752   8.305  1.00  0.00     0.034 A 
BRANCH  53  67
ATOM     67  C   UNL     1       9.517 -19.529  12.506  1.00  0.00     0.023 A 
ATOM     68  C   UNL     1       9.154 -19.271  13.840  1.00  0.00     0.031 A 
ATOM     69  C   UNL     1      10.862 -19.339  12.145  1.00  0.00     0.131 A 
ATOM     70  C   UNL     1      10.102 -18.760  14.739  1.00  0.00     0.055 A 
ATOM     71  C   UNL     1      11.821 -18.917  13.069  1.00  0.00     0.041 A 
ATOM     72  F   UNL     1      11.268 -19.545  10.882  1.00  0.00    -0.206 F 
ATOM     73  C   UNL     1      11.440 -18.609  14.371  1.00  0.00     0.022 A 
BRANCH  70  74
ATOM     74  S   UNL     1       9.525 -18.145  16.345  1.00  0.00     0.124 S 
ATOM     75  O   UNL     1       8.550 -17.135  15.941  1.00  0.00    -0.237 OA
ATOM     76  O   UNL     1       8.981 -19.346  16.967  1.00  0.00    -0.237 OA
ATOM     77  O   UNL     1      10.739 -17.615  16.964  1.00  0.00    -0.744 OA
ENDBRANCH  70  74
ENDBRANCH  53  67
BRANCH  54  78
ATOM     78  C   UNL     1       2.754 -21.834   5.467  1.00  0.00     0.023 A 
ATOM     79  C   UNL     1       1.950 -22.984   5.534  1.00  0.00     0.031 A 
ATOM     80  C   UNL     1       2.644 -21.020   4.325  1.00  0.00     0.131 A 
ATOM     81  C   UNL     1       1.108 -23.313   4.460  1.00  0.00     0.055 A 
ATOM     82  C   UNL     1       1.761 -21.320   3.286  1.00  0.00     0.041 A 
ATOM     83  F   UNL     1       3.387 -19.908   4.209  1.00  0.00    -0.206 F 
ATOM     84  C   UNL     1       0.996 -22.480   3.344  1.00  0.00     0.022 A 
BRANCH  81  85
ATOM     85  S   UNL     1       0.226 -24.897   4.502  1.00  0.00     0.124 S 
ATOM     86  O   UNL     1       1.327 -25.846   4.619  1.00  0.00    -0.237 OA
ATOM     87  O   UNL     1      -0.618 -24.743   5.682  1.00  0.00    -0.237 OA
ATOM     88  O   UNL     1      -0.487 -24.922   3.227  1.00  0.00    -0.744 OA
ENDBRANCH  81  85
ENDBRANCH  54  78
BRANCH  66  89
ATOM     89  C   UNL     1       8.394 -25.087   7.984  1.00  0.00     0.023 A 
ATOM     90  C   UNL     1       8.958 -25.358   6.725  1.00  0.00     0.031 A 
ATOM     91  C   UNL     1       8.421 -26.108   8.951  1.00  0.00     0.131 A 
ATOM     92  C   UNL     1       9.468 -26.636   6.447  1.00  0.00     0.055 A 
ATOM     93  C   UNL     1       8.993 -27.353   8.693  1.00  0.00     0.041 A 
ATOM     94  F   UNL     1       7.892 -25.909  10.170  1.00  0.00    -0.206 F 
ATOM     95  C   UNL     1       9.508 -27.628   7.429  1.00  0.00     0.022 A 
BRANCH  92  96
ATOM     96  S   UNL     1       9.981 -27.018   4.750  1.00  0.00     0.124 S 
ATOM     97  O   UNL     1       8.756 -26.761   3.999  1.00  0.00    -0.237 OA
ATOM     98  O   UNL     1      11.072 -26.074   4.533  1.00  0.00    -0.237 OA
ATOM     99  O   UNL     1      10.381 -28.422   4.821  1.00  0.00    -0.744 OA
ENDBRANCH  92  96
ENDBRANCH  66  89
ENDBRANCH  40  41
ENDBRANCH  32  35
ENDBRANCH  30  31
ENDBRANCH  29  30
ENDBRANCH   1  29
TORSDOF 18
