REMARK SMILES C#Cc1ccc2c(c1)C=C(C(=O)NCCCCNC(=O)c1ccc(-c3c4nc(c(-c5cc(S(=O)(=O)[O-])ccc5F)c5ccc([nH]5)c(-c5cc(S(=O)(=O)[O-])ccc5F)c5nc(c(-c6cc(S(=O)(=O)[O-])ccc6F)c6ccc3[nH]6)C=C5)C=C4)cc1)[C@@H](C(F)(F)F)O2
REMARK SMILES IDX 16 1 15 2 14 3 13 4 11 5 12 6 10 8 3 9 4 10 8 11 5 12 7 13
REMARK SMILES IDX 6 14 9 15 89 16 84 17 2 18 1 19 85 20 86 21 87 22 88 23
REMARK SMILES IDX 17 24 18 25 19 26 20 28 21 29 22 30 83 31 23 32 82 33 24 34
REMARK SMILES IDX 25 35 26 36 76 37 27 38 81 39 75 40 77 41 28 42 80 43 74 44
REMARK SMILES IDX 73 45 29 47 61 48 41 49 60 50 42 51 45 52 59 53 78 54 43 55
REMARK SMILES IDX 44 56 58 58 79 59 46 60 30 61 31 62 39 63 32 64 38 65 40 66
REMARK SMILES IDX 37 67 33 68 34 69 35 70 36 71 62 72 63 73 71 74 64 75 70 76
REMARK SMILES IDX 72 77 69 78 65 79 66 80 67 81 68 82 47 83 48 84 56 85 49 86
REMARK SMILES IDX 55 87 57 88 54 89 50 90 51 91 52 92 53 93
REMARK H PARENT 13 7 18 27 77 46 45 57
REMARK Flexibility Score: inf
ROOT
ATOM      1  C   UNL     1     -10.958   3.496   1.585  1.00  0.00     0.023 C 
ENDROOT
BRANCH   1   2
ATOM      2  C   UNL     1      -9.899   2.415   1.423  1.00  0.00     0.023 C 
BRANCH   2   3
ATOM      3  C   UNL     1      -9.152   2.504   0.099  1.00  0.00     0.116 C 
BRANCH   3   4
ATOM      4  N   UNL     1      -8.054   3.457   0.146  1.00  0.00    -0.352 N 
ATOM      5  C   UNL     1      -6.702   3.411   0.067  1.00  0.00     0.251 C 
ATOM      6  O   UNL     1      -6.122   4.500   0.103  1.00  0.00    -0.270 OA
ATOM      7  H   UNL     1      -8.379   4.378   0.268  1.00  0.00     0.163 HD
BRANCH   5   8
ATOM      8  C   UNL     1      -5.902   2.154  -0.049  1.00  0.00     0.067 C 
ATOM      9  C   UNL     1      -1.595  -0.044  -0.061  1.00  0.00     0.025 A 
ATOM     10  C   UNL     1      -2.232  -1.287  -0.062  1.00  0.00     0.021 A 
ATOM     11  C   UNL     1      -2.348   1.137  -0.038  1.00  0.00     0.029 A 
ATOM     12  C   UNL     1      -3.620  -1.353  -0.043  1.00  0.00     0.048 A 
ATOM     13  C   UNL     1      -3.745   1.073  -0.019  1.00  0.00     0.018 A 
ATOM     14  C   UNL     1      -4.365  -0.178  -0.030  1.00  0.00     0.128 A 
ATOM     15  C   UNL     1      -4.567   2.275   0.066  1.00  0.00     0.025 C 
ATOM     16  O   UNL     1      -5.714  -0.344   0.017  1.00  0.00    -0.475 OA
ATOM     17  C   UNL     1      -6.523   0.812  -0.305  1.00  0.00     0.314 C 
BRANCH   9  18
ATOM     18  C   UNL     1      -0.167   0.005  -0.069  1.00  0.00    -0.070 C 
ATOM     19  C   UNL     1       1.035   0.011  -0.070  1.00  0.00     0.010 C 
ENDBRANCH   9  18
BRANCH  17  20
ATOM     20  C   UNL     1      -7.042   0.672  -1.749  1.00  0.00     0.429 C 
ATOM     21  F   UNL     1      -7.950  -0.334  -1.828  1.00  0.00    -0.167 F 
ATOM     22  F   UNL     1      -7.667   1.785  -2.199  1.00  0.00    -0.167 F 
ATOM     23  F   UNL     1      -6.054   0.396  -2.630  1.00  0.00    -0.167 F 
ENDBRANCH  17  20
ENDBRANCH   5   8
ENDBRANCH   3   4
ENDBRANCH   2   3
ENDBRANCH   1   2
BRANCH   1  24
ATOM     24  C   UNL     1     -11.968   3.564   0.448  1.00  0.00     0.116 C 
BRANCH  24  25
ATOM     25  N   UNL     1     -12.674   2.309   0.205  1.00  0.00    -0.352 N 
ATOM     26  C   UNL     1     -14.023   2.136  -0.031  1.00  0.00     0.251 C 
ATOM     27  H   UNL     1     -12.125   1.492   0.210  1.00  0.00     0.163 HD
ATOM     28  O   UNL     1     -14.512   1.016  -0.110  1.00  0.00    -0.269 OA
BRANCH  26  29
ATOM     29  C   UNL     1     -14.857   3.350  -0.128  1.00  0.00     0.039 A 
ATOM     30  C   UNL     1     -14.433   4.396  -0.947  1.00  0.00     0.014 A 
ATOM     31  C   UNL     1     -15.938   3.511   0.739  1.00  0.00     0.014 A 
ATOM     32  C   UNL     1     -14.931   5.669  -0.719  1.00  0.00     0.010 A 
ATOM     33  C   UNL     1     -16.530   4.770   0.862  1.00  0.00     0.010 A 
ATOM     34  C   UNL     1     -15.988   5.875   0.186  1.00  0.00    -0.014 A 
BRANCH  34  35
ATOM     35  C   UNL     1     -16.507   7.254   0.392  1.00  0.00     0.031 A 
ATOM     36  C   UNL     1     -16.484   7.909   1.749  1.00  0.00     0.074 A 
ATOM     37  C   UNL     1     -16.962   7.936  -0.678  1.00  0.00     0.049 A 
ATOM     38  N   UNL     1     -16.890   9.105   2.088  1.00  0.00    -0.248 NA
ATOM     39  C   UNL     1     -15.944   7.126   2.873  1.00  0.00     0.031 C 
ATOM     40  C   UNL     1     -17.022   7.404  -2.040  1.00  0.00     0.029 A 
ATOM     41  N   UNL     1     -17.434   9.218  -0.803  1.00  0.00    -0.354 N 
ATOM     42  C   UNL     1     -16.681   9.212   3.459  1.00  0.00     0.074 A 
ATOM     43  C   UNL     1     -16.145   7.943   3.898  1.00  0.00     0.031 C 
ATOM     44  C   UNL     1     -17.443   8.364  -2.870  1.00  0.00     0.029 A 
ATOM     45  C   UNL     1     -17.783   9.550  -2.091  1.00  0.00     0.049 A 
ATOM     46  H   UNL     1     -17.516   9.840  -0.044  1.00  0.00     0.167 HD
ATOM     47  C   UNL     1     -16.902  10.277   4.267  1.00  0.00     0.034 A 
ATOM     48  C   UNL     1     -18.342  10.668  -2.597  1.00  0.00     0.034 A 
ATOM     49  C   UNL     1     -17.415  11.542   3.800  1.00  0.00     0.049 A 
ATOM     50  C   UNL     1     -18.616  11.819  -1.670  1.00  0.00     0.074 A 
ATOM     51  C   UNL     1     -17.634  12.694   4.534  1.00  0.00     0.029 A 
ATOM     52  N   UNL     1     -17.788  11.829   2.493  1.00  0.00    -0.354 N 
ATOM     53  N   UNL     1     -18.358  11.922  -0.388  1.00  0.00    -0.248 NA
ATOM     54  C   UNL     1     -19.248  13.010  -2.252  1.00  0.00     0.031 C 
ATOM     55  C   UNL     1     -18.223  13.641   3.698  1.00  0.00     0.029 A 
ATOM     56  C   UNL     1     -18.274  13.125   2.413  1.00  0.00     0.049 A 
ATOM     57  H   UNL     1     -17.717  11.204   1.736  1.00  0.00     0.167 HD
ATOM     58  C   UNL     1     -18.773  13.196  -0.014  1.00  0.00     0.074 A 
ATOM     59  C   UNL     1     -19.270  13.837  -1.214  1.00  0.00     0.031 C 
ATOM     60  C   UNL     1     -18.750  13.773   1.213  1.00  0.00     0.034 A 
BRANCH  47  61
ATOM     61  C   UNL     1     -16.594  10.161   5.744  1.00  0.00     0.023 A 
ATOM     62  C   UNL     1     -17.617  10.369   6.690  1.00  0.00     0.031 A 
ATOM     63  C   UNL     1     -15.277  10.018   6.216  1.00  0.00     0.131 A 
ATOM     64  C   UNL     1     -17.300  10.487   8.049  1.00  0.00     0.055 A 
ATOM     65  C   UNL     1     -14.975  10.078   7.579  1.00  0.00     0.041 A 
ATOM     66  F   UNL     1     -14.261   9.823   5.360  1.00  0.00    -0.206 F 
ATOM     67  C   UNL     1     -15.986  10.332   8.500  1.00  0.00     0.022 A 
BRANCH  64  68
ATOM     68  S   UNL     1     -18.562  10.945   9.270  1.00  0.00     0.124 S 
ATOM     69  O   UNL     1     -18.509   9.814  10.194  1.00  0.00    -0.237 OA
ATOM     70  O   UNL     1     -18.035  12.202   9.794  1.00  0.00    -0.237 OA
ATOM     71  O   UNL     1     -19.788  11.049   8.487  1.00  0.00    -0.744 OA
ENDBRANCH  64  68
ENDBRANCH  47  61
BRANCH  48  72
ATOM     72  C   UNL     1     -18.637  10.728  -4.059  1.00  0.00     0.023 A 
ATOM     73  C   UNL     1     -19.492   9.783  -4.659  1.00  0.00     0.031 A 
ATOM     74  C   UNL     1     -17.972  11.639  -4.894  1.00  0.00     0.131 A 
ATOM     75  C   UNL     1     -19.583   9.711  -6.054  1.00  0.00     0.055 A 
ATOM     76  C   UNL     1     -18.137  11.622  -6.280  1.00  0.00     0.041 A 
ATOM     77  F   UNL     1     -17.135  12.549  -4.373  1.00  0.00    -0.206 F 
ATOM     78  C   UNL     1     -18.928  10.639  -6.868  1.00  0.00     0.022 A 
BRANCH  75  79
ATOM     79  S   UNL     1     -20.418   8.314  -6.856  1.00  0.00     0.124 S 
ATOM     80  O   UNL     1     -21.441   8.986  -7.652  1.00  0.00    -0.237 OA
ATOM     81  O   UNL     1     -19.324   7.710  -7.612  1.00  0.00    -0.237 OA
ATOM     82  O   UNL     1     -20.910   7.517  -5.737  1.00  0.00    -0.744 OA
ENDBRANCH  75  79
ENDBRANCH  48  72
BRANCH  60  83
ATOM     83  C   UNL     1     -19.261  15.189   1.361  1.00  0.00     0.023 A 
ATOM     84  C   UNL     1     -18.404  16.192   1.856  1.00  0.00     0.031 A 
ATOM     85  C   UNL     1     -20.618  15.506   1.181  1.00  0.00     0.131 A 
ATOM     86  C   UNL     1     -18.925  17.441   2.214  1.00  0.00     0.055 A 
ATOM     87  C   UNL     1     -21.119  16.775   1.475  1.00  0.00     0.041 A 
ATOM     88  F   UNL     1     -21.480  14.584   0.725  1.00  0.00    -0.206 F 
ATOM     89  C   UNL     1     -20.276  17.743   2.013  1.00  0.00     0.022 A 
BRANCH  86  90
ATOM     90  S   UNL     1     -17.898  18.676   3.058  1.00  0.00     0.124 S 
ATOM     91  O   UNL     1     -17.974  19.811   2.141  1.00  0.00    -0.237 OA
ATOM     92  O   UNL     1     -18.606  18.849   4.323  1.00  0.00    -0.237 OA
ATOM     93  O   UNL     1     -16.588  18.040   3.152  1.00  0.00    -0.744 OA
ENDBRANCH  86  90
ENDBRANCH  60  83
ENDBRANCH  34  35
ENDBRANCH  26  29
ENDBRANCH  24  25
ENDBRANCH   1  24
TORSDOF 16
