REMARK SMILES C[C@@H](C(=O)NCCCCNC(=O)c1ccc(-c2c3nc(c(-c4cc(S(=O)(=O)[O-])ccc4F)c4ccc([nH]4)c(-c4cc(S(=O)(=O)[O-])ccc4F)c4nc(c(-c5cc(S(=O)(=O)[O-])ccc5F)c5ccc2[nH]5)C=C4)C=C3)cc1)c1ccc(C[C@H]2CCC[C@@H]2O)cc1Br
REMARK SMILES IDX 7 1 6 2 5 3 3 4 4 5 2 7 1 8 76 9 77 10 88 11 78 12 87 13
REMARK SMILES IDX 89 14 79 15 80 16 81 17 82 18 85 19 83 20 84 21 86 22 8 24
REMARK SMILES IDX 9 25 10 26 11 27 12 29 13 30 14 31 75 32 15 33 74 34 16 35
REMARK SMILES IDX 17 36 18 37 68 38 19 39 73 40 67 41 69 42 20 43 72 44 66 45
REMARK SMILES IDX 65 46 21 48 53 49 33 50 52 51 34 52 37 53 51 54 70 55 35 56
REMARK SMILES IDX 36 57 50 59 71 60 38 61 22 62 23 63 31 64 24 65 30 66 32 67
REMARK SMILES IDX 29 68 25 69 26 70 27 71 28 72 54 73 55 74 63 75 56 76 62 77
REMARK SMILES IDX 64 78 61 79 57 80 58 81 59 82 60 83 39 84 40 85 48 86 41 87
REMARK SMILES IDX 47 88 49 89 46 90 42 91 43 92 44 93 45 94
REMARK H PARENT 5 6 86 23 10 28 69 47 37 58
REMARK Flexibility Score: inf
ROOT
ATOM      1  C   UNL     1       4.215  -0.434   1.110  1.00  0.00     0.023 C 
ENDROOT
BRANCH   1   2
ATOM      2  C   UNL     1       3.428  -1.721   0.848  1.00  0.00     0.116 C 
BRANCH   2   3
ATOM      3  N   UNL     1       2.313  -1.830   1.766  1.00  0.00    -0.356 N 
ATOM      4  C   UNL     1       1.002  -1.495   1.585  1.00  0.00     0.227 C 
ATOM      5  O   UNL     1       0.282  -1.486   2.586  1.00  0.00    -0.274 OA
ATOM      6  H   UNL     1       2.534  -2.201   2.651  1.00  0.00     0.163 HD
BRANCH   4   7
ATOM      7  C   UNL     1       0.474  -1.174   0.170  1.00  0.00     0.106 C 
ATOM      8  C   UNL     1       1.008   0.190  -0.295  1.00  0.00     0.023 C 
BRANCH   7   9
ATOM      9  C   UNL     1      -1.057  -1.272   0.120  1.00  0.00    -0.022 A 
ATOM     10  C   UNL     1      -1.843  -0.117  -0.044  1.00  0.00     0.006 A 
ATOM     11  C   UNL     1      -1.738  -2.492   0.293  1.00  0.00     0.022 A 
ATOM     12  C   UNL     1      -3.234  -0.165   0.001  1.00  0.00     0.004 A 
ATOM     13  C   UNL     1      -3.137  -2.527   0.400  1.00  0.00     0.019 A 
ATOM     14  Br  UNL     1      -0.833  -4.163   0.409  1.00  0.00    -0.051 Br
ATOM     15  C   UNL     1      -3.894  -1.354   0.299  1.00  0.00    -0.047 A 
BRANCH  15  16
ATOM     16  C   UNL     1      -5.381  -1.359   0.558  1.00  0.00     0.041 C 
BRANCH  16  17
ATOM     17  C   UNL     1      -5.825  -0.779   1.917  1.00  0.00     0.022 C 
ATOM     18  C   UNL     1      -5.228  -1.464   3.159  1.00  0.00     0.007 C 
ATOM     19  C   UNL     1      -5.562   0.715   2.143  1.00  0.00     0.117 C 
ATOM     20  C   UNL     1      -4.987  -0.352   4.185  1.00  0.00     0.003 C 
ATOM     21  C   UNL     1      -5.718   0.867   3.647  1.00  0.00     0.032 C 
BRANCH  19  22
ATOM     22  O   UNL     1      -6.495   1.528   1.454  1.00  0.00    -0.393 OA
ATOM     23  H   UNL     1      -7.394   1.300   1.738  1.00  0.00     0.210 HD
ENDBRANCH  19  22
ENDBRANCH  16  17
ENDBRANCH  15  16
ENDBRANCH   7   9
ENDBRANCH   4   7
ENDBRANCH   2   3
ENDBRANCH   1   2
BRANCH   1  24
ATOM     24  C   UNL     1       5.003  -0.430   2.421  1.00  0.00     0.023 C 
BRANCH  24  25
ATOM     25  C   UNL     1       6.020  -1.555   2.561  1.00  0.00     0.116 C 
BRANCH  25  26
ATOM     26  N   UNL     1       6.988  -1.573   1.477  1.00  0.00    -0.352 N 
ATOM     27  C   UNL     1       8.344  -1.781   1.536  1.00  0.00     0.251 C 
ATOM     28  H   UNL     1       6.622  -1.415   0.577  1.00  0.00     0.163 HD
ATOM     29  O   UNL     1       9.030  -1.604   0.533  1.00  0.00    -0.269 OA
BRANCH  27  30
ATOM     30  C   UNL     1       8.969  -2.177   2.816  1.00  0.00     0.039 A 
ATOM     31  C   UNL     1      10.143  -1.538   3.218  1.00  0.00     0.014 A 
ATOM     32  C   UNL     1       8.390  -3.159   3.626  1.00  0.00     0.014 A 
ATOM     33  C   UNL     1      10.701  -1.840   4.461  1.00  0.00     0.010 A 
ATOM     34  C   UNL     1       8.902  -3.399   4.898  1.00  0.00     0.010 A 
ATOM     35  C   UNL     1      10.066  -2.745   5.328  1.00  0.00    -0.014 A 
BRANCH  35  36
ATOM     36  C   UNL     1      10.616  -3.021   6.682  1.00  0.00     0.031 A 
ATOM     37  C   UNL     1      11.094  -4.403   7.037  1.00  0.00     0.074 A 
ATOM     38  C   UNL     1      10.651  -2.034   7.600  1.00  0.00     0.049 A 
ATOM     39  N   UNL     1      11.570  -4.848   8.172  1.00  0.00    -0.248 NA
ATOM     40  C   UNL     1      10.997  -5.426   5.985  1.00  0.00     0.031 C 
ATOM     41  C   UNL     1      10.175  -0.665   7.387  1.00  0.00     0.029 A 
ATOM     42  N   UNL     1      11.104  -2.027   8.895  1.00  0.00    -0.354 N 
ATOM     43  C   UNL     1      11.834  -6.198   7.969  1.00  0.00     0.074 A 
ATOM     44  C   UNL     1      11.388  -6.515   6.630  1.00  0.00     0.031 C 
ATOM     45  C   UNL     1      10.391   0.054   8.499  1.00  0.00     0.029 A 
ATOM     46  C   UNL     1      10.975  -0.808   9.521  1.00  0.00     0.049 A 
ATOM     47  H   UNL     1      11.486  -2.820   9.336  1.00  0.00     0.167 HD
ATOM     48  C   UNL     1      12.425  -7.084   8.809  1.00  0.00     0.034 A 
ATOM     49  C   UNL     1      11.283  -0.431  10.778  1.00  0.00     0.034 A 
ATOM     50  C   UNL     1      12.862  -6.754  10.144  1.00  0.00     0.049 A 
ATOM     51  C   UNL     1      11.900  -1.447  11.709  1.00  0.00     0.074 A 
ATOM     52  C   UNL     1      13.492  -7.565  11.071  1.00  0.00     0.029 A 
ATOM     53  N   UNL     1      12.710  -5.511  10.747  1.00  0.00    -0.354 N 
ATOM     54  N   UNL     1      12.187  -2.709  11.484  1.00  0.00    -0.248 NA
ATOM     55  C   UNL     1      12.249  -0.982  13.057  1.00  0.00     0.031 C 
ATOM     56  C   UNL     1      13.659  -6.836  12.254  1.00  0.00     0.029 A 
ATOM     57  C   UNL     1      13.211  -5.543  12.040  1.00  0.00     0.049 A 
ATOM     58  H   UNL     1      12.305  -4.722  10.318  1.00  0.00     0.167 HD
ATOM     59  C   UNL     1      12.784  -3.176  12.652  1.00  0.00     0.074 A 
ATOM     60  C   UNL     1      12.834  -2.054  13.568  1.00  0.00     0.031 C 
ATOM     61  C   UNL     1      13.249  -4.418  12.945  1.00  0.00     0.034 A 
BRANCH  48  62
ATOM     62  C   UNL     1      12.616  -8.496   8.305  1.00  0.00     0.023 A 
ATOM     63  C   UNL     1      13.421  -8.772   7.186  1.00  0.00     0.031 A 
ATOM     64  C   UNL     1      11.970  -9.576   8.931  1.00  0.00     0.131 A 
ATOM     65  C   UNL     1      13.499 -10.079   6.681  1.00  0.00     0.055 A 
ATOM     66  C   UNL     1      12.122 -10.889   8.476  1.00  0.00     0.041 A 
ATOM     67  F   UNL     1      11.170  -9.375   9.990  1.00  0.00    -0.206 F 
ATOM     68  C   UNL     1      12.877 -11.144   7.335  1.00  0.00     0.022 A 
BRANCH  65  69
ATOM     69  S   UNL     1      14.301 -10.339   5.076  1.00  0.00     0.124 S 
ATOM     70  O   UNL     1      13.492  -9.492   4.202  1.00  0.00    -0.237 OA
ATOM     71  O   UNL     1      15.663  -9.884   5.325  1.00  0.00    -0.237 OA
ATOM     72  O   UNL     1      14.153 -11.775   4.848  1.00  0.00    -0.744 OA
ENDBRANCH  65  69
ENDBRANCH  48  62
BRANCH  49  73
ATOM     73  C   UNL     1      11.008   0.960  11.246  1.00  0.00     0.023 A 
ATOM     74  C   UNL     1      12.049   1.802  11.668  1.00  0.00     0.031 A 
ATOM     75  C   UNL     1       9.691   1.445  11.343  1.00  0.00     0.131 A 
ATOM     76  C   UNL     1      11.754   3.056  12.226  1.00  0.00     0.055 A 
ATOM     77  C   UNL     1       9.407   2.719  11.838  1.00  0.00     0.041 A 
ATOM     78  F   UNL     1       8.656   0.684  10.952  1.00  0.00    -0.206 F 
ATOM     79  C   UNL     1      10.441   3.525  12.301  1.00  0.00     0.022 A 
BRANCH  76  80
ATOM     80  S   UNL     1      13.105   4.015  12.966  1.00  0.00     0.124 S 
ATOM     81  O   UNL     1      13.643   3.070  13.937  1.00  0.00    -0.237 OA
ATOM     82  O   UNL     1      13.946   4.295  11.807  1.00  0.00    -0.237 OA
ATOM     83  O   UNL     1      12.424   5.177  13.535  1.00  0.00    -0.744 OA
ENDBRANCH  76  80
ENDBRANCH  49  73
BRANCH  61  84
ATOM     84  C   UNL     1      13.900  -4.605  14.295  1.00  0.00     0.023 A 
ATOM     85  C   UNL     1      13.176  -4.472  15.493  1.00  0.00     0.031 A 
ATOM     86  C   UNL     1      15.273  -4.897  14.383  1.00  0.00     0.131 A 
ATOM     87  C   UNL     1      13.841  -4.560  16.725  1.00  0.00     0.055 A 
ATOM     88  C   UNL     1      15.915  -5.054  15.612  1.00  0.00     0.041 A 
ATOM     89  F   UNL     1      16.016  -5.034  13.273  1.00  0.00    -0.206 F 
ATOM     90  C   UNL     1      15.202  -4.869  16.793  1.00  0.00     0.022 A 
BRANCH  87  91
ATOM     91  S   UNL     1      12.927  -4.152  18.238  1.00  0.00     0.124 S 
ATOM     92  O   UNL     1      12.472  -2.794  17.960  1.00  0.00    -0.237 OA
ATOM     93  O   UNL     1      11.890  -5.179  18.262  1.00  0.00    -0.237 OA
ATOM     94  O   UNL     1      13.935  -4.266  19.290  1.00  0.00    -0.744 OA
ENDBRANCH  87  91
ENDBRANCH  61  84
ENDBRANCH  35  36
ENDBRANCH  27  30
ENDBRANCH  25  26
ENDBRANCH  24  25
ENDBRANCH   1  24
TORSDOF 18
