REMARK SMILES CC1=Nc2ncnn2[C@H](c2ccc(F)cc2)[C@@H]1C(=O)NCCCCNC(=O)c1ccc(-c2c3nc(c(-c4cc(S(=O)(=O)[O-])ccc4F)c4ccc([nH]4)c(-c4cc(S(=O)(=O)[O-])ccc4F)c4nc(c(-c5cc(S(=O)(=O)[O-])ccc5F)c5ccc2[nH]5)C=C4)C=C3)cc1
REMARK SMILES IDX 23 1 22 2 21 3 20 4 18 5 19 6 17 8 1 9 2 10 3 11 4 12 9 13
REMARK SMILES IDX 5 14 8 15 6 16 7 17 10 18 11 19 16 20 12 21 15 22 13 23
REMARK SMILES IDX 14 24 24 25 25 26 26 27 27 29 28 30 29 31 90 32 30 33 89 34
REMARK SMILES IDX 31 35 32 36 33 37 83 38 34 39 88 40 82 41 84 42 35 43 87 44
REMARK SMILES IDX 81 45 80 46 36 48 68 49 48 50 67 51 49 52 52 53 66 54 85 55
REMARK SMILES IDX 50 56 51 57 65 59 86 60 53 61 37 62 38 63 46 64 39 65 45 66
REMARK SMILES IDX 47 67 44 68 40 69 41 70 42 71 43 72 69 73 70 74 78 75 71 76
REMARK SMILES IDX 77 77 79 78 76 79 72 80 73 81 74 82 75 83 54 84 55 85 63 86
REMARK SMILES IDX 56 87 62 88 64 89 61 90 57 91 58 92 59 93 60 94
REMARK H PARENT 20 7 25 28 84 47 52 58
REMARK Flexibility Score: inf
ROOT
ATOM      1  C   UNL     1       1.318  -6.084   0.303  1.00  0.00     0.023 C 
ENDROOT
BRANCH   1   2
ATOM      2  C   UNL     1       0.113  -5.168   0.587  1.00  0.00     0.023 C 
BRANCH   2   3
ATOM      3  C   UNL     1       0.268  -4.213   1.779  1.00  0.00     0.116 C 
BRANCH   3   4
ATOM      4  N   UNL     1       1.420  -3.353   1.592  1.00  0.00    -0.355 N 
ATOM      5  C   UNL     1       1.546  -2.003   1.576  1.00  0.00     0.231 C 
ATOM      6  O   UNL     1       2.629  -1.550   1.198  1.00  0.00    -0.274 OA
ATOM      7  H   UNL     1       2.266  -3.837   1.451  1.00  0.00     0.163 HD
BRANCH   5   8
ATOM      8  C   UNL     1       0.417  -1.090   2.017  1.00  0.00     0.152 C 
ATOM      9  C   UNL     1       0.826   0.344  -0.129  1.00  0.00     0.063 C 
ATOM     10  C   UNL     1       0.540   0.288   1.359  1.00  0.00     0.034 C 
ATOM     11  N   UNL     1       0.373   1.430   1.948  1.00  0.00    -0.220 NA
ATOM     12  C   UNL     1       0.040   1.449   3.253  1.00  0.00     0.248 A 
ATOM     13  C   UNL     1       0.207  -1.030   3.557  1.00  0.00     0.159 C 
ATOM     14  N   UNL     1      -0.344   2.474   3.984  1.00  0.00    -0.198 NA
ATOM     15  N   UNL     1      -0.017   0.326   4.035  1.00  0.00    -0.221 N 
ATOM     16  C   UNL     1      -0.683   1.915   5.181  1.00  0.00     0.248 A 
ATOM     17  N   UNL     1      -0.565   0.588   5.241  1.00  0.00    -0.157 NA
BRANCH  13  18
ATOM     18  C   UNL     1       1.140  -1.793   4.504  1.00  0.00    -0.022 A 
ATOM     19  C   UNL     1       0.580  -2.455   5.619  1.00  0.00     0.009 A 
ATOM     20  C   UNL     1       2.529  -1.890   4.322  1.00  0.00     0.009 A 
ATOM     21  C   UNL     1       1.352  -3.289   6.430  1.00  0.00     0.039 A 
ATOM     22  C   UNL     1       3.289  -2.770   5.095  1.00  0.00     0.039 A 
ATOM     23  C   UNL     1       2.690  -3.478   6.124  1.00  0.00     0.123 A 
ATOM     24  F   UNL     1       3.413  -4.365   6.813  1.00  0.00    -0.207 F 
ENDBRANCH  13  18
ENDBRANCH   5   8
ENDBRANCH   3   4
ENDBRANCH   2   3
ENDBRANCH   1   2
BRANCH   1  25
ATOM     25  C   UNL     1       1.632  -7.072   1.420  1.00  0.00     0.116 C 
BRANCH  25  26
ATOM     26  N   UNL     1       0.597  -8.090   1.554  1.00  0.00    -0.352 N 
ATOM     27  C   UNL     1       0.569  -9.161   2.428  1.00  0.00     0.251 C 
ATOM     28  H   UNL     1      -0.174  -8.005   0.948  1.00  0.00     0.163 HD
ATOM     29  O   UNL     1      -0.106 -10.143   2.165  1.00  0.00    -0.269 OA
BRANCH  27  30
ATOM     30  C   UNL     1       1.368  -9.094   3.670  1.00  0.00     0.039 A 
ATOM     31  C   UNL     1       2.040 -10.222   4.148  1.00  0.00     0.014 A 
ATOM     32  C   UNL     1       1.441  -7.882   4.356  1.00  0.00     0.014 A 
ATOM     33  C   UNL     1       2.851 -10.096   5.275  1.00  0.00     0.010 A 
ATOM     34  C   UNL     1       2.328  -7.731   5.397  1.00  0.00     0.010 A 
ATOM     35  C   UNL     1       3.013  -8.840   5.883  1.00  0.00    -0.014 A 
BRANCH  35  36
ATOM     36  C   UNL     1       4.032  -8.639   6.915  1.00  0.00     0.031 A 
ATOM     37  C   UNL     1       5.399  -9.056   6.497  1.00  0.00     0.074 A 
ATOM     38  C   UNL     1       3.833  -7.934   8.051  1.00  0.00     0.049 A 
ATOM     39  N   UNL     1       6.085 -10.058   6.936  1.00  0.00    -0.248 NA
ATOM     40  C   UNL     1       6.015  -8.385   5.339  1.00  0.00     0.031 C 
ATOM     41  C   UNL     1       2.622  -7.221   8.468  1.00  0.00     0.029 A 
ATOM     42  N   UNL     1       4.720  -7.609   9.035  1.00  0.00    -0.354 N 
ATOM     43  C   UNL     1       7.321  -9.982   6.303  1.00  0.00     0.074 A 
ATOM     44  C   UNL     1       7.138  -9.091   5.190  1.00  0.00     0.031 C 
ATOM     45  C   UNL     1       2.918  -6.372   9.478  1.00  0.00     0.029 A 
ATOM     46  C   UNL     1       4.293  -6.593   9.892  1.00  0.00     0.049 A 
ATOM     47  H   UNL     1       5.592  -8.056   9.133  1.00  0.00     0.167 HD
ATOM     48  C   UNL     1       8.448 -10.448   6.910  1.00  0.00     0.034 A 
ATOM     49  C   UNL     1       5.016  -5.973  10.866  1.00  0.00     0.034 A 
ATOM     50  C   UNL     1       8.117 -11.317   8.018  1.00  0.00     0.049 A 
ATOM     51  C   UNL     1       6.085  -6.931  11.244  1.00  0.00     0.074 A 
ATOM     52  C   UNL     1       7.380 -12.478   8.155  1.00  0.00     0.029 A 
ATOM     53  N   UNL     1       8.230 -10.802   9.290  1.00  0.00    -0.354 N 
ATOM     54  N   UNL     1       5.848  -8.101  11.774  1.00  0.00    -0.248 NA
ATOM     55  C   UNL     1       7.381  -6.788  10.602  1.00  0.00     0.031 C 
ATOM     56  C   UNL     1       6.669 -12.317   9.380  1.00  0.00     0.029 A 
ATOM     57  C   UNL     1       7.078 -11.117   9.965  1.00  0.00     0.049 A 
ATOM     58  H   UNL     1       8.996 -10.299   9.649  1.00  0.00     0.167 HD
ATOM     59  C   UNL     1       6.749  -8.956  11.157  1.00  0.00     0.074 A 
ATOM     60  C   UNL     1       7.729  -8.076  10.521  1.00  0.00     0.031 C 
ATOM     61  C   UNL     1       6.467 -10.280  10.981  1.00  0.00     0.034 A 
BRANCH  48  62
ATOM     62  C   UNL     1       9.823  -9.827   6.772  1.00  0.00     0.023 A 
ATOM     63  C   UNL     1      10.887 -10.452   7.453  1.00  0.00     0.031 A 
ATOM     64  C   UNL     1      10.092  -8.532   6.274  1.00  0.00     0.131 A 
ATOM     65  C   UNL     1      12.091  -9.768   7.698  1.00  0.00     0.055 A 
ATOM     66  C   UNL     1      11.314  -7.881   6.465  1.00  0.00     0.041 A 
ATOM     67  F   UNL     1       9.169  -7.784   5.659  1.00  0.00    -0.206 F 
ATOM     68  C   UNL     1      12.311  -8.485   7.209  1.00  0.00     0.022 A 
BRANCH  65  69
ATOM     69  S   UNL     1      13.305 -10.530   8.804  1.00  0.00     0.124 S 
ATOM     70  O   UNL     1      12.527 -10.689  10.028  1.00  0.00    -0.237 OA
ATOM     71  O   UNL     1      13.637 -11.757   8.087  1.00  0.00    -0.237 OA
ATOM     72  O   UNL     1      14.376  -9.538   8.867  1.00  0.00    -0.744 OA
ENDBRANCH  65  69
ENDBRANCH  48  62
BRANCH  49  73
ATOM     73  C   UNL     1       5.032  -4.527  11.250  1.00  0.00     0.023 A 
ATOM     74  C   UNL     1       5.738  -4.050  12.380  1.00  0.00     0.031 A 
ATOM     75  C   UNL     1       4.568  -3.541  10.351  1.00  0.00     0.131 A 
ATOM     76  C   UNL     1       5.969  -2.663  12.556  1.00  0.00     0.055 A 
ATOM     77  C   UNL     1       4.803  -2.174  10.525  1.00  0.00     0.041 A 
ATOM     78  F   UNL     1       3.933  -3.875   9.221  1.00  0.00    -0.206 F 
ATOM     79  C   UNL     1       5.519  -1.728  11.622  1.00  0.00     0.022 A 
BRANCH  76  80
ATOM     80  S   UNL     1       6.971  -2.049  13.952  1.00  0.00     0.124 S 
ATOM     81  O   UNL     1       6.015  -2.087  15.053  1.00  0.00    -0.237 OA
ATOM     82  O   UNL     1       8.064  -3.011  14.010  1.00  0.00    -0.237 OA
ATOM     83  O   UNL     1       7.362  -0.705  13.523  1.00  0.00    -0.744 OA
ENDBRANCH  76  80
ENDBRANCH  49  73
BRANCH  61  84
ATOM     84  C   UNL     1       5.324 -10.902  11.754  1.00  0.00     0.023 A 
ATOM     85  C   UNL     1       3.953 -10.607  11.572  1.00  0.00     0.031 A 
ATOM     86  C   UNL     1       5.659 -11.987  12.583  1.00  0.00     0.131 A 
ATOM     87  C   UNL     1       2.977 -11.405  12.208  1.00  0.00     0.055 A 
ATOM     88  C   UNL     1       4.693 -12.784  13.189  1.00  0.00     0.041 A 
ATOM     89  F   UNL     1       6.946 -12.328  12.766  1.00  0.00    -0.206 F 
ATOM     90  C   UNL     1       3.346 -12.498  13.002  1.00  0.00     0.022 A 
BRANCH  87  91
ATOM     91  S   UNL     1       1.197 -11.073  11.975  1.00  0.00     0.124 S 
ATOM     92  O   UNL     1       1.034  -9.734  12.532  1.00  0.00    -0.237 OA
ATOM     93  O   UNL     1       1.028 -11.193  10.530  1.00  0.00    -0.237 OA
ATOM     94  O   UNL     1       0.545 -12.133  12.748  1.00  0.00    -0.744 OA
ENDBRANCH  87  91
ENDBRANCH  61  84
ENDBRANCH  35  36
ENDBRANCH  27  30
ENDBRANCH  25  26
ENDBRANCH   1  25
TORSDOF 15
