REMARK SMILES C[C@@H](O)[C@@H](NC(=O)CN(C)C(=O)c1cccs1)C(=O)NCCCCNC(=O)c1ccc(-c2c3nc(c(-c4cc(S(=O)(=O)[O-])ccc4F)c4ccc([nH]4)c(-c4cc(S(=O)(=O)[O-])ccc4F)c4nc(c(-c5cc(S(=O)(=O)[O-])ccc5F)c5ccc2[nH]5)C=C4)C=C3)cc1
REMARK SMILES IDX 21 1 20 2 18 3 19 4 4 6 2 7 1 8 3 9 5 11 6 12 7 14 8 15 9 16
REMARK SMILES IDX 10 17 11 18 12 19 13 20 14 21 17 22 15 23 16 24 22 25 23 26
REMARK SMILES IDX 24 27 25 28 26 29 27 31 28 32 29 33 90 34 30 35 89 36 31 37
REMARK SMILES IDX 32 38 33 39 83 40 34 41 88 42 82 43 84 44 35 45 87 46 81 47
REMARK SMILES IDX 80 48 36 50 68 51 48 52 67 53 49 54 52 55 66 56 85 57 50 58
REMARK SMILES IDX 51 59 65 61 86 62 53 63 37 64 38 65 46 66 39 67 45 68 47 69
REMARK SMILES IDX 44 70 40 71 41 72 42 73 43 74 69 75 70 76 78 77 71 78 77 79
REMARK SMILES IDX 79 80 76 81 72 82 73 83 74 84 75 85 54 86 55 87 63 88 56 89
REMARK SMILES IDX 62 90 64 91 61 92 57 93 58 94 59 95 60 96
REMARK H PARENT 20 5 3 10 5 13 25 30 84 49 52 60
REMARK Flexibility Score: inf
ROOT
ATOM      1  C   UNL     1       0.579  -0.390   4.065  1.00  0.00     0.116 C 
ENDROOT
BRANCH   1   2
ATOM      2  N   UNL     1      -0.630   0.338   3.727  1.00  0.00    -0.354 N 
ATOM      3  C   UNL     1      -1.353   0.368   2.556  1.00  0.00     0.245 C 
ATOM      4  O   UNL     1      -2.499   0.830   2.651  1.00  0.00    -0.273 OA
ATOM      5  H   UNL     1      -0.990   0.901   4.450  1.00  0.00     0.163 HD
BRANCH   3   6
ATOM      6  C   UNL     1      -0.852  -0.164   1.170  1.00  0.00     0.200 C 
BRANCH   6   7
ATOM      7  C   UNL     1       0.617   0.162   0.771  1.00  0.00     0.143 C 
ATOM      8  C   UNL     1       0.891  -0.050  -0.727  1.00  0.00     0.041 C 
BRANCH   7   9
ATOM      9  O   UNL     1       0.910   1.553   0.984  1.00  0.00    -0.391 OA
ATOM     10  H   UNL     1       0.343   2.094   0.412  1.00  0.00     0.211 HD
ENDBRANCH   7   9
ENDBRANCH   6   7
BRANCH   6  11
ATOM     11  N   UNL     1      -1.406  -1.382   0.524  1.00  0.00    -0.341 N 
ATOM     12  C   UNL     1      -1.807  -2.638   0.828  1.00  0.00     0.240 C 
ATOM     13  H   UNL     1      -1.519  -1.222  -0.441  1.00  0.00     0.164 HD
ATOM     14  O   UNL     1      -2.098  -3.340  -0.151  1.00  0.00    -0.273 OA
BRANCH  12  15
ATOM     15  C   UNL     1      -2.209  -3.099   2.215  1.00  0.00     0.219 C 
BRANCH  15  16
ATOM     16  N   UNL     1      -1.247  -2.879   3.282  1.00  0.00    -0.332 N 
ATOM     17  C   UNL     1      -1.929  -2.212   4.396  1.00  0.00     0.147 C 
BRANCH  16  18
ATOM     18  C   UNL     1      -0.054  -3.713   3.163  1.00  0.00     0.264 C 
ATOM     19  O   UNL     1      -0.136  -4.610   2.315  1.00  0.00    -0.268 OA
BRANCH  18  20
ATOM     20  C   UNL     1       1.301  -3.502   3.778  1.00  0.00     0.092 A 
ATOM     21  C   UNL     1       1.903  -3.618   5.028  1.00  0.00     0.025 A 
ATOM     22  S   UNL     1       2.604  -3.287   2.621  1.00  0.00    -0.139 S 
ATOM     23  C   UNL     1       3.325  -3.500   5.064  1.00  0.00     0.012 A 
ATOM     24  C   UNL     1       3.833  -3.334   3.808  1.00  0.00     0.065 A 
ENDBRANCH  18  20
ENDBRANCH  16  18
ENDBRANCH  15  16
ENDBRANCH  12  15
ENDBRANCH   6  11
ENDBRANCH   3   6
ENDBRANCH   1   2
BRANCH   1  25
ATOM     25  C   UNL     1       0.884  -0.712   5.574  1.00  0.00     0.023 C 
BRANCH  25  26
ATOM     26  C   UNL     1       0.101  -1.453   6.752  1.00  0.00     0.023 C 
BRANCH  26  27
ATOM     27  C   UNL     1      -0.654  -2.840   7.058  1.00  0.00     0.116 C 
BRANCH  27  28
ATOM     28  N   UNL     1      -0.616  -4.056   6.230  1.00  0.00    -0.352 N 
ATOM     29  C   UNL     1      -0.315  -5.369   6.566  1.00  0.00     0.251 C 
ATOM     30  H   UNL     1      -0.842  -3.915   5.282  1.00  0.00     0.163 HD
ATOM     31  O   UNL     1      -0.047  -6.206   5.723  1.00  0.00    -0.269 OA
BRANCH  29  32
ATOM     32  C   UNL     1      -0.401  -5.731   7.974  1.00  0.00     0.039 A 
ATOM     33  C   UNL     1       0.674  -6.268   8.687  1.00  0.00     0.014 A 
ATOM     34  C   UNL     1      -1.626  -5.448   8.568  1.00  0.00     0.014 A 
ATOM     35  C   UNL     1       0.530  -6.446  10.063  1.00  0.00     0.010 A 
ATOM     36  C   UNL     1      -1.735  -5.548   9.931  1.00  0.00     0.010 A 
ATOM     37  C   UNL     1      -0.663  -6.051  10.686  1.00  0.00    -0.014 A 
BRANCH  37  38
ATOM     38  C   UNL     1      -0.908  -6.143  12.137  1.00  0.00     0.031 A 
ATOM     39  C   UNL     1      -2.055  -6.997  12.594  1.00  0.00     0.074 A 
ATOM     40  C   UNL     1      -0.284  -5.279  12.956  1.00  0.00     0.049 A 
ATOM     41  N   UNL     1      -2.707  -6.975  13.722  1.00  0.00    -0.248 NA
ATOM     42  C   UNL     1      -2.597  -7.939  11.597  1.00  0.00     0.031 C 
ATOM     43  C   UNL     1       0.792  -4.364  12.565  1.00  0.00     0.029 A 
ATOM     44  N   UNL     1      -0.503  -4.991  14.275  1.00  0.00    -0.354 N 
ATOM     45  C   UNL     1      -3.763  -7.865  13.557  1.00  0.00     0.074 A 
ATOM     46  C   UNL     1      -3.703  -8.350  12.196  1.00  0.00     0.031 C 
ATOM     47  C   UNL     1       1.138  -3.616  13.625  1.00  0.00     0.029 A 
ATOM     48  C   UNL     1       0.275  -3.960  14.748  1.00  0.00     0.049 A 
ATOM     49  H   UNL     1      -1.156  -5.474  14.832  1.00  0.00     0.167 HD
ATOM     50  C   UNL     1      -4.684  -8.248  14.473  1.00  0.00     0.034 A 
ATOM     51  C   UNL     1       0.266  -3.354  15.950  1.00  0.00     0.034 A 
ATOM     52  C   UNL     1      -4.681  -7.754  15.827  1.00  0.00     0.049 A 
ATOM     53  C   UNL     1      -0.733  -3.834  16.972  1.00  0.00     0.074 A 
ATOM     54  C   UNL     1      -5.492  -8.119  16.885  1.00  0.00     0.029 A 
ATOM     55  N   UNL     1      -3.809  -6.782  16.308  1.00  0.00    -0.354 N 
ATOM     56  N   UNL     1      -1.690  -4.726  16.835  1.00  0.00    -0.248 NA
ATOM     57  C   UNL     1      -0.645  -3.243  18.311  1.00  0.00     0.031 C 
ATOM     58  C   UNL     1      -5.150  -7.327  17.987  1.00  0.00     0.029 A 
ATOM     59  C   UNL     1      -4.074  -6.522  17.642  1.00  0.00     0.049 A 
ATOM     60  H   UNL     1      -3.106  -6.343  15.778  1.00  0.00     0.167 HD
ATOM     61  C   UNL     1      -2.296  -4.828  18.083  1.00  0.00     0.074 A 
ATOM     62  C   UNL     1      -1.583  -3.917  18.959  1.00  0.00     0.031 C 
ATOM     63  C   UNL     1      -3.341  -5.601  18.478  1.00  0.00     0.034 A 
BRANCH  50  64
ATOM     64  C   UNL     1      -5.750  -9.224  14.032  1.00  0.00     0.023 A 
ATOM     65  C   UNL     1      -5.423 -10.498  13.531  1.00  0.00     0.031 A 
ATOM     66  C   UNL     1      -7.109  -8.868  14.069  1.00  0.00     0.131 A 
ATOM     67  C   UNL     1      -6.425 -11.328  13.008  1.00  0.00     0.055 A 
ATOM     68  C   UNL     1      -8.113  -9.737  13.631  1.00  0.00     0.041 A 
ATOM     69  F   UNL     1      -7.488  -7.659  14.512  1.00  0.00    -0.206 F 
ATOM     70  C   UNL     1      -7.772 -10.969  13.079  1.00  0.00     0.022 A 
BRANCH  67  71
ATOM     71  S   UNL     1      -5.926 -12.813  12.094  1.00  0.00     0.124 S 
ATOM     72  O   UNL     1      -5.135 -12.237  11.009  1.00  0.00    -0.237 OA
ATOM     73  O   UNL     1      -5.181 -13.565  13.097  1.00  0.00    -0.237 OA
ATOM     74  O   UNL     1      -7.197 -13.407  11.684  1.00  0.00    -0.744 OA
ENDBRANCH  67  71
ENDBRANCH  50  64
BRANCH  51  75
ATOM     75  C   UNL     1       1.234  -2.264  16.257  1.00  0.00     0.023 A 
ATOM     76  C   UNL     1       2.229  -2.449  17.229  1.00  0.00     0.031 A 
ATOM     77  C   UNL     1       1.181  -1.022  15.599  1.00  0.00     0.131 A 
ATOM     78  C   UNL     1       3.102  -1.399  17.551  1.00  0.00     0.055 A 
ATOM     79  C   UNL     1       2.086   0.003  15.885  1.00  0.00     0.041 A 
ATOM     80  F   UNL     1       0.261  -0.795  14.648  1.00  0.00    -0.206 F 
ATOM     81  C   UNL     1       3.045  -0.178  16.877  1.00  0.00     0.022 A 
BRANCH  78  82
ATOM     82  S   UNL     1       4.263  -1.630  18.924  1.00  0.00     0.124 S 
ATOM     83  O   UNL     1       3.362  -1.966  20.021  1.00  0.00    -0.237 OA
ATOM     84  O   UNL     1       5.103  -2.714  18.428  1.00  0.00    -0.237 OA
ATOM     85  O   UNL     1       4.923  -0.331  19.032  1.00  0.00    -0.744 OA
ENDBRANCH  78  82
ENDBRANCH  51  75
BRANCH  63  86
ATOM     86  C   UNL     1      -3.729  -5.518  19.932  1.00  0.00     0.023 A 
ATOM     87  C   UNL     1      -4.277  -4.349  20.482  1.00  0.00     0.031 A 
ATOM     88  C   UNL     1      -3.540  -6.627  20.775  1.00  0.00     0.131 A 
ATOM     89  C   UNL     1      -4.558  -4.292  21.854  1.00  0.00     0.055 A 
ATOM     90  C   UNL     1      -3.887  -6.588  22.125  1.00  0.00     0.041 A 
ATOM     91  F   UNL     1      -3.018  -7.768  20.297  1.00  0.00    -0.206 F 
ATOM     92  C   UNL     1      -4.386  -5.410  22.675  1.00  0.00     0.022 A 
BRANCH  89  93
ATOM     93  S   UNL     1      -5.054  -2.703  22.570  1.00  0.00     0.124 S 
ATOM     94  O   UNL     1      -3.918  -1.852  22.232  1.00  0.00    -0.237 OA
ATOM     95  O   UNL     1      -6.298  -2.416  21.862  1.00  0.00    -0.237 OA
ATOM     96  O   UNL     1      -5.205  -3.001  23.993  1.00  0.00    -0.744 OA
ENDBRANCH  89  93
ENDBRANCH  63  86
ENDBRANCH  37  38
ENDBRANCH  29  32
ENDBRANCH  27  28
ENDBRANCH  26  27
ENDBRANCH  25  26
ENDBRANCH   1  25
TORSDOF 21
