REMARK SMILES CC[C@H](NC(=O)[C@H]1[C@@H](C(=O)NCCCCNC(=O)c2ccc(-c3c4nc(c(-c5cc(S(=O)(=O)[O-])ccc5F)c5ccc([nH]5)c(-c5cc(S(=O)(=O)[O-])ccc5F)c5nc(c(-c6cc(S(=O)(=O)[O-])ccc6F)c6ccc3[nH]6)C=C5)C=C4)cc2)[C@@H]2C=C[C@H]1C2)c1ccccc1
REMARK SMILES IDX 13 1 12 2 11 3 9 4 10 5 8 7 7 8 85 9 82 10 84 11 86 12 83 13
REMARK SMILES IDX 5 14 4 15 6 17 3 18 2 19 1 20 87 21 88 22 92 23 89 24 91 25
REMARK SMILES IDX 90 26 14 27 15 28 16 29 17 30 18 32 19 33 20 34 81 35 21 36
REMARK SMILES IDX 80 37 22 38 23 39 24 40 74 41 25 42 79 43 73 44 75 45 26 46
REMARK SMILES IDX 78 47 72 48 71 49 27 51 59 52 39 53 58 54 40 55 43 56 57 57
REMARK SMILES IDX 76 58 41 59 42 60 56 62 77 63 44 64 28 65 29 66 37 67 30 68
REMARK SMILES IDX 36 69 38 70 35 71 31 72 32 73 33 74 34 75 60 76 61 77 69 78
REMARK SMILES IDX 62 79 68 80 70 81 67 82 63 83 64 84 65 85 66 86 45 87 46 88
REMARK SMILES IDX 54 89 47 90 53 91 55 92 52 93 48 94 49 95 50 96 51 97
REMARK H PARENT 11 6 4 16 16 31 75 50 43 61
REMARK Flexibility Score: inf
ROOT
ATOM      1  C   UNL     1       1.660   2.494  -4.064  1.00  0.00     0.023 C 
ENDROOT
BRANCH   1   2
ATOM      2  C   UNL     1       1.249   1.337  -3.160  1.00  0.00     0.116 C 
BRANCH   2   3
ATOM      3  N   UNL     1       0.324   0.381  -3.740  1.00  0.00    -0.356 N 
ATOM      4  C   UNL     1       0.447  -0.980  -3.735  1.00  0.00     0.224 C 
ATOM      5  O   UNL     1      -0.554  -1.681  -3.604  1.00  0.00    -0.275 OA
ATOM      6  H   UNL     1      -0.474   0.751  -4.182  1.00  0.00     0.163 HD
BRANCH   4   7
ATOM      7  C   UNL     1       1.815  -1.598  -3.875  1.00  0.00     0.098 C 
ATOM      8  C   UNL     1       2.438  -1.524  -5.299  1.00  0.00     0.098 C 
ATOM      9  C   UNL     1       2.612  -3.010  -5.689  1.00  0.00     0.025 C 
ATOM     10  C   UNL     1       1.804  -3.135  -3.602  1.00  0.00     0.025 C 
ATOM     11  C   UNL     1       3.720  -3.565  -4.799  1.00  0.00    -0.027 C 
ATOM     12  C   UNL     1       1.445  -3.689  -4.978  1.00  0.00     0.017 C 
ATOM     13  C   UNL     1       3.235  -3.626  -3.548  1.00  0.00    -0.027 C 
BRANCH   8  14
ATOM     14  C   UNL     1       1.998  -0.547  -6.387  1.00  0.00     0.225 C 
ATOM     15  N   UNL     1       0.920  -0.472  -7.172  1.00  0.00    -0.349 N 
ATOM     16  H   UNL     1       1.082   0.252  -7.819  1.00  0.00     0.164 HD
ATOM     17  O   UNL     1       2.817   0.355  -6.660  1.00  0.00    -0.275 OA
BRANCH  15  18
ATOM     18  C   UNL     1      -0.412  -1.029  -7.469  1.00  0.00     0.112 C 
BRANCH  18  19
ATOM     19  C   UNL     1      -0.489  -2.522  -7.813  1.00  0.00     0.026 C 
ATOM     20  C   UNL     1       0.526  -2.968  -8.856  1.00  0.00     0.006 C 
ENDBRANCH  18  19
BRANCH  18  21
ATOM     21  C   UNL     1      -1.499  -0.448  -6.577  1.00  0.00    -0.026 A 
ATOM     22  C   UNL     1      -1.710   0.945  -6.566  1.00  0.00     0.006 A 
ATOM     23  C   UNL     1      -2.342  -1.235  -5.783  1.00  0.00     0.006 A 
ATOM     24  C   UNL     1      -2.684   1.530  -5.752  1.00  0.00     0.000 A 
ATOM     25  C   UNL     1      -3.308  -0.649  -4.956  1.00  0.00     0.000 A 
ATOM     26  C   UNL     1      -3.473   0.732  -4.932  1.00  0.00     0.000 A 
ENDBRANCH  18  21
ENDBRANCH  15  18
ENDBRANCH   8  14
ENDBRANCH   4   7
ENDBRANCH   2   3
ENDBRANCH   1   2
BRANCH   1  27
ATOM     27  C   UNL     1       0.551   3.391  -4.615  1.00  0.00     0.023 C 
BRANCH  27  28
ATOM     28  C   UNL     1      -0.517   3.867  -3.634  1.00  0.00     0.116 C 
BRANCH  28  29
ATOM     29  N   UNL     1       0.028   4.587  -2.498  1.00  0.00    -0.352 N 
ATOM     30  C   UNL     1      -0.307   5.800  -1.948  1.00  0.00     0.251 C 
ATOM     31  H   UNL     1       0.768   4.125  -2.042  1.00  0.00     0.163 HD
ATOM     32  O   UNL     1       0.389   6.229  -1.028  1.00  0.00    -0.269 OA
BRANCH  30  33
ATOM     33  C   UNL     1      -1.447   6.613  -2.445  1.00  0.00     0.039 A 
ATOM     34  C   UNL     1      -1.302   8.007  -2.453  1.00  0.00     0.014 A 
ATOM     35  C   UNL     1      -2.666   6.054  -2.840  1.00  0.00     0.014 A 
ATOM     36  C   UNL     1      -2.344   8.826  -2.900  1.00  0.00     0.010 A 
ATOM     37  C   UNL     1      -3.685   6.871  -3.346  1.00  0.00     0.010 A 
ATOM     38  C   UNL     1      -3.538   8.266  -3.378  1.00  0.00    -0.014 A 
BRANCH  38  39
ATOM     39  C   UNL     1      -4.633   9.134  -3.898  1.00  0.00     0.031 A 
ATOM     40  C   UNL     1      -5.957   9.209  -3.183  1.00  0.00     0.074 A 
ATOM     41  C   UNL     1      -4.451   9.832  -5.038  1.00  0.00     0.049 A 
ATOM     42  N   UNL     1      -7.038   9.874  -3.506  1.00  0.00    -0.248 NA
ATOM     43  C   UNL     1      -6.088   8.410  -1.957  1.00  0.00     0.031 C 
ATOM     44  C   UNL     1      -3.231   9.822  -5.848  1.00  0.00     0.029 A 
ATOM     45  N   UNL     1      -5.291  10.681  -5.716  1.00  0.00    -0.354 N 
ATOM     46  C   UNL     1      -7.983   9.565  -2.532  1.00  0.00     0.074 A 
ATOM     47  C   UNL     1      -7.359   8.610  -1.639  1.00  0.00     0.031 C 
ATOM     48  C   UNL     1      -3.396  10.640  -6.900  1.00  0.00     0.029 A 
ATOM     49  C   UNL     1      -4.741  11.205  -6.863  1.00  0.00     0.049 A 
ATOM     50  H   UNL     1      -6.202  10.895  -5.410  1.00  0.00     0.167 HD
ATOM     51  C   UNL     1      -9.244  10.046  -2.383  1.00  0.00     0.034 A 
ATOM     52  C   UNL     1      -5.260  12.041  -7.785  1.00  0.00     0.034 A 
ATOM     53  C   UNL     1      -9.854  11.008  -3.271  1.00  0.00     0.049 A 
ATOM     54  C   UNL     1      -6.661  12.564  -7.598  1.00  0.00     0.074 A 
ATOM     55  C   UNL     1     -11.108  11.591  -3.183  1.00  0.00     0.029 A 
ATOM     56  N   UNL     1      -9.258  11.529  -4.412  1.00  0.00    -0.354 N 
ATOM     57  N   UNL     1      -7.525  12.293  -6.648  1.00  0.00    -0.248 NA
ATOM     58  C   UNL     1      -7.149  13.520  -8.601  1.00  0.00     0.031 C 
ATOM     59  C   UNL     1     -11.291  12.416  -4.299  1.00  0.00     0.029 A 
ATOM     60  C   UNL     1     -10.126  12.407  -5.047  1.00  0.00     0.049 A 
ATOM     61  H   UNL     1      -8.352  11.308  -4.726  1.00  0.00     0.167 HD
ATOM     62  C   UNL     1      -8.646  13.071  -6.923  1.00  0.00     0.074 A 
ATOM     63  C   UNL     1      -8.342  13.831  -8.117  1.00  0.00     0.031 C 
ATOM     64  C   UNL     1      -9.820  13.154  -6.245  1.00  0.00     0.034 A 
BRANCH  51  65
ATOM     65  C   UNL     1     -10.056   9.509  -1.226  1.00  0.00     0.023 A 
ATOM     66  C   UNL     1      -9.670   9.723   0.109  1.00  0.00     0.031 A 
ATOM     67  C   UNL     1     -11.216   8.749  -1.460  1.00  0.00     0.131 A 
ATOM     68  C   UNL     1     -10.387   9.116   1.152  1.00  0.00     0.055 A 
ATOM     69  C   UNL     1     -11.973   8.218  -0.414  1.00  0.00     0.041 A 
ATOM     70  F   UNL     1     -11.627   8.497  -2.713  1.00  0.00    -0.206 F 
ATOM     71  C   UNL     1     -11.550   8.386   0.902  1.00  0.00     0.022 A 
BRANCH  68  72
ATOM     72  S   UNL     1      -9.692   9.174   2.827  1.00  0.00     0.124 S 
ATOM     73  O   UNL     1      -8.399   8.518   2.631  1.00  0.00    -0.237 OA
ATOM     74  O   UNL     1      -9.650  10.602   3.103  1.00  0.00    -0.237 OA
ATOM     75  O   UNL     1     -10.653   8.409   3.622  1.00  0.00    -0.744 OA
ENDBRANCH  68  72
ENDBRANCH  51  65
BRANCH  52  76
ATOM     76  C   UNL     1      -4.457  12.441  -8.976  1.00  0.00     0.023 A 
ATOM     77  C   UNL     1      -4.042  13.770  -9.157  1.00  0.00     0.031 A 
ATOM     78  C   UNL     1      -4.131  11.505  -9.973  1.00  0.00     0.131 A 
ATOM     79  C   UNL     1      -3.366  14.137 -10.330  1.00  0.00     0.055 A 
ATOM     80  C   UNL     1      -3.415  11.865 -11.115  1.00  0.00     0.041 A 
ATOM     81  F   UNL     1      -4.498  10.219  -9.843  1.00  0.00    -0.206 F 
ATOM     82  C   UNL     1      -3.040  13.191 -11.305  1.00  0.00     0.022 A 
BRANCH  79  83
ATOM     83  S   UNL     1      -2.986  15.890 -10.601  1.00  0.00     0.124 S 
ATOM     84  O   UNL     1      -4.313  16.493 -10.553  1.00  0.00    -0.237 OA
ATOM     85  O   UNL     1      -2.106  16.185  -9.475  1.00  0.00    -0.237 OA
ATOM     86  O   UNL     1      -2.342  15.899 -11.912  1.00  0.00    -0.744 OA
ENDBRANCH  79  83
ENDBRANCH  52  76
BRANCH  64  87
ATOM     87  C   UNL     1     -10.839  14.142  -6.760  1.00  0.00     0.023 A 
ATOM     88  C   UNL     1     -11.473  13.975  -8.004  1.00  0.00     0.031 A 
ATOM     89  C   UNL     1     -11.153  15.287  -6.007  1.00  0.00     0.131 A 
ATOM     90  C   UNL     1     -12.341  14.967  -8.486  1.00  0.00     0.055 A 
ATOM     91  C   UNL     1     -12.062  16.243  -6.465  1.00  0.00     0.041 A 
ATOM     92  F   UNL     1     -10.577  15.500  -4.813  1.00  0.00    -0.206 F 
ATOM     93  C   UNL     1     -12.649  16.093  -7.718  1.00  0.00     0.022 A 
BRANCH  90  94
ATOM     94  S   UNL     1     -12.981  14.820 -10.177  1.00  0.00     0.124 S 
ATOM     95  O   UNL     1     -11.753  14.718 -10.960  1.00  0.00    -0.237 OA
ATOM     96  O   UNL     1     -13.789  13.608 -10.099  1.00  0.00    -0.237 OA
ATOM     97  O   UNL     1     -13.736  16.057 -10.368  1.00  0.00    -0.744 OA
ENDBRANCH  90  94
ENDBRANCH  64  87
ENDBRANCH  38  39
ENDBRANCH  30  33
ENDBRANCH  28  29
ENDBRANCH  27  28
ENDBRANCH   1  27
TORSDOF 18
