REMARK SMILES C[C@H]1c2ccc(O)cc2OC(=O)[C@@H]1CC(=O)N[C@@H](CC1=c2ccccc2=NC1)C(=O)NCCCCNC(=O)c1ccc(-c2c3nc(c(-c4cc(S(=O)(=O)[O-])ccc4F)c4ccc([nH]4)c(-c4cc(S(=O)(=O)[O-])ccc4F)c4nc(c(-c5cc(S(=O)(=O)[O-])ccc5F)c5ccc2[nH]5)C=C4)C=C3)cc1
REMARK SMILES IDX 33 1 32 2 31 3 29 4 30 5 18 7 17 8 15 9 16 10 14 12 13 13
REMARK SMILES IDX 1 14 2 15 3 16 4 17 9 18 11 19 5 20 8 21 10 22 12 23 6 24
REMARK SMILES IDX 7 25 19 27 20 28 21 29 28 30 22 31 26 32 27 33 23 34 25 35
REMARK SMILES IDX 24 36 34 37 35 38 36 39 37 40 38 42 39 43 40 44 101 45 41 46
REMARK SMILES IDX 100 47 42 48 43 49 44 50 94 51 45 52 99 53 93 54 95 55 46 56
REMARK SMILES IDX 98 57 92 58 91 59 47 61 79 62 59 63 78 64 60 65 63 66 77 67
REMARK SMILES IDX 96 68 61 69 62 70 76 72 97 73 64 74 48 75 49 76 57 77 50 78
REMARK SMILES IDX 56 79 58 80 55 81 51 82 52 83 53 84 54 85 80 86 81 87 89 88
REMARK SMILES IDX 82 89 88 90 90 91 87 92 83 93 84 94 85 95 86 96 65 97 66 98
REMARK SMILES IDX 74 99 67 100 73 101 75 102 72 103 68 104 69 105 70 106
REMARK SMILES IDX 71 107
REMARK H PARENT 31 6 17 11 7 26 36 41 95 60 63 71
REMARK Flexibility Score: inf
ROOT
ATOM      1  C   UNL     1      -0.548   8.617  -4.449  1.00  0.00     0.023 C 
ENDROOT
BRANCH   1   2
ATOM      2  C   UNL     1       0.368   7.569  -3.838  1.00  0.00     0.116 C 
BRANCH   2   3
ATOM      3  N   UNL     1       0.373   7.359  -2.419  1.00  0.00    -0.354 N 
ATOM      4  C   UNL     1       1.227   6.480  -1.796  1.00  0.00     0.242 C 
ATOM      5  O   UNL     1       1.686   6.823  -0.700  1.00  0.00    -0.273 OA
ATOM      6  H   UNL     1      -0.264   7.867  -1.866  1.00  0.00     0.163 HD
BRANCH   4   7
ATOM      7  C   UNL     1       1.683   5.121  -2.432  1.00  0.00     0.175 C 
BRANCH   7   8
ATOM      8  N   UNL     1       0.722   4.389  -3.267  1.00  0.00    -0.344 N 
ATOM      9  C   UNL     1      -0.134   3.380  -2.937  1.00  0.00     0.221 C 
ATOM     10  O   UNL     1      -0.783   2.839  -3.834  1.00  0.00    -0.275 OA
ATOM     11  H   UNL     1       0.690   4.670  -4.210  1.00  0.00     0.164 HD
BRANCH   9  12
ATOM     12  C   UNL     1      -0.289   2.921  -1.497  1.00  0.00     0.116 C 
BRANCH  12  13
ATOM     13  C   UNL     1       0.626   1.727  -1.143  1.00  0.00     0.116 C 
ATOM     14  C   UNL     1       0.950  -0.382   0.259  1.00  0.00     0.014 C 
ATOM     15  C   UNL     1       0.127   0.898   0.060  1.00  0.00     0.034 C 
ATOM     16  C   UNL     1       0.178   1.756   1.298  1.00  0.00    -0.001 A 
ATOM     17  C   UNL     1      -0.715   1.581   2.360  1.00  0.00     0.011 A 
ATOM     18  C   UNL     1       1.118   2.787   1.373  1.00  0.00     0.138 A 
ATOM     19  C   UNL     1       2.014   2.203  -0.793  1.00  0.00     0.315 C 
ATOM     20  C   UNL     1      -0.700   2.470   3.440  1.00  0.00     0.047 A 
ATOM     21  C   UNL     1       1.128   3.694   2.427  1.00  0.00     0.093 A 
ATOM     22  O   UNL     1       2.113   2.926   0.389  1.00  0.00    -0.426 OA
ATOM     23  O   UNL     1       2.982   2.018  -1.521  1.00  0.00    -0.251 OA
ATOM     24  C   UNL     1       0.203   3.532   3.450  1.00  0.00     0.119 A 
BRANCH  24  25
ATOM     25  O   UNL     1       0.214   4.441   4.465  1.00  0.00    -0.508 OA
ATOM     26  H   UNL     1      -0.396   4.362   5.172  1.00  0.00     0.293 HD
ENDBRANCH  24  25
ENDBRANCH  12  13
ENDBRANCH   9  12
ENDBRANCH   7   8
BRANCH   7  27
ATOM     27  C   UNL     1       3.157   5.001  -2.955  1.00  0.00     0.068 C 
BRANCH  27  28
ATOM     28  C   UNL     1       3.566   5.533  -4.321  1.00  0.00    -0.037 C 
ATOM     29  C   UNL     1       3.178   4.968  -5.478  1.00  0.00     0.001 A 
ATOM     30  C   UNL     1       3.661   7.017  -4.475  1.00  0.00     0.174 C 
ATOM     31  C   UNL     1       4.041   4.444  -6.537  1.00  0.00     0.010 A 
ATOM     32  C   UNL     1       2.462   6.143  -6.052  1.00  0.00     0.065 A 
ATOM     33  N   UNL     1       2.716   7.317  -5.573  1.00  0.00    -0.280 NA
ATOM     34  C   UNL     1       3.565   4.471  -7.801  1.00  0.00     0.001 A 
ATOM     35  C   UNL     1       1.621   5.814  -7.214  1.00  0.00     0.028 A 
ATOM     36  C   UNL     1       2.212   4.958  -8.065  1.00  0.00     0.002 A 
ENDBRANCH  27  28
ENDBRANCH   7  27
ENDBRANCH   4   7
ENDBRANCH   2   3
ENDBRANCH   1   2
BRANCH   1  37
ATOM     37  C   UNL     1      -0.044  10.068  -4.446  1.00  0.00     0.023 C 
BRANCH  37  38
ATOM     38  C   UNL     1       1.445  10.350  -4.673  1.00  0.00     0.116 C 
BRANCH  38  39
ATOM     39  N   UNL     1       1.982   9.977  -5.979  1.00  0.00    -0.352 N 
ATOM     40  C   UNL     1       2.522  10.751  -6.997  1.00  0.00     0.251 C 
ATOM     41  H   UNL     1       1.957   9.012  -6.169  1.00  0.00     0.163 HD
ATOM     42  O   UNL     1       2.915  10.254  -8.029  1.00  0.00    -0.269 OA
BRANCH  40  43
ATOM     43  C   UNL     1       2.567  12.225  -6.820  1.00  0.00     0.039 A 
ATOM     44  C   UNL     1       3.061  12.771  -5.641  1.00  0.00     0.014 A 
ATOM     45  C   UNL     1       2.017  13.054  -7.800  1.00  0.00     0.014 A 
ATOM     46  C   UNL     1       2.726  14.077  -5.312  1.00  0.00     0.010 A 
ATOM     47  C   UNL     1       1.803  14.409  -7.516  1.00  0.00     0.010 A 
ATOM     48  C   UNL     1       2.063  14.910  -6.233  1.00  0.00    -0.014 A 
BRANCH  48  49
ATOM     49  C   UNL     1       1.626  16.268  -5.794  1.00  0.00     0.031 A 
ATOM     50  C   UNL     1       0.168  16.662  -5.793  1.00  0.00     0.074 A 
ATOM     51  C   UNL     1       2.542  17.119  -5.289  1.00  0.00     0.049 A 
ATOM     52  N   UNL     1      -0.386  17.766  -5.355  1.00  0.00    -0.248 NA
ATOM     53  C   UNL     1      -0.797  15.705  -6.359  1.00  0.00     0.031 C 
ATOM     54  C   UNL     1       3.980  16.854  -5.235  1.00  0.00     0.029 A 
ATOM     55  N   UNL     1       2.408  18.344  -4.683  1.00  0.00    -0.354 N 
ATOM     56  C   UNL     1      -1.748  17.648  -5.615  1.00  0.00     0.074 A 
ATOM     57  C   UNL     1      -1.937  16.379  -6.280  1.00  0.00     0.031 C 
ATOM     58  C   UNL     1       4.581  17.835  -4.551  1.00  0.00     0.029 A 
ATOM     59  C   UNL     1       3.591  18.848  -4.195  1.00  0.00     0.049 A 
ATOM     60  H   UNL     1       1.547  18.816  -4.606  1.00  0.00     0.167 HD
ATOM     61  C   UNL     1      -2.750  18.509  -5.312  1.00  0.00     0.034 A 
ATOM     62  C   UNL     1       3.863  19.996  -3.541  1.00  0.00     0.034 A 
ATOM     63  C   UNL     1      -2.559  19.756  -4.613  1.00  0.00     0.049 A 
ATOM     64  C   UNL     1       2.734  20.939  -3.226  1.00  0.00     0.074 A 
ATOM     65  C   UNL     1      -3.521  20.673  -4.225  1.00  0.00     0.029 A 
ATOM     66  N   UNL     1      -1.337  20.261  -4.192  1.00  0.00    -0.354 N 
ATOM     67  N   UNL     1       1.449  20.790  -3.448  1.00  0.00    -0.248 NA
ATOM     68  C   UNL     1       3.087  22.211  -2.580  1.00  0.00     0.031 C 
ATOM     69  C   UNL     1      -2.877  21.757  -3.624  1.00  0.00     0.029 A 
ATOM     70  C   UNL     1      -1.518  21.490  -3.576  1.00  0.00     0.049 A 
ATOM     71  H   UNL     1      -0.469  19.812  -4.312  1.00  0.00     0.167 HD
ATOM     72  C   UNL     1       0.842  21.949  -2.977  1.00  0.00     0.074 A 
ATOM     73  C   UNL     1       1.895  22.768  -2.411  1.00  0.00     0.031 C 
ATOM     74  C   UNL     1      -0.466  22.309  -3.025  1.00  0.00     0.034 A 
BRANCH  61  75
ATOM     75  C   UNL     1      -4.164  18.150  -5.709  1.00  0.00     0.023 A 
ATOM     76  C   UNL     1      -4.865  18.958  -6.625  1.00  0.00     0.031 A 
ATOM     77  C   UNL     1      -4.859  17.101  -5.083  1.00  0.00     0.131 A 
ATOM     78  C   UNL     1      -6.226  18.725  -6.863  1.00  0.00     0.055 A 
ATOM     79  C   UNL     1      -6.206  16.848  -5.354  1.00  0.00     0.041 A 
ATOM     80  F   UNL     1      -4.238  16.302  -4.200  1.00  0.00    -0.206 F 
ATOM     81  C   UNL     1      -6.898  17.670  -6.237  1.00  0.00     0.022 A 
BRANCH  78  82
ATOM     82  S   UNL     1      -7.194  19.817  -7.940  1.00  0.00     0.124 S 
ATOM     83  O   UNL     1      -7.679  18.884  -8.955  1.00  0.00    -0.237 OA
ATOM     84  O   UNL     1      -8.212  20.325  -7.024  1.00  0.00    -0.237 OA
ATOM     85  O   UNL     1      -6.223  20.798  -8.412  1.00  0.00    -0.744 OA
ENDBRANCH  78  82
ENDBRANCH  61  75
BRANCH  62  86
ATOM     86  C   UNL     1       5.269  20.275  -3.123  1.00  0.00     0.023 A 
ATOM     87  C   UNL     1       6.300  20.353  -4.077  1.00  0.00     0.031 A 
ATOM     88  C   UNL     1       5.620  20.337  -1.765  1.00  0.00     0.131 A 
ATOM     89  C   UNL     1       7.636  20.392  -3.659  1.00  0.00     0.055 A 
ATOM     90  C   UNL     1       6.949  20.461  -1.354  1.00  0.00     0.041 A 
ATOM     91  F   UNL     1       4.673  20.258  -0.817  1.00  0.00    -0.206 F 
ATOM     92  C   UNL     1       7.966  20.464  -2.303  1.00  0.00     0.022 A 
BRANCH  89  93
ATOM     93  S   UNL     1       8.985  20.176  -4.854  1.00  0.00     0.124 S 
ATOM     94  O   UNL     1       9.697  21.444  -4.741  1.00  0.00    -0.237 OA
ATOM     95  O   UNL     1       9.680  19.010  -4.313  1.00  0.00    -0.237 OA
ATOM     96  O   UNL     1       8.291  19.949  -6.118  1.00  0.00    -0.744 OA
ENDBRANCH  89  93
ENDBRANCH  62  86
BRANCH  74  97
ATOM     97  C   UNL     1      -0.853  23.666  -2.486  1.00  0.00     0.023 A 
ATOM     98  C   UNL     1      -1.724  23.776  -1.386  1.00  0.00     0.031 A 
ATOM     99  C   UNL     1      -0.458  24.845  -3.143  1.00  0.00     0.131 A 
ATOM    100  C   UNL     1      -2.196  25.035  -0.995  1.00  0.00     0.055 A 
ATOM    101  C   UNL     1      -0.896  26.101  -2.721  1.00  0.00     0.041 A 
ATOM    102  F   UNL     1       0.364  24.793  -4.203  1.00  0.00    -0.206 F 
ATOM    103  C   UNL     1      -1.780  26.199  -1.650  1.00  0.00     0.022 A 
BRANCH 100 104
ATOM    104  S   UNL     1      -3.431  25.206   0.324  1.00  0.00     0.124 S 
ATOM    105  O   UNL     1      -2.696  25.974   1.326  1.00  0.00    -0.237 OA
ATOM    106  O   UNL     1      -4.506  25.929  -0.351  1.00  0.00    -0.237 OA
ATOM    107  O   UNL     1      -3.740  23.830   0.698  1.00  0.00    -0.744 OA
ENDBRANCH 100 104
ENDBRANCH  74  97
ENDBRANCH  48  49
ENDBRANCH  40  43
ENDBRANCH  38  39
ENDBRANCH  37  38
ENDBRANCH   1  37
TORSDOF 20
