REMARK SMILES O=C(COc1ccccc1/C=N/N1[C@@H](S)N=N[C@H]1[C@@H]1C=C(c2ccccc2)N=N1)NCCCCNC(=O)c1ccc(-c2c3nc(c(-c4cc(S(=O)(=O)[O-])ccc4F)c4ccc([nH]4)c(-c4cc(S(=O)(=O)[O-])ccc4F)c4nc(c(-c5cc(S(=O)(=O)[O-])ccc5F)c5ccc2[nH]5)C=C4)C=C3)cc1
REMARK SMILES IDX 31 1 30 2 1 3 2 4 3 6 4 7 5 8 6 9 10 10 7 11 9 12 8 13 11 14
REMARK SMILES IDX 12 15 13 16 14 17 18 18 16 19 17 20 15 21 19 23 20 24 29 25
REMARK SMILES IDX 21 26 28 27 22 28 23 29 27 30 24 31 26 32 25 33 32 34 33 35
REMARK SMILES IDX 34 36 35 37 36 38 37 40 38 41 39 42 100 43 40 44 99 45 41 46
REMARK SMILES IDX 42 47 43 48 93 49 44 50 98 51 92 52 94 53 45 54 97 55 91 56
REMARK SMILES IDX 90 57 46 59 78 60 58 61 77 62 59 63 62 64 76 65 95 66 60 67
REMARK SMILES IDX 61 68 75 70 96 71 63 72 47 73 48 74 56 75 49 76 55 77 57 78
REMARK SMILES IDX 54 79 50 80 51 81 52 82 53 83 79 84 80 85 88 86 81 87 87 88
REMARK SMILES IDX 89 89 86 90 82 91 83 92 84 93 85 94 64 95 65 96 73 97 66 98
REMARK SMILES IDX 72 99 74 100 71 101 67 102 68 103 69 104 70 105
REMARK H PARENT 30 5 15 22 35 39 94 58 62 69
REMARK Flexibility Score: inf
ROOT
ATOM      1  C   UNL     1       2.607   0.069  -2.537  1.00  0.00     0.116 C 
ENDROOT
BRANCH   1   2
ATOM      2  N   UNL     1       2.637  -0.485  -0.966  1.00  0.00    -0.353 N 
ATOM      3  O   UNL     1       1.641   0.755   0.909  1.00  0.00    -0.271 OA
ATOM      4  C   UNL     1       2.163  -0.237   0.390  1.00  0.00     0.257 C 
ATOM      5  H   UNL     1       3.193  -1.297  -0.945  1.00  0.00     0.163 HD
BRANCH   4   6
ATOM      6  C   UNL     1       2.132  -1.271   1.488  1.00  0.00     0.329 C 
BRANCH   6   7
ATOM      7  O   UNL     1       2.432  -2.584   1.301  1.00  0.00    -0.483 OA
BRANCH   7   8
ATOM      8  C   UNL     1       1.626  -3.348   0.533  1.00  0.00     0.128 A 
ATOM      9  C   UNL     1       2.046  -4.666   0.846  1.00  0.00     0.047 A 
ATOM     10  C   UNL     1       0.738  -3.047  -0.531  1.00  0.00     0.037 A 
ATOM     11  C   UNL     1       1.725  -5.727   0.041  1.00  0.00     0.004 A 
ATOM     12  C   UNL     1       0.454  -4.163  -1.346  1.00  0.00     0.013 A 
ATOM     13  C   UNL     1       0.951  -5.467  -1.076  1.00  0.00     0.001 A 
BRANCH  10  14
ATOM     14  C   UNL     1       0.266  -1.669  -1.123  1.00  0.00     0.145 C 
ATOM     15  N   UNL     1       0.022  -0.535  -0.486  1.00  0.00    -0.180 NA
BRANCH  15  16
ATOM     16  N   UNL     1       0.158   0.771  -1.272  1.00  0.00    -0.233 NA
ATOM     17  C   UNL     1      -1.063   1.635  -1.138  1.00  0.00     0.298 C 
ATOM     18  C   UNL     1       1.204   2.049  -0.756  1.00  0.00     0.274 C 
ATOM     19  N   UNL     1      -0.865   2.663  -0.077  1.00  0.00    -0.153 NA
ATOM     20  N   UNL     1       0.356   2.907   0.140  1.00  0.00    -0.161 NA
BRANCH  17  21
ATOM     21  S   UNL     1      -2.627   0.687  -1.072  1.00  0.00    -0.128 SA
ATOM     22  H   UNL     1      -2.639  -0.092   0.043  1.00  0.00     0.106 HD
ENDBRANCH  17  21
BRANCH  18  23
ATOM     23  C   UNL     1       3.028   2.286  -0.358  1.00  0.00     0.202 C 
ATOM     24  C   UNL     1       4.283   1.506  -0.873  1.00  0.00     0.037 C 
ATOM     25  N   UNL     1       3.426   2.221   1.131  1.00  0.00    -0.177 NA
ATOM     26  C   UNL     1       4.932   0.932   0.147  1.00  0.00     0.091 C 
ATOM     27  N   UNL     1       4.404   1.393   1.331  1.00  0.00    -0.155 NA
BRANCH  26  28
ATOM     28  C   UNL     1       5.776  -0.320  -0.073  1.00  0.00     0.002 A 
ATOM     29  C   UNL     1       5.222  -1.600   0.127  1.00  0.00     0.010 A 
ATOM     30  C   UNL     1       7.048  -0.347  -0.653  1.00  0.00     0.010 A 
ATOM     31  C   UNL     1       5.798  -2.818  -0.272  1.00  0.00     0.001 A 
ATOM     32  C   UNL     1       7.691  -1.573  -0.990  1.00  0.00     0.001 A 
ATOM     33  C   UNL     1       7.059  -2.805  -0.823  1.00  0.00     0.000 A 
ENDBRANCH  26  28
ENDBRANCH  18  23
ENDBRANCH  15  16
ENDBRANCH  10  14
ENDBRANCH   7   8
ENDBRANCH   6   7
ENDBRANCH   4   6
ENDBRANCH   1   2
BRANCH   1  34
ATOM     34  C   UNL     1       2.548   1.524  -3.362  1.00  0.00     0.023 C 
BRANCH  34  35
ATOM     35  C   UNL     1       3.566   2.741  -3.479  1.00  0.00     0.023 C 
BRANCH  35  36
ATOM     36  C   UNL     1       4.613   2.679  -4.596  1.00  0.00     0.116 C 
BRANCH  36  37
ATOM     37  N   UNL     1       4.098   3.196  -5.872  1.00  0.00    -0.352 N 
ATOM     38  C   UNL     1       4.498   2.879  -7.168  1.00  0.00     0.251 C 
ATOM     39  H   UNL     1       3.372   3.857  -5.801  1.00  0.00     0.163 HD
ATOM     40  O   UNL     1       4.293   3.619  -8.095  1.00  0.00    -0.269 OA
BRANCH  38  41
ATOM     41  C   UNL     1       5.161   1.574  -7.342  1.00  0.00     0.039 A 
ATOM     42  C   UNL     1       6.328   1.405  -8.090  1.00  0.00     0.014 A 
ATOM     43  C   UNL     1       4.621   0.540  -6.590  1.00  0.00     0.014 A 
ATOM     44  C   UNL     1       6.992   0.184  -8.000  1.00  0.00     0.010 A 
ATOM     45  C   UNL     1       5.400  -0.537  -6.310  1.00  0.00     0.010 A 
ATOM     46  C   UNL     1       6.520  -0.775  -7.092  1.00  0.00    -0.014 A 
BRANCH  46  47
ATOM     47  C   UNL     1       7.176  -2.049  -6.859  1.00  0.00     0.031 A 
ATOM     48  C   UNL     1       8.563  -1.951  -6.351  1.00  0.00     0.074 A 
ATOM     49  C   UNL     1       6.465  -3.198  -6.834  1.00  0.00     0.049 A 
ATOM     50  N   UNL     1       9.654  -2.135  -7.014  1.00  0.00    -0.248 NA
ATOM     51  C   UNL     1       8.781  -1.399  -5.004  1.00  0.00     0.031 C 
ATOM     52  C   UNL     1       5.012  -3.380  -6.991  1.00  0.00     0.029 A 
ATOM     53  N   UNL     1       6.886  -4.455  -6.550  1.00  0.00    -0.354 N 
ATOM     54  C   UNL     1      10.688  -2.001  -6.094  1.00  0.00     0.074 A 
ATOM     55  C   UNL     1      10.112  -1.301  -4.979  1.00  0.00     0.031 C 
ATOM     56  C   UNL     1       4.656  -4.618  -6.586  1.00  0.00     0.029 A 
ATOM     57  C   UNL     1       5.866  -5.378  -6.342  1.00  0.00     0.049 A 
ATOM     58  H   UNL     1       7.838  -4.695  -6.494  1.00  0.00     0.167 HD
ATOM     59  C   UNL     1      11.837  -2.725  -6.227  1.00  0.00     0.034 A 
ATOM     60  C   UNL     1       6.001  -6.689  -6.016  1.00  0.00     0.034 A 
ATOM     61  C   UNL     1      11.862  -3.379  -7.524  1.00  0.00     0.049 A 
ATOM     62  C   UNL     1       7.374  -7.075  -6.420  1.00  0.00     0.074 A 
ATOM     63  C   UNL     1      11.880  -2.948  -8.835  1.00  0.00     0.029 A 
ATOM     64  N   UNL     1      11.452  -4.696  -7.568  1.00  0.00    -0.354 N 
ATOM     65  N   UNL     1       7.770  -7.077  -7.664  1.00  0.00    -0.248 NA
ATOM     66  C   UNL     1       8.444  -6.964  -5.438  1.00  0.00     0.031 C 
ATOM     67  C   UNL     1      11.036  -3.862  -9.535  1.00  0.00     0.029 A 
ATOM     68  C   UNL     1      10.617  -4.856  -8.646  1.00  0.00     0.049 A 
ATOM     69  H   UNL     1      11.713  -5.402  -6.933  1.00  0.00     0.167 HD
ATOM     70  C   UNL     1       9.045  -6.530  -7.641  1.00  0.00     0.074 A 
ATOM     71  C   UNL     1       9.453  -6.600  -6.238  1.00  0.00     0.031 C 
ATOM     72  C   UNL     1       9.522  -5.813  -8.703  1.00  0.00     0.034 A 
BRANCH  59  73
ATOM     73  C   UNL     1      12.738  -3.197  -5.098  1.00  0.00     0.023 A 
ATOM     74  C   UNL     1      13.795  -4.057  -5.460  1.00  0.00     0.031 A 
ATOM     75  C   UNL     1      12.493  -3.094  -3.712  1.00  0.00     0.131 A 
ATOM     76  C   UNL     1      14.438  -4.865  -4.508  1.00  0.00     0.055 A 
ATOM     77  C   UNL     1      13.179  -3.856  -2.759  1.00  0.00     0.041 A 
ATOM     78  F   UNL     1      11.539  -2.316  -3.192  1.00  0.00    -0.206 F 
ATOM     79  C   UNL     1      14.130  -4.778  -3.156  1.00  0.00     0.022 A 
BRANCH  76  80
ATOM     80  S   UNL     1      15.543  -6.169  -5.105  1.00  0.00     0.124 S 
ATOM     81  O   UNL     1      14.689  -6.854  -6.070  1.00  0.00    -0.237 OA
ATOM     82  O   UNL     1      16.650  -5.394  -5.655  1.00  0.00    -0.237 OA
ATOM     83  O   UNL     1      15.850  -6.929  -3.896  1.00  0.00    -0.744 OA
ENDBRANCH  76  80
ENDBRANCH  59  73
BRANCH  60  84
ATOM     84  C   UNL     1       5.142  -7.478  -5.097  1.00  0.00     0.023 A 
ATOM     85  C   UNL     1       4.998  -8.878  -5.177  1.00  0.00     0.031 A 
ATOM     86  C   UNL     1       4.629  -6.847  -3.941  1.00  0.00     0.131 A 
ATOM     87  C   UNL     1       4.371  -9.587  -4.124  1.00  0.00     0.055 A 
ATOM     88  C   UNL     1       4.019  -7.553  -2.902  1.00  0.00     0.041 A 
ATOM     89  F   UNL     1       4.781  -5.527  -3.748  1.00  0.00    -0.206 F 
ATOM     90  C   UNL     1       3.894  -8.930  -2.986  1.00  0.00     0.022 A 
BRANCH  87  91
ATOM     91  S   UNL     1       4.227 -11.404  -4.186  1.00  0.00     0.124 S 
ATOM     92  O   UNL     1       3.397 -11.612  -5.366  1.00  0.00    -0.237 OA
ATOM     93  O   UNL     1       5.621 -11.821  -4.288  1.00  0.00    -0.237 OA
ATOM     94  O   UNL     1       3.580 -11.737  -2.916  1.00  0.00    -0.744 OA
ENDBRANCH  87  91
ENDBRANCH  60  84
BRANCH  72  95
ATOM     95  C   UNL     1       8.741  -5.882 -10.004  1.00  0.00     0.023 A 
ATOM     96  C   UNL     1       7.408  -5.438 -10.178  1.00  0.00     0.031 A 
ATOM     97  C   UNL     1       9.433  -6.319 -11.146  1.00  0.00     0.131 A 
ATOM     98  C   UNL     1       6.818  -5.453 -11.458  1.00  0.00     0.055 A 
ATOM     99  C   UNL     1       8.854  -6.312 -12.414  1.00  0.00     0.041 A 
ATOM    100  F   UNL     1      10.709  -6.726 -11.051  1.00  0.00    -0.206 F 
ATOM    101  C   UNL     1       7.541  -5.884 -12.575  1.00  0.00     0.022 A 
BRANCH  98 102
ATOM    102  S   UNL     1       5.088  -4.925 -11.695  1.00  0.00     0.124 S 
ATOM    103  O   UNL     1       4.362  -5.654 -10.662  1.00  0.00    -0.237 OA
ATOM    104  O   UNL     1       5.170  -3.478 -11.515  1.00  0.00    -0.237 OA
ATOM    105  O   UNL     1       4.787  -5.349 -13.064  1.00  0.00    -0.744 OA
ENDBRANCH  98 102
ENDBRANCH  72  95
ENDBRANCH  46  47
ENDBRANCH  38  41
ENDBRANCH  36  37
ENDBRANCH  35  36
ENDBRANCH  34  35
ENDBRANCH   1  34
TORSDOF 21
