REMARK SMILES C[C@H](C(=O)Nc1ccc(C(F)(F)F)cc1)n1nc(C(=O)NCCCCNC(=O)c2ccc(-c3c4nc(c(-c5cc(S(=O)(=O)[O-])ccc5F)c5ccc([nH]5)c(-c5cc(S(=O)(=O)[O-])ccc5F)c5nc(c(-c6cc(S(=O)(=O)[O-])ccc6F)c6ccc3[nH]6)C=C5)C=C4)cc2)c2ccccc2c1=O
REMARK SMILES IDX 23 1 22 2 21 3 19 4 20 5 18 7 16 8 17 9 98 10 97 11 99 12
REMARK SMILES IDX 92 13 96 14 93 15 95 16 94 17 2 18 1 19 3 20 4 21 5 22 6 24
REMARK SMILES IDX 7 25 15 26 8 27 14 28 9 29 10 30 11 31 12 32 13 33 24 34
REMARK SMILES IDX 25 35 26 36 27 37 28 39 29 40 30 41 91 42 31 43 90 44 32 45
REMARK SMILES IDX 33 46 34 47 84 48 35 49 89 50 83 51 85 52 36 53 88 54 82 55
REMARK SMILES IDX 81 56 37 58 69 59 49 60 68 61 50 62 53 63 67 64 86 65 51 66
REMARK SMILES IDX 52 67 66 69 87 70 54 71 38 72 39 73 47 74 40 75 46 76 48 77
REMARK SMILES IDX 45 78 41 79 42 80 43 81 44 82 70 83 71 84 79 85 72 86 78 87
REMARK SMILES IDX 80 88 77 89 73 90 74 91 75 92 76 93 55 94 56 95 64 96 57 97
REMARK SMILES IDX 63 98 65 99 62 100 58 101 59 102 60 103 61 104
REMARK H PARENT 21 6 5 23 26 38 85 57 53 68
REMARK Flexibility Score: inf
ROOT
ATOM      1  C   UNL     1      -1.316   3.293   2.342  1.00  0.00     0.023 C 
ENDROOT
BRANCH   1   2
ATOM      2  C   UNL     1      -2.483   2.314   2.177  1.00  0.00     0.116 C 
BRANCH   2   3
ATOM      3  N   UNL     1      -3.643   3.019   1.655  1.00  0.00    -0.351 N 
ATOM      4  C   UNL     1      -3.861   3.406   0.346  1.00  0.00     0.272 C 
ATOM      5  O   UNL     1      -4.761   4.178   0.045  1.00  0.00    -0.267 OA
ATOM      6  H   UNL     1      -4.349   3.244   2.303  1.00  0.00     0.163 HD
BRANCH   4   7
ATOM      7  C   UNL     1      -3.048   2.709  -0.742  1.00  0.00     0.156 A 
ATOM      8  N   UNL     1      -1.195   1.343  -1.147  1.00  0.00    -0.216 N 
ATOM      9  N   UNL     1      -1.748   2.551  -0.587  1.00  0.00    -0.163 NA
ATOM     10  C   UNL     1      -2.194   0.391  -1.274  1.00  0.00     0.275 A 
ATOM     11  C   UNL     1      -3.231   0.815  -2.202  1.00  0.00     0.051 A 
ATOM     12  O   UNL     1      -2.485  -0.430  -0.416  1.00  0.00    -0.267 OA
ATOM     13  C   UNL     1      -3.797   2.021  -1.821  1.00  0.00     0.020 A 
ATOM     14  C   UNL     1      -3.706   0.073  -3.275  1.00  0.00     0.014 A 
ATOM     15  C   UNL     1      -4.932   2.483  -2.478  1.00  0.00     0.011 A 
ATOM     16  C   UNL     1      -4.818   0.553  -3.962  1.00  0.00     0.001 A 
ATOM     17  C   UNL     1      -5.443   1.738  -3.550  1.00  0.00     0.001 A 
BRANCH   8  18
ATOM     18  C   UNL     1       0.120   0.945  -0.554  1.00  0.00     0.197 C 
ATOM     19  C   UNL     1       1.111   2.104  -0.774  1.00  0.00     0.044 C 
BRANCH  18  20
ATOM     20  C   UNL     1       0.816  -0.363  -1.119  1.00  0.00     0.249 C 
ATOM     21  O   UNL     1       1.610  -0.340  -2.062  1.00  0.00    -0.272 OA
ATOM     22  N   UNL     1       0.629  -1.537  -0.395  1.00  0.00    -0.324 N 
ATOM     23  H   UNL     1       1.333  -1.805   0.240  1.00  0.00     0.170 HD
BRANCH  22  24
ATOM     24  C   UNL     1      -0.508  -2.370  -0.513  1.00  0.00     0.041 A 
ATOM     25  C   UNL     1      -1.021  -2.951   0.654  1.00  0.00     0.027 A 
ATOM     26  C   UNL     1      -1.214  -2.508  -1.712  1.00  0.00     0.027 A 
ATOM     27  C   UNL     1      -2.333  -3.445   0.673  1.00  0.00     0.015 A 
ATOM     28  C   UNL     1      -2.517  -3.034  -1.698  1.00  0.00     0.015 A 
ATOM     29  C   UNL     1      -3.122  -3.407  -0.486  1.00  0.00     0.056 A 
BRANCH  29  30
ATOM     30  C   UNL     1      -4.618  -3.615  -0.422  1.00  0.00     0.416 C 
ATOM     31  F   UNL     1      -5.035  -4.679  -1.164  1.00  0.00    -0.166 F 
ATOM     32  F   UNL     1      -5.095  -3.829   0.837  1.00  0.00    -0.166 F 
ATOM     33  F   UNL     1      -5.316  -2.544  -0.901  1.00  0.00    -0.166 F 
ENDBRANCH  29  30
ENDBRANCH  22  24
ENDBRANCH  18  20
ENDBRANCH   8  18
ENDBRANCH   4   7
ENDBRANCH   2   3
ENDBRANCH   1   2
BRANCH   1  34
ATOM     34  C   UNL     1      -1.399   4.083   3.647  1.00  0.00     0.023 C 
BRANCH  34  35
ATOM     35  C   UNL     1      -1.004   3.263   4.865  1.00  0.00     0.116 C 
BRANCH  35  36
ATOM     36  N   UNL     1       0.406   2.904   4.863  1.00  0.00    -0.352 N 
ATOM     37  C   UNL     1       1.267   2.831   5.941  1.00  0.00     0.251 C 
ATOM     38  H   UNL     1       0.795   2.687   3.985  1.00  0.00     0.163 HD
ATOM     39  O   UNL     1       2.449   2.631   5.780  1.00  0.00    -0.269 OA
BRANCH  37  40
ATOM     40  C   UNL     1       0.696   3.055   7.289  1.00  0.00     0.039 A 
ATOM     41  C   UNL     1       1.253   4.046   8.098  1.00  0.00     0.014 A 
ATOM     42  C   UNL     1      -0.444   2.356   7.694  1.00  0.00     0.014 A 
ATOM     43  C   UNL     1       0.620   4.384   9.295  1.00  0.00     0.010 A 
ATOM     44  C   UNL     1      -1.116   2.753   8.843  1.00  0.00     0.010 A 
ATOM     45  C   UNL     1      -0.590   3.768   9.657  1.00  0.00    -0.014 A 
BRANCH  45  46
ATOM     46  C   UNL     1      -1.312   4.164  10.893  1.00  0.00     0.031 A 
ATOM     47  C   UNL     1      -1.502   3.164  12.000  1.00  0.00     0.074 A 
ATOM     48  C   UNL     1      -1.845   5.397  10.990  1.00  0.00     0.049 A 
ATOM     49  N   UNL     1      -2.133   3.296  13.138  1.00  0.00    -0.248 NA
ATOM     50  C   UNL     1      -0.939   1.824  11.777  1.00  0.00     0.031 C 
ATOM     51  C   UNL     1      -1.775   6.434   9.958  1.00  0.00     0.029 A 
ATOM     52  N   UNL     1      -2.552   5.989  12.006  1.00  0.00    -0.354 N 
ATOM     53  C   UNL     1      -2.058   2.054  13.758  1.00  0.00     0.074 A 
ATOM     54  C   UNL     1      -1.388   1.165  12.832  1.00  0.00     0.031 C 
ATOM     55  C   UNL     1      -2.374   7.548  10.412  1.00  0.00     0.029 A 
ATOM     56  C   UNL     1      -2.904   7.294  11.747  1.00  0.00     0.049 A 
ATOM     57  H   UNL     1      -2.785   5.525  12.842  1.00  0.00     0.167 HD
ATOM     58  C   UNL     1      -2.480   1.695  14.996  1.00  0.00     0.034 A 
ATOM     59  C   UNL     1      -3.575   8.183  12.505  1.00  0.00     0.034 A 
ATOM     60  C   UNL     1      -3.129   2.602  15.911  1.00  0.00     0.049 A 
ATOM     61  C   UNL     1      -4.045   7.761  13.874  1.00  0.00     0.074 A 
ATOM     62  C   UNL     1      -3.537   2.373  17.213  1.00  0.00     0.029 A 
ATOM     63  N   UNL     1      -3.476   3.915  15.614  1.00  0.00    -0.354 N 
ATOM     64  N   UNL     1      -3.906   6.603  14.476  1.00  0.00    -0.248 NA
ATOM     65  C   UNL     1      -4.752   8.774  14.667  1.00  0.00     0.031 C 
ATOM     66  C   UNL     1      -4.187   3.522  17.679  1.00  0.00     0.029 A 
ATOM     67  C   UNL     1      -4.121   4.496  16.695  1.00  0.00     0.049 A 
ATOM     68  H   UNL     1      -3.290   4.367  14.759  1.00  0.00     0.167 HD
ATOM     69  C   UNL     1      -4.480   6.760  15.735  1.00  0.00     0.074 A 
ATOM     70  C   UNL     1      -4.953   8.128  15.806  1.00  0.00     0.031 C 
ATOM     71  C   UNL     1      -4.601   5.858  16.744  1.00  0.00     0.034 A 
BRANCH  58  72
ATOM     72  C   UNL     1      -2.269   0.255  15.405  1.00  0.00     0.023 A 
ATOM     73  C   UNL     1      -0.983  -0.313  15.473  1.00  0.00     0.031 A 
ATOM     74  C   UNL     1      -3.368  -0.582  15.668  1.00  0.00     0.131 A 
ATOM     75  C   UNL     1      -0.835  -1.691  15.690  1.00  0.00     0.055 A 
ATOM     76  C   UNL     1      -3.207  -1.934  15.978  1.00  0.00     0.041 A 
ATOM     77  F   UNL     1      -4.621  -0.106  15.600  1.00  0.00    -0.206 F 
ATOM     78  C   UNL     1      -1.936  -2.502  15.969  1.00  0.00     0.022 A 
BRANCH  75  79
ATOM     79  S   UNL     1       0.797  -2.436  15.417  1.00  0.00     0.124 S 
ATOM     80  O   UNL     1       1.067  -2.057  14.032  1.00  0.00    -0.237 OA
ATOM     81  O   UNL     1       1.616  -1.781  16.430  1.00  0.00    -0.237 OA
ATOM     82  O   UNL     1       0.562  -3.863  15.629  1.00  0.00    -0.744 OA
ENDBRANCH  75  79
ENDBRANCH  58  72
BRANCH  59  83
ATOM     83  C   UNL     1      -3.826   9.566  12.008  1.00  0.00     0.023 A 
ATOM     84  C   UNL     1      -3.231  10.672  12.634  1.00  0.00     0.031 A 
ATOM     85  C   UNL     1      -4.692   9.805  10.927  1.00  0.00     0.131 A 
ATOM     86  C   UNL     1      -3.542  11.971  12.204  1.00  0.00     0.055 A 
ATOM     87  C   UNL     1      -4.962  11.098  10.472  1.00  0.00     0.041 A 
ATOM     88  F   UNL     1      -5.281   8.782  10.288  1.00  0.00    -0.206 F 
ATOM     89  C   UNL     1      -4.395  12.191  11.120  1.00  0.00     0.022 A 
BRANCH  86  90
ATOM     90  S   UNL     1      -2.869  13.377  13.132  1.00  0.00     0.124 S 
ATOM     91  O   UNL     1      -3.413  13.141  14.465  1.00  0.00    -0.237 OA
ATOM     92  O   UNL     1      -1.431  13.179  12.981  1.00  0.00    -0.237 OA
ATOM     93  O   UNL     1      -3.412  14.538  12.431  1.00  0.00    -0.744 OA
ENDBRANCH  86  90
ENDBRANCH  59  83
BRANCH  71  94
ATOM     94  C   UNL     1      -5.236   6.350  18.022  1.00  0.00     0.023 A 
ATOM     95  C   UNL     1      -6.587   6.732  18.078  1.00  0.00     0.031 A 
ATOM     96  C   UNL     1      -4.466   6.465  19.194  1.00  0.00     0.131 A 
ATOM     97  C   UNL     1      -7.112   7.271  19.262  1.00  0.00     0.055 A 
ATOM     98  C   UNL     1      -5.011   6.942  20.386  1.00  0.00     0.041 A 
ATOM     99  F   UNL     1      -3.170   6.116  19.197  1.00  0.00    -0.206 F 
ATOM    100  C   UNL     1      -6.337   7.364  20.421  1.00  0.00     0.022 A 
BRANCH  97 101
ATOM    101  S   UNL     1      -8.794   7.951  19.237  1.00  0.00     0.124 S 
ATOM    102  O   UNL     1      -8.701   8.954  18.181  1.00  0.00    -0.237 OA
ATOM    103  O   UNL     1      -9.601   6.775  18.930  1.00  0.00    -0.237 OA
ATOM    104  O   UNL     1      -8.967   8.486  20.587  1.00  0.00    -0.744 OA
ENDBRANCH  97 101
ENDBRANCH  71  94
ENDBRANCH  45  46
ENDBRANCH  37  40
ENDBRANCH  35  36
ENDBRANCH  34  35
ENDBRANCH   1  34
TORSDOF 18
