REMARK SMILES O=C(NCCCCNC(=O)c1ccc(Cn2ccc3ccc(Br)cc32)nc1)c1ccc(-c2c3nc(c(-c4cc(S(=O)(=O)[O-])ccc4F)c4ccc([nH]4)c(-c4cc(S(=O)(=O)[O-])ccc4F)c4nc(c(-c5cc(S(=O)(=O)[O-])ccc5F)c5ccc2[nH]5)C=C4)C=C3)cc1
REMARK SMILES IDX 5 1 4 2 3 3 1 4 2 5 28 7 29 8 90 9 30 10 89 11 31 12 32 13
REMARK SMILES IDX 33 14 83 15 34 16 88 17 82 18 84 19 35 20 87 21 81 22 80 23
REMARK SMILES IDX 36 25 68 26 48 27 67 28 49 29 52 30 66 31 85 32 50 33 51 34
REMARK SMILES IDX 65 36 86 37 53 38 37 39 38 40 46 41 39 42 45 43 47 44 44 45
REMARK SMILES IDX 40 46 41 47 42 48 43 49 69 50 70 51 78 52 71 53 77 54 79 55
REMARK SMILES IDX 76 56 72 57 73 58 74 59 75 60 54 61 55 62 63 63 56 64 62 65
REMARK SMILES IDX 64 66 61 67 57 68 58 69 59 70 60 71 6 72 7 73 8 74 9 75
REMARK SMILES IDX 10 77 11 78 12 79 27 80 13 81 26 82 14 83 15 84 16 85 17 86
REMARK SMILES IDX 25 87 18 88 19 89 24 90 20 91 22 92 21 93 23 94
REMARK H PARENT 3 6 84 24 52 35 8 76
REMARK Flexibility Score: inf
ROOT
ATOM      1  C   UNL     1       4.885   1.187  -2.809  1.00  0.00     0.023 C 
ENDROOT
BRANCH   1   2
ATOM      2  C   UNL     1       4.469   0.568  -1.482  1.00  0.00     0.116 C 
BRANCH   2   3
ATOM      3  N   UNL     1       3.015   0.419  -1.317  1.00  0.00    -0.352 N 
ATOM      4  O   UNL     1       1.201  -0.437  -0.222  1.00  0.00    -0.269 OA
ATOM      5  C   UNL     1       2.337   0.030  -0.168  1.00  0.00     0.251 C 
ATOM      6  H   UNL     1       2.462   0.616  -2.107  1.00  0.00     0.163 HD
BRANCH   5   7
ATOM      7  C   UNL     1       3.012   0.228   1.125  1.00  0.00     0.039 A 
ATOM      8  C   UNL     1       3.062  -0.732   2.135  1.00  0.00     0.014 A 
ATOM      9  C   UNL     1       3.725   1.411   1.236  1.00  0.00     0.014 A 
ATOM     10  C   UNL     1       3.929  -0.514   3.209  1.00  0.00     0.010 A 
ATOM     11  C   UNL     1       4.760   1.476   2.121  1.00  0.00     0.010 A 
ATOM     12  C   UNL     1       4.804   0.588   3.179  1.00  0.00    -0.014 A 
BRANCH  12  13
ATOM     13  C   UNL     1       5.824   0.816   4.198  1.00  0.00     0.031 A 
ATOM     14  C   UNL     1       6.618  -0.385   4.555  1.00  0.00     0.074 A 
ATOM     15  C   UNL     1       6.151   2.042   4.670  1.00  0.00     0.049 A 
ATOM     16  N   UNL     1       6.462  -1.127   5.599  1.00  0.00    -0.248 NA
ATOM     17  C   UNL     1       7.550  -0.938   3.562  1.00  0.00     0.031 C 
ATOM     18  C   UNL     1       5.684   3.363   4.216  1.00  0.00     0.029 A 
ATOM     19  N   UNL     1       7.063   2.376   5.622  1.00  0.00    -0.354 N 
ATOM     20  C   UNL     1       7.459  -2.092   5.528  1.00  0.00     0.074 A 
ATOM     21  C   UNL     1       7.926  -2.070   4.164  1.00  0.00     0.031 C 
ATOM     22  C   UNL     1       6.489   4.331   4.704  1.00  0.00     0.029 A 
ATOM     23  C   UNL     1       7.377   3.728   5.675  1.00  0.00     0.049 A 
ATOM     24  H   UNL     1       7.469   1.712   6.225  1.00  0.00     0.167 HD
ATOM     25  C   UNL     1       7.997  -2.625   6.663  1.00  0.00     0.034 A 
ATOM     26  C   UNL     1       8.290   4.333   6.474  1.00  0.00     0.034 A 
ATOM     27  C   UNL     1       7.212  -2.257   7.818  1.00  0.00     0.049 A 
ATOM     28  C   UNL     1       8.552   3.425   7.611  1.00  0.00     0.074 A 
ATOM     29  C   UNL     1       5.908  -2.463   8.218  1.00  0.00     0.029 A 
ATOM     30  N   UNL     1       7.680  -1.205   8.570  1.00  0.00    -0.354 N 
ATOM     31  N   UNL     1       7.680   3.162   8.542  1.00  0.00    -0.248 NA
ATOM     32  C   UNL     1       9.626   2.457   7.464  1.00  0.00     0.031 C 
ATOM     33  C   UNL     1       5.521  -1.250   8.858  1.00  0.00     0.029 A 
ATOM     34  C   UNL     1       6.625  -0.395   8.895  1.00  0.00     0.049 A 
ATOM     35  H   UNL     1       8.618  -1.058   8.831  1.00  0.00     0.167 HD
ATOM     36  C   UNL     1       7.806   1.797   8.747  1.00  0.00     0.074 A 
ATOM     37  C   UNL     1       9.098   1.446   8.158  1.00  0.00     0.031 C 
ATOM     38  C   UNL     1       6.729   1.038   9.107  1.00  0.00     0.034 A 
BRANCH  25  39
ATOM     39  C   UNL     1       9.423  -3.114   6.786  1.00  0.00     0.023 A 
ATOM     40  C   UNL     1      10.400  -2.907   5.796  1.00  0.00     0.031 A 
ATOM     41  C   UNL     1       9.901  -3.606   8.019  1.00  0.00     0.131 A 
ATOM     42  C   UNL     1      11.756  -3.166   6.028  1.00  0.00     0.055 A 
ATOM     43  C   UNL     1      11.264  -3.801   8.277  1.00  0.00     0.041 A 
ATOM     44  F   UNL     1       9.062  -3.851   9.038  1.00  0.00    -0.206 F 
ATOM     45  C   UNL     1      12.203  -3.576   7.278  1.00  0.00     0.022 A 
BRANCH  42  46
ATOM     46  S   UNL     1      12.968  -2.943   4.696  1.00  0.00     0.124 S 
ATOM     47  O   UNL     1      13.877  -1.963   5.278  1.00  0.00    -0.237 OA
ATOM     48  O   UNL     1      13.498  -4.297   4.554  1.00  0.00    -0.237 OA
ATOM     49  O   UNL     1      12.159  -2.476   3.574  1.00  0.00    -0.744 OA
ENDBRANCH  42  46
ENDBRANCH  25  39
BRANCH  26  50
ATOM     50  C   UNL     1       9.252   5.386   6.082  1.00  0.00     0.023 A 
ATOM     51  C   UNL     1       9.681   5.471   4.747  1.00  0.00     0.031 A 
ATOM     52  C   UNL     1      10.008   6.067   7.053  1.00  0.00     0.131 A 
ATOM     53  C   UNL     1      10.870   6.140   4.428  1.00  0.00     0.055 A 
ATOM     54  C   UNL     1      11.182   6.754   6.728  1.00  0.00     0.041 A 
ATOM     55  F   UNL     1       9.664   6.005   8.348  1.00  0.00    -0.206 F 
ATOM     56  C   UNL     1      11.630   6.775   5.411  1.00  0.00     0.022 A 
BRANCH  53  57
ATOM     57  S   UNL     1      11.511   6.100   2.732  1.00  0.00     0.124 S 
ATOM     58  O   UNL     1      11.851   7.502   2.501  1.00  0.00    -0.237 OA
ATOM     59  O   UNL     1      12.642   5.190   2.868  1.00  0.00    -0.237 OA
ATOM     60  O   UNL     1      10.377   5.602   1.959  1.00  0.00    -0.744 OA
ENDBRANCH  53  57
ENDBRANCH  26  50
BRANCH  38  61
ATOM     61  C   UNL     1       5.465   1.738   9.563  1.00  0.00     0.023 A 
ATOM     62  C   UNL     1       4.891   1.285  10.764  1.00  0.00     0.031 A 
ATOM     63  C   UNL     1       4.716   2.651   8.795  1.00  0.00     0.131 A 
ATOM     64  C   UNL     1       3.607   1.696  11.140  1.00  0.00     0.055 A 
ATOM     65  C   UNL     1       3.462   3.116   9.210  1.00  0.00     0.041 A 
ATOM     66  F   UNL     1       5.129   3.062   7.590  1.00  0.00    -0.206 F 
ATOM     67  C   UNL     1       2.893   2.624  10.379  1.00  0.00     0.022 A 
BRANCH  64  68
ATOM     68  S   UNL     1       2.776   0.908  12.542  1.00  0.00     0.124 S 
ATOM     69  O   UNL     1       2.642   2.016  13.483  1.00  0.00    -0.237 OA
ATOM     70  O   UNL     1       1.527   0.442  11.941  1.00  0.00    -0.237 OA
ATOM     71  O   UNL     1       3.695  -0.151  12.949  1.00  0.00    -0.744 OA
ENDBRANCH  64  68
ENDBRANCH  38  61
ENDBRANCH  12  13
ENDBRANCH   5   7
ENDBRANCH   2   3
ENDBRANCH   1   2
BRANCH   1  72
ATOM     72  C   UNL     1       4.418   2.631  -3.037  1.00  0.00     0.023 C 
BRANCH  72  73
ATOM     73  C   UNL     1       4.809   3.665  -1.975  1.00  0.00     0.116 C 
BRANCH  73  74
ATOM     74  N   UNL     1       6.244   3.830  -1.841  1.00  0.00    -0.352 N 
ATOM     75  C   UNL     1       7.041   4.837  -2.323  1.00  0.00     0.252 C 
ATOM     76  H   UNL     1       6.708   3.124  -1.335  1.00  0.00     0.163 HD
ATOM     77  O   UNL     1       8.257   4.701  -2.388  1.00  0.00    -0.269 OA
BRANCH  75  78
ATOM     78  C   UNL     1       6.424   6.052  -2.865  1.00  0.00     0.058 A 
ATOM     79  C   UNL     1       5.557   6.868  -2.139  1.00  0.00     0.017 A 
ATOM     80  C   UNL     1       6.700   6.379  -4.175  1.00  0.00     0.125 A 
ATOM     81  C   UNL     1       4.958   7.957  -2.775  1.00  0.00     0.026 A 
ATOM     82  N   UNL     1       6.086   7.391  -4.827  1.00  0.00    -0.259 NA
ATOM     83  C   UNL     1       5.241   8.188  -4.122  1.00  0.00     0.060 A 
BRANCH  83  84
ATOM     84  C   UNL     1       4.614   9.335  -4.876  1.00  0.00     0.178 C 
BRANCH  84  85
ATOM     85  N   UNL     1       5.528  10.466  -5.018  1.00  0.00    -0.341 N 
ATOM     86  C   UNL     1       5.364  11.675  -4.385  1.00  0.00     0.087 A 
ATOM     87  C   UNL     1       6.661  10.503  -5.814  1.00  0.00     0.049 A 
ATOM     88  C   UNL     1       6.439  12.472  -4.707  1.00  0.00     0.028 A 
ATOM     89  C   UNL     1       7.279  11.736  -5.585  1.00  0.00    -0.000 A 
ATOM     90  C   UNL     1       7.223   9.547  -6.678  1.00  0.00     0.042 A 
ATOM     91  C   UNL     1       8.518  12.005  -6.205  1.00  0.00     0.011 A 
ATOM     92  C   UNL     1       8.464   9.826  -7.253  1.00  0.00     0.020 A 
ATOM     93  C   UNL     1       9.110  11.035  -7.022  1.00  0.00     0.016 A 
ATOM     94  Br  UNL     1       9.290   8.518  -8.345  1.00  0.00    -0.051 Br
ENDBRANCH  84  85
ENDBRANCH  83  84
ENDBRANCH  75  78
ENDBRANCH  73  74
ENDBRANCH  72  73
ENDBRANCH   1  72
TORSDOF 16
