REMARK SMILES O=C(NCCCCNC(=O)c1cc(Cl)ccc1NC(=O)c1ccc2c(c1)C(=O)N(Cc1ccco1)C2=O)c1ccc(-c2c3nc(c(-c4cc(S(=O)(=O)[O-])ccc4F)c4ccc([nH]4)c(-c4cc(S(=O)(=O)[O-])ccc4F)c4nc(c(-c5cc(S(=O)(=O)[O-])ccc5F)c5ccc2[nH]5)C=C4)C=C3)cc1
REMARK SMILES IDX 6 1 5 2 4 3 3 4 1 5 2 6 38 8 39 9 100 10 40 11 99 12 41 13
REMARK SMILES IDX 42 14 43 15 93 16 44 17 98 18 92 19 94 20 45 21 97 22 91 23
REMARK SMILES IDX 90 24 46 26 78 27 58 28 77 29 59 30 62 31 76 32 95 33 60 34
REMARK SMILES IDX 61 35 75 37 96 38 63 39 47 40 48 41 56 42 49 43 55 44 57 45
REMARK SMILES IDX 54 46 50 47 51 48 52 49 53 50 79 51 80 52 88 53 81 54 87 55
REMARK SMILES IDX 89 56 86 57 82 58 83 59 84 60 85 61 64 62 65 63 73 64 66 65
REMARK SMILES IDX 72 66 74 67 71 68 67 69 68 70 69 71 70 72 7 73 8 74 9 75
REMARK SMILES IDX 10 77 11 78 12 79 17 80 13 81 16 82 14 83 15 84 18 85 19 86
REMARK SMILES IDX 20 88 21 89 22 90 26 91 23 92 25 93 24 94 27 95 36 96 28 97
REMARK SMILES IDX 29 98 37 99 30 100 31 101 32 102 35 103 33 104 34 105
REMARK H PARENT 3 7 94 25 62 36 8 76 18 87
REMARK Flexibility Score: inf
ROOT
ATOM      1  C   UNL     1       4.555  -2.106   3.073  1.00  0.00     0.023 C 
ENDROOT
BRANCH   1   2
ATOM      2  C   UNL     1       5.016  -0.902   2.258  1.00  0.00     0.023 C 
BRANCH   2   3
ATOM      3  C   UNL     1       4.632  -0.934   0.783  1.00  0.00     0.116 C 
BRANCH   3   4
ATOM      4  N   UNL     1       3.193  -0.999   0.574  1.00  0.00    -0.352 N 
ATOM      5  O   UNL     1       1.157  -0.277  -0.066  1.00  0.00    -0.269 OA
ATOM      6  C   UNL     1       2.376  -0.139  -0.120  1.00  0.00     0.251 C 
ATOM      7  H   UNL     1       2.740  -1.769   0.989  1.00  0.00     0.163 HD
BRANCH   6   8
ATOM      8  C   UNL     1       2.969   0.962  -0.908  1.00  0.00     0.039 A 
ATOM      9  C   UNL     1       4.054   0.731  -1.758  1.00  0.00     0.014 A 
ATOM     10  C   UNL     1       2.432   2.246  -0.787  1.00  0.00     0.014 A 
ATOM     11  C   UNL     1       4.690   1.802  -2.377  1.00  0.00     0.010 A 
ATOM     12  C   UNL     1       3.021   3.308  -1.476  1.00  0.00     0.010 A 
ATOM     13  C   UNL     1       4.173   3.100  -2.253  1.00  0.00    -0.014 A 
BRANCH  13  14
ATOM     14  C   UNL     1       4.817   4.236  -2.963  1.00  0.00     0.031 A 
ATOM     15  C   UNL     1       5.421   5.376  -2.193  1.00  0.00     0.074 A 
ATOM     16  C   UNL     1       4.826   4.249  -4.309  1.00  0.00     0.049 A 
ATOM     17  N   UNL     1       5.919   6.502  -2.635  1.00  0.00    -0.248 NA
ATOM     18  C   UNL     1       5.455   5.234  -0.731  1.00  0.00     0.031 C 
ATOM     19  C   UNL     1       4.285   3.190  -5.164  1.00  0.00     0.029 A 
ATOM     20  N   UNL     1       5.293   5.186  -5.195  1.00  0.00    -0.354 N 
ATOM     21  C   UNL     1       6.306   7.217  -1.507  1.00  0.00     0.074 A 
ATOM     22  C   UNL     1       5.947   6.407  -0.360  1.00  0.00     0.031 C 
ATOM     23  C   UNL     1       4.457   3.533  -6.448  1.00  0.00     0.029 A 
ATOM     24  C   UNL     1       5.045   4.866  -6.509  1.00  0.00     0.049 A 
ATOM     25  H   UNL     1       5.759   6.008  -4.918  1.00  0.00     0.167 HD
ATOM     26  C   UNL     1       6.908   8.432  -1.440  1.00  0.00     0.034 A 
ATOM     27  C   UNL     1       5.222   5.581  -7.637  1.00  0.00     0.034 A 
ATOM     28  C   UNL     1       7.241   9.225  -2.601  1.00  0.00     0.049 A 
ATOM     29  C   UNL     1       5.813   6.961  -7.540  1.00  0.00     0.074 A 
ATOM     30  C   UNL     1       7.875  10.455  -2.652  1.00  0.00     0.029 A 
ATOM     31  N   UNL     1       6.947   8.879  -3.916  1.00  0.00    -0.354 N 
ATOM     32  N   UNL     1       6.181   7.626  -6.469  1.00  0.00    -0.248 NA
ATOM     33  C   UNL     1       6.019   7.686  -8.799  1.00  0.00     0.031 C 
ATOM     34  C   UNL     1       7.881  10.892  -3.981  1.00  0.00     0.029 A 
ATOM     35  C   UNL     1       7.349   9.890  -4.777  1.00  0.00     0.049 A 
ATOM     36  H   UNL     1       6.516   8.039  -4.194  1.00  0.00     0.167 HD
ATOM     37  C   UNL     1       6.697   8.833  -6.929  1.00  0.00     0.074 A 
ATOM     38  C   UNL     1       6.587   8.806  -8.374  1.00  0.00     0.031 C 
ATOM     39  C   UNL     1       7.231   9.860  -6.219  1.00  0.00     0.034 A 
BRANCH  26  40
ATOM     40  C   UNL     1       7.180   8.997  -0.062  1.00  0.00     0.023 A 
ATOM     41  C   UNL     1       8.005   8.334   0.863  1.00  0.00     0.031 A 
ATOM     42  C   UNL     1       6.560  10.190   0.354  1.00  0.00     0.131 A 
ATOM     43  C   UNL     1       8.101   8.806   2.181  1.00  0.00     0.055 A 
ATOM     44  C   UNL     1       6.742  10.710   1.637  1.00  0.00     0.041 A 
ATOM     45  F   UNL     1       5.743  10.862  -0.473  1.00  0.00    -0.206 F 
ATOM     46  C   UNL     1       7.499  10.004   2.568  1.00  0.00     0.022 A 
BRANCH  43  47
ATOM     47  S   UNL     1       8.855   7.725   3.429  1.00  0.00     0.124 S 
ATOM     48  O   UNL     1       8.066   6.504   3.280  1.00  0.00    -0.237 OA
ATOM     49  O   UNL     1      10.241   7.648   2.983  1.00  0.00    -0.237 OA
ATOM     50  O   UNL     1       8.639   8.446   4.682  1.00  0.00    -0.744 OA
ENDBRANCH  43  47
ENDBRANCH  26  40
BRANCH  27  51
ATOM     51  C   UNL     1       4.785   5.012  -8.943  1.00  0.00     0.023 A 
ATOM     52  C   UNL     1       5.713   4.688  -9.943  1.00  0.00     0.031 A 
ATOM     53  C   UNL     1       3.422   4.769  -9.199  1.00  0.00     0.131 A 
ATOM     54  C   UNL     1       5.264   4.161 -11.164  1.00  0.00     0.055 A 
ATOM     55  C   UNL     1       2.987   4.195 -10.393  1.00  0.00     0.041 A 
ATOM     56  F   UNL     1       2.495   5.057  -8.271  1.00  0.00    -0.206 F 
ATOM     57  C   UNL     1       3.910   3.895 -11.388  1.00  0.00     0.022 A 
BRANCH  54  58
ATOM     58  S   UNL     1       6.473   3.879 -12.485  1.00  0.00     0.124 S 
ATOM     59  O   UNL     1       7.002   5.222 -12.693  1.00  0.00    -0.237 OA
ATOM     60  O   UNL     1       7.381   2.919 -11.866  1.00  0.00    -0.237 OA
ATOM     61  O   UNL     1       5.663   3.349 -13.580  1.00  0.00    -0.744 OA
ENDBRANCH  54  58
ENDBRANCH  27  51
BRANCH  39  62
ATOM     62  C   UNL     1       7.811  11.018  -6.996  1.00  0.00     0.023 A 
ATOM     63  C   UNL     1       7.013  11.902  -7.741  1.00  0.00     0.031 A 
ATOM     64  C   UNL     1       9.199  11.252  -6.957  1.00  0.00     0.131 A 
ATOM     65  C   UNL     1       7.614  12.961  -8.443  1.00  0.00     0.055 A 
ATOM     66  C   UNL     1       9.782  12.340  -7.606  1.00  0.00     0.041 A 
ATOM     67  F   UNL     1      10.010  10.433  -6.267  1.00  0.00    -0.206 F 
ATOM     68  C   UNL     1       8.989  13.198  -8.361  1.00  0.00     0.022 A 
BRANCH  65  69
ATOM     69  S   UNL     1       6.585  13.992  -9.525  1.00  0.00     0.124 S 
ATOM     70  O   UNL     1       6.061  13.010 -10.469  1.00  0.00    -0.237 OA
ATOM     71  O   UNL     1       5.618  14.559  -8.592  1.00  0.00    -0.237 OA
ATOM     72  O   UNL     1       7.534  14.949 -10.091  1.00  0.00    -0.744 OA
ENDBRANCH  65  69
ENDBRANCH  39  62
ENDBRANCH  13  14
ENDBRANCH   6   8
ENDBRANCH   3   4
ENDBRANCH   2   3
ENDBRANCH   1   2
BRANCH   1  73
ATOM     73  C   UNL     1       4.939  -3.462   2.491  1.00  0.00     0.116 C 
BRANCH  73  74
ATOM     74  N   UNL     1       6.380  -3.683   2.461  1.00  0.00    -0.352 N 
ATOM     75  C   UNL     1       7.119  -4.633   3.127  1.00  0.00     0.253 C 
ATOM     76  H   UNL     1       6.894  -3.070   1.887  1.00  0.00     0.163 HD
ATOM     77  O   UNL     1       8.344  -4.611   3.131  1.00  0.00    -0.269 OA
BRANCH  75  78
ATOM     78  C   UNL     1       6.403  -5.652   3.917  1.00  0.00     0.064 A 
ATOM     79  C   UNL     1       5.470  -6.465   3.253  1.00  0.00     0.036 A 
ATOM     80  C   UNL     1       6.583  -5.727   5.309  1.00  0.00     0.054 A 
ATOM     81  C   UNL     1       4.594  -7.240   3.997  1.00  0.00     0.041 A 
ATOM     82  C   UNL     1       5.604  -6.414   6.031  1.00  0.00     0.028 A 
ATOM     83  Cl  UNL     1       3.410  -8.200   3.205  1.00  0.00    -0.084 Cl
ATOM     84  C   UNL     1       4.626  -7.181   5.385  1.00  0.00     0.023 A 
BRANCH  80  85
ATOM     85  N   UNL     1       7.722  -5.121   5.901  1.00  0.00    -0.321 N 
ATOM     86  C   UNL     1       8.335  -5.281   7.128  1.00  0.00     0.255 C 
ATOM     87  H   UNL     1       8.162  -4.456   5.324  1.00  0.00     0.170 HD
ATOM     88  O   UNL     1       9.263  -4.557   7.478  1.00  0.00    -0.269 OA
BRANCH  86  89
ATOM     89  C   UNL     1       7.912  -6.343   8.060  1.00  0.00     0.041 A 
ATOM     90  C   UNL     1       7.466  -5.944   9.341  1.00  0.00     0.015 A 
ATOM     91  C   UNL     1       7.840  -7.681   7.639  1.00  0.00     0.028 A 
ATOM     92  C   UNL     1       6.814  -6.853  10.175  1.00  0.00     0.015 A 
ATOM     93  C   UNL     1       7.163  -8.547   8.474  1.00  0.00     0.054 A 
ATOM     94  C   UNL     1       6.643  -8.136   9.689  1.00  0.00     0.053 A 
ATOM     95  C   UNL     1       6.691  -9.911   8.233  1.00  0.00     0.261 C 
ATOM     96  C   UNL     1       5.823  -9.225  10.209  1.00  0.00     0.261 C 
ATOM     97  O   UNL     1       6.895 -10.526   7.203  1.00  0.00    -0.269 OA
ATOM     98  N   UNL     1       5.936 -10.257   9.318  1.00  0.00    -0.267 N 
ATOM     99  O   UNL     1       5.136  -9.135  11.206  1.00  0.00    -0.269 OA
BRANCH  98 100
ATOM    100  C   UNL     1       5.207 -11.502   9.434  1.00  0.00     0.204 C 
BRANCH 100 101
ATOM    101  C   UNL     1       5.806 -12.340  10.506  1.00  0.00     0.123 A 
ATOM    102  C   UNL     1       5.920 -12.191  11.875  1.00  0.00     0.047 A 
ATOM    103  O   UNL     1       6.359 -13.527  10.124  1.00  0.00    -0.467 OA
ATOM    104  C   UNL     1       6.595 -13.338  12.350  1.00  0.00     0.042 A 
ATOM    105  C   UNL     1       6.834 -14.123  11.248  1.00  0.00     0.195 A 
ENDBRANCH 100 101
ENDBRANCH  98 100
ENDBRANCH  86  89
ENDBRANCH  80  85
ENDBRANCH  75  78
ENDBRANCH  73  74
ENDBRANCH   1  73
TORSDOF 18
