REMARK SMILES Cc1ccc(C)c(N2C(=O)S[C@H](CC(=O)Nc3ccc(C(=O)NCCCCNC(=O)c4ccc(-c5c6nc(c(-c7cc(S(=O)(=O)[O-])ccc7F)c7ccc([nH]7)c(-c7cc(S(=O)(=O)[O-])ccc7F)c7nc(c(-c8cc(S(=O)(=O)[O-])ccc8F)c8ccc5[nH]8)C=C7)C=C6)cc4)c(O)c3)C2=O)c1
REMARK SMILES IDX 25 1 24 2 23 3 21 4 22 5 20 7 17 8 18 9 96 10 19 11 94 12
REMARK SMILES IDX 16 13 14 14 15 15 13 17 12 18 8 19 9 20 97 21 10 22 11 23
REMARK SMILES IDX 98 24 7 25 1 26 2 27 3 28 99 29 4 30 5 31 6 32 95 33 26 35
REMARK SMILES IDX 27 36 28 37 29 38 30 40 31 41 32 42 93 43 33 44 92 45 34 46
REMARK SMILES IDX 35 47 36 48 86 49 37 50 91 51 85 52 87 53 38 54 90 55 84 56
REMARK SMILES IDX 83 57 39 59 71 60 51 61 70 62 52 63 55 64 69 65 88 66 53 67
REMARK SMILES IDX 54 68 68 70 89 71 56 72 40 73 41 74 49 75 42 76 48 77 50 78
REMARK SMILES IDX 47 79 43 80 44 81 45 82 46 83 72 84 73 85 81 86 74 87 80 88
REMARK SMILES IDX 82 89 79 90 75 91 76 92 77 93 78 94 57 95 58 96 66 97 59 98
REMARK SMILES IDX 65 99 67 100 64 101 60 102 61 103 62 104 63 105
REMARK H PARENT 23 6 16 16 95 34 28 39 87 58 55 69
REMARK Flexibility Score: inf
ROOT
ATOM      1  C   UNL     1       4.325   7.279  -2.119  1.00  0.00     0.023 C 
ENDROOT
BRANCH   1   2
ATOM      2  C   UNL     1       2.885   7.460  -2.596  1.00  0.00     0.116 C 
BRANCH   2   3
ATOM      3  N   UNL     1       2.273   6.360  -3.308  1.00  0.00    -0.352 N 
ATOM      4  C   UNL     1       0.944   5.996  -3.417  1.00  0.00     0.255 C 
ATOM      5  O   UNL     1       0.700   5.052  -4.170  1.00  0.00    -0.269 OA
ATOM      6  H   UNL     1       2.903   5.779  -3.792  1.00  0.00     0.163 HD
BRANCH   4   7
ATOM      7  C   UNL     1      -0.165   6.570  -2.584  1.00  0.00     0.081 A 
ATOM      8  C   UNL     1      -2.029   7.107  -0.535  1.00  0.00     0.044 A 
ATOM      9  C   UNL     1      -2.207   6.042  -1.403  1.00  0.00     0.027 A 
ATOM     10  C   UNL     1      -1.100   8.072  -0.888  1.00  0.00     0.073 A 
ATOM     11  C   UNL     1      -1.258   5.728  -2.372  1.00  0.00     0.020 A 
ATOM     12  C   UNL     1      -0.222   7.821  -1.958  1.00  0.00     0.130 A 
BRANCH   8  13
ATOM     13  N   UNL     1      -2.831   7.229   0.614  1.00  0.00    -0.326 N 
ATOM     14  C   UNL     1      -3.305   6.204   1.411  1.00  0.00     0.226 C 
ATOM     15  O   UNL     1      -4.256   6.394   2.171  1.00  0.00    -0.275 OA
ATOM     16  H   UNL     1      -3.082   8.143   0.880  1.00  0.00     0.169 HD
BRANCH  14  17
ATOM     17  C   UNL     1      -2.482   4.921   1.512  1.00  0.00     0.125 C 
BRANCH  17  18
ATOM     18  C   UNL     1      -3.239   3.604   1.346  1.00  0.00     0.156 C 
ATOM     19  N   UNL     1      -1.707   1.999   0.432  1.00  0.00    -0.240 N 
ATOM     20  C   UNL     1      -2.287   2.435  -0.736  1.00  0.00     0.293 C 
ATOM     21  C   UNL     1      -2.272   2.454   1.612  1.00  0.00     0.248 C 
ATOM     22  O   UNL     1      -1.902   2.277  -1.875  1.00  0.00    -0.261 OA
ATOM     23  S   UNL     1      -3.789   3.261  -0.348  1.00  0.00    -0.050 SA
ATOM     24  O   UNL     1      -2.041   2.034   2.743  1.00  0.00    -0.273 OA
BRANCH  19  25
ATOM     25  C   UNL     1      -0.863   0.867   0.388  1.00  0.00     0.056 A 
ATOM     26  C   UNL     1       2.865   0.059   0.083  1.00  0.00     0.044 C 
ATOM     27  C   UNL     1       1.373  -0.082   0.185  1.00  0.00    -0.049 A 
ATOM     28  C   UNL     1       0.807  -1.358   0.096  1.00  0.00     0.004 A 
ATOM     29  C   UNL     1       0.532   1.032   0.345  1.00  0.00     0.030 A 
ATOM     30  C   UNL     1      -0.576  -1.523   0.135  1.00  0.00     0.006 A 
ATOM     31  C   UNL     1      -1.428  -0.419   0.265  1.00  0.00    -0.027 A 
ATOM     32  C   UNL     1      -2.910  -0.677   0.233  1.00  0.00     0.046 C 
ENDBRANCH  19  25
ENDBRANCH  17  18
ENDBRANCH  14  17
ENDBRANCH   8  13
BRANCH  12  33
ATOM     33  O   UNL     1       0.488   8.903  -2.398  1.00  0.00    -0.507 OA
ATOM     34  H   UNL     1       1.093   8.809  -3.109  1.00  0.00     0.293 HD
ENDBRANCH  12  33
ENDBRANCH   4   7
ENDBRANCH   2   3
ENDBRANCH   1   2
BRANCH   1  35
ATOM     35  C   UNL     1       5.466   7.010  -3.104  1.00  0.00     0.023 C 
BRANCH  35  36
ATOM     36  C   UNL     1       5.487   7.759  -4.428  1.00  0.00     0.116 C 
BRANCH  36  37
ATOM     37  N   UNL     1       5.399   9.221  -4.329  1.00  0.00    -0.352 N 
ATOM     38  C   UNL     1       5.027  10.162  -5.288  1.00  0.00     0.251 C 
ATOM     39  H   UNL     1       5.639   9.594  -3.450  1.00  0.00     0.163 HD
ATOM     40  O   UNL     1       5.431  11.318  -5.184  1.00  0.00    -0.269 OA
BRANCH  38  41
ATOM     41  C   UNL     1       4.163   9.770  -6.428  1.00  0.00     0.039 A 
ATOM     42  C   UNL     1       4.077  10.471  -7.632  1.00  0.00     0.014 A 
ATOM     43  C   UNL     1       3.402   8.626  -6.276  1.00  0.00     0.014 A 
ATOM     44  C   UNL     1       3.250   9.957  -8.640  1.00  0.00     0.010 A 
ATOM     45  C   UNL     1       2.953   7.941  -7.359  1.00  0.00     0.010 A 
ATOM     46  C   UNL     1       2.696   8.670  -8.490  1.00  0.00    -0.014 A 
BRANCH  46  47
ATOM     47  C   UNL     1       1.932   7.979  -9.518  1.00  0.00     0.031 A 
ATOM     48  C   UNL     1       2.656   7.915 -10.791  1.00  0.00     0.074 A 
ATOM     49  C   UNL     1       0.798   7.266  -9.321  1.00  0.00     0.049 A 
ATOM     50  N   UNL     1       2.527   8.734 -11.776  1.00  0.00    -0.248 NA
ATOM     51  C   UNL     1       3.817   7.020 -10.896  1.00  0.00     0.031 C 
ATOM     52  C   UNL     1       0.111   6.961  -8.058  1.00  0.00     0.029 A 
ATOM     53  N   UNL     1       0.048   6.582 -10.235  1.00  0.00    -0.354 N 
ATOM     54  C   UNL     1       3.368   8.244 -12.757  1.00  0.00     0.074 A 
ATOM     55  C   UNL     1       4.317   7.410 -12.071  1.00  0.00     0.031 C 
ATOM     56  C   UNL     1      -0.838   6.018  -8.264  1.00  0.00     0.029 A 
ATOM     57  C   UNL     1      -0.945   5.767  -9.691  1.00  0.00     0.049 A 
ATOM     58  H   UNL     1       0.197   6.660 -11.205  1.00  0.00     0.167 HD
ATOM     59  C   UNL     1       2.993   8.313 -14.062  1.00  0.00     0.034 A 
ATOM     60  C   UNL     1      -1.811   4.961 -10.364  1.00  0.00     0.034 A 
ATOM     61  C   UNL     1       1.847   9.197 -14.218  1.00  0.00     0.049 A 
ATOM     62  C   UNL     1      -1.940   5.534 -11.724  1.00  0.00     0.074 A 
ATOM     63  C   UNL     1       1.587  10.517 -13.898  1.00  0.00     0.029 A 
ATOM     64  N   UNL     1       0.612   8.607 -14.386  1.00  0.00    -0.354 N 
ATOM     65  N   UNL     1      -2.466   6.704 -11.958  1.00  0.00    -0.248 NA
ATOM     66  C   UNL     1      -1.086   5.021 -12.783  1.00  0.00     0.031 C 
ATOM     67  C   UNL     1       0.234  10.536 -13.443  1.00  0.00     0.029 A 
ATOM     68  C   UNL     1      -0.300   9.253 -13.585  1.00  0.00     0.049 A 
ATOM     69  H   UNL     1       0.415   7.848 -14.981  1.00  0.00     0.167 HD
ATOM     70  C   UNL     1      -1.661   7.265 -12.936  1.00  0.00     0.074 A 
ATOM     71  C   UNL     1      -0.923   6.138 -13.500  1.00  0.00     0.031 C 
ATOM     72  C   UNL     1      -1.467   8.616 -12.991  1.00  0.00     0.034 A 
BRANCH  59  73
ATOM     73  C   UNL     1       3.364   7.291 -15.113  1.00  0.00     0.023 A 
ATOM     74  C   UNL     1       2.882   7.527 -16.413  1.00  0.00     0.031 A 
ATOM     75  C   UNL     1       3.904   6.003 -14.886  1.00  0.00     0.131 A 
ATOM     76  C   UNL     1       2.839   6.498 -17.366  1.00  0.00     0.055 A 
ATOM     77  C   UNL     1       3.922   5.003 -15.861  1.00  0.00     0.041 A 
ATOM     78  F   UNL     1       4.364   5.599 -13.698  1.00  0.00    -0.206 F 
ATOM     79  C   UNL     1       3.356   5.235 -17.099  1.00  0.00     0.022 A 
BRANCH  76  80
ATOM     80  S   UNL     1       1.926   6.799 -18.897  1.00  0.00     0.124 S 
ATOM     81  O   UNL     1       0.621   7.200 -18.382  1.00  0.00    -0.237 OA
ATOM     82  O   UNL     1       2.726   7.848 -19.519  1.00  0.00    -0.237 OA
ATOM     83  O   UNL     1       1.962   5.503 -19.570  1.00  0.00    -0.744 OA
ENDBRANCH  76  80
ENDBRANCH  59  73
BRANCH  60  84
ATOM     84  C   UNL     1      -2.335   3.616  -9.995  1.00  0.00     0.023 A 
ATOM     85  C   UNL     1      -3.446   3.021 -10.638  1.00  0.00     0.031 A 
ATOM     86  C   UNL     1      -1.552   2.771  -9.180  1.00  0.00     0.131 A 
ATOM     87  C   UNL     1      -3.718   1.641 -10.469  1.00  0.00     0.055 A 
ATOM     88  C   UNL     1      -1.826   1.410  -9.016  1.00  0.00     0.041 A 
ATOM     89  F   UNL     1      -0.431   3.219  -8.594  1.00  0.00    -0.206 F 
ATOM     90  C   UNL     1      -2.903   0.835  -9.672  1.00  0.00     0.022 A 
BRANCH  87  91
ATOM     91  S   UNL     1      -5.080   0.840 -11.384  1.00  0.00     0.124 S 
ATOM     92  O   UNL     1      -6.262   1.377 -10.719  1.00  0.00    -0.237 OA
ATOM     93  O   UNL     1      -4.847   1.285 -12.753  1.00  0.00    -0.237 OA
ATOM     94  O   UNL     1      -4.848  -0.589 -11.162  1.00  0.00    -0.744 OA
ENDBRANCH  87  91
ENDBRANCH  60  84
BRANCH  72  95
ATOM     95  C   UNL     1      -2.443   9.502 -12.232  1.00  0.00     0.023 A 
ATOM     96  C   UNL     1      -2.710   9.431 -10.843  1.00  0.00     0.031 A 
ATOM     97  C   UNL     1      -3.086  10.518 -12.962  1.00  0.00     0.131 A 
ATOM     98  C   UNL     1      -3.605  10.344 -10.245  1.00  0.00     0.055 A 
ATOM     99  C   UNL     1      -3.952  11.433 -12.364  1.00  0.00     0.041 A 
ATOM    100  F   UNL     1      -2.863  10.655 -14.280  1.00  0.00    -0.206 F 
ATOM    101  C   UNL     1      -4.222  11.344 -11.004  1.00  0.00     0.022 A 
BRANCH  98 102
ATOM    102  S   UNL     1      -4.007  10.233  -8.469  1.00  0.00     0.124 S 
ATOM    103  O   UNL     1      -4.347   8.828  -8.281  1.00  0.00    -0.237 OA
ATOM    104  O   UNL     1      -2.771  10.681  -7.832  1.00  0.00    -0.237 OA
ATOM    105  O   UNL     1      -5.134  11.156  -8.316  1.00  0.00    -0.744 OA
ENDBRANCH  98 102
ENDBRANCH  72  95
ENDBRANCH  46  47
ENDBRANCH  38  41
ENDBRANCH  36  37
ENDBRANCH  35  36
ENDBRANCH   1  35
TORSDOF 19
