REMARK SMILES Cc1c(C#N)c2ccccc2n1CC(=O)N1CC[C@H](O)C[C@@H]1C(=O)NCCCCNC(=O)c1ccc(-c2c3nc(c(-c4cc(S(=O)(=O)[O-])ccc4F)c4ccc([nH]4)c(-c4cc(S(=O)(=O)[O-])ccc4F)c4nc(c(-c5cc(S(=O)(=O)[O-])ccc5F)c5ccc2[nH]5)C=C4)C=C3)cc1
REMARK SMILES IDX 27 1 26 2 25 3 23 4 24 5 22 7 16 8 17 9 18 10 21 11 19 12
REMARK SMILES IDX 14 13 15 14 13 15 12 16 1 17 2 18 3 19 6 20 11 21 7 22 10 23
REMARK SMILES IDX 8 24 9 25 4 26 5 27 20 28 28 30 29 31 30 32 31 33 32 35
REMARK SMILES IDX 33 36 34 37 95 38 35 39 94 40 36 41 37 42 38 43 88 44 39 45
REMARK SMILES IDX 93 46 87 47 89 48 40 49 92 50 86 51 85 52 41 54 73 55 53 56
REMARK SMILES IDX 72 57 54 58 57 59 71 60 90 61 55 62 56 63 70 65 91 66 58 67
REMARK SMILES IDX 42 68 43 69 51 70 44 71 50 72 52 73 49 74 45 75 46 76 47 77
REMARK SMILES IDX 48 78 74 79 75 80 83 81 76 82 82 83 84 84 81 85 77 86 78 87
REMARK SMILES IDX 79 88 80 89 59 90 60 91 68 92 61 93 67 94 69 95 66 96 62 97
REMARK SMILES IDX 63 98 64 99 65 100
REMARK H PARENT 25 6 20 29 30 34 89 53 57 64
REMARK Flexibility Score: inf
ROOT
ATOM      1  C   UNL     1      -4.479   7.577   2.343  1.00  0.00     0.023 C 
ENDROOT
BRANCH   1   2
ATOM      2  C   UNL     1      -4.197   6.161   1.857  1.00  0.00     0.116 C 
BRANCH   2   3
ATOM      3  N   UNL     1      -3.611   6.117   0.536  1.00  0.00    -0.354 N 
ATOM      4  C   UNL     1      -2.721   5.235   0.010  1.00  0.00     0.242 C 
ATOM      5  O   UNL     1      -2.376   5.450  -1.159  1.00  0.00    -0.273 OA
ATOM      6  H   UNL     1      -3.899   6.835  -0.073  1.00  0.00     0.163 HD
BRANCH   4   7
ATOM      7  C   UNL     1      -2.123   4.050   0.835  1.00  0.00     0.177 C 
ATOM      8  N   UNL     1      -1.354   3.178  -0.096  1.00  0.00    -0.329 N 
ATOM      9  C   UNL     1      -2.184   2.434  -1.050  1.00  0.00     0.123 C 
ATOM     10  C   UNL     1      -3.204   1.559  -0.326  1.00  0.00     0.053 C 
ATOM     11  C   UNL     1      -3.086   3.153   1.617  1.00  0.00     0.067 C 
ATOM     12  C   UNL     1      -4.001   2.339   0.710  1.00  0.00     0.118 C 
BRANCH   8  13
ATOM     13  C   UNL     1       0.023   3.123   0.043  1.00  0.00     0.243 C 
ATOM     14  O   UNL     1       0.550   3.467   1.112  1.00  0.00    -0.273 OA
BRANCH  13  15
ATOM     15  C   UNL     1       0.951   2.807  -1.122  1.00  0.00     0.222 C 
BRANCH  15  16
ATOM     16  N   UNL     1       0.693   1.603  -1.901  1.00  0.00    -0.334 N 
ATOM     17  C   UNL     1       1.170  -0.050  -0.045  1.00  0.00     0.066 C 
ATOM     18  C   UNL     1       0.733   0.304  -1.427  1.00  0.00     0.034 A 
ATOM     19  C   UNL     1       0.263  -0.509  -2.447  1.00  0.00     0.080 A 
ATOM     20  C   UNL     1      -0.016   0.302  -3.583  1.00  0.00     0.018 A 
ATOM     21  C   UNL     1       0.305   1.617  -3.236  1.00  0.00     0.050 A 
ATOM     22  C   UNL     1      -0.541   0.049  -4.869  1.00  0.00     0.012 A 
ATOM     23  C   UNL     1       0.128   2.684  -4.136  1.00  0.00     0.027 A 
ATOM     24  C   UNL     1      -0.732   1.107  -5.763  1.00  0.00     0.001 A 
ATOM     25  C   UNL     1      -0.397   2.406  -5.400  1.00  0.00     0.002 A 
BRANCH  19  26
ATOM     26  C   UNL     1       0.054  -1.925  -2.356  1.00  0.00     0.102 C 
ATOM     27  N   UNL     1      -0.130  -3.065  -2.276  1.00  0.00    -0.192 NA
ENDBRANCH  19  26
ENDBRANCH  15  16
ENDBRANCH  13  15
ENDBRANCH   8  13
BRANCH  12  28
ATOM     28  O   UNL     1      -4.982   3.172   0.103  1.00  0.00    -0.393 OA
ATOM     29  H   UNL     1      -4.543   3.835  -0.454  1.00  0.00     0.210 HD
ENDBRANCH  12  28
ENDBRANCH   4   7
ENDBRANCH   2   3
ENDBRANCH   1   2
BRANCH   1  30
ATOM     30  C   UNL     1      -5.476   8.398   1.518  1.00  0.00     0.023 C 
BRANCH  30  31
ATOM     31  C   UNL     1      -6.832   7.738   1.267  1.00  0.00     0.116 C 
BRANCH  31  32
ATOM     32  N   UNL     1      -7.504   7.291   2.467  1.00  0.00    -0.352 N 
ATOM     33  C   UNL     1      -8.427   7.833   3.317  1.00  0.00     0.251 C 
ATOM     34  H   UNL     1      -7.234   6.383   2.734  1.00  0.00     0.163 HD
ATOM     35  O   UNL     1      -8.912   7.048   4.137  1.00  0.00    -0.269 OA
BRANCH  33  36
ATOM     36  C   UNL     1      -8.809   9.270   3.386  1.00  0.00     0.039 A 
ATOM     37  C   UNL     1      -8.326  10.286   2.562  1.00  0.00     0.014 A 
ATOM     38  C   UNL     1      -9.653   9.620   4.460  1.00  0.00     0.014 A 
ATOM     39  C   UNL     1      -8.543  11.618   2.905  1.00  0.00     0.010 A 
ATOM     40  C   UNL     1      -9.897  10.946   4.787  1.00  0.00     0.010 A 
ATOM     41  C   UNL     1      -9.269  11.944   4.058  1.00  0.00    -0.014 A 
BRANCH  41  42
ATOM     42  C   UNL     1      -9.439  13.355   4.405  1.00  0.00     0.031 A 
ATOM     43  C   UNL     1     -10.132  14.130   3.339  1.00  0.00     0.074 A 
ATOM     44  C   UNL     1      -9.082  13.887   5.596  1.00  0.00     0.049 A 
ATOM     45  N   UNL     1      -9.610  14.986   2.524  1.00  0.00    -0.248 NA
ATOM     46  C   UNL     1     -11.513  13.755   2.997  1.00  0.00     0.031 C 
ATOM     47  C   UNL     1      -8.666  13.179   6.814  1.00  0.00     0.029 A 
ATOM     48  N   UNL     1      -9.086  15.191   6.006  1.00  0.00    -0.354 N 
ATOM     49  C   UNL     1     -10.661  15.445   1.728  1.00  0.00     0.074 A 
ATOM     50  C   UNL     1     -11.745  14.521   1.928  1.00  0.00     0.031 C 
ATOM     51  C   UNL     1      -8.707  14.024   7.872  1.00  0.00     0.029 A 
ATOM     52  C   UNL     1      -8.971  15.366   7.385  1.00  0.00     0.049 A 
ATOM     53  H   UNL     1      -9.164  15.945   5.379  1.00  0.00     0.167 HD
ATOM     54  C   UNL     1     -10.634  16.695   1.183  1.00  0.00     0.034 A 
ATOM     55  C   UNL     1      -9.091  16.531   8.074  1.00  0.00     0.034 A 
ATOM     56  C   UNL     1      -9.321  17.266   1.311  1.00  0.00     0.049 A 
ATOM     57  C   UNL     1      -8.887  17.635   7.114  1.00  0.00     0.074 A 
ATOM     58  C   UNL     1      -8.110  17.145   0.672  1.00  0.00     0.029 A 
ATOM     59  N   UNL     1      -9.092  17.821   2.542  1.00  0.00    -0.354 N 
ATOM     60  N   UNL     1      -7.744  17.889   6.544  1.00  0.00    -0.248 NA
ATOM     61  C   UNL     1     -10.055  18.235   6.482  1.00  0.00     0.031 C 
ATOM     62  C   UNL     1      -7.123  17.458   1.652  1.00  0.00     0.029 A 
ATOM     63  C   UNL     1      -7.758  17.831   2.839  1.00  0.00     0.049 A 
ATOM     64  H   UNL     1      -9.796  18.168   3.137  1.00  0.00     0.167 HD
ATOM     65  C   UNL     1      -8.087  18.280   5.265  1.00  0.00     0.074 A 
ATOM     66  C   UNL     1      -9.501  18.640   5.337  1.00  0.00     0.031 C 
ATOM     67  C   UNL     1      -7.287  17.976   4.203  1.00  0.00     0.034 A 
BRANCH  54  68
ATOM     68  C   UNL     1     -11.853  17.576   0.990  1.00  0.00     0.023 A 
ATOM     69  C   UNL     1     -13.118  17.265   1.519  1.00  0.00     0.031 A 
ATOM     70  C   UNL     1     -11.710  18.887   0.482  1.00  0.00     0.131 A 
ATOM     71  C   UNL     1     -14.165  18.197   1.528  1.00  0.00     0.055 A 
ATOM     72  C   UNL     1     -12.736  19.840   0.549  1.00  0.00     0.041 A 
ATOM     73  F   UNL     1     -10.547  19.301  -0.047  1.00  0.00    -0.206 F 
ATOM     74  C   UNL     1     -13.973  19.498   1.077  1.00  0.00     0.022 A 
BRANCH  71  75
ATOM     75  S   UNL     1     -15.805  17.727   2.146  1.00  0.00     0.124 S 
ATOM     76  O   UNL     1     -16.026  18.709   3.201  1.00  0.00    -0.237 OA
ATOM     77  O   UNL     1     -16.626  17.888   0.948  1.00  0.00    -0.237 OA
ATOM     78  O   UNL     1     -15.620  16.347   2.587  1.00  0.00    -0.744 OA
ENDBRANCH  71  75
ENDBRANCH  54  68
BRANCH  55  79
ATOM     79  C   UNL     1      -9.814  16.768   9.350  1.00  0.00     0.023 A 
ATOM     80  C   UNL     1     -10.991  16.042   9.606  1.00  0.00     0.031 A 
ATOM     81  C   UNL     1      -9.587  17.922  10.125  1.00  0.00     0.131 A 
ATOM     82  C   UNL     1     -11.918  16.500  10.555  1.00  0.00     0.055 A 
ATOM     83  C   UNL     1     -10.502  18.362  11.094  1.00  0.00     0.041 A 
ATOM     84  F   UNL     1      -8.508  18.689   9.904  1.00  0.00    -0.206 F 
ATOM     85  C   UNL     1     -11.684  17.659  11.299  1.00  0.00     0.022 A 
BRANCH  82  86
ATOM     86  S   UNL     1     -13.516  15.665  10.758  1.00  0.00     0.124 S 
ATOM     87  O   UNL     1     -13.553  15.424  12.199  1.00  0.00    -0.237 OA
ATOM     88  O   UNL     1     -14.444  16.677  10.267  1.00  0.00    -0.237 OA
ATOM     89  O   UNL     1     -13.382  14.468   9.934  1.00  0.00    -0.744 OA
ENDBRANCH  82  86
ENDBRANCH  55  79
BRANCH  67  90
ATOM     90  C   UNL     1      -5.846  17.629   4.461  1.00  0.00     0.023 A 
ATOM     91  C   UNL     1      -4.900  18.407   3.776  1.00  0.00     0.031 A 
ATOM     92  C   UNL     1      -5.386  16.500   5.160  1.00  0.00     0.131 A 
ATOM     93  C   UNL     1      -3.561  18.017   3.731  1.00  0.00     0.055 A 
ATOM     94  C   UNL     1      -4.028  16.157   5.182  1.00  0.00     0.041 A 
ATOM     95  F   UNL     1      -6.233  15.659   5.770  1.00  0.00    -0.206 F 
ATOM     96  C   UNL     1      -3.112  16.904   4.445  1.00  0.00     0.022 A 
BRANCH  93  97
ATOM     97  S   UNL     1      -2.423  18.850   2.597  1.00  0.00     0.124 S 
ATOM     98  O   UNL     1      -1.457  19.447   3.513  1.00  0.00    -0.237 OA
ATOM     99  O   UNL     1      -1.923  17.738   1.791  1.00  0.00    -0.237 OA
ATOM    100  O   UNL     1      -3.271  19.797   1.877  1.00  0.00    -0.744 OA
ENDBRANCH  93  97
ENDBRANCH  67  90
ENDBRANCH  41  42
ENDBRANCH  33  36
ENDBRANCH  31  32
ENDBRANCH  30  31
ENDBRANCH   1  30
TORSDOF 19
