REMARK SMILES C[C@H](C[NH3+])CS/C=C/C(=O)NCCCCNC(=O)c1ccc(-c2c3nc(c(-c4cc(S(=O)(=O)[O-])ccc4F)c4ccc([nH]4)c(-c4cc(S(=O)(=O)[O-])ccc4F)c4nc(c(-c5cc(S(=O)(=O)[O-])ccc5F)c5ccc2[nH]5)C=C4)C=C3)cc1
REMARK SMILES IDX 12 1 11 2 9 3 10 4 8 6 7 7 6 8 5 9 2 10 1 11 3 12 4 13 13 17
REMARK SMILES IDX 14 18 15 19 16 20 17 21 18 23 19 24 20 25 81 26 21 27 80 28
REMARK SMILES IDX 22 29 23 30 24 31 74 32 25 33 79 34 73 35 75 36 26 37 78 38
REMARK SMILES IDX 72 39 71 40 27 42 59 43 39 44 58 45 40 46 43 47 57 48 76 49
REMARK SMILES IDX 41 50 42 51 56 53 77 54 44 55 28 56 29 57 37 58 30 59 36 60
REMARK SMILES IDX 38 61 35 62 31 63 32 64 33 65 34 66 60 67 61 68 69 69 62 70
REMARK SMILES IDX 68 71 70 72 67 73 63 74 64 75 65 76 66 77 45 78 46 79 54 80
REMARK SMILES IDX 47 81 53 82 55 83 52 84 48 85 49 86 50 87 51 88
REMARK H PARENT 11 5 4 14 4 15 4 16 16 22 75 41 43 52
REMARK Flexibility Score: inf
ROOT
ATOM      1  C   UNL     1      -1.036   4.433  -0.884  1.00  0.00     0.116 C 
ENDROOT
BRANCH   1   2
ATOM      2  N   UNL     1      -0.173   3.967   0.186  1.00  0.00    -0.353 N 
ATOM      3  C   UNL     1      -0.224   2.800   0.879  1.00  0.00     0.244 C 
ATOM      4  O   UNL     1       0.480   2.623   1.869  1.00  0.00    -0.270 OA
ATOM      5  H   UNL     1       0.550   4.583   0.445  1.00  0.00     0.163 HD
BRANCH   3   6
ATOM      6  C   UNL     1      -1.137   1.723   0.451  1.00  0.00     0.078 C 
ATOM      7  C   UNL     1      -1.017   1.203  -0.776  1.00  0.00     0.046 C 
BRANCH   7   8
ATOM      8  S   UNL     1      -1.790  -0.258  -1.260  1.00  0.00    -0.133 SA
BRANCH   8   9
ATOM      9  C   UNL     1      -0.819  -1.492  -0.319  1.00  0.00     0.083 C 
BRANCH   9  10
ATOM     10  C   UNL     1       0.666  -1.636  -0.721  1.00  0.00     0.051 C 
ATOM     11  C   UNL     1       1.175  -3.010  -0.259  1.00  0.00     0.014 C 
BRANCH  10  12
ATOM     12  C   UNL     1       1.618  -0.539  -0.195  1.00  0.00     0.262 C 
BRANCH  12  13
ATOM     13  N   UNL     1       1.627  -0.400   1.258  1.00  0.00    -0.357 N 
ATOM     14  H   UNL     1       0.699  -0.125   1.579  1.00  0.00     0.344 HD
ATOM     15  H   UNL     1       2.305   0.313   1.527  1.00  0.00     0.344 HD
ATOM     16  H   UNL     1       1.884  -1.291   1.683  1.00  0.00     0.344 HD
ENDBRANCH  12  13
ENDBRANCH  10  12
ENDBRANCH   9  10
ENDBRANCH   8   9
ENDBRANCH   7   8
ENDBRANCH   3   6
ENDBRANCH   1   2
BRANCH   1  17
ATOM     17  C   UNL     1      -2.317   5.059  -0.343  1.00  0.00     0.023 C 
BRANCH  17  18
ATOM     18  C   UNL     1      -2.122   6.439   0.289  1.00  0.00     0.023 C 
BRANCH  18  19
ATOM     19  C   UNL     1      -1.432   7.468  -0.600  1.00  0.00     0.116 C 
BRANCH  19  20
ATOM     20  N   UNL     1      -2.041   7.592  -1.915  1.00  0.00    -0.352 N 
ATOM     21  C   UNL     1      -2.196   8.716  -2.688  1.00  0.00     0.251 C 
ATOM     22  H   UNL     1      -2.390   6.757  -2.303  1.00  0.00     0.163 HD
ATOM     23  O   UNL     1      -2.842   8.653  -3.730  1.00  0.00    -0.269 OA
BRANCH  21  24
ATOM     24  C   UNL     1      -1.614   9.996  -2.238  1.00  0.00     0.039 A 
ATOM     25  C   UNL     1      -2.400  11.149  -2.291  1.00  0.00     0.014 A 
ATOM     26  C   UNL     1      -0.304  10.057  -1.755  1.00  0.00     0.014 A 
ATOM     27  C   UNL     1      -1.887  12.356  -1.814  1.00  0.00     0.010 A 
ATOM     28  C   UNL     1       0.177  11.243  -1.209  1.00  0.00     0.010 A 
ATOM     29  C   UNL     1      -0.603  12.408  -1.249  1.00  0.00    -0.014 A 
BRANCH  29  30
ATOM     30  C   UNL     1      -0.036  13.685  -0.745  1.00  0.00     0.031 A 
ATOM     31  C   UNL     1       1.175  14.275  -1.417  1.00  0.00     0.074 A 
ATOM     32  C   UNL     1      -0.576  14.282   0.335  1.00  0.00     0.049 A 
ATOM     33  N   UNL     1       1.866  15.338  -1.096  1.00  0.00    -0.248 NA
ATOM     34  C   UNL     1       1.698  13.549  -2.584  1.00  0.00     0.031 C 
ATOM     35  C   UNL     1      -1.725  13.781   1.093  1.00  0.00     0.029 A 
ATOM     36  N   UNL     1      -0.228  15.437   0.988  1.00  0.00    -0.354 N 
ATOM     37  C   UNL     1       2.914  15.398  -2.010  1.00  0.00     0.074 A 
ATOM     38  C   UNL     1       2.805  14.223  -2.848  1.00  0.00     0.031 C 
ATOM     39  C   UNL     1      -2.001  14.638   2.090  1.00  0.00     0.029 A 
ATOM     40  C   UNL     1      -1.029  15.727   2.068  1.00  0.00     0.049 A 
ATOM     41  H   UNL     1       0.526  16.007   0.710  1.00  0.00     0.167 HD
ATOM     42  C   UNL     1       3.861  16.358  -2.155  1.00  0.00     0.034 A 
ATOM     43  C   UNL     1      -0.981  16.752   2.942  1.00  0.00     0.034 A 
ATOM     44  C   UNL     1       3.938  17.532  -1.322  1.00  0.00     0.049 A 
ATOM     45  C   UNL     1       0.082  17.808   2.763  1.00  0.00     0.074 A 
ATOM     46  C   UNL     1       4.824  18.592  -1.404  1.00  0.00     0.029 A 
ATOM     47  N   UNL     1       3.096  17.803  -0.251  1.00  0.00    -0.354 N 
ATOM     48  N   UNL     1       1.039  17.874   1.866  1.00  0.00    -0.248 NA
ATOM     49  C   UNL     1       0.058  18.935   3.703  1.00  0.00     0.031 C 
ATOM     50  C   UNL     1       4.557  19.470  -0.348  1.00  0.00     0.029 A 
ATOM     51  C   UNL     1       3.455  19.000   0.348  1.00  0.00     0.049 A 
ATOM     52  H   UNL     1       2.352  17.227   0.041  1.00  0.00     0.167 HD
ATOM     53  C   UNL     1       1.705  19.072   2.110  1.00  0.00     0.074 A 
ATOM     54  C   UNL     1       1.033  19.698   3.231  1.00  0.00     0.031 C 
ATOM     55  C   UNL     1       2.772  19.610   1.465  1.00  0.00     0.034 A 
BRANCH  42  56
ATOM     56  C   UNL     1       4.892  16.155  -3.241  1.00  0.00     0.023 A 
ATOM     57  C   UNL     1       4.529  16.072  -4.598  1.00  0.00     0.031 A 
ATOM     58  C   UNL     1       6.250  15.998  -2.916  1.00  0.00     0.131 A 
ATOM     59  C   UNL     1       5.494  15.751  -5.564  1.00  0.00     0.055 A 
ATOM     60  C   UNL     1       7.221  15.769  -3.894  1.00  0.00     0.041 A 
ATOM     61  F   UNL     1       6.658  16.045  -1.638  1.00  0.00    -0.206 F 
ATOM     62  C   UNL     1       6.842  15.626  -5.226  1.00  0.00     0.022 A 
BRANCH  59  63
ATOM     63  S   UNL     1       4.935  15.341  -7.241  1.00  0.00     0.124 S 
ATOM     64  O   UNL     1       4.057  14.200  -6.986  1.00  0.00    -0.237 OA
ATOM     65  O   UNL     1       4.278  16.571  -7.665  1.00  0.00    -0.237 OA
ATOM     66  O   UNL     1       6.173  15.018  -7.946  1.00  0.00    -0.744 OA
ENDBRANCH  59  63
ENDBRANCH  42  56
BRANCH  43  67
ATOM     67  C   UNL     1      -1.964  16.841   4.061  1.00  0.00     0.023 A 
ATOM     68  C   UNL     1      -2.887  17.897   4.129  1.00  0.00     0.031 A 
ATOM     69  C   UNL     1      -1.965  15.897   5.103  1.00  0.00     0.131 A 
ATOM     70  C   UNL     1      -3.736  18.014   5.240  1.00  0.00     0.055 A 
ATOM     71  C   UNL     1      -2.849  15.987   6.179  1.00  0.00     0.041 A 
ATOM     72  F   UNL     1      -1.108  14.863   5.083  1.00  0.00    -0.206 F 
ATOM     73  C   UNL     1      -3.732  17.059   6.260  1.00  0.00     0.022 A 
BRANCH  70  74
ATOM     74  S   UNL     1      -4.789  19.485   5.378  1.00  0.00     0.124 S 
ATOM     75  O   UNL     1      -3.804  20.559   5.339  1.00  0.00    -0.237 OA
ATOM     76  O   UNL     1      -5.644  19.355   4.203  1.00  0.00    -0.237 OA
ATOM     77  O   UNL     1      -5.464  19.301   6.661  1.00  0.00    -0.744 OA
ENDBRANCH  70  74
ENDBRANCH  43  67
BRANCH  55  78
ATOM     78  C   UNL     1       3.233  20.974   1.920  1.00  0.00     0.023 A 
ATOM     79  C   UNL     1       3.794  21.184   3.192  1.00  0.00     0.031 A 
ATOM     80  C   UNL     1       3.095  22.083   1.066  1.00  0.00     0.131 A 
ATOM     81  C   UNL     1       4.141  22.482   3.596  1.00  0.00     0.055 A 
ATOM     82  C   UNL     1       3.500  23.361   1.450  1.00  0.00     0.041 A 
ATOM     83  F   UNL     1       2.564  21.940  -0.159  1.00  0.00    -0.206 F 
ATOM     84  C   UNL     1       4.013  23.569   2.727  1.00  0.00     0.022 A 
BRANCH  81  85
ATOM     85  S   UNL     1       4.668  22.748   5.310  1.00  0.00     0.124 S 
ATOM     86  O   UNL     1       3.530  22.231   6.063  1.00  0.00    -0.237 OA
ATOM     87  O   UNL     1       5.893  21.959   5.385  1.00  0.00    -0.237 OA
ATOM     88  O   UNL     1       4.859  24.195   5.390  1.00  0.00    -0.744 OA
ENDBRANCH  81  85
ENDBRANCH  55  78
ENDBRANCH  29  30
ENDBRANCH  21  24
ENDBRANCH  19  20
ENDBRANCH  18  19
ENDBRANCH  17  18
ENDBRANCH   1  17
TORSDOF 19
