REMARK SMILES COC(=O)CCN(C)C(=O)NCc1ccc(C(=O)NCCCCNC(=O)c2ccc(-c3c4nc(c(-c5cc(S(=O)(=O)[O-])ccc5F)c5ccc([nH]5)c(-c5cc(S(=O)(=O)[O-])ccc5F)c5nc(c(-c6cc(S(=O)(=O)[O-])ccc6F)c6ccc3[nH]6)C=C5)C=C4)cc2)o1
REMARK SMILES IDX 17 1 18 2 19 3 16 5 13 6 14 7 90 8 15 9 12 10 11 11 9 12
REMARK SMILES IDX 10 13 7 15 8 16 6 17 5 18 3 19 4 20 2 21 1 22 20 23 21 24
REMARK SMILES IDX 22 25 23 26 24 27 25 28 26 30 27 31 28 32 89 33 29 34 88 35
REMARK SMILES IDX 30 36 31 37 32 38 82 39 33 40 87 41 81 42 83 43 34 44 86 45
REMARK SMILES IDX 80 46 79 47 35 49 67 50 47 51 66 52 48 53 51 54 65 55 84 56
REMARK SMILES IDX 49 57 50 58 64 60 85 61 52 62 36 63 37 64 45 65 38 66 44 67
REMARK SMILES IDX 46 68 43 69 39 70 40 71 41 72 42 73 68 74 69 75 77 76 70 77
REMARK SMILES IDX 76 78 78 79 75 80 71 81 72 82 73 83 74 84 53 85 54 86 62 87
REMARK SMILES IDX 55 88 61 89 63 90 60 91 56 92 57 93 58 94 59 95
REMARK H PARENT 19 4 11 14 24 29 83 48 51 59
REMARK Flexibility Score: inf
ROOT
ATOM      1  C   UNL     1       2.593   7.506   1.052  1.00  0.00     0.286 C 
ATOM      2  O   UNL     1       3.548   6.763   0.821  1.00  0.00    -0.266 OA
ATOM      3  N   UNL     1       2.829   8.850   0.896  1.00  0.00    -0.349 N 
ATOM      4  H   UNL     1       3.764   9.084   0.694  1.00  0.00     0.163 HD
ENDROOT
BRANCH   1   5
ATOM      5  C   UNL     1       1.286   7.008   1.444  1.00  0.00     0.191 A 
ATOM      6  C   UNL     1      -0.178   5.352   1.648  1.00  0.00     0.124 A 
ATOM      7  C   UNL     1      -0.785   6.465   2.179  1.00  0.00     0.048 A 
ATOM      8  O   UNL     1       1.052   5.688   1.169  1.00  0.00    -0.454 OA
ATOM      9  C   UNL     1       0.166   7.517   2.080  1.00  0.00     0.056 A 
BRANCH   6  10
ATOM     10  C   UNL     1      -0.557   3.923   1.506  1.00  0.00     0.193 C 
BRANCH  10  11
ATOM     11  N   UNL     1       0.656   3.137   1.582  1.00  0.00    -0.331 N 
ATOM     12  C   UNL     1       1.198   2.249   2.423  1.00  0.00     0.317 C 
ATOM     13  O   UNL     1       2.237   1.708   2.034  1.00  0.00    -0.249 OA
ATOM     14  H   UNL     1       1.239   3.300   0.806  1.00  0.00     0.165 HD
BRANCH  12  15
ATOM     15  N   UNL     1       0.610   1.896   3.606  1.00  0.00    -0.327 N 
ATOM     16  C   UNL     1      -0.367   2.676   4.342  1.00  0.00     0.148 C 
BRANCH  15  17
ATOM     17  C   UNL     1       1.051   0.635   4.219  1.00  0.00     0.132 C 
BRANCH  17  18
ATOM     18  C   UNL     1       0.319  -0.583   3.666  1.00  0.00     0.144 C 
BRANCH  18  19
ATOM     19  C   UNL     1       0.874  -1.000   2.329  1.00  0.00     0.307 C 
ATOM     20  O   UNL     1       1.797  -1.792   2.190  1.00  0.00    -0.252 OA
BRANCH  19  21
ATOM     21  O   UNL     1       0.201  -0.379   1.321  1.00  0.00    -0.469 OA
ATOM     22  C   UNL     1       0.843  -0.455   0.046  1.00  0.00     0.282 C 
ENDBRANCH  19  21
ENDBRANCH  18  19
ENDBRANCH  17  18
ENDBRANCH  15  17
ENDBRANCH  12  15
ENDBRANCH  10  11
ENDBRANCH   6  10
ENDBRANCH   1   5
BRANCH   3  23
ATOM     23  C   UNL     1       1.928   9.974   0.979  1.00  0.00     0.116 C 
BRANCH  23  24
ATOM     24  C   UNL     1       2.081  10.696   2.315  1.00  0.00     0.023 C 
BRANCH  24  25
ATOM     25  C   UNL     1       3.277  11.652   2.365  1.00  0.00     0.023 C 
BRANCH  25  26
ATOM     26  C   UNL     1       3.256  12.764   1.319  1.00  0.00     0.116 C 
BRANCH  26  27
ATOM     27  N   UNL     1       2.040  13.562   1.357  1.00  0.00    -0.352 N 
ATOM     28  C   UNL     1       1.900  14.911   1.132  1.00  0.00     0.251 C 
ATOM     29  H   UNL     1       1.212  13.074   1.571  1.00  0.00     0.163 HD
ATOM     30  O   UNL     1       0.822  15.460   1.329  1.00  0.00    -0.269 OA
BRANCH  28  31
ATOM     31  C   UNL     1       3.078  15.687   0.693  1.00  0.00     0.039 A 
ATOM     32  C   UNL     1       3.418  16.851   1.385  1.00  0.00     0.014 A 
ATOM     33  C   UNL     1       3.874  15.229  -0.361  1.00  0.00     0.014 A 
ATOM     34  C   UNL     1       4.601  17.518   1.063  1.00  0.00     0.010 A 
ATOM     35  C   UNL     1       5.089  15.851  -0.625  1.00  0.00     0.010 A 
ATOM     36  C   UNL     1       5.467  17.001   0.085  1.00  0.00    -0.014 A 
BRANCH  36  37
ATOM     37  C   UNL     1       6.770  17.651  -0.214  1.00  0.00     0.031 A 
ATOM     38  C   UNL     1       7.027  18.219  -1.584  1.00  0.00     0.074 A 
ATOM     39  C   UNL     1       7.737  17.678   0.725  1.00  0.00     0.049 A 
ATOM     40  N   UNL     1       8.121  18.748  -2.068  1.00  0.00    -0.248 NA
ATOM     41  C   UNL     1       5.915  18.154  -2.545  1.00  0.00     0.031 C 
ATOM     42  C   UNL     1       7.617  17.129   2.078  1.00  0.00     0.029 A 
ATOM     43  N   UNL     1       9.015  18.179   0.687  1.00  0.00    -0.354 N 
ATOM     44  C   UNL     1       7.832  19.072  -3.389  1.00  0.00     0.074 A 
ATOM     45  C   UNL     1       6.484  18.616  -3.648  1.00  0.00     0.031 C 
ATOM     46  C   UNL     1       8.761  17.348   2.747  1.00  0.00     0.029 A 
ATOM     47  C   UNL     1       9.716  18.004   1.859  1.00  0.00     0.049 A 
ATOM     48  H   UNL     1       9.394  18.623  -0.106  1.00  0.00     0.167 HD
ATOM     49  C   UNL     1       8.611  19.715  -4.294  1.00  0.00     0.034 A 
ATOM     50  C   UNL     1      10.988  18.320   2.176  1.00  0.00     0.034 A 
ATOM     51  C   UNL     1       9.950  20.171  -4.017  1.00  0.00     0.049 A 
ATOM     52  C   UNL     1      11.848  18.997   1.136  1.00  0.00     0.074 A 
ATOM     53  C   UNL     1      10.810  20.869  -4.846  1.00  0.00     0.029 A 
ATOM     54  N   UNL     1      10.629  19.971  -2.821  1.00  0.00    -0.354 N 
ATOM     55  N   UNL     1      11.543  19.337  -0.096  1.00  0.00    -0.248 NA
ATOM     56  C   UNL     1      13.219  19.342   1.532  1.00  0.00     0.031 C 
ATOM     57  C   UNL     1      12.031  21.025  -4.182  1.00  0.00     0.029 A 
ATOM     58  C   UNL     1      11.906  20.504  -2.904  1.00  0.00     0.049 A 
ATOM     59  H   UNL     1      10.257  19.517  -2.031  1.00  0.00     0.167 HD
ATOM     60  C   UNL     1      12.673  19.971  -0.605  1.00  0.00     0.074 A 
ATOM     61  C   UNL     1      13.658  19.979   0.456  1.00  0.00     0.031 C 
ATOM     62  C   UNL     1      12.878  20.505  -1.837  1.00  0.00     0.034 A 
BRANCH  49  63
ATOM     63  C   UNL     1       8.037  19.940  -5.673  1.00  0.00     0.023 A 
ATOM     64  C   UNL     1       6.896  20.737  -5.876  1.00  0.00     0.031 A 
ATOM     65  C   UNL     1       8.630  19.342  -6.799  1.00  0.00     0.131 A 
ATOM     66  C   UNL     1       6.345  20.858  -7.160  1.00  0.00     0.055 A 
ATOM     67  C   UNL     1       8.125  19.536  -8.086  1.00  0.00     0.041 A 
ATOM     68  F   UNL     1       9.706  18.551  -6.666  1.00  0.00    -0.206 F 
ATOM     69  C   UNL     1       6.968  20.286  -8.271  1.00  0.00     0.022 A 
BRANCH  66  70
ATOM     70  S   UNL     1       4.727  21.657  -7.335  1.00  0.00     0.124 S 
ATOM     71  O   UNL     1       3.887  20.809  -6.493  1.00  0.00    -0.237 OA
ATOM     72  O   UNL     1       4.982  23.003  -6.834  1.00  0.00    -0.237 OA
ATOM     73  O   UNL     1       4.453  21.566  -8.768  1.00  0.00    -0.744 OA
ENDBRANCH  66  70
ENDBRANCH  49  63
BRANCH  50  74
ATOM     74  C   UNL     1      11.542  17.995   3.523  1.00  0.00     0.023 A 
ATOM     75  C   UNL     1      11.992  19.009   4.384  1.00  0.00     0.031 A 
ATOM     76  C   UNL     1      11.694  16.661   3.944  1.00  0.00     0.131 A 
ATOM     77  C   UNL     1      12.628  18.674   5.590  1.00  0.00     0.055 A 
ATOM     78  C   UNL     1      12.268  16.335   5.174  1.00  0.00     0.041 A 
ATOM     79  F   UNL     1      11.281  15.651   3.163  1.00  0.00    -0.206 F 
ATOM     80  C   UNL     1      12.756  17.345   5.998  1.00  0.00     0.022 A 
BRANCH  77  81
ATOM     81  S   UNL     1      13.391  20.000   6.565  1.00  0.00     0.124 S 
ATOM     82  O   UNL     1      14.306  20.591   5.595  1.00  0.00    -0.237 OA
ATOM     83  O   UNL     1      12.234  20.809   6.933  1.00  0.00    -0.237 OA
ATOM     84  O   UNL     1      14.027  19.286   7.670  1.00  0.00    -0.744 OA
ENDBRANCH  77  81
ENDBRANCH  50  74
BRANCH  62  85
ATOM     85  C   UNL     1      14.199  21.195  -2.079  1.00  0.00     0.023 A 
ATOM     86  C   UNL     1      15.417  20.493  -2.085  1.00  0.00     0.031 A 
ATOM     87  C   UNL     1      14.236  22.583  -2.305  1.00  0.00     0.131 A 
ATOM     88  C   UNL     1      16.624  21.188  -2.254  1.00  0.00     0.055 A 
ATOM     89  C   UNL     1      15.434  23.259  -2.540  1.00  0.00     0.041 A 
ATOM     90  F   UNL     1      13.104  23.306  -2.307  1.00  0.00    -0.206 F 
ATOM     91  C   UNL     1      16.638  22.564  -2.502  1.00  0.00     0.022 A 
BRANCH  88  92
ATOM     92  S   UNL     1      18.185  20.287  -2.051  1.00  0.00     0.124 S 
ATOM     93  O   UNL     1      18.062  19.773  -0.691  1.00  0.00    -0.237 OA
ATOM     94  O   UNL     1      18.113  19.294  -3.117  1.00  0.00    -0.237 OA
ATOM     95  O   UNL     1      19.203  21.320  -2.234  1.00  0.00    -0.744 OA
ENDBRANCH  88  92
ENDBRANCH  62  85
ENDBRANCH  36  37
ENDBRANCH  28  31
ENDBRANCH  26  27
ENDBRANCH  25  26
ENDBRANCH  24  25
ENDBRANCH  23  24
ENDBRANCH   3  23
TORSDOF 21
