REMARK SMILES CCN(Cc1cn(CC)nc1C)C(=O)c1ccn([C@@H](C)C(=O)NCCCCNC(=O)c2ccc(-c3c4nc(c(-c5cc(S(=O)(=O)[O-])ccc5F)c5ccc([nH]5)c(-c5cc(S(=O)(=O)[O-])ccc5F)c5nc(c(-c6cc(S(=O)(=O)[O-])ccc6F)c6ccc3[nH]6)C=C5)C=C4)cc2)n1
REMARK SMILES IDX 24 1 23 2 21 3 22 4 19 6 20 7 18 8 15 9 16 10 94 11 17 12
REMARK SMILES IDX 13 13 14 14 3 15 2 16 1 17 4 18 5 19 6 20 11 21 7 22 10 23
REMARK SMILES IDX 12 24 8 25 9 26 25 27 26 28 27 29 28 30 29 31 30 33 31 34
REMARK SMILES IDX 32 35 93 36 33 37 92 38 34 39 35 40 36 41 86 42 37 43 91 44
REMARK SMILES IDX 85 45 87 46 38 47 90 48 84 49 83 50 39 52 71 53 51 54 70 55
REMARK SMILES IDX 52 56 55 57 69 58 88 59 53 60 54 61 68 63 89 64 56 65 40 66
REMARK SMILES IDX 41 67 49 68 42 69 48 70 50 71 47 72 43 73 44 74 45 75 46 76
REMARK SMILES IDX 72 77 73 78 81 79 74 80 80 81 82 82 79 83 75 84 76 85 77 86
REMARK SMILES IDX 78 87 57 88 58 89 66 90 59 91 65 92 67 93 64 94 60 95 61 96
REMARK SMILES IDX 62 97 63 98
REMARK H PARENT 23 5 28 32 87 51 55 62
REMARK Flexibility Score: inf
ROOT
ATOM      1  C   UNL     1       4.057   7.464  -4.578  1.00  0.00     0.116 C 
ENDROOT
BRANCH   1   2
ATOM      2  N   UNL     1       5.276   6.663  -4.573  1.00  0.00    -0.354 N 
ATOM      3  C   UNL     1       5.566   5.336  -4.720  1.00  0.00     0.244 C 
ATOM      4  O   UNL     1       6.772   5.061  -4.617  1.00  0.00    -0.273 OA
ATOM      5  H   UNL     1       6.082   7.209  -4.430  1.00  0.00     0.163 HD
BRANCH   3   6
ATOM      6  C   UNL     1       4.570   4.200  -5.031  1.00  0.00     0.193 C 
ATOM      7  C   UNL     1       3.852   4.348  -6.365  1.00  0.00     0.044 C 
BRANCH   6   8
ATOM      8  N   UNL     1       3.666   3.938  -3.919  1.00  0.00    -0.260 N 
ATOM      9  C   UNL     1       3.031   3.158  -2.050  1.00  0.00     0.150 A 
ATOM     10  C   UNL     1       2.719   4.529  -2.120  1.00  0.00     0.056 A 
ATOM     11  N   UNL     1       3.705   2.802  -3.171  1.00  0.00    -0.167 NA
ATOM     12  C   UNL     1       2.710   4.784  -3.462  1.00  0.00     0.110 A 
BRANCH   9  13
ATOM     13  C   UNL     1       2.639   2.236  -0.965  1.00  0.00     0.274 C 
ATOM     14  O   UNL     1       3.466   1.531  -0.386  1.00  0.00    -0.267 OA
BRANCH  13  15
ATOM     15  N   UNL     1       1.265   2.201  -0.609  1.00  0.00    -0.333 N 
BRANCH  15  16
ATOM     16  C   UNL     1       0.842   1.255   0.423  1.00  0.00     0.117 C 
ATOM     17  C   UNL     1       0.925  -0.200  -0.018  1.00  0.00     0.027 C 
ENDBRANCH  15  16
BRANCH  15  18
ATOM     18  C   UNL     1       0.200   2.937  -1.302  1.00  0.00     0.159 C 
BRANCH  18  19
ATOM     19  C   UNL     1       0.010   4.358  -0.829  1.00  0.00     0.012 A 
ATOM     20  C   UNL     1      -0.621   5.346  -1.577  1.00  0.00     0.114 A 
ATOM     21  C   UNL     1       0.517   5.080   0.303  1.00  0.00     0.064 A 
ATOM     22  N   UNL     1      -0.387   6.537  -0.952  1.00  0.00    -0.272 N 
ATOM     23  N   UNL     1       0.264   6.393   0.209  1.00  0.00    -0.178 NA
ATOM     24  C   UNL     1       1.410   4.649   1.410  1.00  0.00     0.069 C 
BRANCH  22  25
ATOM     25  C   UNL     1      -0.595   7.865  -1.505  1.00  0.00     0.141 C 
ATOM     26  C   UNL     1      -1.207   8.848  -0.521  1.00  0.00     0.029 C 
ENDBRANCH  22  25
ENDBRANCH  18  19
ENDBRANCH  15  18
ENDBRANCH  13  15
ENDBRANCH   9  13
ENDBRANCH   6   8
ENDBRANCH   3   6
ENDBRANCH   1   2
BRANCH   1  27
ATOM     27  C   UNL     1       3.550   7.789  -3.158  1.00  0.00     0.023 C 
BRANCH  27  28
ATOM     28  C   UNL     1       4.142   9.013  -2.454  1.00  0.00     0.023 C 
BRANCH  28  29
ATOM     29  C   UNL     1       3.761  10.356  -3.057  1.00  0.00     0.116 C 
BRANCH  29  30
ATOM     30  N   UNL     1       2.325  10.634  -2.998  1.00  0.00    -0.352 N 
ATOM     31  C   UNL     1       1.629  11.615  -3.693  1.00  0.00     0.251 C 
ATOM     32  H   UNL     1       1.793  10.062  -2.399  1.00  0.00     0.163 HD
ATOM     33  O   UNL     1       0.552  12.021  -3.300  1.00  0.00    -0.269 OA
BRANCH  31  34
ATOM     34  C   UNL     1       2.238  12.128  -4.936  1.00  0.00     0.039 A 
ATOM     35  C   UNL     1       2.358  13.495  -5.194  1.00  0.00     0.014 A 
ATOM     36  C   UNL     1       2.787  11.181  -5.796  1.00  0.00     0.014 A 
ATOM     37  C   UNL     1       3.127  13.902  -6.285  1.00  0.00     0.010 A 
ATOM     38  C   UNL     1       3.663  11.585  -6.769  1.00  0.00     0.010 A 
ATOM     39  C   UNL     1       3.802  12.941  -7.054  1.00  0.00    -0.014 A 
BRANCH  39  40
ATOM     40  C   UNL     1       4.771  13.329  -8.078  1.00  0.00     0.031 A 
ATOM     41  C   UNL     1       5.850  14.241  -7.605  1.00  0.00     0.074 A 
ATOM     42  C   UNL     1       4.849  12.722  -9.284  1.00  0.00     0.049 A 
ATOM     43  N   UNL     1       6.029  15.481  -7.919  1.00  0.00    -0.248 NA
ATOM     44  C   UNL     1       6.753  13.771  -6.540  1.00  0.00     0.031 C 
ATOM     45  C   UNL     1       4.064  11.586  -9.782  1.00  0.00     0.029 A 
ATOM     46  N   UNL     1       5.749  12.914 -10.285  1.00  0.00    -0.354 N 
ATOM     47  C   UNL     1       7.213  15.871  -7.300  1.00  0.00     0.074 A 
ATOM     48  C   UNL     1       7.477  14.868  -6.303  1.00  0.00     0.031 C 
ATOM     49  C   UNL     1       4.680  11.041 -10.853  1.00  0.00     0.029 A 
ATOM     50  C   UNL     1       5.796  11.890 -11.229  1.00  0.00     0.049 A 
ATOM     51  H   UNL     1       6.321  13.714 -10.339  1.00  0.00     0.167 HD
ATOM     52  C   UNL     1       8.002  16.845  -7.838  1.00  0.00     0.034 A 
ATOM     53  C   UNL     1       6.700  11.732 -12.233  1.00  0.00     0.034 A 
ATOM     54  C   UNL     1       7.276  17.595  -8.843  1.00  0.00     0.049 A 
ATOM     55  C   UNL     1       7.270  13.079 -12.493  1.00  0.00     0.074 A 
ATOM     56  C   UNL     1       6.089  18.306  -8.846  1.00  0.00     0.029 A 
ATOM     57  N   UNL     1       7.544  17.338 -10.171  1.00  0.00    -0.354 N 
ATOM     58  N   UNL     1       6.555  14.082 -12.930  1.00  0.00    -0.248 NA
ATOM     59  C   UNL     1       8.486  13.451 -11.784  1.00  0.00     0.031 C 
ATOM     60  C   UNL     1       5.458  17.948 -10.075  1.00  0.00     0.029 A 
ATOM     61  C   UNL     1       6.336  17.135 -10.794  1.00  0.00     0.049 A 
ATOM     62  H   UNL     1       8.433  17.306 -10.593  1.00  0.00     0.167 HD
ATOM     63  C   UNL     1       6.974  15.174 -12.185  1.00  0.00     0.074 A 
ATOM     64  C   UNL     1       8.228  14.744 -11.563  1.00  0.00     0.031 C 
ATOM     65  C   UNL     1       6.134  16.216 -11.901  1.00  0.00     0.034 A 
BRANCH  52  66
ATOM     66  C   UNL     1       9.517  16.893  -7.754  1.00  0.00     0.023 A 
ATOM     67  C   UNL     1      10.159  17.959  -8.415  1.00  0.00     0.031 A 
ATOM     68  C   UNL     1      10.362  15.839  -7.338  1.00  0.00     0.131 A 
ATOM     69  C   UNL     1      11.523  17.891  -8.749  1.00  0.00     0.055 A 
ATOM     70  C   UNL     1      11.734  15.811  -7.608  1.00  0.00     0.041 A 
ATOM     71  F   UNL     1       9.908  14.739  -6.730  1.00  0.00    -0.206 F 
ATOM     72  C   UNL     1      12.317  16.821  -8.352  1.00  0.00     0.022 A 
BRANCH  69  73
ATOM     73  S   UNL     1      12.186  19.134  -9.887  1.00  0.00     0.124 S 
ATOM     74  O   UNL     1      11.260  19.022 -11.010  1.00  0.00    -0.237 OA
ATOM     75  O   UNL     1      12.088  20.352  -9.090  1.00  0.00    -0.237 OA
ATOM     76  O   UNL     1      13.544  18.665 -10.147  1.00  0.00    -0.744 OA
ENDBRANCH  69  73
ENDBRANCH  52  66
BRANCH  53  77
ATOM     77  C   UNL     1       7.314  10.450 -12.692  1.00  0.00     0.023 A 
ATOM     78  C   UNL     1       7.978  10.305 -13.931  1.00  0.00     0.031 A 
ATOM     79  C   UNL     1       7.453   9.378 -11.777  1.00  0.00     0.131 A 
ATOM     80  C   UNL     1       8.729   9.134 -14.208  1.00  0.00     0.055 A 
ATOM     81  C   UNL     1       8.194   8.227 -12.056  1.00  0.00     0.041 A 
ATOM     82  F   UNL     1       6.936   9.448 -10.540  1.00  0.00    -0.206 F 
ATOM     83  C   UNL     1       8.844   8.104 -13.272  1.00  0.00     0.022 A 
BRANCH  80  84
ATOM     84  S   UNL     1       9.648   8.963 -15.776  1.00  0.00     0.124 S 
ATOM     85  O   UNL     1       8.573   8.857 -16.755  1.00  0.00    -0.237 OA
ATOM     86  O   UNL     1      10.441  10.186 -15.810  1.00  0.00    -0.237 OA
ATOM     87  O   UNL     1      10.426   7.737 -15.585  1.00  0.00    -0.744 OA
ENDBRANCH  80  84
ENDBRANCH  53  77
BRANCH  65  88
ATOM     88  C   UNL     1       4.807  16.316 -12.633  1.00  0.00     0.023 A 
ATOM     89  C   UNL     1       3.796  15.326 -12.634  1.00  0.00     0.031 A 
ATOM     90  C   UNL     1       4.506  17.550 -13.239  1.00  0.00     0.131 A 
ATOM     91  C   UNL     1       2.546  15.593 -13.231  1.00  0.00     0.055 A 
ATOM     92  C   UNL     1       3.261  17.818 -13.808  1.00  0.00     0.041 A 
ATOM     93  F   UNL     1       5.412  18.542 -13.250  1.00  0.00    -0.206 F 
ATOM     94  C   UNL     1       2.277  16.838 -13.810  1.00  0.00     0.022 A 
BRANCH  91  95
ATOM     95  S   UNL     1       1.238  14.322 -13.279  1.00  0.00     0.124 S 
ATOM     96  O   UNL     1       1.932  13.136 -13.769  1.00  0.00    -0.237 OA
ATOM     97  O   UNL     1       0.791  14.272 -11.889  1.00  0.00    -0.237 OA
ATOM     98  O   UNL     1       0.255  14.879 -14.211  1.00  0.00    -0.744 OA
ENDBRANCH  91  95
ENDBRANCH  65  88
ENDBRANCH  39  40
ENDBRANCH  31  34
ENDBRANCH  29  30
ENDBRANCH  28  29
ENDBRANCH  27  28
ENDBRANCH   1  27
TORSDOF 21
