REMARK SMILES CC(C)(C[NH2+]C[C@](C)(O)CO)C(=O)NCCCCNC(=O)c1ccc(-c2c3nc(c(-c4cc(S(=O)(=O)[O-])ccc4F)c4ccc([nH]4)c(-c4cc(S(=O)(=O)[O-])ccc4F)c4nc(c(-c5cc(S(=O)(=O)[O-])ccc5F)c5ccc2[nH]5)C=C4)C=C3)cc1
REMARK SMILES IDX 15 1 14 2 12 3 13 4 2 6 1 7 3 8 4 9 5 10 6 13 7 14 8 15 9 16
REMARK SMILES IDX 10 18 11 19 16 21 17 22 18 23 19 24 20 25 21 27 22 28 23 29
REMARK SMILES IDX 84 30 24 31 83 32 25 33 26 34 27 35 77 36 28 37 82 38 76 39
REMARK SMILES IDX 78 40 29 41 81 42 75 43 74 44 30 46 62 47 42 48 61 49 43 50
REMARK SMILES IDX 46 51 60 52 79 53 44 54 45 55 59 57 80 58 47 59 31 60 32 61
REMARK SMILES IDX 40 62 33 63 39 64 41 65 38 66 34 67 35 68 36 69 37 70 63 71
REMARK SMILES IDX 64 72 72 73 65 74 71 75 73 76 70 77 66 78 67 79 68 80 69 81
REMARK SMILES IDX 48 82 49 83 57 84 50 85 56 86 58 87 55 88 51 89 52 90 53 91
REMARK SMILES IDX 54 92
REMARK H PARENT 14 5 5 11 5 12 9 17 11 20 19 26 78 45 46 56
REMARK Flexibility Score: inf
ROOT
ATOM      1  C   UNL     1      -2.173  -5.292  -0.941  1.00  0.00     0.116 C 
ENDROOT
BRANCH   1   2
ATOM      2  N   UNL     1      -3.282  -5.665  -0.086  1.00  0.00    -0.355 N 
ATOM      3  C   UNL     1      -4.530  -5.152   0.079  1.00  0.00     0.231 C 
ATOM      4  O   UNL     1      -5.232  -5.711   0.930  1.00  0.00    -0.274 OA
ATOM      5  H   UNL     1      -3.095  -6.444   0.487  1.00  0.00     0.163 HD
BRANCH   3   6
ATOM      6  C   UNL     1      -5.089  -3.997  -0.775  1.00  0.00     0.092 C 
ATOM      7  C   UNL     1      -6.527  -3.677  -0.290  1.00  0.00     0.027 C 
ATOM      8  C   UNL     1      -5.225  -4.457  -2.241  1.00  0.00     0.027 C 
BRANCH   6   9
ATOM      9  C   UNL     1      -4.240  -2.703  -0.701  1.00  0.00     0.277 C 
BRANCH   9  10
ATOM     10  N   UNL     1      -4.045  -2.172   0.649  1.00  0.00    -0.343 N 
ATOM     11  H   UNL     1      -3.681  -2.923   1.236  1.00  0.00     0.346 HD
ATOM     12  H   UNL     1      -4.954  -1.825   0.955  1.00  0.00     0.346 HD
BRANCH  10  13
ATOM     13  C   UNL     1      -3.116  -1.031   0.739  1.00  0.00     0.298 C 
BRANCH  13  14
ATOM     14  C   UNL     1      -3.471   0.258  -0.061  1.00  0.00     0.133 C 
ATOM     15  C   UNL     1      -2.922   1.510   0.641  1.00  0.00     0.051 C 
BRANCH  14  16
ATOM     16  O   UNL     1      -4.905   0.414  -0.131  1.00  0.00    -0.382 OA
ATOM     17  H   UNL     1      -5.119   1.218  -0.630  1.00  0.00     0.211 HD
ENDBRANCH  14  16
BRANCH  14  18
ATOM     18  C   UNL     1      -2.924   0.215  -1.506  1.00  0.00     0.196 C 
BRANCH  18  19
ATOM     19  O   UNL     1      -3.425   1.327  -2.251  1.00  0.00    -0.393 OA
ATOM     20  H   UNL     1      -4.393   1.289  -2.278  1.00  0.00     0.210 HD
ENDBRANCH  18  19
ENDBRANCH  14  18
ENDBRANCH  13  14
ENDBRANCH  10  13
ENDBRANCH   9  10
ENDBRANCH   6   9
ENDBRANCH   3   6
ENDBRANCH   1   2
BRANCH   1  21
ATOM     21  C   UNL     1      -1.045  -4.626  -0.157  1.00  0.00     0.023 C 
BRANCH  21  22
ATOM     22  C   UNL     1      -0.300  -5.553   0.806  1.00  0.00     0.023 C 
BRANCH  22  23
ATOM     23  C   UNL     1       0.255  -6.829   0.183  1.00  0.00     0.116 C 
BRANCH  23  24
ATOM     24  N   UNL     1       1.147  -6.577  -0.938  1.00  0.00    -0.352 N 
ATOM     25  C   UNL     1       2.305  -7.235  -1.277  1.00  0.00     0.251 C 
ATOM     26  H   UNL     1       0.886  -5.837  -1.532  1.00  0.00     0.163 HD
ATOM     27  O   UNL     1       3.004  -6.804  -2.191  1.00  0.00    -0.269 OA
BRANCH  25  28
ATOM     28  C   UNL     1       2.719  -8.432  -0.513  1.00  0.00     0.039 A 
ATOM     29  C   UNL     1       4.046  -8.538  -0.090  1.00  0.00     0.014 A 
ATOM     30  C   UNL     1       1.799  -9.436  -0.199  1.00  0.00     0.014 A 
ATOM     31  C   UNL     1       4.437  -9.624   0.697  1.00  0.00     0.010 A 
ATOM     32  C   UNL     1       2.171 -10.476   0.647  1.00  0.00     0.010 A 
ATOM     33  C   UNL     1       3.496 -10.586   1.097  1.00  0.00    -0.014 A 
BRANCH  33  34
ATOM     34  C   UNL     1       3.884 -11.738   1.954  1.00  0.00     0.031 A 
ATOM     35  C   UNL     1       3.777 -13.139   1.413  1.00  0.00     0.074 A 
ATOM     36  C   UNL     1       4.273 -11.529   3.228  1.00  0.00     0.049 A 
ATOM     37  N   UNL     1       3.980 -14.280   2.020  1.00  0.00    -0.248 NA
ATOM     38  C   UNL     1       3.351 -13.270   0.012  1.00  0.00     0.031 C 
ATOM     39  C   UNL     1       4.378 -10.221   3.877  1.00  0.00     0.029 A 
ATOM     40  N   UNL     1       4.642 -12.415   4.209  1.00  0.00    -0.354 N 
ATOM     41  C   UNL     1       3.689 -15.264   1.081  1.00  0.00     0.074 A 
ATOM     42  C   UNL     1       3.232 -14.583  -0.112  1.00  0.00     0.031 C 
ATOM     43  C   UNL     1       4.807 -10.389   5.138  1.00  0.00     0.029 A 
ATOM     44  C   UNL     1       4.965 -11.816   5.404  1.00  0.00     0.049 A 
ATOM     45  H   UNL     1       4.673 -13.389   4.070  1.00  0.00     0.167 HD
ATOM     46  C   UNL     1       3.816 -16.610   1.193  1.00  0.00     0.034 A 
ATOM     47  C   UNL     1       5.336 -12.356   6.583  1.00  0.00     0.034 A 
ATOM     48  C   UNL     1       4.291 -17.271   2.383  1.00  0.00     0.049 A 
ATOM     49  C   UNL     1       5.459 -13.856   6.689  1.00  0.00     0.074 A 
ATOM     50  C   UNL     1       4.507 -18.622   2.592  1.00  0.00     0.029 A 
ATOM     51  N   UNL     1       4.624 -16.630   3.570  1.00  0.00    -0.354 N 
ATOM     52  N   UNL     1       5.224 -14.771   5.777  1.00  0.00    -0.248 NA
ATOM     53  C   UNL     1       5.912 -14.393   7.978  1.00  0.00     0.031 C 
ATOM     54  C   UNL     1       4.907 -18.803   3.921  1.00  0.00     0.029 A 
ATOM     55  C   UNL     1       5.018 -17.559   4.520  1.00  0.00     0.049 A 
ATOM     56  H   UNL     1       4.585 -15.656   3.715  1.00  0.00     0.167 HD
ATOM     57  C   UNL     1       5.537 -15.990   6.374  1.00  0.00     0.074 A 
ATOM     58  C   UNL     1       5.988 -15.690   7.717  1.00  0.00     0.031 C 
ATOM     59  C   UNL     1       5.464 -17.244   5.857  1.00  0.00     0.034 A 
BRANCH  46  60
ATOM     60  C   UNL     1       3.411 -17.446   0.001  1.00  0.00     0.023 A 
ATOM     61  C   UNL     1       4.064 -17.330  -1.239  1.00  0.00     0.031 A 
ATOM     62  C   UNL     1       2.335 -18.347   0.093  1.00  0.00     0.131 A 
ATOM     63  C   UNL     1       3.584 -18.032  -2.354  1.00  0.00     0.055 A 
ATOM     64  C   UNL     1       1.917 -19.110  -0.999  1.00  0.00     0.041 A 
ATOM     65  F   UNL     1       1.658 -18.488   1.244  1.00  0.00    -0.206 F 
ATOM     66  C   UNL     1       2.531 -18.942  -2.237  1.00  0.00     0.022 A 
BRANCH  63  67
ATOM     67  S   UNL     1       4.254 -17.622  -3.989  1.00  0.00     0.124 S 
ATOM     68  O   UNL     1       3.929 -16.202  -4.092  1.00  0.00    -0.237 OA
ATOM     69  O   UNL     1       5.668 -17.945  -3.840  1.00  0.00    -0.237 OA
ATOM     70  O   UNL     1       3.507 -18.493  -4.894  1.00  0.00    -0.744 OA
ENDBRANCH  63  67
ENDBRANCH  46  60
BRANCH  47  71
ATOM     71  C   UNL     1       5.616 -11.485   7.761  1.00  0.00     0.023 A 
ATOM     72  C   UNL     1       6.902 -11.419   8.322  1.00  0.00     0.031 A 
ATOM     73  C   UNL     1       4.591 -10.743   8.374  1.00  0.00     0.131 A 
ATOM     74  C   UNL     1       7.119 -10.671   9.490  1.00  0.00     0.055 A 
ATOM     75  C   UNL     1       4.824  -9.957   9.504  1.00  0.00     0.041 A 
ATOM     76  F   UNL     1       3.345 -10.765   7.876  1.00  0.00    -0.206 F 
ATOM     77  C   UNL     1       6.092  -9.929  10.077  1.00  0.00     0.022 A 
BRANCH  74  78
ATOM     78  S   UNL     1       8.748 -10.754  10.283  1.00  0.00     0.124 S 
ATOM     79  O   UNL     1       8.886 -12.185  10.529  1.00  0.00    -0.237 OA
ATOM     80  O   UNL     1       9.615 -10.193   9.252  1.00  0.00    -0.237 OA
ATOM     81  O   UNL     1       8.587  -9.927  11.477  1.00  0.00    -0.744 OA
ENDBRANCH  74  78
ENDBRANCH  47  71
BRANCH  59  82
ATOM     82  C   UNL     1       5.940 -18.376   6.734  1.00  0.00     0.023 A 
ATOM     83  C   UNL     1       5.262 -18.742   7.910  1.00  0.00     0.031 A 
ATOM     84  C   UNL     1       7.099 -19.094   6.388  1.00  0.00     0.131 A 
ATOM     85  C   UNL     1       5.780 -19.759   8.727  1.00  0.00     0.055 A 
ATOM     86  C   UNL     1       7.574 -20.145   7.172  1.00  0.00     0.041 A 
ATOM     87  F   UNL     1       7.787 -18.787   5.276  1.00  0.00    -0.206 F 
ATOM     88  C   UNL     1       6.921 -20.474   8.357  1.00  0.00     0.022 A 
BRANCH  85  89
ATOM     89  S   UNL     1       4.992 -20.074  10.330  1.00  0.00     0.124 S 
ATOM     90  O   UNL     1       5.095 -18.771  10.980  1.00  0.00    -0.237 OA
ATOM     91  O   UNL     1       3.648 -20.488   9.942  1.00  0.00    -0.237 OA
ATOM     92  O   UNL     1       5.819 -21.127  10.918  1.00  0.00    -0.744 OA
ENDBRANCH  85  89
ENDBRANCH  59  82
ENDBRANCH  33  34
ENDBRANCH  25  28
ENDBRANCH  23  24
ENDBRANCH  22  23
ENDBRANCH  21  22
ENDBRANCH   1  21
TORSDOF 21
