REMARK SMILES O=C(CC[NH2+]C[C@H](O)Cn1c2ccccc2c2ccccc21)NCCCCNC(=O)c1ccc(-c2c3nc(c(-c4cc(S(=O)(=O)[O-])ccc4F)c4ccc([nH]4)c(-c4cc(S(=O)(=O)[O-])ccc4F)c4nc(c(-c5cc(S(=O)(=O)[O-])ccc5F)c5ccc2[nH]5)C=C4)C=C3)cc1
REMARK SMILES IDX 24 1 23 2 1 3 2 4 3 6 4 7 5 8 6 11 7 12 9 13 10 14 11 15
REMARK SMILES IDX 22 16 12 17 16 18 17 19 21 20 13 21 15 22 18 23 20 24 14 25
REMARK SMILES IDX 19 26 8 27 25 29 26 30 27 31 28 32 29 33 30 35 31 36 32 37
REMARK SMILES IDX 93 38 33 39 92 40 34 41 35 42 36 43 86 44 37 45 91 46 85 47
REMARK SMILES IDX 87 48 38 49 90 50 84 51 83 52 39 54 71 55 51 56 70 57 52 58
REMARK SMILES IDX 55 59 69 60 88 61 53 62 54 63 68 65 89 66 56 67 40 68 41 69
REMARK SMILES IDX 49 70 42 71 48 72 50 73 47 74 43 75 44 76 45 77 46 78 72 79
REMARK SMILES IDX 73 80 81 81 74 82 80 83 82 84 79 85 75 86 76 87 77 88 78 89
REMARK SMILES IDX 57 90 58 91 66 92 59 93 65 94 67 95 64 96 60 97 61 98 62 99
REMARK SMILES IDX 63 100
REMARK H PARENT 23 5 5 9 5 10 8 28 28 34 87 53 55 64
REMARK Flexibility Score: inf
ROOT
ATOM      1  C   UNL     1       5.101   6.192   6.593  1.00  0.00     0.116 C 
ENDROOT
BRANCH   1   2
ATOM      2  N   UNL     1       3.883   5.553   6.136  1.00  0.00    -0.356 N 
ATOM      3  O   UNL     1       3.199   7.261   4.754  1.00  0.00    -0.275 OA
ATOM      4  C   UNL     1       3.034   6.141   5.224  1.00  0.00     0.225 C 
ATOM      5  H   UNL     1       3.655   4.663   6.490  1.00  0.00     0.163 HD
BRANCH   4   6
ATOM      6  C   UNL     1       1.919   5.228   4.762  1.00  0.00     0.161 C 
BRANCH   6   7
ATOM      7  C   UNL     1       2.417   4.329   3.631  1.00  0.00     0.270 C 
BRANCH   7   8
ATOM      8  N   UNL     1       3.376   3.331   4.122  1.00  0.00    -0.344 N 
ATOM      9  H   UNL     1       2.899   2.723   4.787  1.00  0.00     0.346 HD
ATOM     10  H   UNL     1       4.148   3.838   4.555  1.00  0.00     0.346 HD
BRANCH   8  11
ATOM     11  C   UNL     1       3.939   2.503   3.053  1.00  0.00     0.294 C 
BRANCH  11  12
ATOM     12  C   UNL     1       4.761   3.222   1.956  1.00  0.00     0.189 C 
BRANCH  12  13
ATOM     13  C   UNL     1       5.949   4.013   2.539  1.00  0.00     0.160 C 
BRANCH  13  14
ATOM     14  N   UNL     1       6.580   4.889   1.553  1.00  0.00    -0.338 N 
ATOM     15  C   UNL     1       7.476   4.454   0.594  1.00  0.00     0.049 A 
ATOM     16  C   UNL     1       6.366   6.251   1.436  1.00  0.00     0.049 A 
ATOM     17  C   UNL     1       8.062   3.195   0.381  1.00  0.00     0.027 A 
ATOM     18  C   UNL     1       7.732   5.537  -0.246  1.00  0.00     0.007 A 
ATOM     19  C   UNL     1       7.067   6.676   0.304  1.00  0.00     0.007 A 
ATOM     20  C   UNL     1       5.621   7.153   2.215  1.00  0.00     0.027 A 
ATOM     21  C   UNL     1       8.867   3.022  -0.746  1.00  0.00     0.002 A 
ATOM     22  C   UNL     1       8.554   5.339  -1.376  1.00  0.00     0.011 A 
ATOM     23  C   UNL     1       7.019   8.040  -0.060  1.00  0.00     0.011 A 
ATOM     24  C   UNL     1       5.602   8.501   1.843  1.00  0.00     0.002 A 
ATOM     25  C   UNL     1       9.102   4.076  -1.621  1.00  0.00     0.001 A 
ATOM     26  C   UNL     1       6.290   8.943   0.719  1.00  0.00     0.001 A 
ENDBRANCH  13  14
ENDBRANCH  12  13
BRANCH  12  27
ATOM     27  O   UNL     1       5.210   2.195   1.060  1.00  0.00    -0.385 OA
ATOM     28  H   UNL     1       5.751   1.554   1.547  1.00  0.00     0.211 HD
ENDBRANCH  12  27
ENDBRANCH  11  12
ENDBRANCH   8  11
ENDBRANCH   7   8
ENDBRANCH   6   7
ENDBRANCH   4   6
ENDBRANCH   1   2
BRANCH   1  29
ATOM     29  C   UNL     1       5.455   5.808   8.026  1.00  0.00     0.023 C 
BRANCH  29  30
ATOM     30  C   UNL     1       5.770   4.322   8.254  1.00  0.00     0.023 C 
BRANCH  30  31
ATOM     31  C   UNL     1       6.907   3.755   7.404  1.00  0.00     0.116 C 
BRANCH  31  32
ATOM     32  N   UNL     1       8.170   4.441   7.572  1.00  0.00    -0.352 N 
ATOM     33  C   UNL     1       9.233   4.306   8.425  1.00  0.00     0.251 C 
ATOM     34  H   UNL     1       8.294   5.173   6.925  1.00  0.00     0.163 HD
ATOM     35  O   UNL     1      10.225   4.985   8.146  1.00  0.00    -0.269 OA
BRANCH  33  36
ATOM     36  C   UNL     1       9.254   3.476   9.664  1.00  0.00     0.039 A 
ATOM     37  C   UNL     1       8.232   2.633  10.099  1.00  0.00     0.014 A 
ATOM     38  C   UNL     1      10.387   3.627  10.489  1.00  0.00     0.014 A 
ATOM     39  C   UNL     1       8.289   2.050  11.364  1.00  0.00     0.010 A 
ATOM     40  C   UNL     1      10.458   3.031  11.746  1.00  0.00     0.010 A 
ATOM     41  C   UNL     1       9.381   2.284  12.206  1.00  0.00    -0.014 A 
BRANCH  41  42
ATOM     42  C   UNL     1       9.358   1.676  13.536  1.00  0.00     0.031 A 
ATOM     43  C   UNL     1       9.321   0.189  13.552  1.00  0.00     0.074 A 
ATOM     44  C   UNL     1       9.421   2.373  14.690  1.00  0.00     0.049 A 
ATOM     45  N   UNL     1       8.349  -0.579  13.923  1.00  0.00    -0.248 NA
ATOM     46  C   UNL     1      10.464  -0.530  12.975  1.00  0.00     0.031 C 
ATOM     47  C   UNL     1       9.767   3.787  14.863  1.00  0.00     0.029 A 
ATOM     48  N   UNL     1       9.268   1.933  15.975  1.00  0.00    -0.354 N 
ATOM     49  C   UNL     1       8.824  -1.887  13.809  1.00  0.00     0.074 A 
ATOM     50  C   UNL     1      10.067  -1.799  13.085  1.00  0.00     0.031 C 
ATOM     51  C   UNL     1      10.016   4.030  16.170  1.00  0.00     0.029 A 
ATOM     52  C   UNL     1       9.671   2.846  16.938  1.00  0.00     0.049 A 
ATOM     53  H   UNL     1       8.904   1.046  16.197  1.00  0.00     0.167 HD
ATOM     54  C   UNL     1       8.254  -2.916  14.501  1.00  0.00     0.034 A 
ATOM     55  C   UNL     1       9.731   2.652  18.276  1.00  0.00     0.034 A 
ATOM     56  C   UNL     1       7.016  -2.514  15.108  1.00  0.00     0.049 A 
ATOM     57  C   UNL     1       8.844   1.531  18.644  1.00  0.00     0.074 A 
ATOM     58  C   UNL     1       5.692  -2.436  14.743  1.00  0.00     0.029 A 
ATOM     59  N   UNL     1       7.166  -1.818  16.277  1.00  0.00    -0.354 N 
ATOM     60  N   UNL     1       7.544   1.588  18.586  1.00  0.00    -0.248 NA
ATOM     61  C   UNL     1       9.407   0.196  18.821  1.00  0.00     0.031 C 
ATOM     62  C   UNL     1       5.082  -1.528  15.655  1.00  0.00     0.029 A 
ATOM     63  C   UNL     1       6.043  -1.088  16.563  1.00  0.00     0.049 A 
ATOM     64  H   UNL     1       7.974  -1.840  16.838  1.00  0.00     0.167 HD
ATOM     65  C   UNL     1       7.169   0.299  18.272  1.00  0.00     0.074 A 
ATOM     66  C   UNL     1       8.308  -0.537  18.623  1.00  0.00     0.031 C 
ATOM     67  C   UNL     1       6.110   0.054  17.452  1.00  0.00     0.034 A 
BRANCH  54  68
ATOM     68  C   UNL     1       8.970  -4.164  14.976  1.00  0.00     0.023 A 
ATOM     69  C   UNL     1      10.368  -4.303  14.946  1.00  0.00     0.031 A 
ATOM     70  C   UNL     1       8.273  -5.150  15.713  1.00  0.00     0.131 A 
ATOM     71  C   UNL     1      11.018  -5.355  15.610  1.00  0.00     0.055 A 
ATOM     72  C   UNL     1       8.925  -6.165  16.426  1.00  0.00     0.041 A 
ATOM     73  F   UNL     1       6.934  -5.130  15.807  1.00  0.00    -0.206 F 
ATOM     74  C   UNL     1      10.308  -6.270  16.381  1.00  0.00     0.022 A 
BRANCH  71  75
ATOM     75  S   UNL     1      12.820  -5.532  15.497  1.00  0.00     0.124 S 
ATOM     76  O   UNL     1      13.224  -5.405  16.892  1.00  0.00    -0.237 OA
ATOM     77  O   UNL     1      12.950  -6.867  14.919  1.00  0.00    -0.237 OA
ATOM     78  O   UNL     1      13.215  -4.437  14.616  1.00  0.00    -0.744 OA
ENDBRANCH  71  75
ENDBRANCH  54  68
BRANCH  55  79
ATOM     79  C   UNL     1      10.723   3.175  19.234  1.00  0.00     0.023 A 
ATOM     80  C   UNL     1      12.077   3.212  18.855  1.00  0.00     0.031 A 
ATOM     81  C   UNL     1      10.420   3.301  20.600  1.00  0.00     0.131 A 
ATOM     82  C   UNL     1      13.078   3.294  19.833  1.00  0.00     0.055 A 
ATOM     83  C   UNL     1      11.421   3.409  21.571  1.00  0.00     0.041 A 
ATOM     84  F   UNL     1       9.148   3.245  21.023  1.00  0.00    -0.206 F 
ATOM     85  C   UNL     1      12.758   3.385  21.190  1.00  0.00     0.022 A 
BRANCH  82  86
ATOM     86  S   UNL     1      14.827   3.166  19.374  1.00  0.00     0.124 S 
ATOM     87  O   UNL     1      15.414   4.303  20.080  1.00  0.00    -0.237 OA
ATOM     88  O   UNL     1      15.175   1.851  19.901  1.00  0.00    -0.237 OA
ATOM     89  O   UNL     1      14.808   3.285  17.919  1.00  0.00    -0.744 OA
ENDBRANCH  82  86
ENDBRANCH  55  79
BRANCH  67  90
ATOM     90  C   UNL     1       5.052   1.110  17.311  1.00  0.00     0.023 A 
ATOM     91  C   UNL     1       3.734   0.725  17.610  1.00  0.00     0.031 A 
ATOM     92  C   UNL     1       5.257   2.389  16.768  1.00  0.00     0.131 A 
ATOM     93  C   UNL     1       2.667   1.579  17.320  1.00  0.00     0.055 A 
ATOM     94  C   UNL     1       4.193   3.271  16.551  1.00  0.00     0.041 A 
ATOM     95  F   UNL     1       6.471   2.795  16.369  1.00  0.00    -0.206 F 
ATOM     96  C   UNL     1       2.888   2.859  16.810  1.00  0.00     0.022 A 
BRANCH  93  97
ATOM     97  S   UNL     1       0.967   0.972  17.451  1.00  0.00     0.124 S 
ATOM     98  O   UNL     1       0.423   1.807  18.522  1.00  0.00    -0.237 OA
ATOM     99  O   UNL     1       0.437   1.250  16.114  1.00  0.00    -0.237 OA
ATOM    100  O   UNL     1       1.116  -0.439  17.771  1.00  0.00    -0.744 OA
ENDBRANCH  93  97
ENDBRANCH  67  90
ENDBRANCH  41  42
ENDBRANCH  33  36
ENDBRANCH  31  32
ENDBRANCH  30  31
ENDBRANCH  29  30
ENDBRANCH   1  29
TORSDOF 21
