REMARK SMILES O=C(NCCCCNC(=O)[C@H]1CC[N@@H+]1CCc1ccccc1)c1ccc(-c2c3nc(c(-c4cc(S(=O)(=O)[O-])ccc4F)c4ccc([nH]4)c(-c4cc(S(=O)(=O)[O-])ccc4F)c4nc(c(-c5cc(S(=O)(=O)[O-])ccc5F)c5ccc2[nH]5)C=C4)C=C3)cc1
REMARK SMILES IDX 5 1 4 2 3 3 1 4 2 5 23 7 24 8 85 9 25 10 84 11 26 12 27 13
REMARK SMILES IDX 28 14 78 15 29 16 83 17 77 18 79 19 30 20 82 21 76 22 75 23
REMARK SMILES IDX 31 25 63 26 43 27 62 28 44 29 47 30 61 31 80 32 45 33 46 34
REMARK SMILES IDX 60 36 81 37 48 38 32 39 33 40 41 41 34 42 40 43 42 44 39 45
REMARK SMILES IDX 35 46 36 47 37 48 38 49 64 50 65 51 73 52 66 53 72 54 74 55
REMARK SMILES IDX 71 56 67 57 68 58 69 59 70 60 49 61 50 62 58 63 51 64 57 65
REMARK SMILES IDX 59 66 56 67 52 68 53 69 54 70 55 71 6 72 7 73 8 74 9 75
REMARK SMILES IDX 10 77 11 78 12 79 14 80 13 81 15 83 16 84 17 85 18 86 22 87
REMARK SMILES IDX 19 88 21 89 20 90
REMARK H PARENT 3 6 79 24 47 35 8 76 14 82
REMARK Flexibility Score: inf
ROOT
ATOM      1  C   UNL     1       2.402   6.717   1.220  1.00  0.00     0.023 C 
ENDROOT
BRANCH   1   2
ATOM      2  C   UNL     1       1.309   7.639   1.734  1.00  0.00     0.116 C 
BRANCH   2   3
ATOM      3  N   UNL     1       1.665   9.052   1.775  1.00  0.00    -0.352 N 
ATOM      4  O   UNL     1       1.164  11.266   1.722  1.00  0.00    -0.269 OA
ATOM      5  C   UNL     1       0.778  10.111   1.771  1.00  0.00     0.251 C 
ATOM      6  H   UNL     1       2.624   9.271   1.809  1.00  0.00     0.163 HD
BRANCH   5   7
ATOM      7  C   UNL     1      -0.666   9.785   1.787  1.00  0.00     0.039 A 
ATOM      8  C   UNL     1      -1.169   8.946   2.783  1.00  0.00     0.014 A 
ATOM      9  C   UNL     1      -1.482  10.223   0.742  1.00  0.00     0.014 A 
ATOM     10  C   UNL     1      -2.451   8.430   2.661  1.00  0.00     0.010 A 
ATOM     11  C   UNL     1      -2.803   9.772   0.671  1.00  0.00     0.010 A 
ATOM     12  C   UNL     1      -3.289   8.856   1.618  1.00  0.00    -0.014 A 
BRANCH  12  13
ATOM     13  C   UNL     1      -4.707   8.422   1.615  1.00  0.00     0.031 A 
ATOM     14  C   UNL     1      -5.260   7.542   0.530  1.00  0.00     0.074 A 
ATOM     15  C   UNL     1      -5.489   8.840   2.631  1.00  0.00     0.049 A 
ATOM     16  N   UNL     1      -6.483   7.106   0.374  1.00  0.00    -0.248 NA
ATOM     17  C   UNL     1      -4.327   7.098  -0.517  1.00  0.00     0.031 C 
ATOM     18  C   UNL     1      -5.042   9.702   3.731  1.00  0.00     0.029 A 
ATOM     19  N   UNL     1      -6.807   8.604   2.913  1.00  0.00    -0.354 N 
ATOM     20  C   UNL     1      -6.478   6.357  -0.798  1.00  0.00     0.074 A 
ATOM     21  C   UNL     1      -5.128   6.405  -1.318  1.00  0.00     0.031 C 
ATOM     22  C   UNL     1      -6.059   9.898   4.580  1.00  0.00     0.029 A 
ATOM     23  C   UNL     1      -7.248   9.249   4.046  1.00  0.00     0.049 A 
ATOM     24  H   UNL     1      -7.384   8.030   2.360  1.00  0.00     0.167 HD
ATOM     25  C   UNL     1      -7.512   5.700  -1.378  1.00  0.00     0.034 A 
ATOM     26  C   UNL     1      -8.481   9.347   4.574  1.00  0.00     0.034 A 
ATOM     27  C   UNL     1      -8.847   5.656  -0.827  1.00  0.00     0.049 A 
ATOM     28  C   UNL     1      -9.612   8.640   3.881  1.00  0.00     0.074 A 
ATOM     29  C   UNL     1      -9.946   4.953  -1.288  1.00  0.00     0.029 A 
ATOM     30  N   UNL     1      -9.269   6.358   0.295  1.00  0.00    -0.354 N 
ATOM     31  N   UNL     1      -9.577   7.898   2.798  1.00  0.00    -0.248 NA
ATOM     32  C   UNL     1     -10.945   8.786   4.475  1.00  0.00     0.031 C 
ATOM     33  C   UNL     1     -11.047   5.285  -0.491  1.00  0.00     0.029 A 
ATOM     34  C   UNL     1     -10.622   6.144   0.510  1.00  0.00     0.049 A 
ATOM     35  H   UNL     1      -8.692   6.925   0.856  1.00  0.00     0.167 HD
ATOM     36  C   UNL     1     -10.887   7.485   2.584  1.00  0.00     0.074 A 
ATOM     37  C   UNL     1     -11.677   8.033   3.669  1.00  0.00     0.031 C 
ATOM     38  C   UNL     1     -11.395   6.728   1.580  1.00  0.00     0.034 A 
BRANCH  25  39
ATOM     39  C   UNL     1      -7.269   5.014  -2.700  1.00  0.00     0.023 A 
ATOM     40  C   UNL     1      -6.467   3.866  -2.813  1.00  0.00     0.031 A 
ATOM     41  C   UNL     1      -7.894   5.501  -3.863  1.00  0.00     0.131 A 
ATOM     42  C   UNL     1      -6.285   3.262  -4.068  1.00  0.00     0.055 A 
ATOM     43  C   UNL     1      -7.754   4.863  -5.097  1.00  0.00     0.041 A 
ATOM     44  F   UNL     1      -8.657   6.604  -3.817  1.00  0.00    -0.206 F 
ATOM     45  C   UNL     1      -6.941   3.740  -5.206  1.00  0.00     0.022 A 
BRANCH  42  46
ATOM     46  S   UNL     1      -5.116   1.882  -4.212  1.00  0.00     0.124 S 
ATOM     47  O   UNL     1      -3.862   2.513  -3.808  1.00  0.00    -0.237 OA
ATOM     48  O   UNL     1      -5.666   0.903  -3.282  1.00  0.00    -0.237 OA
ATOM     49  O   UNL     1      -5.192   1.513  -5.624  1.00  0.00    -0.744 OA
ENDBRANCH  42  46
ENDBRANCH  25  39
BRANCH  26  50
ATOM     50  C   UNL     1      -8.720  10.198   5.773  1.00  0.00     0.023 A 
ATOM     51  C   UNL     1      -9.191   9.648   6.973  1.00  0.00     0.031 A 
ATOM     52  C   UNL     1      -8.513  11.590   5.720  1.00  0.00     0.131 A 
ATOM     53  C   UNL     1      -9.483  10.488   8.058  1.00  0.00     0.055 A 
ATOM     54  C   UNL     1      -8.748  12.413   6.821  1.00  0.00     0.041 A 
ATOM     55  F   UNL     1      -8.061  12.168   4.596  1.00  0.00    -0.206 F 
ATOM     56  C   UNL     1      -9.251  11.864   7.995  1.00  0.00     0.022 A 
BRANCH  53  57
ATOM     57  S   UNL     1     -10.273   9.768   9.522  1.00  0.00     0.124 S 
ATOM     58  O   UNL     1     -11.426   9.092   8.937  1.00  0.00    -0.237 OA
ATOM     59  O   UNL     1      -9.217   8.904  10.039  1.00  0.00    -0.237 OA
ATOM     60  O   UNL     1     -10.585  10.933  10.347  1.00  0.00    -0.744 OA
ENDBRANCH  53  57
ENDBRANCH  26  50
BRANCH  38  61
ATOM     61  C   UNL     1     -12.875   6.455   1.633  1.00  0.00     0.023 A 
ATOM     62  C   UNL     1     -13.812   7.482   1.429  1.00  0.00     0.031 A 
ATOM     63  C   UNL     1     -13.352   5.167   1.929  1.00  0.00     0.131 A 
ATOM     64  C   UNL     1     -15.180   7.218   1.582  1.00  0.00     0.055 A 
ATOM     65  C   UNL     1     -14.717   4.896   2.022  1.00  0.00     0.041 A 
ATOM     66  F   UNL     1     -12.497   4.152   2.137  1.00  0.00    -0.206 F 
ATOM     67  C   UNL     1     -15.639   5.928   1.862  1.00  0.00     0.022 A 
BRANCH  64  68
ATOM     68  S   UNL     1     -16.347   8.602   1.497  1.00  0.00     0.124 S 
ATOM     69  O   UNL     1     -15.907   9.438   2.609  1.00  0.00    -0.237 OA
ATOM     70  O   UNL     1     -16.102   9.138   0.162  1.00  0.00    -0.237 OA
ATOM     71  O   UNL     1     -17.650   7.964   1.678  1.00  0.00    -0.744 OA
ENDBRANCH  64  68
ENDBRANCH  38  61
ENDBRANCH  12  13
ENDBRANCH   5   7
ENDBRANCH   2   3
ENDBRANCH   1   2
BRANCH   1  72
ATOM     72  C   UNL     1       3.689   6.724   2.035  1.00  0.00     0.023 C 
BRANCH  72  73
ATOM     73  C   UNL     1       3.549   6.379   3.524  1.00  0.00     0.116 C 
BRANCH  73  74
ATOM     74  N   UNL     1       3.851   4.993   3.865  1.00  0.00    -0.351 N 
ATOM     75  C   UNL     1       5.010   4.317   4.226  1.00  0.00     0.278 C 
ATOM     76  H   UNL     1       3.060   4.408   3.831  1.00  0.00     0.163 HD
ATOM     77  O   UNL     1       4.818   3.160   4.637  1.00  0.00    -0.268 OA
BRANCH  75  78
ATOM     78  C   UNL     1       6.467   4.912   4.041  1.00  0.00     0.279 C 
ATOM     79  C   UNL     1       6.630   6.318   3.487  1.00  0.00     0.137 C 
ATOM     80  N   UNL     1       7.149   5.422   5.308  1.00  0.00    -0.324 N 
ATOM     81  C   UNL     1       6.636   6.757   4.981  1.00  0.00     0.269 C 
ATOM     82  H   UNL     1       6.979   4.933   6.187  1.00  0.00     0.348 HD
BRANCH  80  83
ATOM     83  C   UNL     1       8.640   5.441   5.298  1.00  0.00     0.267 C 
BRANCH  83  84
ATOM     84  C   UNL     1       9.585   6.214   4.296  1.00  0.00     0.097 C 
BRANCH  84  85
ATOM     85  C   UNL     1       9.692   7.742   4.293  1.00  0.00    -0.042 A 
ATOM     86  C   UNL     1      10.724   8.382   4.995  1.00  0.00     0.004 A 
ATOM     87  C   UNL     1       8.840   8.574   3.542  1.00  0.00     0.004 A 
ATOM     88  C   UNL     1      10.859   9.780   4.973  1.00  0.00     0.000 A 
ATOM     89  C   UNL     1       8.926   9.968   3.572  1.00  0.00     0.000 A 
ATOM     90  C   UNL     1       9.945  10.574   4.285  1.00  0.00     0.000 A 
ENDBRANCH  84  85
ENDBRANCH  83  84
ENDBRANCH  80  83
ENDBRANCH  75  78
ENDBRANCH  73  74
ENDBRANCH  72  73
ENDBRANCH   1  72
TORSDOF 17
