REMARK SMILES O=C(NCCCCNC(=O)c1cc(NC(=O)c2ccccc2Cl)ccc1N1CCC[C@H](C[NH+]2CCCC2)C1)c1ccc(-c2c3nc(c(-c4cc(S(=O)(=O)[O-])ccc4F)c4ccc([nH]4)c(-c4cc(S(=O)(=O)[O-])ccc4F)c4nc(c(-c5cc(S(=O)(=O)[O-])ccc5F)c5ccc2[nH]5)C=C4)C=C3)cc1
REMARK SMILES IDX 5 1 4 2 3 3 1 4 2 5 39 7 40 8 101 9 41 10 100 11 42 12 43 13
REMARK SMILES IDX 44 14 94 15 45 16 99 17 93 18 95 19 46 20 98 21 92 22 91 23
REMARK SMILES IDX 47 25 79 26 59 27 78 28 60 29 63 30 77 31 96 32 61 33 62 34
REMARK SMILES IDX 76 36 97 37 64 38 48 39 49 40 57 41 50 42 56 43 58 44 55 45
REMARK SMILES IDX 51 46 52 47 53 48 54 49 80 50 81 51 89 52 82 53 88 54 90 55
REMARK SMILES IDX 87 56 83 57 84 58 85 59 86 60 65 61 66 62 74 63 67 64 73 65
REMARK SMILES IDX 75 66 72 67 68 68 69 69 70 70 71 71 6 72 7 73 8 74 9 75
REMARK SMILES IDX 10 77 11 78 12 79 26 80 13 81 25 82 24 83 27 84 28 85 38 86
REMARK SMILES IDX 29 87 31 88 30 89 32 90 33 91 34 92 37 93 35 95 36 96 14 97
REMARK SMILES IDX 15 98 16 100 17 101 18 102 22 103 19 104 21 105 23 106
REMARK SMILES IDX 20 107
REMARK H PARENT 3 6 95 24 63 35 8 76 33 94 14 99
REMARK Flexibility Score: inf
ROOT
ATOM      1  C   UNL     1       5.116   2.463   0.481  1.00  0.00     0.023 C 
ENDROOT
BRANCH   1   2
ATOM      2  C   UNL     1       4.679   1.050   0.853  1.00  0.00     0.116 C 
BRANCH   2   3
ATOM      3  N   UNL     1       3.236   0.870   0.836  1.00  0.00    -0.352 N 
ATOM      4  O   UNL     1       1.239   0.175   0.058  1.00  0.00    -0.269 OA
ATOM      5  C   UNL     1       2.458   0.097  -0.001  1.00  0.00     0.251 C 
ATOM      6  H   UNL     1       2.742   1.373   1.523  1.00  0.00     0.163 HD
BRANCH   5   7
ATOM      7  C   UNL     1       3.102  -0.808  -0.982  1.00  0.00     0.039 A 
ATOM      8  C   UNL     1       4.140  -1.659  -0.596  1.00  0.00     0.014 A 
ATOM      9  C   UNL     1       2.648  -0.816  -2.305  1.00  0.00     0.014 A 
ATOM     10  C   UNL     1       4.814  -2.412  -1.552  1.00  0.00     0.010 A 
ATOM     11  C   UNL     1       3.273  -1.639  -3.250  1.00  0.00     0.010 A 
ATOM     12  C   UNL     1       4.374  -2.429  -2.886  1.00  0.00    -0.014 A 
BRANCH  12  13
ATOM     13  C   UNL     1       5.012  -3.360  -3.855  1.00  0.00     0.031 A 
ATOM     14  C   UNL     1       5.777  -2.849  -5.044  1.00  0.00     0.074 A 
ATOM     15  C   UNL     1       4.881  -4.686  -3.646  1.00  0.00     0.049 A 
ATOM     16  N   UNL     1       6.360  -3.529  -5.999  1.00  0.00    -0.248 NA
ATOM     17  C   UNL     1       5.903  -1.391  -5.186  1.00  0.00     0.031 C 
ATOM     18  C   UNL     1       4.153  -5.290  -2.526  1.00  0.00     0.029 A 
ATOM     19  N   UNL     1       5.345  -5.764  -4.355  1.00  0.00    -0.354 N 
ATOM     20  C   UNL     1       6.902  -2.588  -6.867  1.00  0.00     0.074 A 
ATOM     21  C   UNL     1       6.568  -1.285  -6.331  1.00  0.00     0.031 C 
ATOM     22  C   UNL     1       4.235  -6.625  -2.614  1.00  0.00     0.029 A 
ATOM     23  C   UNL     1       4.951  -6.975  -3.834  1.00  0.00     0.049 A 
ATOM     24  H   UNL     1       5.906  -5.679  -5.160  1.00  0.00     0.167 HD
ATOM     25  C   UNL     1       7.609  -2.800  -8.005  1.00  0.00     0.034 A 
ATOM     26  C   UNL     1       5.104  -8.228  -4.306  1.00  0.00     0.034 A 
ATOM     27  C   UNL     1       7.945  -4.110  -8.511  1.00  0.00     0.049 A 
ATOM     28  C   UNL     1       5.845  -8.424  -5.601  1.00  0.00     0.074 A 
ATOM     29  C   UNL     1       8.737  -4.433  -9.600  1.00  0.00     0.029 A 
ATOM     30  N   UNL     1       7.489  -5.311  -7.985  1.00  0.00    -0.354 N 
ATOM     31  N   UNL     1       6.409  -7.522  -6.371  1.00  0.00    -0.248 NA
ATOM     32  C   UNL     1       5.967  -9.801  -6.094  1.00  0.00     0.031 C 
ATOM     33  C   UNL     1       8.692  -5.819  -9.781  1.00  0.00     0.029 A 
ATOM     34  C   UNL     1       7.934  -6.370  -8.761  1.00  0.00     0.049 A 
ATOM     35  H   UNL     1       6.931  -5.397  -7.178  1.00  0.00     0.167 HD
ATOM     36  C   UNL     1       6.961  -8.228  -7.435  1.00  0.00     0.074 A 
ATOM     37  C   UNL     1       6.689  -9.629  -7.192  1.00  0.00     0.031 C 
ATOM     38  C   UNL     1       7.630  -7.760  -8.518  1.00  0.00     0.034 A 
BRANCH  25  39
ATOM     39  C   UNL     1       8.033  -1.601  -8.817  1.00  0.00     0.023 A 
ATOM     40  C   UNL     1       8.999  -0.689  -8.361  1.00  0.00     0.031 A 
ATOM     41  C   UNL     1       7.489  -1.400 -10.100  1.00  0.00     0.131 A 
ATOM     42  C   UNL     1       9.367   0.402  -9.167  1.00  0.00     0.055 A 
ATOM     43  C   UNL     1       7.902  -0.349 -10.920  1.00  0.00     0.041 A 
ATOM     44  F   UNL     1       6.550  -2.230 -10.580  1.00  0.00    -0.206 F 
ATOM     45  C   UNL     1       8.842   0.564 -10.453  1.00  0.00     0.022 A 
BRANCH  42  46
ATOM     46  S   UNL     1      10.482   1.657  -8.482  1.00  0.00     0.124 S 
ATOM     47  O   UNL     1       9.726   2.125  -7.323  1.00  0.00    -0.237 OA
ATOM     48  O   UNL     1      11.685   0.885  -8.190  1.00  0.00    -0.237 OA
ATOM     49  O   UNL     1      10.613   2.629  -9.565  1.00  0.00    -0.744 OA
ENDBRANCH  42  46
ENDBRANCH  25  39
BRANCH  26  50
ATOM     50  C   UNL     1       4.481  -9.383  -3.596  1.00  0.00     0.023 A 
ATOM     51  C   UNL     1       5.261 -10.430  -3.087  1.00  0.00     0.031 A 
ATOM     52  C   UNL     1       3.083  -9.479  -3.468  1.00  0.00     0.131 A 
ATOM     53  C   UNL     1       4.638 -11.553  -2.519  1.00  0.00     0.055 A 
ATOM     54  C   UNL     1       2.470 -10.566  -2.844  1.00  0.00     0.041 A 
ATOM     55  F   UNL     1       2.287  -8.506  -3.940  1.00  0.00    -0.206 F 
ATOM     56  C   UNL     1       3.249 -11.621  -2.381  1.00  0.00     0.022 A 
BRANCH  53  57
ATOM     57  S   UNL     1       5.664 -12.978  -2.070  1.00  0.00     0.124 S 
ATOM     58  O   UNL     1       6.368 -13.244  -3.319  1.00  0.00    -0.237 OA
ATOM     59  O   UNL     1       6.471 -12.436  -0.982  1.00  0.00    -0.237 OA
ATOM     60  O   UNL     1       4.686 -13.990  -1.676  1.00  0.00    -0.744 OA
ENDBRANCH  53  57
ENDBRANCH  26  50
BRANCH  38  61
ATOM     61  C   UNL     1       8.120  -8.786  -9.508  1.00  0.00     0.023 A 
ATOM     62  C   UNL     1       7.223  -9.522 -10.301  1.00  0.00     0.031 A 
ATOM     63  C   UNL     1       9.495  -9.038  -9.650  1.00  0.00     0.131 A 
ATOM     64  C   UNL     1       7.709 -10.512 -11.167  1.00  0.00     0.055 A 
ATOM     65  C   UNL     1       9.976  -9.984 -10.556  1.00  0.00     0.041 A 
ATOM     66  F   UNL     1      10.393  -8.366  -8.913  1.00  0.00    -0.206 F 
ATOM     67  C   UNL     1       9.081 -10.735 -11.312  1.00  0.00     0.022 A 
BRANCH  64  68
ATOM     68  S   UNL     1       6.519 -11.557 -12.050  1.00  0.00     0.124 S 
ATOM     69  O   UNL     1       5.829 -12.224 -10.951  1.00  0.00    -0.237 OA
ATOM     70  O   UNL     1       5.734 -10.579 -12.796  1.00  0.00    -0.237 OA
ATOM     71  O   UNL     1       7.366 -12.424 -12.868  1.00  0.00    -0.744 OA
ENDBRANCH  64  68
ENDBRANCH  38  61
ENDBRANCH  12  13
ENDBRANCH   5   7
ENDBRANCH   2   3
ENDBRANCH   1   2
BRANCH   1  72
ATOM     72  C   UNL     1       4.751   3.569   1.473  1.00  0.00     0.023 C 
BRANCH  72  73
ATOM     73  C   UNL     1       5.053   3.268   2.936  1.00  0.00     0.116 C 
BRANCH  73  74
ATOM     74  N   UNL     1       6.423   2.912   3.230  1.00  0.00    -0.352 N 
ATOM     75  C   UNL     1       7.039   2.901   4.461  1.00  0.00     0.253 C 
ATOM     76  H   UNL     1       6.979   2.647   2.462  1.00  0.00     0.163 HD
ATOM     77  O   UNL     1       8.170   2.432   4.569  1.00  0.00    -0.269 OA
BRANCH  75  78
ATOM     78  C   UNL     1       6.418   3.567   5.636  1.00  0.00     0.065 A 
ATOM     79  C   UNL     1       7.186   4.638   6.134  1.00  0.00     0.042 A 
ATOM     80  C   UNL     1       5.180   3.240   6.217  1.00  0.00     0.050 A 
ATOM     81  C   UNL     1       6.701   5.491   7.118  1.00  0.00     0.042 A 
ATOM     82  C   UNL     1       4.743   4.071   7.267  1.00  0.00     0.029 A 
ATOM     83  C   UNL     1       5.481   5.176   7.708  1.00  0.00     0.028 A 
BRANCH  80  84
ATOM     84  N   UNL     1       4.402   2.139   5.892  1.00  0.00    -0.370 N 
ATOM     85  C   UNL     1       2.989   2.313   5.547  1.00  0.00     0.116 C 
ATOM     86  C   UNL     1       5.038   0.840   5.653  1.00  0.00     0.126 C 
ATOM     87  C   UNL     1       2.146   1.176   6.103  1.00  0.00     0.022 C 
ATOM     88  C   UNL     1       4.216  -0.280   6.321  1.00  0.00     0.064 C 
ATOM     89  C   UNL     1       2.775  -0.180   5.797  1.00  0.00     0.013 C 
BRANCH  88  90
ATOM     90  C   UNL     1       4.386  -0.190   7.863  1.00  0.00     0.267 C 
BRANCH  90  91
ATOM     91  N   UNL     1       3.884  -1.261   8.731  1.00  0.00    -0.335 N 
ATOM     92  C   UNL     1       4.373  -2.600   8.416  1.00  0.00     0.262 C 
ATOM     93  C   UNL     1       2.436  -1.339   8.894  1.00  0.00     0.262 C 
ATOM     94  H   UNL     1       4.286  -0.954   9.617  1.00  0.00     0.348 HD
ATOM     95  C   UNL     1       3.232  -3.279   7.686  1.00  0.00     0.067 C 
ATOM     96  C   UNL     1       1.990  -2.678   8.318  1.00  0.00     0.067 C 
ENDBRANCH  90  91
ENDBRANCH  88  90
ENDBRANCH  80  84
BRANCH  81  97
ATOM     97  N   UNL     1       7.349   6.664   7.556  1.00  0.00    -0.322 N 
ATOM     98  C   UNL     1       8.365   7.417   7.003  1.00  0.00     0.257 C 
ATOM     99  H   UNL     1       7.015   7.010   8.415  1.00  0.00     0.170 HD
ATOM    100  O   UNL     1       8.851   8.357   7.629  1.00  0.00    -0.269 OA
BRANCH  98 101
ATOM    101  C   UNL     1       8.887   7.125   5.658  1.00  0.00     0.058 A 
ATOM    102  C   UNL     1      10.194   6.623   5.580  1.00  0.00     0.015 A 
ATOM    103  C   UNL     1       8.103   7.243   4.504  1.00  0.00     0.053 A 
ATOM    104  C   UNL     1      10.683   6.157   4.360  1.00  0.00     0.001 A 
ATOM    105  C   UNL     1       8.598   6.765   3.288  1.00  0.00     0.021 A 
ATOM    106  Cl  UNL     1       6.514   7.921   4.522  1.00  0.00    -0.083 Cl
ATOM    107  C   UNL     1       9.878   6.209   3.221  1.00  0.00     0.002 A 
ENDBRANCH  98 101
ENDBRANCH  81  97
ENDBRANCH  75  78
ENDBRANCH  73  74
ENDBRANCH  72  73
ENDBRANCH   1  72
TORSDOF 19
