REMARK SMILES O=C(COc1ccccc1/C=N/NC(=O)c1cc(-c2ccc(F)cc2)nc2ccccc12)NCCCCNC(=O)c1ccc(-c2c3nc(c(-c4cc(S(=O)(=O)[O-])ccc4F)c4ccc([nH]4)c(-c4cc(S(=O)(=O)[O-])ccc4F)c4nc(c(-c5cc(S(=O)(=O)[O-])ccc5F)c5ccc2[nH]5)C=C4)C=C3)cc1
REMARK SMILES IDX 34 1 33 2 1 3 2 4 3 6 4 7 5 8 6 9 10 10 7 11 9 12 8 13 11 14
REMARK SMILES IDX 12 15 13 16 14 17 15 19 16 20 17 21 32 22 18 23 27 24 31 25
REMARK SMILES IDX 26 26 28 27 30 28 29 29 19 30 20 31 25 32 21 33 24 34 22 35
REMARK SMILES IDX 23 36 35 37 36 38 37 39 38 40 39 41 40 43 41 44 42 45 103 46
REMARK SMILES IDX 43 47 102 48 44 49 45 50 46 51 96 52 47 53 101 54 95 55
REMARK SMILES IDX 97 56 48 57 100 58 94 59 93 60 49 62 81 63 61 64 80 65 62 66
REMARK SMILES IDX 65 67 79 68 98 69 63 70 64 71 78 73 99 74 66 75 50 76 51 77
REMARK SMILES IDX 59 78 52 79 58 80 60 81 57 82 53 83 54 84 55 85 56 86 82 87
REMARK SMILES IDX 83 88 91 89 84 90 90 91 92 92 89 93 85 94 86 95 87 96 88 97
REMARK SMILES IDX 67 98 68 99 76 100 69 101 75 102 77 103 74 104 70 105 71 106
REMARK SMILES IDX 72 107 73 108
REMARK H PARENT 33 5 13 18 38 42 97 61 65 72
REMARK Flexibility Score: inf
ROOT
ATOM      1  C   UNL     1       3.006  -2.152   0.324  1.00  0.00     0.116 C 
ENDROOT
BRANCH   1   2
ATOM      2  N   UNL     1       3.855  -1.037  -0.029  1.00  0.00    -0.353 N 
ATOM      3  O   UNL     1       2.757  -0.054  -1.828  1.00  0.00    -0.271 OA
ATOM      4  C   UNL     1       3.391   0.031  -0.782  1.00  0.00     0.257 C 
ATOM      5  H   UNL     1       4.791  -1.036   0.275  1.00  0.00     0.163 HD
BRANCH   4   6
ATOM      6  C   UNL     1       3.737   1.384  -0.202  1.00  0.00     0.329 C 
BRANCH   6   7
ATOM      7  O   UNL     1       3.933   1.155   1.189  1.00  0.00    -0.483 OA
BRANCH   7   8
ATOM      8  C   UNL     1       3.042   1.804   1.992  1.00  0.00     0.128 A 
ATOM      9  C   UNL     1       3.608   2.923   2.634  1.00  0.00     0.047 A 
ATOM     10  C   UNL     1       1.830   1.259   2.438  1.00  0.00     0.037 A 
ATOM     11  C   UNL     1       3.022   3.466   3.772  1.00  0.00     0.004 A 
ATOM     12  C   UNL     1       1.277   1.805   3.617  1.00  0.00     0.013 A 
ATOM     13  C   UNL     1       1.872   2.884   4.283  1.00  0.00     0.001 A 
BRANCH  10  14
ATOM     14  C   UNL     1       1.054   0.077   1.937  1.00  0.00     0.145 C 
ATOM     15  N   UNL     1       0.639  -0.212   0.724  1.00  0.00    -0.180 NA
BRANCH  15  16
ATOM     16  N   UNL     1      -0.337  -1.214   0.750  1.00  0.00    -0.243 N 
ATOM     17  C   UNL     1      -0.871  -2.100  -0.192  1.00  0.00     0.272 C 
ATOM     18  H   UNL     1      -0.742  -1.321   1.641  1.00  0.00     0.194 HD
ATOM     19  O   UNL     1      -1.906  -2.665   0.187  1.00  0.00    -0.267 OA
BRANCH  17  20
ATOM     20  C   UNL     1      -0.239  -2.564  -1.476  1.00  0.00     0.053 A 
ATOM     21  C   UNL     1       0.621  -1.766  -2.229  1.00  0.00     0.043 A 
ATOM     22  C   UNL     1      -0.564  -3.859  -2.035  1.00  0.00     0.013 A 
ATOM     23  C   UNL     1       1.425  -2.403  -3.166  1.00  0.00     0.072 A 
ATOM     24  C   UNL     1       0.368  -4.391  -2.935  1.00  0.00     0.072 A 
ATOM     25  C   UNL     1      -1.754  -4.626  -1.905  1.00  0.00     0.011 A 
ATOM     26  N   UNL     1       1.438  -3.742  -3.293  1.00  0.00    -0.248 NA
ATOM     27  C   UNL     1       0.168  -5.544  -3.665  1.00  0.00     0.029 A 
ATOM     28  C   UNL     1      -2.006  -5.745  -2.722  1.00  0.00     0.001 A 
ATOM     29  C   UNL     1      -1.044  -6.202  -3.611  1.00  0.00     0.002 A 
BRANCH  23  30
ATOM     30  C   UNL     1       2.119  -1.897  -4.363  1.00  0.00     0.000 A 
ATOM     31  C   UNL     1       1.366  -1.974  -5.561  1.00  0.00     0.013 A 
ATOM     32  C   UNL     1       3.518  -2.049  -4.449  1.00  0.00     0.013 A 
ATOM     33  C   UNL     1       1.960  -2.401  -6.750  1.00  0.00     0.040 A 
ATOM     34  C   UNL     1       4.114  -2.450  -5.651  1.00  0.00     0.040 A 
ATOM     35  C   UNL     1       3.322  -2.669  -6.772  1.00  0.00     0.123 A 
ATOM     36  F   UNL     1       3.864  -3.211  -7.872  1.00  0.00    -0.207 F 
ENDBRANCH  23  30
ENDBRANCH  17  20
ENDBRANCH  15  16
ENDBRANCH  10  14
ENDBRANCH   7   8
ENDBRANCH   6   7
ENDBRANCH   4   6
ENDBRANCH   1   2
BRANCH   1  37
ATOM     37  C   UNL     1       3.317  -3.484  -0.318  1.00  0.00     0.023 C 
BRANCH  37  38
ATOM     38  C   UNL     1       4.696  -4.024  -0.015  1.00  0.00     0.023 C 
BRANCH  38  39
ATOM     39  C   UNL     1       4.981  -4.218   1.462  1.00  0.00     0.116 C 
BRANCH  39  40
ATOM     40  N   UNL     1       4.197  -5.288   2.069  1.00  0.00    -0.352 N 
ATOM     41  C   UNL     1       4.653  -6.418   2.712  1.00  0.00     0.251 C 
ATOM     42  H   UNL     1       3.219  -5.189   2.012  1.00  0.00     0.163 HD
ATOM     43  O   UNL     1       3.874  -7.299   3.060  1.00  0.00    -0.269 OA
BRANCH  41  44
ATOM     44  C   UNL     1       6.107  -6.565   2.932  1.00  0.00     0.039 A 
ATOM     45  C   UNL     1       6.750  -7.724   2.495  1.00  0.00     0.014 A 
ATOM     46  C   UNL     1       6.843  -5.501   3.459  1.00  0.00     0.014 A 
ATOM     47  C   UNL     1       8.146  -7.775   2.503  1.00  0.00     0.010 A 
ATOM     48  C   UNL     1       8.227  -5.510   3.355  1.00  0.00     0.010 A 
ATOM     49  C   UNL     1       8.897  -6.649   2.881  1.00  0.00    -0.014 A 
BRANCH  49  50
ATOM     50  C   UNL     1      10.382  -6.645   2.809  1.00  0.00     0.031 A 
ATOM     51  C   UNL     1      11.187  -6.420   4.061  1.00  0.00     0.074 A 
ATOM     52  C   UNL     1      11.002  -6.777   1.619  1.00  0.00     0.049 A 
ATOM     53  N   UNL     1      12.481  -6.300   4.205  1.00  0.00    -0.248 NA
ATOM     54  C   UNL     1      10.429  -6.272   5.314  1.00  0.00     0.031 C 
ATOM     55  C   UNL     1      10.331  -6.950   0.328  1.00  0.00     0.029 A 
ATOM     56  N   UNL     1      12.337  -6.783   1.297  1.00  0.00    -0.354 N 
ATOM     57  C   UNL     1      12.689  -6.051   5.558  1.00  0.00     0.074 A 
ATOM     58  C   UNL     1      11.384  -5.952   6.172  1.00  0.00     0.031 C 
ATOM     59  C   UNL     1      11.256  -7.082  -0.636  1.00  0.00     0.029 A 
ATOM     60  C   UNL     1      12.585  -6.949  -0.047  1.00  0.00     0.049 A 
ATOM     61  H   UNL     1      13.052  -6.677   1.966  1.00  0.00     0.167 HD
ATOM     62  C   UNL     1      13.861  -5.948   6.232  1.00  0.00     0.034 A 
ATOM     63  C   UNL     1      13.748  -6.978  -0.728  1.00  0.00     0.034 A 
ATOM     64  C   UNL     1      15.154  -6.062   5.605  1.00  0.00     0.049 A 
ATOM     65  C   UNL     1      15.040  -6.829   0.037  1.00  0.00     0.074 A 
ATOM     66  C   UNL     1      16.404  -6.024   6.195  1.00  0.00     0.029 A 
ATOM     67  N   UNL     1      15.364  -6.227   4.241  1.00  0.00    -0.354 N 
ATOM     68  N   UNL     1      15.221  -6.647   1.326  1.00  0.00    -0.248 NA
ATOM     69  C   UNL     1      16.283  -6.901  -0.741  1.00  0.00     0.031 C 
ATOM     70  C   UNL     1      17.368  -6.087   5.184  1.00  0.00     0.029 A 
ATOM     71  C   UNL     1      16.724  -6.257   3.969  1.00  0.00     0.049 A 
ATOM     72  H   UNL     1      14.652  -6.311   3.566  1.00  0.00     0.167 HD
ATOM     73  C   UNL     1      16.601  -6.616   1.514  1.00  0.00     0.074 A 
ATOM     74  C   UNL     1      17.201  -6.814   0.211  1.00  0.00     0.031 C 
ATOM     75  C   UNL     1      17.308  -6.445   2.661  1.00  0.00     0.034 A 
BRANCH  62  76
ATOM     76  C   UNL     1      13.784  -5.678   7.717  1.00  0.00     0.023 A 
ATOM     77  C   UNL     1      13.150  -6.573   8.599  1.00  0.00     0.031 A 
ATOM     78  C   UNL     1      14.316  -4.494   8.257  1.00  0.00     0.131 A 
ATOM     79  C   UNL     1      12.986  -6.230   9.949  1.00  0.00     0.055 A 
ATOM     80  C   UNL     1      14.233  -4.203   9.620  1.00  0.00     0.041 A 
ATOM     81  F   UNL     1      14.911  -3.588   7.464  1.00  0.00    -0.206 F 
ATOM     82  C   UNL     1      13.549  -5.064  10.472  1.00  0.00     0.022 A 
BRANCH  79  83
ATOM     83  S   UNL     1      11.885  -7.246  10.972  1.00  0.00     0.124 S 
ATOM     84  O   UNL     1      10.627  -7.150  10.234  1.00  0.00    -0.237 OA
ATOM     85  O   UNL     1      12.542  -8.547  10.947  1.00  0.00    -0.237 OA
ATOM     86  O   UNL     1      11.893  -6.565  12.265  1.00  0.00    -0.744 OA
ENDBRANCH  79  83
ENDBRANCH  62  76
BRANCH  63  87
ATOM     87  C   UNL     1      13.754  -7.145  -2.212  1.00  0.00     0.023 A 
ATOM     88  C   UNL     1      14.344  -8.268  -2.814  1.00  0.00     0.031 A 
ATOM     89  C   UNL     1      13.207  -6.159  -3.053  1.00  0.00     0.131 A 
ATOM     90  C   UNL     1      14.417  -8.356  -4.214  1.00  0.00     0.055 A 
ATOM     91  C   UNL     1      13.229  -6.280  -4.444  1.00  0.00     0.041 A 
ATOM     92  F   UNL     1      12.631  -5.064  -2.532  1.00  0.00    -0.206 F 
ATOM     93  C   UNL     1      13.849  -7.377  -5.033  1.00  0.00     0.022 A 
BRANCH  90  94
ATOM     94  S   UNL     1      15.351  -9.725  -4.952  1.00  0.00     0.124 S 
ATOM     95  O   UNL     1      16.671  -9.536  -4.361  1.00  0.00    -0.237 OA
ATOM     96  O   UNL     1      14.601 -10.888  -4.489  1.00  0.00    -0.237 OA
ATOM     97  O   UNL     1      15.264  -9.461  -6.387  1.00  0.00    -0.744 OA
ENDBRANCH  90  94
ENDBRANCH  63  87
BRANCH  75  98
ATOM     98  C   UNL     1      18.813  -6.513   2.559  1.00  0.00     0.023 A 
ATOM     99  C   UNL     1      19.554  -5.554   1.848  1.00  0.00     0.031 A 
ATOM    100  C   UNL     1      19.515  -7.561   3.183  1.00  0.00     0.131 A 
ATOM    101  C   UNL     1      20.945  -5.693   1.728  1.00  0.00     0.055 A 
ATOM    102  C   UNL     1      20.906  -7.656   3.119  1.00  0.00     0.041 A 
ATOM    103  F   UNL     1      18.860  -8.508   3.873  1.00  0.00    -0.206 F 
ATOM    104  C   UNL     1      21.628  -6.726   2.376  1.00  0.00     0.022 A 
BRANCH 101 105
ATOM    105  S   UNL     1      21.843  -4.563   0.630  1.00  0.00     0.124 S 
ATOM    106  O   UNL     1      21.176  -4.790  -0.648  1.00  0.00    -0.237 OA
ATOM    107  O   UNL     1      21.602  -3.265   1.253  1.00  0.00    -0.237 OA
ATOM    108  O   UNL     1      23.223  -5.037   0.703  1.00  0.00    -0.744 OA
ENDBRANCH 101 105
ENDBRANCH  75  98
ENDBRANCH  49  50
ENDBRANCH  41  44
ENDBRANCH  39  40
ENDBRANCH  38  39
ENDBRANCH  37  38
ENDBRANCH   1  37
TORSDOF 20
