REMARK SMILES O=C(NCCCCNC(=O)c1ccc(S(=O)(=O)Cc2cccs2)c(F)c1)c1ccc(-c2c3nc(c(-c4cc(S(=O)(=O)[O-])ccc4F)c4ccc([nH]4)c(-c4cc(S(=O)(=O)[O-])ccc4F)c4nc(c(-c5cc(S(=O)(=O)[O-])ccc5F)c5ccc2[nH]5)C=C4)C=C3)cc1
REMARK SMILES IDX 5 1 4 2 3 3 1 4 2 5 27 7 28 8 89 9 29 10 88 11 30 12 31 13
REMARK SMILES IDX 32 14 82 15 33 16 87 17 81 18 83 19 34 20 86 21 80 22 79 23
REMARK SMILES IDX 35 25 67 26 47 27 66 28 48 29 51 30 65 31 84 32 49 33 50 34
REMARK SMILES IDX 64 36 85 37 52 38 36 39 37 40 45 41 38 42 44 43 46 44 43 45
REMARK SMILES IDX 39 46 40 47 41 48 42 49 68 50 69 51 77 52 70 53 76 54 78 55
REMARK SMILES IDX 75 56 71 57 72 58 73 59 74 60 53 61 54 62 62 63 55 64 61 65
REMARK SMILES IDX 63 66 60 67 56 68 57 69 58 70 59 71 6 72 7 73 8 74 9 75
REMARK SMILES IDX 10 77 11 78 12 79 26 80 13 81 24 82 14 83 25 84 15 85 16 86
REMARK SMILES IDX 17 87 18 88 19 89 20 90 23 91 21 92 22 93
REMARK H PARENT 3 6 83 24 51 35 8 76
REMARK Flexibility Score: inf
ROOT
ATOM      1  C   UNL     1       4.891  -2.697   0.536  1.00  0.00     0.023 C 
ENDROOT
BRANCH   1   2
ATOM      2  C   UNL     1       4.586  -1.340  -0.086  1.00  0.00     0.116 C 
BRANCH   2   3
ATOM      3  N   UNL     1       3.166  -1.113  -0.315  1.00  0.00    -0.352 N 
ATOM      4  O   UNL     1       1.190  -0.031  -0.181  1.00  0.00    -0.269 OA
ATOM      5  C   UNL     1       2.403  -0.012   0.001  1.00  0.00     0.251 C 
ATOM      6  H   UNL     1       2.684  -1.850  -0.757  1.00  0.00     0.163 HD
BRANCH   5   7
ATOM      7  C   UNL     1       3.052   1.177   0.595  1.00  0.00     0.039 A 
ATOM      8  C   UNL     1       4.224   1.696   0.042  1.00  0.00     0.014 A 
ATOM      9  C   UNL     1       2.505   1.746   1.748  1.00  0.00     0.014 A 
ATOM     10  C   UNL     1       4.936   2.669   0.733  1.00  0.00     0.010 A 
ATOM     11  C   UNL     1       3.182   2.783   2.397  1.00  0.00     0.010 A 
ATOM     12  C   UNL     1       4.428   3.220   1.921  1.00  0.00    -0.014 A 
BRANCH  12  13
ATOM     13  C   UNL     1       5.222   4.249   2.642  1.00  0.00     0.031 A 
ATOM     14  C   UNL     1       5.793   3.966   4.007  1.00  0.00     0.074 A 
ATOM     15  C   UNL     1       5.486   5.419   2.027  1.00  0.00     0.049 A 
ATOM     16  N   UNL     1       6.524   4.741   4.768  1.00  0.00    -0.248 NA
ATOM     17  C   UNL     1       5.507   2.649   4.597  1.00  0.00     0.031 C 
ATOM     18  C   UNL     1       4.998   5.799   0.699  1.00  0.00     0.029 A 
ATOM     19  N   UNL     1       6.249   6.489   2.417  1.00  0.00    -0.354 N 
ATOM     20  C   UNL     1       6.769   4.017   5.929  1.00  0.00     0.074 A 
ATOM     21  C   UNL     1       6.092   2.746   5.784  1.00  0.00     0.031 C 
ATOM     22  C   UNL     1       5.522   6.986   0.361  1.00  0.00     0.029 A 
ATOM     23  C   UNL     1       6.327   7.484   1.471  1.00  0.00     0.049 A 
ATOM     24  H   UNL     1       6.699   6.540   3.292  1.00  0.00     0.167 HD
ATOM     25  C   UNL     1       7.500   4.377   7.013  1.00  0.00     0.034 A 
ATOM     26  C   UNL     1       6.960   8.672   1.496  1.00  0.00     0.034 A 
ATOM     27  C   UNL     1       8.198   5.631   7.136  1.00  0.00     0.049 A 
ATOM     28  C   UNL     1       7.728   9.062   2.728  1.00  0.00     0.074 A 
ATOM     29  C   UNL     1       8.996   6.071   8.179  1.00  0.00     0.029 A 
ATOM     30  N   UNL     1       8.183   6.645   6.190  1.00  0.00    -0.354 N 
ATOM     31  N   UNL     1       7.924   8.372   3.826  1.00  0.00    -0.248 NA
ATOM     32  C   UNL     1       8.344  10.396   2.732  1.00  0.00     0.031 C 
ATOM     33  C   UNL     1       9.423   7.370   7.885  1.00  0.00     0.029 A 
ATOM     34  C   UNL     1       8.934   7.720   6.637  1.00  0.00     0.049 A 
ATOM     35  H   UNL     1       7.710   6.606   5.328  1.00  0.00     0.167 HD
ATOM     36  C   UNL     1       8.683   9.190   4.654  1.00  0.00     0.074 A 
ATOM     37  C   UNL     1       8.925  10.417   3.924  1.00  0.00     0.031 C 
ATOM     38  C   UNL     1       9.138   8.946   5.908  1.00  0.00     0.034 A 
BRANCH  25  39
ATOM     39  C   UNL     1       7.563   3.417   8.170  1.00  0.00     0.023 A 
ATOM     40  C   UNL     1       8.312   2.231   8.105  1.00  0.00     0.031 A 
ATOM     41  C   UNL     1       6.897   3.719   9.371  1.00  0.00     0.131 A 
ATOM     42  C   UNL     1       8.354   1.372   9.214  1.00  0.00     0.055 A 
ATOM     43  C   UNL     1       6.985   2.887  10.488  1.00  0.00     0.041 A 
ATOM     44  F   UNL     1       6.157   4.833   9.478  1.00  0.00    -0.206 F 
ATOM     45  C   UNL     1       7.714   1.704  10.412  1.00  0.00     0.022 A 
BRANCH  42  46
ATOM     46  S   UNL     1       9.217  -0.214   9.060  1.00  0.00     0.124 S 
ATOM     47  O   UNL     1       8.357  -0.926   8.118  1.00  0.00    -0.237 OA
ATOM     48  O   UNL     1      10.526   0.181   8.553  1.00  0.00    -0.237 OA
ATOM     49  O   UNL     1       9.212  -0.742  10.423  1.00  0.00    -0.744 OA
ENDBRANCH  42  46
ENDBRANCH  25  39
BRANCH  26  50
ATOM     50  C   UNL     1       6.851   9.595   0.336  1.00  0.00     0.023 A 
ATOM     51  C   UNL     1       7.959   9.871  -0.479  1.00  0.00     0.031 A 
ATOM     52  C   UNL     1       5.625  10.212   0.024  1.00  0.00     0.131 A 
ATOM     53  C   UNL     1       7.823  10.756  -1.560  1.00  0.00     0.055 A 
ATOM     54  C   UNL     1       5.487  11.061  -1.073  1.00  0.00     0.041 A 
ATOM     55  F   UNL     1       4.537   9.971   0.772  1.00  0.00    -0.206 F 
ATOM     56  C   UNL     1       6.593  11.342  -1.869  1.00  0.00     0.022 A 
BRANCH  53  57
ATOM     57  S   UNL     1       9.291  11.156  -2.547  1.00  0.00     0.124 S 
ATOM     58  O   UNL     1      10.137  11.824  -1.564  1.00  0.00    -0.237 OA
ATOM     59  O   UNL     1       9.733   9.836  -2.985  1.00  0.00    -0.237 OA
ATOM     60  O   UNL     1       8.764  12.015  -3.606  1.00  0.00    -0.744 OA
ENDBRANCH  53  57
ENDBRANCH  26  50
BRANCH  38  61
ATOM     61  C   UNL     1       9.941  10.031   6.567  1.00  0.00     0.023 A 
ATOM     62  C   UNL     1       9.321  11.180   7.082  1.00  0.00     0.031 A 
ATOM     63  C   UNL     1      11.332   9.896   6.711  1.00  0.00     0.131 A 
ATOM     64  C   UNL     1      10.099  12.169   7.701  1.00  0.00     0.055 A 
ATOM     65  C   UNL     1      12.095  10.865   7.362  1.00  0.00     0.041 A 
ATOM     66  F   UNL     1      11.965   8.811   6.237  1.00  0.00    -0.206 F 
ATOM     67  C   UNL     1      11.479  12.011   7.857  1.00  0.00     0.022 A 
BRANCH  64  68
ATOM     68  S   UNL     1       9.286  13.678   8.292  1.00  0.00     0.124 S 
ATOM     69  O   UNL     1       8.909  14.327   7.040  1.00  0.00    -0.237 OA
ATOM     70  O   UNL     1       8.185  13.154   9.094  1.00  0.00    -0.237 OA
ATOM     71  O   UNL     1      10.334  14.356   9.053  1.00  0.00    -0.744 OA
ENDBRANCH  64  68
ENDBRANCH  38  61
ENDBRANCH  12  13
ENDBRANCH   5   7
ENDBRANCH   2   3
ENDBRANCH   1   2
BRANCH   1  72
ATOM     72  C   UNL     1       4.403  -3.909  -0.256  1.00  0.00     0.023 C 
BRANCH  72  73
ATOM     73  C   UNL     1       4.803  -3.920  -1.728  1.00  0.00     0.116 C 
BRANCH  73  74
ATOM     74  N   UNL     1       6.244  -3.994  -1.912  1.00  0.00    -0.352 N 
ATOM     75  C   UNL     1       6.983  -5.020  -2.442  1.00  0.00     0.251 C 
ATOM     76  H   UNL     1       6.755  -3.205  -1.618  1.00  0.00     0.163 HD
ATOM     77  O   UNL     1       8.206  -5.000  -2.470  1.00  0.00    -0.269 OA
BRANCH  75  78
ATOM     78  C   UNL     1       6.269  -6.184  -2.984  1.00  0.00     0.042 A 
ATOM     79  C   UNL     1       5.521  -6.054  -4.160  1.00  0.00     0.015 A 
ATOM     80  C   UNL     1       6.315  -7.389  -2.283  1.00  0.00     0.054 A 
ATOM     81  C   UNL     1       4.772  -7.137  -4.613  1.00  0.00     0.024 A 
ATOM     82  C   UNL     1       5.559  -8.461  -2.740  1.00  0.00     0.142 A 
ATOM     83  C   UNL     1       4.789  -8.338  -3.891  1.00  0.00     0.103 A 
ATOM     84  F   UNL     1       5.577  -9.597  -2.034  1.00  0.00    -0.206 F 
BRANCH  83  85
ATOM     85  S   UNL     1       3.819  -9.688  -4.486  1.00  0.00     0.186 S 
ATOM     86  O   UNL     1       2.582  -9.635  -3.728  1.00  0.00    -0.223 OA
ATOM     87  O   UNL     1       3.774  -9.553  -5.934  1.00  0.00    -0.223 OA
BRANCH  85  88
ATOM     88  C   UNL     1       4.624 -11.222  -4.112  1.00  0.00     0.188 C 
BRANCH  88  89
ATOM     89  C   UNL     1       6.024 -11.367  -4.639  1.00  0.00     0.020 A 
ATOM     90  C   UNL     1       6.856 -10.521  -5.351  1.00  0.00     0.016 A 
ATOM     91  S   UNL     1       6.811 -12.873  -4.333  1.00  0.00    -0.148 S 
ATOM     92  C   UNL     1       8.139 -11.091  -5.601  1.00  0.00     0.012 A 
ATOM     93  C   UNL     1       8.241 -12.371  -5.112  1.00  0.00     0.065 A 
ENDBRANCH  88  89
ENDBRANCH  85  88
ENDBRANCH  83  85
ENDBRANCH  75  78
ENDBRANCH  73  74
ENDBRANCH  72  73
ENDBRANCH   1  72
TORSDOF 17
