REMARK SMILES CC[C@@H](NC(=O)N1CCO[C@H](CC(=O)NCCCCNC(=O)c2ccc(-c3c4nc(c(-c5cc(S(=O)(=O)[O-])ccc5F)c5ccc([nH]5)c(-c5cc(S(=O)(=O)[O-])ccc5F)c5nc(c(-c6cc(S(=O)(=O)[O-])ccc6F)c6ccc3[nH]6)C=C5)C=C4)cc2)C1)c1cccs1
REMARK SMILES IDX 17 1 16 2 15 3 13 4 14 5 12 7 11 8 7 9 8 10 86 11 9 12 10 13
REMARK SMILES IDX 5 14 4 15 6 17 3 18 2 19 1 20 87 21 88 22 91 23 89 24 90 25
REMARK SMILES IDX 18 26 19 27 20 28 21 29 22 31 23 32 24 33 85 34 25 35 84 36
REMARK SMILES IDX 26 37 27 38 28 39 78 40 29 41 83 42 77 43 79 44 30 45 82 46
REMARK SMILES IDX 76 47 75 48 31 50 63 51 43 52 62 53 44 54 47 55 61 56 80 57
REMARK SMILES IDX 45 58 46 59 60 61 81 62 48 63 32 64 33 65 41 66 34 67 40 68
REMARK SMILES IDX 42 69 39 70 35 71 36 72 37 73 38 74 64 75 65 76 73 77 66 78
REMARK SMILES IDX 72 79 74 80 71 81 67 82 68 83 69 84 70 85 49 86 50 87 58 88
REMARK SMILES IDX 51 89 57 90 59 91 56 92 52 93 53 94 54 95 55 96
REMARK H PARENT 15 6 4 16 20 30 79 49 47 60
REMARK Flexibility Score: inf
ROOT
ATOM      1  C   UNL     1       2.033  -0.590   6.351  1.00  0.00     0.023 C 
ENDROOT
BRANCH   1   2
ATOM      2  C   UNL     1       1.309  -1.177   4.834  1.00  0.00     0.116 C 
BRANCH   2   3
ATOM      3  N   UNL     1      -0.728  -1.629   4.375  1.00  0.00    -0.356 N 
ATOM      4  C   UNL     1      -2.099  -1.383   4.255  1.00  0.00     0.222 C 
ATOM      5  O   UNL     1      -2.655  -2.335   3.655  1.00  0.00    -0.275 OA
ATOM      6  H   UNL     1      -0.662  -2.562   4.066  1.00  0.00     0.163 HD
BRANCH   4   7
ATOM      7  C   UNL     1      -3.097  -0.308   4.788  1.00  0.00     0.133 C 
BRANCH   7   8
ATOM      8  C   UNL     1      -3.085   1.218   5.070  1.00  0.00     0.147 C 
ATOM      9  N   UNL     1      -1.256   2.502   4.047  1.00  0.00    -0.320 N 
ATOM     10  C   UNL     1      -0.980   3.223   5.282  1.00  0.00     0.150 C 
ATOM     11  C   UNL     1      -2.642   2.123   3.927  1.00  0.00     0.154 C 
ATOM     12  C   UNL     1      -1.603   2.570   6.542  1.00  0.00     0.182 C 
ATOM     13  O   UNL     1      -2.667   1.610   6.392  1.00  0.00    -0.374 OA
BRANCH   9  14
ATOM     14  C   UNL     1      -0.570   2.805   2.919  1.00  0.00     0.318 C 
ATOM     15  N   UNL     1      -0.259   1.832   2.039  1.00  0.00    -0.330 N 
ATOM     16  H   UNL     1      -0.594   2.048   1.139  1.00  0.00     0.166 HD
ATOM     17  O   UNL     1      -0.374   3.975   2.588  1.00  0.00    -0.249 OA
BRANCH  15  18
ATOM     18  C   UNL     1       0.446   0.527   2.044  1.00  0.00     0.124 C 
BRANCH  18  19
ATOM     19  C   UNL     1       0.136  -0.155   0.677  1.00  0.00     0.027 C 
ATOM     20  C   UNL     1       0.952   0.408  -0.483  1.00  0.00     0.006 C 
ENDBRANCH  18  19
BRANCH  18  21
ATOM     21  C   UNL     1       0.276  -0.506   3.151  1.00  0.00     0.027 A 
ATOM     22  C   UNL     1       0.750  -2.216   3.170  1.00  0.00     0.017 A 
ATOM     23  S   UNL     1      -0.253   0.189   5.303  1.00  0.00    -0.147 S 
ATOM     24  C   UNL     1       0.547  -3.075   4.901  1.00  0.00     0.012 A 
ATOM     25  C   UNL     1      -0.035  -1.982   6.128  1.00  0.00     0.065 A 
ENDBRANCH  18  21
ENDBRANCH  15  18
ENDBRANCH   9  14
ENDBRANCH   7   8
ENDBRANCH   4   7
ENDBRANCH   2   3
ENDBRANCH   1   2
BRANCH   1  26
ATOM     26  C   UNL     1       3.549  -0.740   6.346  1.00  0.00     0.023 C 
BRANCH  26  27
ATOM     27  C   UNL     1       4.256  -0.198   5.120  1.00  0.00     0.116 C 
BRANCH  27  28
ATOM     28  N   UNL     1       4.232   1.254   4.972  1.00  0.00    -0.352 N 
ATOM     29  C   UNL     1       5.305   2.042   4.593  1.00  0.00     0.251 C 
ATOM     30  H   UNL     1       3.380   1.711   5.158  1.00  0.00     0.163 HD
ATOM     31  O   UNL     1       5.226   3.259   4.503  1.00  0.00    -0.269 OA
BRANCH  29  32
ATOM     32  C   UNL     1       6.575   1.328   4.347  1.00  0.00     0.039 A 
ATOM     33  C   UNL     1       7.562   1.380   5.333  1.00  0.00     0.014 A 
ATOM     34  C   UNL     1       6.595   0.349   3.349  1.00  0.00     0.014 A 
ATOM     35  C   UNL     1       8.528   0.374   5.377  1.00  0.00     0.010 A 
ATOM     36  C   UNL     1       7.491  -0.707   3.469  1.00  0.00     0.010 A 
ATOM     37  C   UNL     1       8.460  -0.714   4.489  1.00  0.00    -0.014 A 
BRANCH  37  38
ATOM     38  C   UNL     1       9.391  -1.870   4.610  1.00  0.00     0.031 A 
ATOM     39  C   UNL     1      10.286  -2.220   3.454  1.00  0.00     0.074 A 
ATOM     40  C   UNL     1       9.391  -2.640   5.719  1.00  0.00     0.049 A 
ATOM     41  N   UNL     1      11.121  -3.218   3.321  1.00  0.00    -0.248 NA
ATOM     42  C   UNL     1      10.189  -1.354   2.271  1.00  0.00     0.031 C 
ATOM     43  C   UNL     1       8.538  -2.441   6.893  1.00  0.00     0.029 A 
ATOM     44  N   UNL     1      10.139  -3.746   6.043  1.00  0.00    -0.354 N 
ATOM     45  C   UNL     1      11.636  -3.104   2.034  1.00  0.00     0.074 A 
ATOM     46  C   UNL     1      10.938  -2.008   1.400  1.00  0.00     0.031 C 
ATOM     47  C   UNL     1       8.850  -3.356   7.826  1.00  0.00     0.029 A 
ATOM     48  C   UNL     1       9.888  -4.240   7.303  1.00  0.00     0.049 A 
ATOM     49  H   UNL     1      10.796  -4.149   5.429  1.00  0.00     0.167 HD
ATOM     50  C   UNL     1      12.631  -3.815   1.448  1.00  0.00     0.034 A 
ATOM     51  C   UNL     1      10.431  -5.285   7.961  1.00  0.00     0.034 A 
ATOM     52  C   UNL     1      13.322  -4.901   2.098  1.00  0.00     0.049 A 
ATOM     53  C   UNL     1      11.495  -6.105   7.274  1.00  0.00     0.074 A 
ATOM     54  C   UNL     1      14.377  -5.659   1.624  1.00  0.00     0.029 A 
ATOM     55  N   UNL     1      13.015  -5.393   3.361  1.00  0.00    -0.354 N 
ATOM     56  N   UNL     1      12.017  -5.948   6.078  1.00  0.00    -0.248 NA
ATOM     57  C   UNL     1      12.044  -7.241   8.025  1.00  0.00     0.031 C 
ATOM     58  C   UNL     1      14.654  -6.658   2.564  1.00  0.00     0.029 A 
ATOM     59  C   UNL     1      13.830  -6.473   3.664  1.00  0.00     0.049 A 
ATOM     60  H   UNL     1      12.319  -5.028   3.954  1.00  0.00     0.167 HD
ATOM     61  C   UNL     1      12.977  -6.949   5.948  1.00  0.00     0.074 A 
ATOM     62  C   UNL     1      12.968  -7.694   7.191  1.00  0.00     0.031 C 
ATOM     63  C   UNL     1      13.796  -7.221   4.900  1.00  0.00     0.034 A 
BRANCH  50  64
ATOM     64  C   UNL     1      12.991  -3.441   0.027  1.00  0.00     0.023 A 
ATOM     65  C   UNL     1      13.412  -2.140  -0.305  1.00  0.00     0.031 A 
ATOM     66  C   UNL     1      12.824  -4.361  -1.022  1.00  0.00     0.131 A 
ATOM     67  C   UNL     1      13.522  -1.760  -1.650  1.00  0.00     0.055 A 
ATOM     68  C   UNL     1      13.047  -4.006  -2.354  1.00  0.00     0.041 A 
ATOM     69  F   UNL     1      12.406  -5.613  -0.775  1.00  0.00    -0.206 F 
ATOM     70  C   UNL     1      13.371  -2.692  -2.678  1.00  0.00     0.022 A 
BRANCH  67  71
ATOM     71  S   UNL     1      13.640   0.010  -2.034  1.00  0.00     0.124 S 
ATOM     72  O   UNL     1      12.443   0.533  -1.378  1.00  0.00    -0.237 OA
ATOM     73  O   UNL     1      14.914   0.380  -1.429  1.00  0.00    -0.237 OA
ATOM     74  O   UNL     1      13.605   0.046  -3.495  1.00  0.00    -0.744 OA
ENDBRANCH  67  71
ENDBRANCH  50  64
BRANCH  51  75
ATOM     75  C   UNL     1       9.998  -5.613   9.351  1.00  0.00     0.023 A 
ATOM     76  C   UNL     1      10.889  -5.495  10.430  1.00  0.00     0.031 A 
ATOM     77  C   UNL     1       8.696  -6.071   9.621  1.00  0.00     0.131 A 
ATOM     78  C   UNL     1      10.480  -5.859  11.722  1.00  0.00     0.055 A 
ATOM     79  C   UNL     1       8.278  -6.387  10.916  1.00  0.00     0.041 A 
ATOM     80  F   UNL     1       7.802  -6.201   8.628  1.00  0.00    -0.206 F 
ATOM     81  C   UNL     1       9.176  -6.290  11.975  1.00  0.00     0.022 A 
BRANCH  78  82
ATOM     82  S   UNL     1      11.697  -5.816  13.067  1.00  0.00     0.124 S 
ATOM     83  O   UNL     1      12.692  -6.774  12.597  1.00  0.00    -0.237 OA
ATOM     84  O   UNL     1      12.103  -4.415  13.064  1.00  0.00    -0.237 OA
ATOM     85  O   UNL     1      10.928  -6.237  14.236  1.00  0.00    -0.744 OA
ENDBRANCH  78  82
ENDBRANCH  51  75
BRANCH  63  86
ATOM     86  C   UNL     1      14.776  -8.358   5.068  1.00  0.00     0.023 A 
ATOM     87  C   UNL     1      14.350  -9.692   5.184  1.00  0.00     0.031 A 
ATOM     88  C   UNL     1      16.159  -8.100   5.105  1.00  0.00     0.131 A 
ATOM     89  C   UNL     1      15.293 -10.712   5.382  1.00  0.00     0.055 A 
ATOM     90  C   UNL     1      17.095  -9.126   5.237  1.00  0.00     0.041 A 
ATOM     91  F   UNL     1      16.623  -6.844   5.003  1.00  0.00    -0.206 F 
ATOM     92  C   UNL     1      16.663 -10.441   5.388  1.00  0.00     0.022 A 
BRANCH  89  93
ATOM     93  S   UNL     1      14.700 -12.393   5.719  1.00  0.00     0.124 S 
ATOM     94  O   UNL     1      13.907 -12.196   6.929  1.00  0.00    -0.237 OA
ATOM     95  O   UNL     1      13.948 -12.709   4.509  1.00  0.00    -0.237 OA
ATOM     96  O   UNL     1      15.930 -13.161   5.902  1.00  0.00    -0.744 OA
ENDBRANCH  89  93
ENDBRANCH  63  86
ENDBRANCH  37  38
ENDBRANCH  29  32
ENDBRANCH  27  28
ENDBRANCH  26  27
ENDBRANCH   1  26
TORSDOF 19
