REMARK SMILES Cc1cc(Nc2ccc(C(=O)NCCCCNC(=O)c3ccc(-c4c5nc(c(-c6cc(S(=O)(=O)[O-])ccc6F)c6ccc([nH]6)c(-c6cc(S(=O)(=O)[O-])ccc6F)c6nc(c(-c7cc(S(=O)(=O)[O-])ccc7F)c7ccc4[nH]7)C=C6)C=C5)cc3)cc2)nc(-n2nc(C)cc2C)n1
REMARK SMILES IDX 14 1 13 2 12 3 10 4 11 5 9 7 6 8 7 9 84 10 8 11 83 12 5 13
REMARK SMILES IDX 4 15 1 16 2 17 3 18 94 19 86 20 85 21 87 22 88 23 92 24
REMARK SMILES IDX 89 25 91 26 93 27 90 28 15 29 16 30 17 31 18 32 19 34 20 35
REMARK SMILES IDX 21 36 82 37 22 38 81 39 23 40 24 41 25 42 75 43 26 44 80 45
REMARK SMILES IDX 74 46 76 47 27 48 79 49 73 50 72 51 28 53 60 54 40 55 59 56
REMARK SMILES IDX 41 57 44 58 58 59 77 60 42 61 43 62 57 64 78 65 45 66 29 67
REMARK SMILES IDX 30 68 38 69 31 70 37 71 39 72 36 73 32 74 33 75 34 76 35 77
REMARK SMILES IDX 61 78 62 79 70 80 63 81 69 82 71 83 68 84 64 85 65 86 66 87
REMARK SMILES IDX 67 88 46 89 47 90 55 91 48 92 54 93 56 94 53 95 49 96 50 97
REMARK SMILES IDX 51 98 52 99
REMARK H PARENT 12 6 5 14 17 33 76 52 44 63
REMARK Flexibility Score: inf
ROOT
ATOM      1  C   UNL     1       7.803  -1.026   3.437  1.00  0.00     0.023 C 
ENDROOT
BRANCH   1   2
ATOM      2  C   UNL     1       7.761  -0.505   1.998  1.00  0.00     0.116 C 
BRANCH   2   3
ATOM      3  N   UNL     1       8.201  -1.533   1.072  1.00  0.00    -0.352 N 
ATOM      4  C   UNL     1       7.510  -2.401   0.264  1.00  0.00     0.251 C 
ATOM      5  O   UNL     1       8.160  -3.168  -0.447  1.00  0.00    -0.269 OA
ATOM      6  H   UNL     1       9.180  -1.625   1.013  1.00  0.00     0.163 HD
BRANCH   4   7
ATOM      7  C   UNL     1       6.024  -2.420   0.168  1.00  0.00     0.039 A 
ATOM      8  C   UNL     1       3.227  -2.397  -0.222  1.00  0.00     0.040 A 
ATOM      9  C   UNL     1       4.077  -2.807  -1.251  1.00  0.00     0.027 A 
ATOM     10  C   UNL     1       3.784  -2.051   1.012  1.00  0.00     0.027 A 
ATOM     11  C   UNL     1       5.465  -2.807  -1.060  1.00  0.00     0.016 A 
ATOM     12  C   UNL     1       5.164  -2.104   1.219  1.00  0.00     0.016 A 
BRANCH   8  13
ATOM     13  N   UNL     1       1.843  -2.303  -0.419  1.00  0.00    -0.340 N 
ATOM     14  H   UNL     1       1.367  -3.129  -0.665  1.00  0.00     0.168 HD
BRANCH  13  15
ATOM     15  C   UNL     1       1.073  -1.134  -0.295  1.00  0.00     0.136 A 
ATOM     16  C   UNL     1      -2.487  -0.099   0.254  1.00  0.00     0.067 C 
ATOM     17  C   UNL     1      -0.992  -0.090   0.155  1.00  0.00     0.045 A 
ATOM     18  C   UNL     1      -0.293  -1.245  -0.134  1.00  0.00     0.070 A 
ATOM     19  N   UNL     1      -0.384   1.103   0.298  1.00  0.00    -0.216 NA
ATOM     20  C   UNL     1       0.944   1.143   0.045  1.00  0.00     0.252 A 
ATOM     21  N   UNL     1       1.685   0.060  -0.257  1.00  0.00    -0.194 NA
BRANCH  20  22
ATOM     22  N   UNL     1       1.594   2.428   0.064  1.00  0.00    -0.203 N 
ATOM     23  N   UNL     1       2.628   2.715  -0.782  1.00  0.00    -0.170 NA
ATOM     24  C   UNL     1       1.263   3.533   0.840  1.00  0.00     0.045 A 
ATOM     25  C   UNL     1       2.820   4.031  -0.657  1.00  0.00     0.060 A 
ATOM     26  C   UNL     1       2.020   4.582   0.363  1.00  0.00     0.049 A 
ATOM     27  C   UNL     1       0.329   3.476   1.991  1.00  0.00     0.067 C 
ATOM     28  C   UNL     1       3.789   4.732  -1.533  1.00  0.00     0.069 C 
ENDBRANCH  20  22
ENDBRANCH  13  15
ENDBRANCH   8  13
ENDBRANCH   4   7
ENDBRANCH   2   3
ENDBRANCH   1   2
BRANCH   1  29
ATOM     29  C   UNL     1       9.212  -1.095   4.037  1.00  0.00     0.023 C 
BRANCH  29  30
ATOM     30  C   UNL     1       9.896   0.255   4.229  1.00  0.00     0.116 C 
BRANCH  30  31
ATOM     31  N   UNL     1       9.156   1.147   5.107  1.00  0.00    -0.352 N 
ATOM     32  C   UNL     1       9.642   2.087   5.987  1.00  0.00     0.251 C 
ATOM     33  H   UNL     1       8.175   1.068   5.067  1.00  0.00     0.163 HD
ATOM     34  O   UNL     1       8.877   2.670   6.742  1.00  0.00    -0.269 OA
BRANCH  32  35
ATOM     35  C   UNL     1      11.098   2.347   6.039  1.00  0.00     0.039 A 
ATOM     36  C   UNL     1      11.732   2.365   7.284  1.00  0.00     0.014 A 
ATOM     37  C   UNL     1      11.835   2.548   4.869  1.00  0.00     0.014 A 
ATOM     38  C   UNL     1      13.119   2.514   7.350  1.00  0.00     0.010 A 
ATOM     39  C   UNL     1      13.223   2.634   4.934  1.00  0.00     0.010 A 
ATOM     40  C   UNL     1      13.880   2.613   6.174  1.00  0.00    -0.014 A 
BRANCH  40  41
ATOM     41  C   UNL     1      15.362   2.693   6.221  1.00  0.00     0.031 A 
ATOM     42  C   UNL     1      16.064   3.934   5.742  1.00  0.00     0.074 A 
ATOM     43  C   UNL     1      16.074   1.625   6.630  1.00  0.00     0.049 A 
ATOM     44  N   UNL     1      17.346   4.165   5.619  1.00  0.00    -0.248 NA
ATOM     45  C   UNL     1      15.206   5.050   5.317  1.00  0.00     0.031 C 
ATOM     46  C   UNL     1      15.505   0.350   7.075  1.00  0.00     0.029 A 
ATOM     47  N   UNL     1      17.430   1.432   6.725  1.00  0.00    -0.354 N 
ATOM     48  C   UNL     1      17.450   5.449   5.095  1.00  0.00     0.074 A 
ATOM     49  C   UNL     1      16.099   5.917   4.865  1.00  0.00     0.031 C 
ATOM     50  C   UNL     1      16.502  -0.485   7.406  1.00  0.00     0.029 A 
ATOM     51  C   UNL     1      17.780   0.175   7.160  1.00  0.00     0.049 A 
ATOM     52  H   UNL     1      18.089   2.128   6.502  1.00  0.00     0.167 HD
ATOM     53  C   UNL     1      18.567   6.179   4.853  1.00  0.00     0.034 A 
ATOM     54  C   UNL     1      18.994  -0.387   7.327  1.00  0.00     0.034 A 
ATOM     55  C   UNL     1      19.907   5.698   5.093  1.00  0.00     0.049 A 
ATOM     56  C   UNL     1      20.223   0.436   7.037  1.00  0.00     0.074 A 
ATOM     57  C   UNL     1      21.108   6.364   4.919  1.00  0.00     0.029 A 
ATOM     58  N   UNL     1      20.224   4.426   5.553  1.00  0.00    -0.354 N 
ATOM     59  N   UNL     1      20.305   1.667   6.583  1.00  0.00    -0.248 NA
ATOM     60  C   UNL     1      21.522  -0.199   7.293  1.00  0.00     0.031 C 
ATOM     61  C   UNL     1      22.149   5.479   5.219  1.00  0.00     0.029 A 
ATOM     62  C   UNL     1      21.600   4.281   5.648  1.00  0.00     0.049 A 
ATOM     63  H   UNL     1      19.567   3.729   5.780  1.00  0.00     0.167 HD
ATOM     64  C   UNL     1      21.664   1.960   6.528  1.00  0.00     0.074 A 
ATOM     65  C   UNL     1      22.362   0.785   7.009  1.00  0.00     0.031 C 
ATOM     66  C   UNL     1      22.281   3.099   6.120  1.00  0.00     0.034 A 
BRANCH  53  67
ATOM     67  C   UNL     1      18.377   7.564   4.280  1.00  0.00     0.023 A 
ATOM     68  C   UNL     1      17.692   8.565   4.992  1.00  0.00     0.031 A 
ATOM     69  C   UNL     1      18.851   7.880   2.995  1.00  0.00     0.131 A 
ATOM     70  C   UNL     1      17.429   9.802   4.386  1.00  0.00     0.055 A 
ATOM     71  C   UNL     1      18.658   9.142   2.429  1.00  0.00     0.041 A 
ATOM     72  F   UNL     1      19.494   6.961   2.259  1.00  0.00    -0.206 F 
ATOM     73  C   UNL     1      17.929  10.107   3.119  1.00  0.00     0.022 A 
BRANCH  70  74
ATOM     74  S   UNL     1      16.297  10.950   5.218  1.00  0.00     0.124 S 
ATOM     75  O   UNL     1      15.077  10.151   5.302  1.00  0.00    -0.237 OA
ATOM     76  O   UNL     1      16.980  11.207   6.480  1.00  0.00    -0.237 OA
ATOM     77  O   UNL     1      16.227  12.087   4.303  1.00  0.00    -0.744 OA
ENDBRANCH  70  74
ENDBRANCH  53  67
BRANCH  54  78
ATOM     78  C   UNL     1      19.114  -1.803   7.778  1.00  0.00     0.023 A 
ATOM     79  C   UNL     1      19.687  -2.123   9.019  1.00  0.00     0.031 A 
ATOM     80  C   UNL     1      18.692  -2.861   6.953  1.00  0.00     0.131 A 
ATOM     81  C   UNL     1      19.866  -3.467   9.380  1.00  0.00     0.055 A 
ATOM     82  C   UNL     1      18.826  -4.196   7.339  1.00  0.00     0.041 A 
ATOM     83  F   UNL     1      18.131  -2.609   5.760  1.00  0.00    -0.206 F 
ATOM     84  C   UNL     1      19.429  -4.505   8.555  1.00  0.00     0.022 A 
BRANCH  81  85
ATOM     85  S   UNL     1      20.758  -3.842  10.915  1.00  0.00     0.124 S 
ATOM     86  O   UNL     1      22.031  -3.167  10.692  1.00  0.00    -0.237 OA
ATOM     87  O   UNL     1      19.885  -3.250  11.924  1.00  0.00    -0.237 OA
ATOM     88  O   UNL     1      20.818  -5.302  10.926  1.00  0.00    -0.744 OA
ENDBRANCH  81  85
ENDBRANCH  54  78
BRANCH  66  89
ATOM     89  C   UNL     1      23.785   3.135   6.224  1.00  0.00     0.023 A 
ATOM     90  C   UNL     1      24.603   2.327   5.414  1.00  0.00     0.031 A 
ATOM     91  C   UNL     1      24.407   3.983   7.157  1.00  0.00     0.131 A 
ATOM     92  C   UNL     1      25.995   2.345   5.590  1.00  0.00     0.055 A 
ATOM     93  C   UNL     1      25.795   4.039   7.288  1.00  0.00     0.041 A 
ATOM     94  F   UNL     1      23.674   4.775   7.956  1.00  0.00    -0.206 F 
ATOM     95  C   UNL     1      26.597   3.207   6.511  1.00  0.00     0.022 A 
BRANCH  92  96
ATOM     96  S   UNL     1      27.007   1.163   4.659  1.00  0.00     0.124 S 
ATOM     97  O   UNL     1      26.454  -0.117   5.091  1.00  0.00    -0.237 OA
ATOM     98  O   UNL     1      26.735   1.540   3.276  1.00  0.00    -0.237 OA
ATOM     99  O   UNL     1      28.367   1.438   5.119  1.00  0.00    -0.744 OA
ENDBRANCH  92  96
ENDBRANCH  66  89
ENDBRANCH  40  41
ENDBRANCH  32  35
ENDBRANCH  30  31
ENDBRANCH  29  30
ENDBRANCH   1  29
TORSDOF 17
