REMARK SMILES CC1=C(C(=O)NCCCCNC(=O)c2ccc(-c3c4nc(c(-c5cc(S(=O)(=O)[O-])ccc5F)c5ccc([nH]5)c(-c5cc(S(=O)(=O)[O-])ccc5F)c5nc(c(-c6cc(S(=O)(=O)[O-])ccc6F)c6ccc3[nH]6)C=C5)C=C4)cc2)N2C(=O)[C@H](NC(=O)c3cc(C(F)(F)F)nn3C)[C@@H]2SC1
REMARK SMILES IDX 8 1 7 2 6 3 4 4 5 5 3 7 1 8 2 9 96 10 77 11 95 12 78 13
REMARK SMILES IDX 94 14 79 15 80 16 81 17 82 18 83 20 84 21 85 22 92 23 86 24
REMARK SMILES IDX 91 25 93 26 87 27 88 28 89 29 90 30 9 31 10 32 11 33 12 34
REMARK SMILES IDX 13 36 14 37 15 38 76 39 16 40 75 41 17 42 18 43 19 44 69 45
REMARK SMILES IDX 20 46 74 47 68 48 70 49 21 50 73 51 67 52 66 53 22 55 54 56
REMARK SMILES IDX 34 57 53 58 35 59 38 60 52 61 71 62 36 63 37 64 51 66 72 67
REMARK SMILES IDX 39 68 23 69 24 70 32 71 25 72 31 73 33 74 30 75 26 76 27 77
REMARK SMILES IDX 28 78 29 79 55 80 56 81 64 82 57 83 63 84 65 85 62 86 58 87
REMARK SMILES IDX 59 88 60 89 61 90 40 91 41 92 49 93 42 94 48 95 50 96 47 97
REMARK SMILES IDX 43 98 44 99 45 100 46 101
REMARK H PARENT 6 6 81 19 11 35 70 54 38 65
REMARK Flexibility Score: inf
ROOT
ATOM      1  C   UNL     1       1.141  -2.409  -0.019  1.00  0.00     0.023 C 
ENDROOT
BRANCH   1   2
ATOM      2  C   UNL     1      -0.184  -1.639   0.049  1.00  0.00     0.116 C 
BRANCH   2   3
ATOM      3  N   UNL     1      -0.531  -1.434   1.437  1.00  0.00    -0.351 N 
ATOM      4  C   UNL     1      -0.246  -0.431   2.304  1.00  0.00     0.268 C 
ATOM      5  O   UNL     1      -0.367  -0.670   3.510  1.00  0.00    -0.268 OA
ATOM      6  H   UNL     1      -1.075  -2.157   1.826  1.00  0.00     0.163 HD
BRANCH   4   7
ATOM      7  C   UNL     1       0.128   0.979   1.891  1.00  0.00     0.110 C 
ATOM      8  C   UNL     1       2.185   0.538   0.464  1.00  0.00     0.043 C 
ATOM      9  C   UNL     1       1.141   1.411   1.096  1.00  0.00    -0.034 C 
ATOM     10  C   UNL     1       1.427   2.875   0.772  1.00  0.00     0.104 C 
ATOM     11  N   UNL     1      -0.557   1.927   2.590  1.00  0.00    -0.290 N 
ATOM     12  S   UNL     1       0.336   4.114   1.513  1.00  0.00    -0.129 SA
ATOM     13  C   UNL     1      -1.704   2.043   3.288  1.00  0.00     0.253 C 
ATOM     14  C   UNL     1       0.059   3.154   3.022  1.00  0.00     0.181 C 
ATOM     15  O   UNL     1      -2.696   1.363   3.381  1.00  0.00    -0.272 OA
ATOM     16  C   UNL     1      -1.241   3.433   3.828  1.00  0.00     0.206 C 
BRANCH  16  17
ATOM     17  N   UNL     1      -2.036   4.611   3.408  1.00  0.00    -0.336 N 
ATOM     18  C   UNL     1      -2.198   5.807   4.058  1.00  0.00     0.270 C 
ATOM     19  H   UNL     1      -2.509   4.524   2.549  1.00  0.00     0.164 HD
ATOM     20  O   UNL     1      -2.932   6.655   3.558  1.00  0.00    -0.268 OA
BRANCH  18  21
ATOM     21  C   UNL     1      -1.540   5.994   5.326  1.00  0.00     0.126 A 
ATOM     22  C   UNL     1      -0.221   5.804   5.703  1.00  0.00     0.069 A 
ATOM     23  N   UNL     1      -2.161   6.469   6.453  1.00  0.00    -0.262 N 
ATOM     24  C   UNL     1      -0.157   6.101   7.090  1.00  0.00     0.167 A 
ATOM     25  N   UNL     1      -1.357   6.514   7.536  1.00  0.00    -0.168 NA
ATOM     26  C   UNL     1      -3.551   6.827   6.622  1.00  0.00     0.174 C 
BRANCH  24  27
ATOM     27  C   UNL     1       1.048   5.976   7.987  1.00  0.00     0.435 C 
ATOM     28  F   UNL     1       1.435   7.166   8.518  1.00  0.00    -0.164 F 
ATOM     29  F   UNL     1       0.839   5.123   9.024  1.00  0.00    -0.164 F 
ATOM     30  F   UNL     1       2.126   5.491   7.307  1.00  0.00    -0.164 F 
ENDBRANCH  24  27
ENDBRANCH  18  21
ENDBRANCH  16  17
ENDBRANCH   4   7
ENDBRANCH   2   3
ENDBRANCH   1   2
BRANCH   1  31
ATOM     31  C   UNL     1       1.016  -3.927  -0.056  1.00  0.00     0.023 C 
BRANCH  31  32
ATOM     32  C   UNL     1       0.450  -4.475  -1.352  1.00  0.00     0.116 C 
BRANCH  32  33
ATOM     33  N   UNL     1       1.223  -4.098  -2.529  1.00  0.00    -0.352 N 
ATOM     34  C   UNL     1       1.488  -4.852  -3.649  1.00  0.00     0.251 C 
ATOM     35  H   UNL     1       1.603  -3.190  -2.521  1.00  0.00     0.163 HD
ATOM     36  O   UNL     1       2.240  -4.424  -4.518  1.00  0.00    -0.269 OA
BRANCH  34  37
ATOM     37  C   UNL     1       0.893  -6.199  -3.749  1.00  0.00     0.039 A 
ATOM     38  C   UNL     1       1.721  -7.286  -4.036  1.00  0.00     0.014 A 
ATOM     39  C   UNL     1      -0.459  -6.393  -3.457  1.00  0.00     0.014 A 
ATOM     40  C   UNL     1       1.205  -8.579  -3.950  1.00  0.00     0.010 A 
ATOM     41  C   UNL     1      -0.942  -7.681  -3.273  1.00  0.00     0.010 A 
ATOM     42  C   UNL     1      -0.117  -8.788  -3.522  1.00  0.00    -0.014 A 
BRANCH  42  43
ATOM     43  C   UNL     1      -0.668 -10.156  -3.347  1.00  0.00     0.031 A 
ATOM     44  C   UNL     1      -1.843 -10.594  -4.178  1.00  0.00     0.074 A 
ATOM     45  C   UNL     1      -0.158 -10.971  -2.402  1.00  0.00     0.049 A 
ATOM     46  N   UNL     1      -2.527 -11.707  -4.123  1.00  0.00    -0.248 NA
ATOM     47  C   UNL     1      -2.338  -9.634  -5.177  1.00  0.00     0.031 C 
ATOM     48  C   UNL     1       0.950 -10.637  -1.503  1.00  0.00     0.029 A 
ATOM     49  N   UNL     1      -0.506 -12.246  -2.034  1.00  0.00    -0.354 N 
ATOM     50  C   UNL     1      -3.539 -11.575  -5.068  1.00  0.00     0.074 A 
ATOM     51  C   UNL     1      -3.424 -10.244  -5.624  1.00  0.00     0.031 C 
ATOM     52  C   UNL     1       1.210 -11.691  -0.712  1.00  0.00     0.029 A 
ATOM     53  C   UNL     1       0.260 -12.758  -1.010  1.00  0.00     0.049 A 
ATOM     54  H   UNL     1      -1.236 -12.749  -2.462  1.00  0.00     0.167 HD
ATOM     55  C   UNL     1      -4.459 -12.490  -5.460  1.00  0.00     0.034 A 
ATOM     56  C   UNL     1       0.195 -13.947  -0.380  1.00  0.00     0.034 A 
ATOM     57  C   UNL     1      -4.545 -13.819  -4.907  1.00  0.00     0.049 A 
ATOM     58  C   UNL     1      -0.852 -14.942  -0.818  1.00  0.00     0.074 A 
ATOM     59  C   UNL     1      -5.400 -14.846  -5.264  1.00  0.00     0.029 A 
ATOM     60  N   UNL     1      -3.749 -14.303  -3.877  1.00  0.00    -0.354 N 
ATOM     61  N   UNL     1      -1.767 -14.822  -1.753  1.00  0.00    -0.248 NA
ATOM     62  C   UNL     1      -0.867 -16.236  -0.125  1.00  0.00     0.031 C 
ATOM     63  C   UNL     1      -5.168 -15.926  -4.406  1.00  0.00     0.029 A 
ATOM     64  C   UNL     1      -4.114 -15.604  -3.566  1.00  0.00     0.049 A 
ATOM     65  H   UNL     1      -3.032 -13.797  -3.432  1.00  0.00     0.167 HD
ATOM     66  C   UNL     1      -2.443 -16.039  -1.780  1.00  0.00     0.074 A 
ATOM     67  C   UNL     1      -1.818 -16.882  -0.782  1.00  0.00     0.031 C 
ATOM     68  C   UNL     1      -3.483 -16.428  -2.562  1.00  0.00     0.034 A 
BRANCH  55  69
ATOM     69  C   UNL     1      -5.448 -12.070  -6.521  1.00  0.00     0.023 A 
ATOM     70  C   UNL     1      -5.032 -11.701  -7.813  1.00  0.00     0.031 A 
ATOM     71  C   UNL     1      -6.822 -12.005  -6.230  1.00  0.00     0.131 A 
ATOM     72  C   UNL     1      -5.966 -11.210  -8.737  1.00  0.00     0.055 A 
ATOM     73  C   UNL     1      -7.758 -11.599  -7.184  1.00  0.00     0.041 A 
ATOM     74  F   UNL     1      -7.278 -12.322  -5.008  1.00  0.00    -0.206 F 
ATOM     75  C   UNL     1      -7.330 -11.182  -8.441  1.00  0.00     0.022 A 
BRANCH  72  76
ATOM     76  S   UNL     1      -5.352 -10.468 -10.274  1.00  0.00     0.124 S 
ATOM     77  O   UNL     1      -4.514  -9.385  -9.764  1.00  0.00    -0.237 OA
ATOM     78  O   UNL     1      -4.647 -11.579 -10.902  1.00  0.00    -0.237 OA
ATOM     79  O   UNL     1      -6.570 -10.035 -10.956  1.00  0.00    -0.744 OA
ENDBRANCH  72  76
ENDBRANCH  55  69
BRANCH  56  80
ATOM     80  C   UNL     1       1.135 -14.272   0.733  1.00  0.00     0.023 A 
ATOM     81  C   UNL     1       2.049 -15.332   0.621  1.00  0.00     0.031 A 
ATOM     82  C   UNL     1       1.096 -13.564   1.948  1.00  0.00     0.131 A 
ATOM     83  C   UNL     1       2.847 -15.689   1.719  1.00  0.00     0.055 A 
ATOM     84  C   UNL     1       1.933 -13.886   3.018  1.00  0.00     0.041 A 
ATOM     85  F   UNL     1       0.244 -12.538   2.109  1.00  0.00    -0.206 F 
ATOM     86  C   UNL     1       2.804 -14.965   2.912  1.00  0.00     0.022 A 
BRANCH  83  87
ATOM     87  S   UNL     1       3.873 -17.181   1.598  1.00  0.00     0.124 S 
ATOM     88  O   UNL     1       2.877 -18.201   1.290  1.00  0.00    -0.237 OA
ATOM     89  O   UNL     1       4.789 -16.830   0.518  1.00  0.00    -0.237 OA
ATOM     90  O   UNL     1       4.482 -17.282   2.922  1.00  0.00    -0.744 OA
ENDBRANCH  83  87
ENDBRANCH  56  80
BRANCH  68  91
ATOM     91  C   UNL     1      -3.973 -17.846  -2.396  1.00  0.00     0.023 A 
ATOM     92  C   UNL     1      -4.592 -18.283  -1.212  1.00  0.00     0.031 A 
ATOM     93  C   UNL     1      -3.811 -18.774  -3.440  1.00  0.00     0.131 A 
ATOM     94  C   UNL     1      -4.974 -19.626  -1.079  1.00  0.00     0.055 A 
ATOM     95  C   UNL     1      -4.253 -20.092  -3.326  1.00  0.00     0.041 A 
ATOM     96  F   UNL     1      -3.225 -18.411  -4.593  1.00  0.00    -0.206 F 
ATOM     97  C   UNL     1      -4.826 -20.529  -2.136  1.00  0.00     0.022 A 
BRANCH  94  98
ATOM     98  S   UNL     1      -5.584 -20.202   0.529  1.00  0.00     0.124 S 
ATOM     99  O   UNL     1      -4.461 -19.892   1.407  1.00  0.00    -0.237 OA
ATOM    100  O   UNL     1      -6.783 -19.392   0.717  1.00  0.00    -0.237 OA
ATOM    101  O   UNL     1      -5.827 -21.627   0.312  1.00  0.00    -0.744 OA
ENDBRANCH  94  98
ENDBRANCH  68  91
ENDBRANCH  42  43
ENDBRANCH  34  37
ENDBRANCH  32  33
ENDBRANCH  31  32
ENDBRANCH   1  31
TORSDOF 17
