REMARK SMILES O=C(CCCOc1ccc(Cl)cc1Cl)Nc1cccc(C(=O)NCCCCNC(=O)c2ccc(-c3c4nc(c(-c5cc(S(=O)(=O)[O-])ccc5F)c5ccc([nH]5)c(-c5cc(S(=O)(=O)[O-])ccc5F)c5nc(c(-c6cc(S(=O)(=O)[O-])ccc6F)c6ccc3[nH]6)C=C5)C=C4)cc2)c1
REMARK SMILES IDX 24 1 23 2 21 3 22 4 20 6 16 7 17 8 94 9 18 10 19 11 15 12
REMARK SMILES IDX 1 13 2 14 3 16 4 17 5 18 6 19 7 20 8 21 13 22 9 23 12 24
REMARK SMILES IDX 14 25 10 26 11 27 25 28 26 29 27 30 28 31 29 32 30 34 31 35
REMARK SMILES IDX 32 36 93 37 33 38 92 39 34 40 35 41 36 42 86 43 37 44 91 45
REMARK SMILES IDX 85 46 87 47 38 48 90 49 84 50 83 51 39 53 71 54 51 55 70 56
REMARK SMILES IDX 52 57 55 58 69 59 88 60 53 61 54 62 68 64 89 65 56 66 40 67
REMARK SMILES IDX 41 68 49 69 42 70 48 71 50 72 47 73 43 74 44 75 45 76 46 77
REMARK SMILES IDX 72 78 73 79 81 80 74 81 80 82 82 83 79 84 75 85 76 86 77 87
REMARK SMILES IDX 78 88 57 89 58 90 66 91 59 92 65 93 67 94 64 95 60 96 61 97
REMARK SMILES IDX 62 98 63 99
REMARK H PARENT 23 5 15 15 28 33 87 52 55 63
REMARK Flexibility Score: inf
ROOT
ATOM      1  C   UNL     1       0.034  -3.121  -0.623  1.00  0.00     0.116 C 
ENDROOT
BRANCH   1   2
ATOM      2  N   UNL     1      -0.659  -3.905   0.391  1.00  0.00    -0.352 N 
ATOM      3  C   UNL     1      -0.465  -3.966   1.755  1.00  0.00     0.251 C 
ATOM      4  O   UNL     1      -1.146  -4.727   2.437  1.00  0.00    -0.269 OA
ATOM      5  H   UNL     1      -1.380  -4.482   0.048  1.00  0.00     0.163 HD
BRANCH   3   6
ATOM      6  C   UNL     1       0.615  -3.182   2.404  1.00  0.00     0.041 A 
ATOM      7  C   UNL     1       2.078  -1.254   2.419  1.00  0.00     0.041 A 
ATOM      8  C   UNL     1       2.902  -1.907   3.344  1.00  0.00     0.026 A 
ATOM      9  C   UNL     1       0.885  -1.863   2.033  1.00  0.00     0.040 A 
ATOM     10  C   UNL     1       2.554  -3.167   3.841  1.00  0.00     0.003 A 
ATOM     11  C   UNL     1       1.422  -3.817   3.352  1.00  0.00     0.014 A 
BRANCH   7  12
ATOM     12  N   UNL     1       2.574  -0.088   1.792  1.00  0.00    -0.326 N 
ATOM     13  O   UNL     1       0.696   0.720   0.714  1.00  0.00    -0.275 OA
ATOM     14  C   UNL     1       1.918   0.652   0.829  1.00  0.00     0.224 C 
ATOM     15  H   UNL     1       3.467   0.224   2.066  1.00  0.00     0.169 HD
BRANCH  14  16
ATOM     16  C   UNL     1       2.800   1.272  -0.249  1.00  0.00     0.104 C 
BRANCH  16  17
ATOM     17  C   UNL     1       4.097   1.963   0.162  1.00  0.00     0.051 C 
BRANCH  17  18
ATOM     18  C   UNL     1       5.329   1.057   0.285  1.00  0.00     0.230 C 
BRANCH  18  19
ATOM     19  O   UNL     1       5.870   0.681  -0.986  1.00  0.00    -0.492 OA
BRANCH  19  20
ATOM     20  C   UNL     1       5.425  -0.516  -1.478  1.00  0.00     0.137 A 
ATOM     21  C   UNL     1       4.757  -0.437  -2.706  1.00  0.00     0.049 A 
ATOM     22  C   UNL     1       5.654  -1.770  -0.896  1.00  0.00     0.084 A 
ATOM     23  C   UNL     1       4.244  -1.587  -3.307  1.00  0.00     0.024 A 
ATOM     24  C   UNL     1       5.141  -2.923  -1.499  1.00  0.00     0.045 A 
ATOM     25  Cl  UNL     1       6.619  -1.977   0.522  1.00  0.00    -0.080 Cl
ATOM     26  C   UNL     1       4.436  -2.824  -2.697  1.00  0.00     0.042 A 
ATOM     27  Cl  UNL     1       3.829  -4.247  -3.448  1.00  0.00    -0.084 Cl
ENDBRANCH  19  20
ENDBRANCH  18  19
ENDBRANCH  17  18
ENDBRANCH  16  17
ENDBRANCH  14  16
ENDBRANCH   7  12
ENDBRANCH   3   6
ENDBRANCH   1   2
BRANCH   1  28
ATOM     28  C   UNL     1       0.484  -3.921  -1.837  1.00  0.00     0.023 C 
BRANCH  28  29
ATOM     29  C   UNL     1      -0.619  -4.525  -2.696  1.00  0.00     0.023 C 
BRANCH  29  30
ATOM     30  C   UNL     1      -1.701  -3.559  -3.160  1.00  0.00     0.116 C 
BRANCH  30  31
ATOM     31  N   UNL     1      -1.192  -2.430  -3.928  1.00  0.00    -0.352 N 
ATOM     32  C   UNL     1      -1.609  -1.945  -5.148  1.00  0.00     0.251 C 
ATOM     33  H   UNL     1      -0.442  -1.944  -3.515  1.00  0.00     0.163 HD
ATOM     34  O   UNL     1      -0.989  -1.037  -5.689  1.00  0.00    -0.269 OA
BRANCH  32  35
ATOM     35  C   UNL     1      -2.778  -2.560  -5.819  1.00  0.00     0.039 A 
ATOM     36  C   UNL     1      -2.676  -2.923  -7.165  1.00  0.00     0.014 A 
ATOM     37  C   UNL     1      -3.950  -2.828  -5.108  1.00  0.00     0.014 A 
ATOM     38  C   UNL     1      -3.711  -3.644  -7.768  1.00  0.00     0.010 A 
ATOM     39  C   UNL     1      -4.941  -3.617  -5.685  1.00  0.00     0.010 A 
ATOM     40  C   UNL     1      -4.828  -4.044  -7.018  1.00  0.00    -0.014 A 
BRANCH  40  41
ATOM     41  C   UNL     1      -5.893  -4.909  -7.593  1.00  0.00     0.031 A 
ATOM     42  C   UNL     1      -7.306  -4.399  -7.679  1.00  0.00     0.074 A 
ATOM     43  C   UNL     1      -5.612  -6.180  -7.945  1.00  0.00     0.049 A 
ATOM     44  N   UNL     1      -8.402  -5.036  -8.000  1.00  0.00    -0.248 NA
ATOM     45  C   UNL     1      -7.514  -2.990  -7.313  1.00  0.00     0.031 C 
ATOM     46  C   UNL     1      -4.291  -6.809  -7.870  1.00  0.00     0.029 A 
ATOM     47  N   UNL     1      -6.425  -7.181  -8.418  1.00  0.00    -0.354 N 
ATOM     48  C   UNL     1      -9.433  -4.116  -7.849  1.00  0.00     0.074 A 
ATOM     49  C   UNL     1      -8.834  -2.895  -7.352  1.00  0.00     0.031 C 
ATOM     50  C   UNL     1      -4.382  -8.079  -8.297  1.00  0.00     0.029 A 
ATOM     51  C   UNL     1      -5.772  -8.373  -8.630  1.00  0.00     0.049 A 
ATOM     52  H   UNL     1      -7.387  -7.056  -8.589  1.00  0.00     0.167 HD
ATOM     53  C   UNL     1     -10.754  -4.267  -8.119  1.00  0.00     0.034 A 
ATOM     54  C   UNL     1      -6.241  -9.572  -9.030  1.00  0.00     0.034 A 
ATOM     55  C   UNL     1     -11.332  -5.482  -8.638  1.00  0.00     0.049 A 
ATOM     56  C   UNL     1      -7.713  -9.719  -9.323  1.00  0.00     0.074 A 
ATOM     57  C   UNL     1     -12.646  -5.728  -8.999  1.00  0.00     0.029 A 
ATOM     58  N   UNL     1     -10.632  -6.660  -8.869  1.00  0.00    -0.354 N 
ATOM     59  N   UNL     1      -8.671  -8.828  -9.211  1.00  0.00    -0.248 NA
ATOM     60  C   UNL     1      -8.165 -11.031  -9.806  1.00  0.00     0.031 C 
ATOM     61  C   UNL     1     -12.750  -7.066  -9.396  1.00  0.00     0.029 A 
ATOM     62  C   UNL     1     -11.489  -7.638  -9.349  1.00  0.00     0.049 A 
ATOM     63  H   UNL     1      -9.667  -6.781  -8.715  1.00  0.00     0.167 HD
ATOM     64  C   UNL     1      -9.832  -9.463  -9.642  1.00  0.00     0.074 A 
ATOM     65  C   UNL     1      -9.453 -10.808 -10.023  1.00  0.00     0.031 C 
ATOM     66  C   UNL     1     -11.096  -8.976  -9.723  1.00  0.00     0.034 A 
BRANCH  53  67
ATOM     67  C   UNL     1     -11.657  -3.091  -7.832  1.00  0.00     0.023 A 
ATOM     68  C   UNL     1     -11.505  -1.864  -8.502  1.00  0.00     0.031 A 
ATOM     69  C   UNL     1     -12.655  -3.181  -6.846  1.00  0.00     0.131 A 
ATOM     70  C   UNL     1     -12.274  -0.756  -8.118  1.00  0.00     0.055 A 
ATOM     71  C   UNL     1     -13.477  -2.098  -6.529  1.00  0.00     0.041 A 
ATOM     72  F   UNL     1     -12.837  -4.320  -6.159  1.00  0.00    -0.206 F 
ATOM     73  C   UNL     1     -13.277  -0.870  -7.153  1.00  0.00     0.022 A 
BRANCH  70  74
ATOM     74  S   UNL     1     -11.837   0.872  -8.789  1.00  0.00     0.124 S 
ATOM     75  O   UNL     1     -10.458   1.019  -8.329  1.00  0.00    -0.237 OA
ATOM     76  O   UNL     1     -12.014   0.680 -10.224  1.00  0.00    -0.237 OA
ATOM     77  O   UNL     1     -12.797   1.773  -8.156  1.00  0.00    -0.744 OA
ENDBRANCH  70  74
ENDBRANCH  53  67
BRANCH  54  78
ATOM     78  C   UNL     1      -5.321 -10.736  -9.171  1.00  0.00     0.023 A 
ATOM     79  C   UNL     1      -5.065 -11.304 -10.430  1.00  0.00     0.031 A 
ATOM     80  C   UNL     1      -4.717 -11.325  -8.046  1.00  0.00     0.131 A 
ATOM     81  C   UNL     1      -4.264 -12.453 -10.529  1.00  0.00     0.055 A 
ATOM     82  C   UNL     1      -3.882 -12.438  -8.156  1.00  0.00     0.041 A 
ATOM     83  F   UNL     1      -4.923 -10.816  -6.821  1.00  0.00    -0.206 F 
ATOM     84  C   UNL     1      -3.662 -13.017  -9.402  1.00  0.00     0.022 A 
BRANCH  81  85
ATOM     85  S   UNL     1      -4.085 -13.248 -12.150  1.00  0.00     0.124 S 
ATOM     86  O   UNL     1      -5.472 -13.544 -12.491  1.00  0.00    -0.237 OA
ATOM     87  O   UNL     1      -3.441 -12.198 -12.932  1.00  0.00    -0.237 OA
ATOM     88  O   UNL     1      -3.249 -14.413 -11.867  1.00  0.00    -0.744 OA
ENDBRANCH  81  85
ENDBRANCH  54  78
BRANCH  66  89
ATOM     89  C   UNL     1     -12.147  -9.889 -10.303  1.00  0.00     0.023 A 
ATOM     90  C   UNL     1     -12.595 -11.033  -9.621  1.00  0.00     0.031 A 
ATOM     91  C   UNL     1     -12.705  -9.605 -11.562  1.00  0.00     0.131 A 
ATOM     92  C   UNL     1     -13.539 -11.878 -10.224  1.00  0.00     0.055 A 
ATOM     93  C   UNL     1     -13.682 -10.420 -12.133  1.00  0.00     0.041 A 
ATOM     94  F   UNL     1     -12.310  -8.525 -12.256  1.00  0.00    -0.206 F 
ATOM     95  C   UNL     1     -14.097 -11.570 -11.468  1.00  0.00     0.022 A 
BRANCH  92  96
ATOM     96  S   UNL     1     -13.980 -13.428  -9.392  1.00  0.00     0.124 S 
ATOM     97  O   UNL     1     -12.691 -14.107  -9.311  1.00  0.00    -0.237 OA
ATOM     98  O   UNL     1     -14.534 -12.958  -8.126  1.00  0.00    -0.237 OA
ATOM     99  O   UNL     1     -14.948 -14.042 -10.299  1.00  0.00    -0.744 OA
ENDBRANCH  92  96
ENDBRANCH  66  89
ENDBRANCH  40  41
ENDBRANCH  32  35
ENDBRANCH  30  31
ENDBRANCH  29  30
ENDBRANCH  28  29
ENDBRANCH   1  28
TORSDOF 20
