REMARK SMILES Cc1ccc(-c2nc(C)cc(N3CCCC[C@H]3C(=O)NCCCCNC(=O)c3ccc(-c4c5nc(c(-c6cc(S(=O)(=O)[O-])ccc6F)c6ccc([nH]6)c(-c6cc(S(=O)(=O)[O-])ccc6F)c6nc(c(-c7cc(S(=O)(=O)[O-])ccc7F)c7ccc4[nH]7)C=C6)C=C5)cc3)n2)cc1
REMARK SMILES IDX 23 1 22 2 21 3 20 4 18 5 19 6 17 8 12 9 13 10 14 11 16 12
REMARK SMILES IDX 15 13 11 14 6 15 7 16 91 17 8 18 9 19 10 20 5 21 1 22 2 23
REMARK SMILES IDX 3 24 93 25 4 26 92 27 24 28 25 29 26 30 27 32 28 33 29 34
REMARK SMILES IDX 90 35 30 36 89 37 31 38 32 39 33 40 83 41 34 42 88 43 82 44
REMARK SMILES IDX 84 45 35 46 87 47 81 48 80 49 36 51 68 52 48 53 67 54 49 55
REMARK SMILES IDX 52 56 66 57 85 58 50 59 51 60 65 62 86 63 53 64 37 65 38 66
REMARK SMILES IDX 46 67 39 68 45 69 47 70 44 71 40 72 41 73 42 74 43 75 69 76
REMARK SMILES IDX 70 77 78 78 71 79 77 80 79 81 76 82 72 83 73 84 74 85 75 86
REMARK SMILES IDX 54 87 55 88 63 89 56 90 62 91 64 92 61 93 57 94 58 95 59 96
REMARK SMILES IDX 60 97
REMARK H PARENT 20 7 25 31 84 50 52 61
REMARK Flexibility Score: inf
ROOT
ATOM      1  C   UNL     1      -9.113   3.369  -6.739  1.00  0.00     0.023 C 
ENDROOT
BRANCH   1   2
ATOM      2  C   UNL     1      -7.941   3.767  -5.845  1.00  0.00     0.023 C 
BRANCH   2   3
ATOM      3  C   UNL     1      -8.289   4.113  -4.389  1.00  0.00     0.116 C 
BRANCH   3   4
ATOM      4  N   UNL     1      -8.674   2.945  -3.614  1.00  0.00    -0.354 N 
ATOM      5  C   UNL     1      -8.089   2.201  -2.645  1.00  0.00     0.242 C 
ATOM      6  O   UNL     1      -8.827   1.314  -2.178  1.00  0.00    -0.273 OA
ATOM      7  H   UNL     1      -9.572   2.618  -3.849  1.00  0.00     0.163 HD
BRANCH   5   8
ATOM      8  C   UNL     1      -6.634   2.325  -2.091  1.00  0.00     0.173 C 
ATOM      9  N   UNL     1      -5.960   1.011  -2.241  1.00  0.00    -0.344 N 
ATOM     10  C   UNL     1      -5.433   0.699  -3.562  1.00  0.00     0.119 C 
ATOM     11  C   UNL     1      -4.421   1.747  -4.011  1.00  0.00     0.022 C 
ATOM     12  C   UNL     1      -5.650   3.417  -2.527  1.00  0.00     0.035 C 
ATOM     13  C   UNL     1      -4.969   3.163  -3.873  1.00  0.00     0.004 C 
BRANCH   9  14
ATOM     14  C   UNL     1      -5.286   0.511  -1.135  1.00  0.00     0.133 A 
ATOM     15  C   UNL     1      -3.333  -0.063  -0.079  1.00  0.00     0.161 A 
ATOM     16  N   UNL     1      -3.952  -0.579   0.997  1.00  0.00    -0.233 NA
ATOM     17  N   UNL     1      -3.946   0.458  -1.155  1.00  0.00    -0.211 NA
ATOM     18  C   UNL     1      -5.296  -0.506   0.999  1.00  0.00     0.043 A 
ATOM     19  C   UNL     1      -5.998  -1.085   2.188  1.00  0.00     0.067 C 
ATOM     20  C   UNL     1      -6.006   0.050  -0.048  1.00  0.00     0.070 A 
BRANCH  15  21
ATOM     21  C   UNL     1      -1.869  -0.047  -0.071  1.00  0.00     0.019 A 
ATOM     22  C   UNL     1       2.461   0.005  -0.015  1.00  0.00     0.044 C 
ATOM     23  C   UNL     1       0.961  -0.003  -0.029  1.00  0.00    -0.051 A 
ATOM     24  C   UNL     1       0.267  -1.214   0.073  1.00  0.00     0.004 A 
ATOM     25  C   UNL     1       0.237   1.185  -0.162  1.00  0.00     0.004 A 
ATOM     26  C   UNL     1      -1.132  -1.233   0.063  1.00  0.00     0.012 A 
ATOM     27  C   UNL     1      -1.162   1.161  -0.189  1.00  0.00     0.012 A 
ENDBRANCH  15  21
ENDBRANCH   9  14
ENDBRANCH   5   8
ENDBRANCH   3   4
ENDBRANCH   2   3
ENDBRANCH   1   2
BRANCH   1  28
ATOM     28  C   UNL     1     -10.108   4.485  -6.998  1.00  0.00     0.116 C 
BRANCH  28  29
ATOM     29  N   UNL     1      -9.781   5.407  -8.075  1.00  0.00    -0.352 N 
ATOM     30  C   UNL     1     -10.433   6.574  -8.461  1.00  0.00     0.251 C 
ATOM     31  H   UNL     1      -8.986   5.171  -8.607  1.00  0.00     0.163 HD
ATOM     32  O   UNL     1     -10.132   7.122  -9.509  1.00  0.00    -0.269 OA
BRANCH  30  33
ATOM     33  C   UNL     1     -11.428   7.208  -7.549  1.00  0.00     0.039 A 
ATOM     34  C   UNL     1     -11.440   8.606  -7.418  1.00  0.00     0.014 A 
ATOM     35  C   UNL     1     -12.206   6.438  -6.698  1.00  0.00     0.014 A 
ATOM     36  C   UNL     1     -12.044   9.194  -6.303  1.00  0.00     0.010 A 
ATOM     37  C   UNL     1     -12.645   6.989  -5.520  1.00  0.00     0.010 A 
ATOM     38  C   UNL     1     -12.551   8.367  -5.307  1.00  0.00    -0.014 A 
BRANCH  38  39
ATOM     39  C   UNL     1     -12.989   8.781  -3.982  1.00  0.00     0.031 A 
ATOM     40  C   UNL     1     -14.409   8.608  -3.598  1.00  0.00     0.074 A 
ATOM     41  C   UNL     1     -12.056   9.049  -3.042  1.00  0.00     0.049 A 
ATOM     42  N   UNL     1     -14.927   9.058  -2.510  1.00  0.00    -0.248 NA
ATOM     43  C   UNL     1     -15.382   7.916  -4.439  1.00  0.00     0.031 C 
ATOM     44  C   UNL     1     -12.220   9.009  -1.592  1.00  0.00     0.029 A 
ATOM     45  N   UNL     1     -10.813   9.651  -3.234  1.00  0.00    -0.354 N 
ATOM     46  C   UNL     1     -16.175   8.498  -2.364  1.00  0.00     0.074 A 
ATOM     47  C   UNL     1     -16.431   7.831  -3.616  1.00  0.00     0.031 C 
ATOM     48  C   UNL     1     -11.274   9.771  -1.024  1.00  0.00     0.029 A 
ATOM     49  C   UNL     1     -10.584  10.457  -2.099  1.00  0.00     0.049 A 
ATOM     50  H   UNL     1     -10.215   9.536  -4.007  1.00  0.00     0.167 HD
ATOM     51  C   UNL     1     -16.789   8.578  -1.151  1.00  0.00     0.034 A 
ATOM     52  C   UNL     1     -10.487  11.814  -2.216  1.00  0.00     0.034 A 
ATOM     53  C   UNL     1     -16.003   9.391  -0.223  1.00  0.00     0.049 A 
ATOM     54  C   UNL     1     -11.532  12.576  -1.430  1.00  0.00     0.074 A 
ATOM     55  C   UNL     1     -15.147   9.091   0.824  1.00  0.00     0.029 A 
ATOM     56  N   UNL     1     -15.829  10.739  -0.500  1.00  0.00    -0.354 N 
ATOM     57  N   UNL     1     -12.627  12.050  -0.953  1.00  0.00    -0.248 NA
ATOM     58  C   UNL     1     -11.423  13.996  -1.123  1.00  0.00     0.031 C 
ATOM     59  C   UNL     1     -14.435  10.275   1.159  1.00  0.00     0.029 A 
ATOM     60  C   UNL     1     -14.882  11.294   0.335  1.00  0.00     0.049 A 
ATOM     61  H   UNL     1     -16.315  11.233  -1.198  1.00  0.00     0.167 HD
ATOM     62  C   UNL     1     -13.369  13.012  -0.308  1.00  0.00     0.074 A 
ATOM     63  C   UNL     1     -12.557  14.210  -0.432  1.00  0.00     0.031 C 
ATOM     64  C   UNL     1     -14.588  12.720   0.250  1.00  0.00     0.034 A 
BRANCH  51  65
ATOM     65  C   UNL     1     -17.978   7.757  -0.702  1.00  0.00     0.023 A 
ATOM     66  C   UNL     1     -18.171   7.553   0.683  1.00  0.00     0.031 A 
ATOM     67  C   UNL     1     -18.924   7.131  -1.534  1.00  0.00     0.131 A 
ATOM     68  C   UNL     1     -19.183   6.710   1.174  1.00  0.00     0.055 A 
ATOM     69  C   UNL     1     -19.909   6.256  -1.050  1.00  0.00     0.041 A 
ATOM     70  F   UNL     1     -18.987   7.373  -2.848  1.00  0.00    -0.206 F 
ATOM     71  C   UNL     1     -20.037   6.033   0.311  1.00  0.00     0.022 A 
BRANCH  68  72
ATOM     72  S   UNL     1     -19.362   6.505   2.967  1.00  0.00     0.124 S 
ATOM     73  O   UNL     1     -18.063   5.960   3.346  1.00  0.00    -0.237 OA
ATOM     74  O   UNL     1     -19.647   7.866   3.407  1.00  0.00    -0.237 OA
ATOM     75  O   UNL     1     -20.482   5.572   3.090  1.00  0.00    -0.744 OA
ENDBRANCH  68  72
ENDBRANCH  51  65
BRANCH  52  76
ATOM     76  C   UNL     1      -9.885  12.230  -3.515  1.00  0.00     0.023 A 
ATOM     77  C   UNL     1      -8.569  11.788  -3.774  1.00  0.00     0.031 A 
ATOM     78  C   UNL     1     -10.683  12.595  -4.608  1.00  0.00     0.131 A 
ATOM     79  C   UNL     1      -8.153  11.549  -5.091  1.00  0.00     0.055 A 
ATOM     80  C   UNL     1     -10.235  12.419  -5.924  1.00  0.00     0.041 A 
ATOM     81  F   UNL     1     -11.953  12.986  -4.426  1.00  0.00    -0.206 F 
ATOM     82  C   UNL     1      -8.985  11.847  -6.171  1.00  0.00     0.022 A 
BRANCH  79  83
ATOM     83  S   UNL     1      -6.630  10.587  -5.345  1.00  0.00     0.124 S 
ATOM     84  O   UNL     1      -5.596  11.591  -5.118  1.00  0.00    -0.237 OA
ATOM     85  O   UNL     1      -6.742   9.545  -4.325  1.00  0.00    -0.237 OA
ATOM     86  O   UNL     1      -6.751  10.106  -6.718  1.00  0.00    -0.744 OA
ENDBRANCH  79  83
ENDBRANCH  52  76
BRANCH  64  87
ATOM     87  C   UNL     1     -15.622  13.694   0.808  1.00  0.00     0.023 A 
ATOM     88  C   UNL     1     -15.473  15.086   0.815  1.00  0.00     0.031 A 
ATOM     89  C   UNL     1     -16.864  13.228   1.325  1.00  0.00     0.131 A 
ATOM     90  C   UNL     1     -16.476  15.935   1.327  1.00  0.00     0.055 A 
ATOM     91  C   UNL     1     -17.881  14.072   1.783  1.00  0.00     0.041 A 
ATOM     92  F   UNL     1     -17.163  11.924   1.402  1.00  0.00    -0.206 F 
ATOM     93  C   UNL     1     -17.689  15.440   1.793  1.00  0.00     0.022 A 
BRANCH  90  94
ATOM     94  S   UNL     1     -16.132  17.712   1.405  1.00  0.00     0.124 S 
ATOM     95  O   UNL     1     -14.980  17.759   2.301  1.00  0.00    -0.237 OA
ATOM     96  O   UNL     1     -15.860  18.037   0.008  1.00  0.00    -0.237 OA
ATOM     97  O   UNL     1     -17.364  18.281   1.946  1.00  0.00    -0.744 OA
ENDBRANCH  90  94
ENDBRANCH  64  87
ENDBRANCH  38  39
ENDBRANCH  30  33
ENDBRANCH  28  29
ENDBRANCH   1  28
TORSDOF 16
