REMARK SMILES Cc1nsc(NC(=O)[C@H]2Cc3[nH]cnc3C[NH2+]2)c1C(=O)NCCCCNC(=O)c1ccc(-c2c3nc(c(-c4cc(S(=O)(=O)[O-])ccc4F)c4ccc([nH]4)c(-c4cc(S(=O)(=O)[O-])ccc4F)c4nc(c(-c5cc(S(=O)(=O)[O-])ccc5F)c5ccc2[nH]5)C=C4)C=C3)cc1
REMARK SMILES IDX 24 1 23 2 22 3 21 4 19 5 20 6 18 8 1 9 2 10 3 11 4 12 5 13
REMARK SMILES IDX 6 14 7 15 8 17 9 18 10 19 17 20 11 21 16 22 12 25 15 26
REMARK SMILES IDX 13 27 14 29 25 30 26 31 27 32 28 34 29 35 30 36 91 37 31 38
REMARK SMILES IDX 90 39 32 40 33 41 34 42 84 43 35 44 89 45 83 46 85 47 36 48
REMARK SMILES IDX 88 49 82 50 81 51 37 53 69 54 49 55 68 56 50 57 53 58 67 59
REMARK SMILES IDX 86 60 51 61 52 62 66 64 87 65 54 66 38 67 39 68 47 69 40 70
REMARK SMILES IDX 46 71 48 72 45 73 41 74 42 75 43 76 44 77 70 78 71 79 79 80
REMARK SMILES IDX 72 81 78 82 80 83 77 84 73 85 74 86 75 87 76 88 55 89 56 90
REMARK SMILES IDX 64 91 57 92 63 93 65 94 62 95 58 96 59 97 60 98 61 99
REMARK H PARENT 21 7 6 16 17 23 17 24 12 28 26 33 85 52 53 63
REMARK Flexibility Score: inf
ROOT
ATOM      1  C   UNL     1       0.285   3.453  -2.506  1.00  0.00     0.023 C 
ENDROOT
BRANCH   1   2
ATOM      2  C   UNL     1       0.535   2.239  -1.606  1.00  0.00     0.023 C 
BRANCH   2   3
ATOM      3  C   UNL     1      -0.662   1.757  -0.789  1.00  0.00     0.116 C 
BRANCH   3   4
ATOM      4  N   UNL     1      -1.553   0.838  -1.456  1.00  0.00    -0.352 N 
ATOM      5  C   UNL     1      -1.523  -0.520  -1.624  1.00  0.00     0.256 C 
ATOM      6  O   UNL     1      -2.585  -1.045  -1.968  1.00  0.00    -0.269 OA
ATOM      7  H   UNL     1      -2.333   1.272  -1.869  1.00  0.00     0.163 HD
BRANCH   5   8
ATOM      8  C   UNL     1      -0.289  -1.295  -1.620  1.00  0.00     0.097 A 
ATOM      9  C   UNL     1       1.506  -0.451   0.145  1.00  0.00     0.069 C 
ATOM     10  C   UNL     1       1.048  -1.133  -1.096  1.00  0.00     0.066 A 
ATOM     11  N   UNL     1       2.001  -1.757  -1.811  1.00  0.00    -0.195 NA
ATOM     12  S   UNL     1       1.217  -2.716  -2.936  1.00  0.00    -0.017 S 
ATOM     13  C   UNL     1      -0.278  -2.604  -2.096  1.00  0.00     0.129 A 
BRANCH  13  14
ATOM     14  N   UNL     1      -1.285  -3.499  -2.329  1.00  0.00    -0.311 N 
ATOM     15  C   UNL     1      -1.305  -4.853  -2.150  1.00  0.00     0.283 C 
ATOM     16  H   UNL     1      -2.119  -3.111  -2.678  1.00  0.00     0.171 HD
ATOM     17  O   UNL     1      -2.306  -5.427  -2.610  1.00  0.00    -0.268 OA
BRANCH  15  18
ATOM     18  C   UNL     1      -0.234  -5.711  -1.385  1.00  0.00     0.279 C 
ATOM     19  C   UNL     1       0.979  -5.059  -0.677  1.00  0.00     0.131 C 
ATOM     20  N   UNL     1      -0.953  -6.575  -0.362  1.00  0.00    -0.331 N 
ATOM     21  C   UNL     1       1.835  -6.172  -0.215  1.00  0.00     0.050 A 
ATOM     22  C   UNL     1      -0.131  -7.683   0.213  1.00  0.00     0.320 C 
ATOM     23  H   UNL     1      -1.770  -6.987  -0.814  1.00  0.00     0.347 HD
ATOM     24  H   UNL     1      -1.190  -5.960   0.416  1.00  0.00     0.347 HD
ATOM     25  N   UNL     1       3.176  -6.332  -0.380  1.00  0.00    -0.348 N 
ATOM     26  C   UNL     1       1.334  -7.392   0.156  1.00  0.00     0.116 A 
ATOM     27  C   UNL     1       3.431  -7.660  -0.155  1.00  0.00     0.197 A 
ATOM     28  H   UNL     1       3.831  -5.635  -0.613  1.00  0.00     0.167 HD
ATOM     29  N   UNL     1       2.346  -8.317   0.205  1.00  0.00    -0.236 NA
ENDBRANCH  15  18
ENDBRANCH  13  14
ENDBRANCH   5   8
ENDBRANCH   3   4
ENDBRANCH   2   3
ENDBRANCH   1   2
BRANCH   1  30
ATOM     30  C   UNL     1      -0.146   4.727  -1.778  1.00  0.00     0.116 C 
BRANCH  30  31
ATOM     31  N   UNL     1       0.814   5.171  -0.772  1.00  0.00    -0.352 N 
ATOM     32  C   UNL     1       0.594   6.060   0.268  1.00  0.00     0.251 C 
ATOM     33  H   UNL     1       1.722   4.797  -0.841  1.00  0.00     0.163 HD
ATOM     34  O   UNL     1       1.518   6.675   0.770  1.00  0.00    -0.269 OA
BRANCH  32  35
ATOM     35  C   UNL     1      -0.785   6.220   0.768  1.00  0.00     0.039 A 
ATOM     36  C   UNL     1      -1.351   7.479   0.961  1.00  0.00     0.014 A 
ATOM     37  C   UNL     1      -1.523   5.060   1.003  1.00  0.00     0.014 A 
ATOM     38  C   UNL     1      -2.703   7.560   1.298  1.00  0.00     0.010 A 
ATOM     39  C   UNL     1      -2.878   5.139   1.230  1.00  0.00     0.010 A 
ATOM     40  C   UNL     1      -3.471   6.387   1.403  1.00  0.00    -0.014 A 
BRANCH  40  41
ATOM     41  C   UNL     1      -4.929   6.461   1.510  1.00  0.00     0.031 A 
ATOM     42  C   UNL     1      -5.575   7.256   0.428  1.00  0.00     0.074 A 
ATOM     43  C   UNL     1      -5.665   5.707   2.357  1.00  0.00     0.049 A 
ATOM     44  N   UNL     1      -6.158   8.402   0.540  1.00  0.00    -0.248 NA
ATOM     45  C   UNL     1      -5.409   6.817  -0.969  1.00  0.00     0.031 C 
ATOM     46  C   UNL     1      -5.194   4.673   3.284  1.00  0.00     0.029 A 
ATOM     47  N   UNL     1      -7.020   5.627   2.491  1.00  0.00    -0.354 N 
ATOM     48  C   UNL     1      -6.668   8.701  -0.720  1.00  0.00     0.074 A 
ATOM     49  C   UNL     1      -5.987   7.822  -1.632  1.00  0.00     0.031 C 
ATOM     50  C   UNL     1      -6.240   3.922   3.698  1.00  0.00     0.029 A 
ATOM     51  C   UNL     1      -7.470   4.509   3.195  1.00  0.00     0.049 A 
ATOM     52  H   UNL     1      -7.631   6.304   2.121  1.00  0.00     0.167 HD
ATOM     53  C   UNL     1      -7.790   9.463  -0.857  1.00  0.00     0.034 A 
ATOM     54  C   UNL     1      -8.755   4.079   3.339  1.00  0.00     0.034 A 
ATOM     55  C   UNL     1      -8.089  10.157   0.380  1.00  0.00     0.049 A 
ATOM     56  C   UNL     1      -9.623   5.262   3.120  1.00  0.00     0.074 A 
ATOM     57  C   UNL     1      -7.392  11.034   1.191  1.00  0.00     0.029 A 
ATOM     58  N   UNL     1      -9.108   9.666   1.169  1.00  0.00    -0.354 N 
ATOM     59  N   UNL     1      -9.621   6.300   3.911  1.00  0.00    -0.248 NA
ATOM     60  C   UNL     1     -10.108   5.517   1.772  1.00  0.00     0.031 C 
ATOM     61  C   UNL     1      -7.692  10.615   2.522  1.00  0.00     0.029 A 
ATOM     62  C   UNL     1      -8.632   9.585   2.455  1.00  0.00     0.049 A 
ATOM     63  H   UNL     1     -10.011   9.419   0.865  1.00  0.00     0.167 HD
ATOM     64  C   UNL     1      -9.643   7.395   3.061  1.00  0.00     0.074 A 
ATOM     65  C   UNL     1     -10.049   6.853   1.764  1.00  0.00     0.031 C 
ATOM     66  C   UNL     1      -9.052   8.577   3.413  1.00  0.00     0.034 A 
BRANCH  53  67
ATOM     67  C   UNL     1      -8.835   9.293  -1.943  1.00  0.00     0.023 A 
ATOM     68  C   UNL     1      -9.960  10.141  -1.882  1.00  0.00     0.031 A 
ATOM     69  C   UNL     1      -8.950   8.195  -2.825  1.00  0.00     0.131 A 
ATOM     70  C   UNL     1     -11.153   9.814  -2.550  1.00  0.00     0.055 A 
ATOM     71  C   UNL     1     -10.117   7.913  -3.542  1.00  0.00     0.041 A 
ATOM     72  F   UNL     1      -7.985   7.282  -2.981  1.00  0.00    -0.206 F 
ATOM     73  C   UNL     1     -11.241   8.701  -3.378  1.00  0.00     0.022 A 
BRANCH  70  74
ATOM     74  S   UNL     1     -12.642  10.765  -2.152  1.00  0.00     0.124 S 
ATOM     75  O   UNL     1     -12.691  10.630  -0.700  1.00  0.00    -0.237 OA
ATOM     76  O   UNL     1     -12.298  12.087  -2.666  1.00  0.00    -0.237 OA
ATOM     77  O   UNL     1     -13.695  10.066  -2.883  1.00  0.00    -0.744 OA
ENDBRANCH  70  74
ENDBRANCH  53  67
BRANCH  54  78
ATOM     78  C   UNL     1      -9.259   2.671   3.318  1.00  0.00     0.023 A 
ATOM     79  C   UNL     1     -10.559   2.307   3.742  1.00  0.00     0.031 A 
ATOM     80  C   UNL     1      -8.528   1.682   2.621  1.00  0.00     0.131 A 
ATOM     81  C   UNL     1     -11.073   1.016   3.456  1.00  0.00     0.055 A 
ATOM     82  C   UNL     1      -9.041   0.413   2.340  1.00  0.00     0.041 A 
ATOM     83  F   UNL     1      -7.317   1.944   2.106  1.00  0.00    -0.206 F 
ATOM     84  C   UNL     1     -10.321   0.078   2.745  1.00  0.00     0.022 A 
BRANCH  81  85
ATOM     85  S   UNL     1     -12.779   0.557   3.918  1.00  0.00     0.124 S 
ATOM     86  O   UNL     1     -12.681   0.418   5.366  1.00  0.00    -0.237 OA
ATOM     87  O   UNL     1     -13.556   1.688   3.425  1.00  0.00    -0.237 OA
ATOM     88  O   UNL     1     -13.003  -0.697   3.196  1.00  0.00    -0.744 OA
ENDBRANCH  81  85
ENDBRANCH  54  78
BRANCH  66  89
ATOM     89  C   UNL     1      -8.629   8.772   4.860  1.00  0.00     0.023 A 
ATOM     90  C   UNL     1      -7.779   7.906   5.588  1.00  0.00     0.031 A 
ATOM     91  C   UNL     1      -9.044   9.955   5.498  1.00  0.00     0.131 A 
ATOM     92  C   UNL     1      -7.401   8.228   6.908  1.00  0.00     0.055 A 
ATOM     93  C   UNL     1      -8.647  10.283   6.793  1.00  0.00     0.041 A 
ATOM     94  F   UNL     1      -9.830  10.835   4.856  1.00  0.00    -0.206 F 
ATOM     95  C   UNL     1      -7.832   9.415   7.508  1.00  0.00     0.022 A 
BRANCH  92  96
ATOM     96  S   UNL     1      -6.372   7.088   7.892  1.00  0.00     0.124 S 
ATOM     97  O   UNL     1      -6.970   5.781   7.644  1.00  0.00    -0.237 OA
ATOM     98  O   UNL     1      -5.041   7.297   7.328  1.00  0.00    -0.237 OA
ATOM     99  O   UNL     1      -6.535   7.582   9.261  1.00  0.00    -0.744 OA
ENDBRANCH  92  96
ENDBRANCH  66  89
ENDBRANCH  40  41
ENDBRANCH  32  35
ENDBRANCH  30  31
ENDBRANCH   1  30
TORSDOF 16
