REMARK SMILES Cc1cccc(OC2(C(=O)NCCCCNC(=O)c3ccc(-c4c5nc(c(-c6cc(S(=O)(=O)[O-])ccc6F)c6ccc([nH]6)c(-c6cc(S(=O)(=O)[O-])ccc6F)c6nc(c(-c7cc(S(=O)(=O)[O-])ccc7F)c7ccc4[nH]7)C=C6)C=C5)cc3)CCN(C(=O)c3cnc[nH]c3=O)CC2)c1
REMARK SMILES IDX 14 1 13 2 12 3 11 4 9 5 10 6 8 8 82 9 95 10 83 11 94 12
REMARK SMILES IDX 84 13 85 14 86 15 7 16 6 17 1 18 2 19 3 20 96 21 4 22 5 23
REMARK SMILES IDX 87 24 88 25 92 26 89 27 91 28 93 29 90 30 15 32 16 33 17 34
REMARK SMILES IDX 18 36 19 37 20 38 81 39 21 40 80 41 22 42 23 43 24 44 74 45
REMARK SMILES IDX 25 46 79 47 73 48 75 49 26 50 78 51 72 52 71 53 27 55 59 56
REMARK SMILES IDX 39 57 58 58 40 59 43 60 57 61 76 62 41 63 42 64 56 66 77 67
REMARK SMILES IDX 44 68 28 69 29 70 37 71 30 72 36 73 38 74 35 75 31 76 32 77
REMARK SMILES IDX 33 78 34 79 60 80 61 81 69 82 62 83 68 84 70 85 67 86 63 87
REMARK SMILES IDX 64 88 65 89 66 90 45 91 46 92 54 93 47 94 53 95 55 96 52 97
REMARK SMILES IDX 48 98 49 99 50 100 51 101
REMARK H PARENT 11 7 91 31 16 35 75 54 43 65
REMARK Flexibility Score: inf
ROOT
ATOM      1  C   UNL     1       2.170   6.147  -3.141  1.00  0.00     0.023 C 
ENDROOT
BRANCH   1   2
ATOM      2  C   UNL     1       1.659   6.246  -1.716  1.00  0.00     0.023 C 
BRANCH   2   3
ATOM      3  C   UNL     1       0.128   6.355  -1.537  1.00  0.00     0.116 C 
BRANCH   3   4
ATOM      4  N   UNL     1      -0.663   5.190  -1.953  1.00  0.00    -0.353 N 
ATOM      5  C   UNL     1      -1.159   4.099  -1.287  1.00  0.00     0.264 C 
ATOM      6  O   UNL     1      -2.051   3.479  -1.884  1.00  0.00    -0.270 OA
ATOM      7  H   UNL     1      -0.885   5.193  -2.912  1.00  0.00     0.163 HD
BRANCH   5   8
ATOM      8  C   UNL     1      -0.659   3.616   0.119  1.00  0.00     0.190 C 
ATOM      9  C   UNL     1       0.837   3.842   0.259  1.00  0.00     0.080 C 
ATOM     10  C   UNL     1      -1.365   4.417   1.252  1.00  0.00     0.080 C 
ATOM     11  C   UNL     1       1.399   3.483   1.608  1.00  0.00     0.124 C 
ATOM     12  C   UNL     1      -0.727   4.134   2.632  1.00  0.00     0.124 C 
ATOM     13  N   UNL     1       0.726   4.314   2.579  1.00  0.00    -0.338 N 
ATOM     14  C   UNL     1       1.462   5.321   3.185  1.00  0.00     0.261 C 
ATOM     15  O   UNL     1       2.591   5.650   2.826  1.00  0.00    -0.269 OA
BRANCH   8  16
ATOM     16  O   UNL     1      -1.147   2.268   0.321  1.00  0.00    -0.477 OA
BRANCH  16  17
ATOM     17  C   UNL     1      -0.571   1.068   0.057  1.00  0.00     0.121 A 
ATOM     18  C   UNL     1       2.728  -0.812  -0.153  1.00  0.00     0.044 C 
ATOM     19  C   UNL     1       1.250  -0.546  -0.131  1.00  0.00    -0.047 A 
ATOM     20  C   UNL     1       0.339  -1.601  -0.070  1.00  0.00     0.003 A 
ATOM     21  C   UNL     1       0.776   0.777  -0.118  1.00  0.00     0.049 A 
ATOM     22  C   UNL     1      -1.023  -1.330   0.023  1.00  0.00     0.004 A 
ATOM     23  C   UNL     1      -1.467  -0.006   0.102  1.00  0.00     0.046 A 
ENDBRANCH  16  17
ENDBRANCH   8  16
BRANCH  14  24
ATOM     24  C   UNL     1       0.914   5.855   4.434  1.00  0.00     0.123 A 
ATOM     25  C   UNL     1       0.340   7.063   4.511  1.00  0.00     0.132 A 
ATOM     26  C   UNL     1       1.059   5.081   5.677  1.00  0.00     0.263 A 
ATOM     27  N   UNL     1      -0.174   7.606   5.671  1.00  0.00    -0.246 NA
ATOM     28  N   UNL     1       0.593   5.700   6.800  1.00  0.00    -0.312 N 
ATOM     29  O   UNL     1       1.544   3.955   5.733  1.00  0.00    -0.269 OA
ATOM     30  C   UNL     1      -0.010   6.920   6.750  1.00  0.00     0.199 A 
ATOM     31  H   UNL     1       0.696   5.252   7.671  1.00  0.00     0.171 HD
ENDBRANCH  14  24
ENDBRANCH   5   8
ENDBRANCH   3   4
ENDBRANCH   2   3
ENDBRANCH   1   2
BRANCH   1  32
ATOM     32  C   UNL     1       2.233   7.494  -3.829  1.00  0.00     0.116 C 
BRANCH  32  33
ATOM     33  N   UNL     1       3.441   8.273  -3.567  1.00  0.00    -0.352 N 
ATOM     34  C   UNL     1       3.760   9.533  -4.064  1.00  0.00     0.251 C 
ATOM     35  H   UNL     1       4.106   7.859  -2.970  1.00  0.00     0.163 HD
ATOM     36  O   UNL     1       4.828  10.074  -3.853  1.00  0.00    -0.269 OA
BRANCH  34  37
ATOM     37  C   UNL     1       2.680  10.266  -4.772  1.00  0.00     0.039 A 
ATOM     38  C   UNL     1       2.191  11.418  -4.149  1.00  0.00     0.014 A 
ATOM     39  C   UNL     1       1.945   9.615  -5.757  1.00  0.00     0.014 A 
ATOM     40  C   UNL     1       0.854  11.759  -4.322  1.00  0.00     0.010 A 
ATOM     41  C   UNL     1       0.589   9.870  -5.818  1.00  0.00     0.010 A 
ATOM     42  C   UNL     1       0.031  10.903  -5.053  1.00  0.00    -0.014 A 
BRANCH  42  43
ATOM     43  C   UNL     1      -1.427  10.940  -4.965  1.00  0.00     0.031 A 
ATOM     44  C   UNL     1      -2.228  11.355  -6.135  1.00  0.00     0.074 A 
ATOM     45  C   UNL     1      -2.061  10.588  -3.824  1.00  0.00     0.049 A 
ATOM     46  N   UNL     1      -3.407  11.875  -6.065  1.00  0.00    -0.248 NA
ATOM     47  C   UNL     1      -1.724  11.263  -7.499  1.00  0.00     0.031 C 
ATOM     48  C   UNL     1      -3.491  10.350  -3.641  1.00  0.00     0.029 A 
ATOM     49  N   UNL     1      -1.550  10.620  -2.530  1.00  0.00    -0.354 N 
ATOM     50  C   UNL     1      -3.920  11.928  -7.340  1.00  0.00     0.074 A 
ATOM     51  C   UNL     1      -2.812  11.589  -8.201  1.00  0.00     0.031 C 
ATOM     52  C   UNL     1      -3.796  10.509  -2.344  1.00  0.00     0.029 A 
ATOM     53  C   UNL     1      -2.601  10.980  -1.669  1.00  0.00     0.049 A 
ATOM     54  H   UNL     1      -0.622  10.426  -2.265  1.00  0.00     0.167 HD
ATOM     55  C   UNL     1      -5.257  12.123  -7.522  1.00  0.00     0.034 A 
ATOM     56  C   UNL     1      -2.525  12.095  -0.886  1.00  0.00     0.034 A 
ATOM     57  C   UNL     1      -5.947  12.349  -6.253  1.00  0.00     0.049 A 
ATOM     58  C   UNL     1      -3.603  13.112  -1.174  1.00  0.00     0.074 A 
ATOM     59  C   UNL     1      -6.696  11.524  -5.429  1.00  0.00     0.029 A 
ATOM     60  N   UNL     1      -5.679  13.499  -5.518  1.00  0.00    -0.354 N 
ATOM     61  N   UNL     1      -4.349  13.106  -2.244  1.00  0.00    -0.248 NA
ATOM     62  C   UNL     1      -3.908  14.230  -0.287  1.00  0.00     0.031 C 
ATOM     63  C   UNL     1      -6.825  12.163  -4.169  1.00  0.00     0.029 A 
ATOM     64  C   UNL     1      -6.185  13.389  -4.236  1.00  0.00     0.049 A 
ATOM     65  H   UNL     1      -5.196  14.284  -5.864  1.00  0.00     0.167 HD
ATOM     66  C   UNL     1      -5.183  14.196  -2.230  1.00  0.00     0.074 A 
ATOM     67  C   UNL     1      -4.893  14.846  -0.963  1.00  0.00     0.031 C 
ATOM     68  C   UNL     1      -6.024  14.473  -3.274  1.00  0.00     0.034 A 
BRANCH  55  69
ATOM     69  C   UNL     1      -5.976  11.792  -8.813  1.00  0.00     0.023 A 
ATOM     70  C   UNL     1      -7.313  11.344  -8.763  1.00  0.00     0.031 A 
ATOM     71  C   UNL     1      -5.406  11.834 -10.100  1.00  0.00     0.131 A 
ATOM     72  C   UNL     1      -7.970  10.857  -9.909  1.00  0.00     0.055 A 
ATOM     73  C   UNL     1      -6.030  11.285 -11.228  1.00  0.00     0.041 A 
ATOM     74  F   UNL     1      -4.247  12.462 -10.335  1.00  0.00    -0.206 F 
ATOM     75  C   UNL     1      -7.316  10.776 -11.133  1.00  0.00     0.022 A 
BRANCH  72  76
ATOM     76  S   UNL     1      -9.704  10.341  -9.779  1.00  0.00     0.124 S 
ATOM     77  O   UNL     1      -9.641   9.287  -8.774  1.00  0.00    -0.237 OA
ATOM     78  O   UNL     1     -10.364  11.579  -9.379  1.00  0.00    -0.237 OA
ATOM     79  O   UNL     1     -10.023   9.885 -11.132  1.00  0.00    -0.744 OA
ENDBRANCH  72  76
ENDBRANCH  55  69
BRANCH  56  80
ATOM     80  C   UNL     1      -1.139  12.400  -0.435  1.00  0.00     0.023 A 
ATOM     81  C   UNL     1      -0.481  11.390   0.300  1.00  0.00     0.031 A 
ATOM     82  C   UNL     1      -0.357  13.393  -1.038  1.00  0.00     0.131 A 
ATOM     83  C   UNL     1       0.912  11.278   0.247  1.00  0.00     0.055 A 
ATOM     84  C   UNL     1       1.042  13.325  -1.016  1.00  0.00     0.041 A 
ATOM     85  F   UNL     1      -0.927  14.360  -1.772  1.00  0.00    -0.206 F 
ATOM     86  C   UNL     1       1.681  12.236  -0.418  1.00  0.00     0.022 A 
BRANCH  83  87
ATOM     87  S   UNL     1       1.684   9.720   0.781  1.00  0.00     0.124 S 
ATOM     88  O   UNL     1       2.150  10.057   2.119  1.00  0.00    -0.237 OA
ATOM     89  O   UNL     1       0.580   8.761   0.717  1.00  0.00    -0.237 OA
ATOM     90  O   UNL     1       2.717   9.509  -0.230  1.00  0.00    -0.744 OA
ENDBRANCH  83  87
ENDBRANCH  56  80
BRANCH  68  91
ATOM     91  C   UNL     1      -6.835  15.743  -3.450  1.00  0.00     0.023 A 
ATOM     92  C   UNL     1      -6.593  16.926  -2.735  1.00  0.00     0.031 A 
ATOM     93  C   UNL     1      -7.862  15.824  -4.424  1.00  0.00     0.131 A 
ATOM     94  C   UNL     1      -7.392  18.070  -2.918  1.00  0.00     0.055 A 
ATOM     95  C   UNL     1      -8.600  16.987  -4.664  1.00  0.00     0.041 A 
ATOM     96  F   UNL     1      -8.189  14.776  -5.195  1.00  0.00    -0.206 F 
ATOM     97  C   UNL     1      -8.381  18.117  -3.895  1.00  0.00     0.022 A 
BRANCH  94  98
ATOM     98  S   UNL     1      -7.150  19.473  -1.796  1.00  0.00     0.124 S 
ATOM     99  O   UNL     1      -7.491  18.886  -0.503  1.00  0.00    -0.237 OA
ATOM    100  O   UNL     1      -5.740  19.793  -1.994  1.00  0.00    -0.237 OA
ATOM    101  O   UNL     1      -8.091  20.477  -2.289  1.00  0.00    -0.744 OA
ENDBRANCH  94  98
ENDBRANCH  68  91
ENDBRANCH  42  43
ENDBRANCH  34  37
ENDBRANCH  32  33
ENDBRANCH   1  32
TORSDOF 17
