REMARK SMILES O=C(NCCCCNC(=O)c1cccc(F)c1N1CCN2C(=O)NC[C@@H]2C1)c1ccc(-c2c3nc(c(-c4cc(S(=O)(=O)[O-])ccc4F)c4ccc([nH]4)c(-c4cc(S(=O)(=O)[O-])ccc4F)c4nc(c(-c5cc(S(=O)(=O)[O-])ccc5F)c5ccc2[nH]5)C=C4)C=C3)cc1
REMARK SMILES IDX 4 1 3 2 1 3 2 4 28 6 29 7 90 8 30 9 89 10 31 11 32 12 33 13
REMARK SMILES IDX 83 14 34 15 88 16 82 17 84 18 35 19 87 20 81 21 80 22 36 24
REMARK SMILES IDX 68 25 48 26 67 27 49 28 52 29 66 30 85 31 50 32 51 33 65 35
REMARK SMILES IDX 86 36 53 37 37 38 38 39 46 40 39 41 45 42 47 43 44 44 40 45
REMARK SMILES IDX 41 46 42 47 43 48 69 49 70 50 78 51 71 52 77 53 79 54 76 55
REMARK SMILES IDX 72 56 73 57 74 58 75 59 54 60 55 61 63 62 56 63 62 64 64 65
REMARK SMILES IDX 61 66 57 67 58 68 59 69 60 70 5 71 6 72 7 73 8 74 9 75 10 77
REMARK SMILES IDX 11 78 12 79 17 80 13 81 15 82 14 83 16 84 18 85 19 86 27 87
REMARK SMILES IDX 20 88 26 89 21 90 25 91 22 92 24 93 23 94
REMARK H PARENT 3 5 84 23 52 34 8 76 24 95
REMARK Flexibility Score: inf
ROOT
ATOM      1  C   UNL     1       4.468   0.928  -1.023  1.00  0.00     0.116 C 
ENDROOT
BRANCH   1   2
ATOM      2  N   UNL     1       3.029   0.905  -0.790  1.00  0.00    -0.352 N 
ATOM      3  O   UNL     1       1.069   0.083  -0.013  1.00  0.00    -0.269 OA
ATOM      4  C   UNL     1       2.295   0.022  -0.026  1.00  0.00     0.251 C 
ATOM      5  H   UNL     1       2.513   1.614  -1.237  1.00  0.00     0.163 HD
BRANCH   4   6
ATOM      6  C   UNL     1       3.005  -1.019   0.747  1.00  0.00     0.039 A 
ATOM      7  C   UNL     1       4.140  -0.680   1.483  1.00  0.00     0.014 A 
ATOM      8  C   UNL     1       2.581  -2.349   0.679  1.00  0.00     0.014 A 
ATOM      9  C   UNL     1       4.961  -1.685   1.969  1.00  0.00     0.010 A 
ATOM     10  C   UNL     1       3.343  -3.351   1.291  1.00  0.00     0.010 A 
ATOM     11  C   UNL     1       4.560  -3.031   1.910  1.00  0.00    -0.014 A 
BRANCH  11  12
ATOM     12  C   UNL     1       5.407  -4.046   2.590  1.00  0.00     0.031 A 
ATOM     13  C   UNL     1       6.069  -5.166   1.838  1.00  0.00     0.074 A 
ATOM     14  C   UNL     1       5.633  -3.889   3.910  1.00  0.00     0.049 A 
ATOM     15  N   UNL     1       6.899  -6.073   2.287  1.00  0.00    -0.248 NA
ATOM     16  C   UNL     1       5.759  -5.296   0.407  1.00  0.00     0.031 C 
ATOM     17  C   UNL     1       5.037  -2.836   4.739  1.00  0.00     0.029 A 
ATOM     18  N   UNL     1       6.451  -4.566   4.777  1.00  0.00    -0.354 N 
ATOM     19  C   UNL     1       7.199  -6.892   1.204  1.00  0.00     0.074 A 
ATOM     20  C   UNL     1       6.437  -6.389   0.080  1.00  0.00     0.031 C 
ATOM     21  C   UNL     1       5.582  -2.875   5.960  1.00  0.00     0.029 A 
ATOM     22  C   UNL     1       6.486  -4.015   6.037  1.00  0.00     0.049 A 
ATOM     23  H   UNL     1       6.963  -5.367   4.522  1.00  0.00     0.167 HD
ATOM     24  C   UNL     1       8.034  -7.959   1.159  1.00  0.00     0.034 A 
ATOM     25  C   UNL     1       7.153  -4.388   7.145  1.00  0.00     0.034 A 
ATOM     26  C   UNL     1       8.789  -8.438   2.294  1.00  0.00     0.049 A 
ATOM     27  C   UNL     1       8.033  -5.599   7.083  1.00  0.00     0.074 A 
ATOM     28  C   UNL     1       9.691  -9.487   2.344  1.00  0.00     0.029 A 
ATOM     29  N   UNL     1       8.724  -7.911   3.578  1.00  0.00    -0.354 N 
ATOM     30  N   UNL     1       8.294  -6.368   6.053  1.00  0.00    -0.248 NA
ATOM     31  C   UNL     1       8.695  -6.006   8.328  1.00  0.00     0.031 C 
ATOM     32  C   UNL     1      10.108  -9.645   3.668  1.00  0.00     0.029 A 
ATOM     33  C   UNL     1       9.537  -8.640   4.433  1.00  0.00     0.049 A 
ATOM     34  H   UNL     1       8.181  -7.134   3.842  1.00  0.00     0.167 HD
ATOM     35  C   UNL     1       9.163  -7.345   6.520  1.00  0.00     0.074 A 
ATOM     36  C   UNL     1       9.383  -7.068   7.927  1.00  0.00     0.031 C 
ATOM     37  C   UNL     1       9.732  -8.370   5.839  1.00  0.00     0.034 A 
BRANCH  24  38
ATOM     38  C   UNL     1       8.147  -8.715  -0.143  1.00  0.00     0.023 A 
ATOM     39  C   UNL     1       8.711  -8.138  -1.293  1.00  0.00     0.031 A 
ATOM     40  C   UNL     1       7.703 -10.048  -0.226  1.00  0.00     0.131 A 
ATOM     41  C   UNL     1       8.773  -8.873  -2.487  1.00  0.00     0.055 A 
ATOM     42  C   UNL     1       7.831 -10.797  -1.397  1.00  0.00     0.041 A 
ATOM     43  F   UNL     1       7.139 -10.647   0.836  1.00  0.00    -0.206 F 
ATOM     44  C   UNL     1       8.359 -10.207  -2.540  1.00  0.00     0.022 A 
BRANCH  41  45
ATOM     45  S   UNL     1       9.307  -8.029  -4.001  1.00  0.00     0.124 S 
ATOM     46  O   UNL     1       8.303  -6.974  -4.122  1.00  0.00    -0.237 OA
ATOM     47  O   UNL     1      10.655  -7.589  -3.659  1.00  0.00    -0.237 OA
ATOM     48  O   UNL     1       9.231  -9.072  -5.022  1.00  0.00    -0.744 OA
ENDBRANCH  41  45
ENDBRANCH  24  38
BRANCH  25  49
ATOM     49  C   UNL     1       6.966  -3.604   8.395  1.00  0.00     0.023 A 
ATOM     50  C   UNL     1       7.986  -2.785   8.897  1.00  0.00     0.031 A 
ATOM     51  C   UNL     1       5.719  -3.594   9.049  1.00  0.00     0.131 A 
ATOM     52  C   UNL     1       7.739  -1.980  10.020  1.00  0.00     0.055 A 
ATOM     53  C   UNL     1       5.467  -2.763  10.140  1.00  0.00     0.041 A 
ATOM     54  F   UNL     1       4.707  -4.347   8.589  1.00  0.00    -0.206 F 
ATOM     55  C   UNL     1       6.482  -1.949  10.632  1.00  0.00     0.022 A 
BRANCH  52  56
ATOM     56  S   UNL     1       9.084  -0.953  10.672  1.00  0.00     0.124 S 
ATOM     57  O   UNL     1      10.029  -1.963  11.135  1.00  0.00    -0.237 OA
ATOM     58  O   UNL     1       9.485  -0.189   9.495  1.00  0.00    -0.237 OA
ATOM     59  O   UNL     1       8.437  -0.174  11.725  1.00  0.00    -0.744 OA
ENDBRANCH  52  56
ENDBRANCH  25  49
BRANCH  37  60
ATOM     60  C   UNL     1      10.680  -9.265   6.592  1.00  0.00     0.023 A 
ATOM     61  C   UNL     1      10.221 -10.200   7.534  1.00  0.00     0.031 A 
ATOM     62  C   UNL     1      12.055  -9.227   6.303  1.00  0.00     0.131 A 
ATOM     63  C   UNL     1      11.136 -11.055   8.166  1.00  0.00     0.055 A 
ATOM     64  C   UNL     1      12.954 -10.110   6.901  1.00  0.00     0.041 A 
ATOM     65  F   UNL     1      12.540  -8.351   5.409  1.00  0.00    -0.206 F 
ATOM     66  C   UNL     1      12.496 -11.030   7.840  1.00  0.00     0.022 A 
BRANCH  63  67
ATOM     67  S   UNL     1      10.533 -12.199   9.436  1.00  0.00     0.124 S 
ATOM     68  O   UNL     1      10.102 -11.282  10.487  1.00  0.00    -0.237 OA
ATOM     69  O   UNL     1       9.469 -12.915   8.739  1.00  0.00    -0.237 OA
ATOM     70  O   UNL     1      11.709 -13.005   9.760  1.00  0.00    -0.744 OA
ENDBRANCH  63  67
ENDBRANCH  37  60
ENDBRANCH  11  12
ENDBRANCH   4   6
ENDBRANCH   1   2
BRANCH   1  71
ATOM     71  C   UNL     1       4.850   0.952  -2.494  1.00  0.00     0.023 C 
BRANCH  71  72
ATOM     72  C   UNL     1       4.381   2.178  -3.266  1.00  0.00     0.023 C 
BRANCH  72  73
ATOM     73  C   UNL     1       4.700   3.517  -2.614  1.00  0.00     0.116 C 
BRANCH  73  74
ATOM     74  N   UNL     1       6.121   3.737  -2.397  1.00  0.00    -0.352 N 
ATOM     75  C   UNL     1       6.938   4.718  -2.913  1.00  0.00     0.253 C 
ATOM     76  H   UNL     1       6.562   3.093  -1.796  1.00  0.00     0.163 HD
ATOM     77  O   UNL     1       8.110   4.791  -2.563  1.00  0.00    -0.269 OA
BRANCH  75  78
ATOM     78  C   UNL     1       6.370   5.684  -3.877  1.00  0.00     0.066 A 
ATOM     79  C   UNL     1       5.357   6.532  -3.380  1.00  0.00     0.016 A 
ATOM     80  C   UNL     1       6.845   5.791  -5.201  1.00  0.00     0.086 A 
ATOM     81  C   UNL     1       4.707   7.426  -4.222  1.00  0.00     0.004 A 
ATOM     82  C   UNL     1       6.164   6.721  -6.013  1.00  0.00     0.147 A 
ATOM     83  C   UNL     1       5.102   7.505  -5.550  1.00  0.00     0.041 A 
ATOM     84  F   UNL     1       6.509   6.860  -7.305  1.00  0.00    -0.205 F 
BRANCH  80  85
ATOM     85  N   UNL     1       7.927   5.075  -5.689  1.00  0.00    -0.365 N 
ATOM     86  C   UNL     1       8.977   5.756  -6.479  1.00  0.00     0.138 C 
ATOM     87  C   UNL     1       7.967   3.600  -5.690  1.00  0.00     0.143 C 
ATOM     88  C   UNL     1      10.391   5.218  -6.150  1.00  0.00     0.143 C 
ATOM     89  C   UNL     1       9.347   3.140  -5.212  1.00  0.00     0.125 C 
ATOM     90  N   UNL     1      10.411   3.780  -5.968  1.00  0.00    -0.317 N 
ATOM     91  C   UNL     1       9.671   1.661  -5.381  1.00  0.00     0.144 C 
ATOM     92  C   UNL     1      11.503   2.939  -6.077  1.00  0.00     0.317 C 
ATOM     93  N   UNL     1      11.086   1.678  -5.670  1.00  0.00    -0.336 N 
ATOM     94  O   UNL     1      12.625   3.228  -6.456  1.00  0.00    -0.249 OA
ATOM     95  H   UNL     1      11.679   0.896  -5.588  1.00  0.00     0.165 HD
ENDBRANCH  80  85
ENDBRANCH  75  78
ENDBRANCH  73  74
ENDBRANCH  72  73
ENDBRANCH  71  72
ENDBRANCH   1  71
TORSDOF 15
