REMARK SMILES C[C@@H](C(=O)NCCCCNC(=O)c1ccc(-c2c3nc(c(-c4cc(S(=O)(=O)[O-])ccc4F)c4ccc([nH]4)c(-c4cc(S(=O)(=O)[O-])ccc4F)c4nc(c(-c5cc(S(=O)(=O)[O-])ccc5F)c5ccc2[nH]5)C=C4)C=C3)cc1)c1ccc(-c2ccn(C(F)F)c(=O)c2)cc1
REMARK SMILES IDX 7 1 6 2 5 3 3 4 4 5 2 7 1 8 76 9 77 10 91 11 78 12 90 13
REMARK SMILES IDX 79 14 80 15 81 16 89 17 82 18 87 19 83 20 88 21 84 22 85 23
REMARK SMILES IDX 86 24 8 25 9 26 10 27 11 28 12 30 13 31 14 32 75 33 15 34
REMARK SMILES IDX 74 35 16 36 17 37 18 38 68 39 19 40 73 41 67 42 69 43 20 44
REMARK SMILES IDX 72 45 66 46 65 47 21 49 53 50 33 51 52 52 34 53 37 54 51 55
REMARK SMILES IDX 70 56 35 57 36 58 50 60 71 61 38 62 22 63 23 64 31 65 24 66
REMARK SMILES IDX 30 67 32 68 29 69 25 70 26 71 27 72 28 73 54 74 55 75 63 76
REMARK SMILES IDX 56 77 62 78 64 79 61 80 57 81 58 82 59 83 60 84 39 85 40 86
REMARK SMILES IDX 48 87 41 88 47 89 49 90 46 91 42 92 43 93 44 94 45 95
REMARK H PARENT 5 6 10 29 69 48 37 59
REMARK Flexibility Score: inf
ROOT
ATOM      1  C   UNL     1       4.199  -1.079   0.825  1.00  0.00     0.023 C 
ENDROOT
BRANCH   1   2
ATOM      2  C   UNL     1       3.371  -1.909  -0.162  1.00  0.00     0.116 C 
BRANCH   2   3
ATOM      3  N   UNL     1       2.301  -2.598   0.529  1.00  0.00    -0.356 N 
ATOM      4  C   UNL     1       0.988  -2.249   0.682  1.00  0.00     0.227 C 
ATOM      5  O   UNL     1       0.350  -2.873   1.533  1.00  0.00    -0.274 OA
ATOM      6  H   UNL     1       2.558  -3.448   0.954  1.00  0.00     0.163 HD
BRANCH   4   7
ATOM      7  C   UNL     1       0.364  -1.161  -0.220  1.00  0.00     0.105 C 
ATOM      8  C   UNL     1       0.871   0.224   0.206  1.00  0.00     0.023 C 
BRANCH   7   9
ATOM      9  C   UNL     1      -1.171  -1.230  -0.278  1.00  0.00    -0.036 A 
ATOM     10  C   UNL     1      -1.976  -0.079  -0.224  1.00  0.00     0.005 A 
ATOM     11  C   UNL     1      -1.822  -2.469  -0.419  1.00  0.00     0.005 A 
ATOM     12  C   UNL     1      -3.369  -0.162  -0.247  1.00  0.00     0.009 A 
ATOM     13  C   UNL     1      -3.218  -2.557  -0.429  1.00  0.00     0.009 A 
ATOM     14  C   UNL     1      -4.000  -1.403  -0.338  1.00  0.00    -0.018 A 
BRANCH  14  15
ATOM     15  C   UNL     1      -5.468  -1.495  -0.333  1.00  0.00    -0.011 A 
ATOM     16  C   UNL     1      -6.210  -2.113   0.746  1.00  0.00     0.027 A 
ATOM     17  C   UNL     1      -6.133  -0.991  -1.386  1.00  0.00     0.080 A 
ATOM     18  C   UNL     1      -7.543  -2.213   0.679  1.00  0.00     0.095 A 
ATOM     19  C   UNL     1      -7.614  -1.081  -1.467  1.00  0.00     0.255 A 
ATOM     20  N   UNL     1      -8.240  -1.720  -0.408  1.00  0.00    -0.258 N 
ATOM     21  O   UNL     1      -8.178  -0.601  -2.446  1.00  0.00    -0.269 OA
BRANCH  20  22
ATOM     22  C   UNL     1      -9.666  -1.879  -0.496  1.00  0.00     0.451 C 
ATOM     23  F   UNL     1     -10.292  -0.682  -0.607  1.00  0.00    -0.185 F 
ATOM     24  F   UNL     1     -10.004  -2.628  -1.575  1.00  0.00    -0.185 F 
ENDBRANCH  20  22
ENDBRANCH  14  15
ENDBRANCH   7   9
ENDBRANCH   4   7
ENDBRANCH   2   3
ENDBRANCH   1   2
BRANCH   1  25
ATOM     25  C   UNL     1       4.994  -1.901   1.843  1.00  0.00     0.023 C 
BRANCH  25  26
ATOM     26  C   UNL     1       5.980  -2.893   1.240  1.00  0.00     0.116 C 
BRANCH  26  27
ATOM     27  N   UNL     1       6.932  -2.255   0.348  1.00  0.00    -0.352 N 
ATOM     28  C   UNL     1       8.286  -2.444   0.239  1.00  0.00     0.251 C 
ATOM     29  H   UNL     1       6.550  -1.589  -0.269  1.00  0.00     0.163 HD
ATOM     30  O   UNL     1       8.941  -1.677  -0.467  1.00  0.00    -0.269 OA
BRANCH  28  31
ATOM     31  C   UNL     1       8.955  -3.530   0.986  1.00  0.00     0.039 A 
ATOM     32  C   UNL     1      10.192  -3.265   1.577  1.00  0.00     0.014 A 
ATOM     33  C   UNL     1       8.383  -4.801   1.103  1.00  0.00     0.014 A 
ATOM     34  C   UNL     1      10.826  -4.256   2.327  1.00  0.00     0.010 A 
ATOM     35  C   UNL     1       8.978  -5.762   1.920  1.00  0.00     0.010 A 
ATOM     36  C   UNL     1      10.209  -5.501   2.538  1.00  0.00    -0.014 A 
BRANCH  36  37
ATOM     37  C   UNL     1      10.849  -6.516   3.416  1.00  0.00     0.031 A 
ATOM     38  C   UNL     1      11.305  -7.838   2.860  1.00  0.00     0.074 A 
ATOM     39  C   UNL     1      11.011  -6.240   4.726  1.00  0.00     0.049 A 
ATOM     40  N   UNL     1      11.910  -8.825   3.470  1.00  0.00    -0.248 NA
ATOM     41  C   UNL     1      11.024  -8.095   1.439  1.00  0.00     0.031 C 
ATOM     42  C   UNL     1      10.553  -5.016   5.391  1.00  0.00     0.029 A 
ATOM     43  N   UNL     1      11.607  -6.957   5.731  1.00  0.00    -0.354 N 
ATOM     44  C   UNL     1      12.093  -9.813   2.508  1.00  0.00     0.074 A 
ATOM     45  C   UNL     1      11.463  -9.336   1.295  1.00  0.00     0.031 C 
ATOM     46  C   UNL     1      10.923  -5.052   6.681  1.00  0.00     0.029 A 
ATOM     47  C   UNL     1      11.602  -6.314   6.948  1.00  0.00     0.049 A 
ATOM     48  H   UNL     1      12.003  -7.849   5.595  1.00  0.00     0.167 HD
ATOM     49  C   UNL     1      12.754 -10.993   2.617  1.00  0.00     0.034 A 
ATOM     50  C   UNL     1      12.086  -6.699   8.146  1.00  0.00     0.034 A 
ATOM     51  C   UNL     1      13.370 -11.458   3.837  1.00  0.00     0.049 A 
ATOM     52  C   UNL     1      12.800  -8.024   8.244  1.00  0.00     0.074 A 
ATOM     53  C   UNL     1      14.086 -12.623   4.052  1.00  0.00     0.029 A 
ATOM     54  N   UNL     1      13.341 -10.784   5.052  1.00  0.00    -0.354 N 
ATOM     55  N   UNL     1      13.015  -8.919   7.306  1.00  0.00    -0.248 NA
ATOM     56  C   UNL     1      13.353  -8.379   9.555  1.00  0.00     0.031 C 
ATOM     57  C   UNL     1      14.428 -12.687   5.407  1.00  0.00     0.029 A 
ATOM     58  C   UNL     1      14.001 -11.522   6.024  1.00  0.00     0.049 A 
ATOM     59  H   UNL     1      12.913  -9.910   5.202  1.00  0.00     0.167 HD
ATOM     60  C   UNL     1      13.750  -9.933   7.915  1.00  0.00     0.074 A 
ATOM     61  C   UNL     1      13.973  -9.516   9.284  1.00  0.00     0.031 C 
ATOM     62  C   UNL     1      14.195 -11.106   7.394  1.00  0.00     0.034 A 
BRANCH  49  63
ATOM     63  C   UNL     1      12.831 -11.864   1.384  1.00  0.00     0.023 A 
ATOM     64  C   UNL     1      13.492 -11.432   0.220  1.00  0.00     0.031 A 
ATOM     65  C   UNL     1      12.234 -13.137   1.365  1.00  0.00     0.131 A 
ATOM     66  C   UNL     1      13.486 -12.235  -0.931  1.00  0.00     0.055 A 
ATOM     67  C   UNL     1      12.301 -13.965   0.242  1.00  0.00     0.041 A 
ATOM     68  F   UNL     1      11.569 -13.596   2.436  1.00  0.00    -0.206 F 
ATOM     69  C   UNL     1      12.919 -13.511  -0.919  1.00  0.00     0.022 A 
BRANCH  66  70
ATOM     70  S   UNL     1      14.113 -11.532  -2.481  1.00  0.00     0.124 S 
ATOM     71  O   UNL     1      13.233 -10.379  -2.659  1.00  0.00    -0.237 OA
ATOM     72  O   UNL     1      15.502 -11.232  -2.153  1.00  0.00    -0.237 OA
ATOM     73  O   UNL     1      13.918 -12.610  -3.449  1.00  0.00    -0.744 OA
ENDBRANCH  66  70
ENDBRANCH  49  63
BRANCH  50  74
ATOM     74  C   UNL     1      11.905  -5.837   9.351  1.00  0.00     0.023 A 
ATOM     75  C   UNL     1      13.007  -5.317  10.050  1.00  0.00     0.031 A 
ATOM     76  C   UNL     1      10.620  -5.569   9.858  1.00  0.00     0.131 A 
ATOM     77  C   UNL     1      12.807  -4.612  11.248  1.00  0.00     0.055 A 
ATOM     78  C   UNL     1      10.424  -4.811  11.013  1.00  0.00     0.041 A 
ATOM     79  F   UNL     1       9.531  -6.038   9.228  1.00  0.00    -0.206 F 
ATOM     80  C   UNL     1      11.523  -4.343  11.726  1.00  0.00     0.022 A 
BRANCH  77  81
ATOM     81  S   UNL     1      14.257  -4.149  12.236  1.00  0.00     0.124 S 
ATOM     82  O   UNL     1      14.907  -5.440  12.432  1.00  0.00    -0.237 OA
ATOM     83  O   UNL     1      14.940  -3.214  11.349  1.00  0.00    -0.237 OA
ATOM     84  O   UNL     1      13.673  -3.554  13.436  1.00  0.00    -0.744 OA
ENDBRANCH  77  81
ENDBRANCH  50  74
BRANCH  62  85
ATOM     85  C   UNL     1      14.990 -12.000   8.318  1.00  0.00     0.023 A 
ATOM     86  C   UNL     1      14.419 -12.551   9.479  1.00  0.00     0.031 A 
ATOM     87  C   UNL     1      16.349 -12.259   8.066  1.00  0.00     0.131 A 
ATOM     88  C   UNL     1      15.222 -13.254  10.389  1.00  0.00     0.055 A 
ATOM     89  C   UNL     1      17.124 -13.028   8.935  1.00  0.00     0.041 A 
ATOM     90  F   UNL     1      16.951 -11.759   6.975  1.00  0.00    -0.206 F 
ATOM     91  C   UNL     1      16.567 -13.512  10.116  1.00  0.00     0.022 A 
BRANCH  88  92
ATOM     92  S   UNL     1      14.520 -13.698  12.001  1.00  0.00     0.124 S 
ATOM     93  O   UNL     1      14.079 -12.402  12.506  1.00  0.00    -0.237 OA
ATOM     94  O   UNL     1      13.461 -14.632  11.633  1.00  0.00    -0.237 OA
ATOM     95  O   UNL     1      15.649 -14.291  12.715  1.00  0.00    -0.744 OA
ENDBRANCH  88  92
ENDBRANCH  62  85
ENDBRANCH  36  37
ENDBRANCH  28  31
ENDBRANCH  26  27
ENDBRANCH  25  26
ENDBRANCH   1  25
TORSDOF 17
