REMARK SMILES C[C@@H]1[C@H](C(=O)NCCCCNC(=O)c2ccc(-c3c4nc(c(-c5cc(S(=O)(=O)[O-])ccc5F)c5ccc([nH]5)c(-c5cc(S(=O)(=O)[O-])ccc5F)c5nc(c(-c6cc(S(=O)(=O)[O-])ccc6F)c6ccc3[nH]6)C=C5)C=C4)cc2)CCN1C(=O)[C@H]([NH3+])CCS(C)(=O)=O
REMARK SMILES IDX 7 1 6 2 4 3 5 4 3 6 1 7 2 8 79 9 77 10 78 11 80 12 81 13
REMARK SMILES IDX 82 14 84 15 85 16 86 17 87 18 88 19 89 20 83 21 8 25 9 26
REMARK SMILES IDX 10 27 11 28 12 29 13 31 14 32 15 33 76 34 16 35 75 36 17 37
REMARK SMILES IDX 18 38 19 39 69 40 20 41 74 42 68 43 70 44 21 45 73 46 67 47
REMARK SMILES IDX 66 48 22 50 54 51 34 52 53 53 35 54 38 55 52 56 71 57 36 58
REMARK SMILES IDX 37 59 51 61 72 62 39 63 23 64 24 65 32 66 25 67 31 68 33 69
REMARK SMILES IDX 30 70 26 71 27 72 28 73 29 74 55 75 56 76 64 77 57 78 63 79
REMARK SMILES IDX 65 80 62 81 58 82 59 83 60 84 61 85 40 86 41 87 49 88 42 89
REMARK SMILES IDX 48 90 50 91 47 92 43 93 44 94 45 95 46 96
REMARK H PARENT 6 5 83 22 83 23 83 24 11 30 70 49 38 60
REMARK Flexibility Score: inf
ROOT
ATOM      1  C   UNL     1       1.704  -6.447  -5.574  1.00  0.00     0.116 C 
ENDROOT
BRANCH   1   2
ATOM      2  N   UNL     1       0.251  -6.428  -5.649  1.00  0.00    -0.356 N 
ATOM      3  C   UNL     1      -0.679  -5.486  -5.335  1.00  0.00     0.225 C 
ATOM      4  O   UNL     1      -1.863  -5.804  -5.490  1.00  0.00    -0.275 OA
ATOM      5  H   UNL     1      -0.136  -7.263  -5.996  1.00  0.00     0.163 HD
BRANCH   3   6
ATOM      6  C   UNL     1      -0.357  -4.097  -4.789  1.00  0.00     0.102 C 
ATOM      7  C   UNL     1       0.774  -5.231  -2.764  1.00  0.00     0.032 C 
ATOM      8  C   UNL     1       0.117  -3.983  -3.323  1.00  0.00     0.094 C 
ATOM      9  N   UNL     1       1.012  -2.813  -3.318  1.00  0.00    -0.334 N 
ATOM     10  C   UNL     1       0.598  -3.256  -5.629  1.00  0.00     0.037 C 
ATOM     11  C   UNL     1       1.180  -2.254  -4.650  1.00  0.00     0.121 C 
BRANCH   9  12
ATOM     12  C   UNL     1       1.557  -2.129  -2.245  1.00  0.00     0.281 C 
ATOM     13  O   UNL     1       2.235  -1.111  -2.424  1.00  0.00    -0.268 OA
BRANCH  12  14
ATOM     14  C   UNL     1       1.252  -2.607  -0.803  1.00  0.00     0.272 C 
BRANCH  14  15
ATOM     15  C   UNL     1       2.496  -2.459   0.085  1.00  0.00     0.091 C 
BRANCH  15  16
ATOM     16  C   UNL     1       2.375  -3.091   1.471  1.00  0.00     0.143 C 
BRANCH  16  17
ATOM     17  S   UNL     1       2.350  -4.880   1.526  1.00  0.00     0.147 S 
ATOM     18  C   UNL     1       3.787  -5.400   0.614  1.00  0.00     0.158 C 
ATOM     19  O   UNL     1       2.566  -5.265   2.909  1.00  0.00    -0.229 OA
ATOM     20  O   UNL     1       1.182  -5.360   0.816  1.00  0.00    -0.229 OA
ENDBRANCH  16  17
ENDBRANCH  15  16
ENDBRANCH  14  15
BRANCH  14  21
ATOM     21  N   UNL     1       0.115  -1.850  -0.249  1.00  0.00    -0.347 N 
ATOM     22  H   UNL     1       0.351  -0.858  -0.216  1.00  0.00     0.345 HD
ATOM     23  H   UNL     1      -0.088  -2.183   0.693  1.00  0.00     0.345 HD
ATOM     24  H   UNL     1      -0.704  -1.985  -0.841  1.00  0.00     0.345 HD
ENDBRANCH  14  21
ENDBRANCH  12  14
ENDBRANCH   9  12
ENDBRANCH   3   6
ENDBRANCH   1   2
BRANCH   1  25
ATOM     25  C   UNL     1       2.241  -7.470  -4.567  1.00  0.00     0.023 C 
BRANCH  25  26
ATOM     26  C   UNL     1       2.138  -8.927  -4.981  1.00  0.00     0.023 C 
BRANCH  26  27
ATOM     27  C   UNL     1       2.932  -9.282  -6.222  1.00  0.00     0.116 C 
BRANCH  27  28
ATOM     28  N   UNL     1       4.343  -8.930  -6.120  1.00  0.00    -0.352 N 
ATOM     29  C   UNL     1       5.445  -9.706  -6.400  1.00  0.00     0.251 C 
ATOM     30  H   UNL     1       4.533  -8.016  -5.809  1.00  0.00     0.163 HD
ATOM     31  O   UNL     1       6.568  -9.304  -6.128  1.00  0.00    -0.269 OA
BRANCH  29  32
ATOM     32  C   UNL     1       5.234 -11.040  -6.997  1.00  0.00     0.039 A 
ATOM     33  C   UNL     1       5.881 -12.147  -6.446  1.00  0.00     0.014 A 
ATOM     34  C   UNL     1       4.328 -11.195  -8.048  1.00  0.00     0.014 A 
ATOM     35  C   UNL     1       5.557 -13.425  -6.905  1.00  0.00     0.010 A 
ATOM     36  C   UNL     1       3.927 -12.468  -8.422  1.00  0.00     0.010 A 
ATOM     37  C   UNL     1       4.549 -13.596  -7.867  1.00  0.00    -0.014 A 
BRANCH  37  38
ATOM     38  C   UNL     1       4.155 -14.939  -8.359  1.00  0.00     0.031 A 
ATOM     39  C   UNL     1       4.322 -15.261  -9.819  1.00  0.00     0.074 A 
ATOM     40  C   UNL     1       3.573 -15.822  -7.524  1.00  0.00     0.049 A 
ATOM     41  N   UNL     1       3.923 -16.308 -10.491  1.00  0.00    -0.248 NA
ATOM     42  C   UNL     1       4.981 -14.234 -10.643  1.00  0.00     0.031 C 
ATOM     43  C   UNL     1       3.307 -15.597  -6.101  1.00  0.00     0.029 A 
ATOM     44  N   UNL     1       3.089 -17.084  -7.755  1.00  0.00    -0.354 N 
ATOM     45  C   UNL     1       4.252 -16.051 -11.818  1.00  0.00     0.074 A 
ATOM     46  C   UNL     1       4.808 -14.717 -11.862  1.00  0.00     0.031 C 
ATOM     47  C   UNL     1       2.737 -16.697  -5.581  1.00  0.00     0.029 A 
ATOM     48  C   UNL     1       2.558 -17.686  -6.638  1.00  0.00     0.049 A 
ATOM     49  H   UNL     1       3.119 -17.518  -8.638  1.00  0.00     0.167 HD
ATOM     50  C   UNL     1       4.133 -16.866 -12.896  1.00  0.00     0.034 A 
ATOM     51  C   UNL     1       1.990 -18.899  -6.490  1.00  0.00     0.034 A 
ATOM     52  C   UNL     1       3.612 -18.207 -12.819  1.00  0.00     0.049 A 
ATOM     53  C   UNL     1       1.893 -19.802  -7.694  1.00  0.00     0.074 A 
ATOM     54  C   UNL     1       3.492 -19.148 -13.826  1.00  0.00     0.029 A 
ATOM     55  N   UNL     1       3.127 -18.802 -11.660  1.00  0.00    -0.354 N 
ATOM     56  N   UNL     1       2.246 -19.564  -8.936  1.00  0.00    -0.248 NA
ATOM     57  C   UNL     1       1.336 -21.142  -7.471  1.00  0.00     0.031 C 
ATOM     58  C   UNL     1       2.892 -20.292 -13.287  1.00  0.00     0.029 A 
ATOM     59  C   UNL     1       2.697 -20.091 -11.930  1.00  0.00     0.049 A 
ATOM     60  H   UNL     1       3.095 -18.370 -10.776  1.00  0.00     0.167 HD
ATOM     61  C   UNL     1       1.986 -20.738  -9.636  1.00  0.00     0.074 A 
ATOM     62  C   UNL     1       1.456 -21.684  -8.674  1.00  0.00     0.031 C 
ATOM     63  C   UNL     1       2.171 -21.015 -10.952  1.00  0.00     0.034 A 
BRANCH  50  64
ATOM     64  C   UNL     1       4.563 -16.308 -14.232  1.00  0.00     0.023 A 
ATOM     65  C   UNL     1       5.885 -15.888 -14.464  1.00  0.00     0.031 A 
ATOM     66  C   UNL     1       3.628 -16.130 -15.267  1.00  0.00     0.131 A 
ATOM     67  C   UNL     1       6.211 -15.219 -15.653  1.00  0.00     0.055 A 
ATOM     68  C   UNL     1       3.982 -15.549 -16.487  1.00  0.00     0.041 A 
ATOM     69  F   UNL     1       2.346 -16.490 -15.100  1.00  0.00    -0.206 F 
ATOM     70  C   UNL     1       5.275 -15.070 -16.678  1.00  0.00     0.022 A 
BRANCH  67  71
ATOM     71  S   UNL     1       7.822 -14.393 -15.764  1.00  0.00     0.124 S 
ATOM     72  O   UNL     1       7.746 -13.451 -14.649  1.00  0.00    -0.237 OA
ATOM     73  O   UNL     1       8.757 -15.500 -15.602  1.00  0.00    -0.237 OA
ATOM     74  O   UNL     1       7.802 -13.779 -17.090  1.00  0.00    -0.744 OA
ENDBRANCH  67  71
ENDBRANCH  50  64
BRANCH  51  75
ATOM     75  C   UNL     1       1.484 -19.340  -5.160  1.00  0.00     0.023 A 
ATOM     76  C   UNL     1       2.096 -20.402  -4.474  1.00  0.00     0.031 A 
ATOM     77  C   UNL     1       0.366 -18.730  -4.568  1.00  0.00     0.131 A 
ATOM     78  C   UNL     1       1.560 -20.851  -3.258  1.00  0.00     0.055 A 
ATOM     79  C   UNL     1      -0.137 -19.151  -3.334  1.00  0.00     0.041 A 
ATOM     80  F   UNL     1      -0.249 -17.703  -5.176  1.00  0.00    -0.206 F 
ATOM     81  C   UNL     1       0.454 -20.226  -2.678  1.00  0.00     0.022 A 
BRANCH  78  82
ATOM     82  S   UNL     1       2.291 -22.317  -2.477  1.00  0.00     0.124 S 
ATOM     83  O   UNL     1       2.130 -23.322  -3.522  1.00  0.00    -0.237 OA
ATOM     84  O   UNL     1       3.656 -21.872  -2.219  1.00  0.00    -0.237 OA
ATOM     85  O   UNL     1       1.466 -22.515  -1.287  1.00  0.00    -0.744 OA
ENDBRANCH  78  82
ENDBRANCH  51  75
BRANCH  63  86
ATOM     86  C   UNL     1       1.850 -22.416 -11.406  1.00  0.00     0.023 A 
ATOM     87  C   UNL     1       0.532 -22.900 -11.435  1.00  0.00     0.031 A 
ATOM     88  C   UNL     1       2.885 -23.279 -11.805  1.00  0.00     0.131 A 
ATOM     89  C   UNL     1       0.287 -24.231 -11.803  1.00  0.00     0.055 A 
ATOM     90  C   UNL     1       2.631 -24.584 -12.225  1.00  0.00     0.041 A 
ATOM     91  F   UNL     1       4.162 -22.864 -11.796  1.00  0.00    -0.206 F 
ATOM     92  C   UNL     1       1.327 -25.071 -12.213  1.00  0.00     0.022 A 
BRANCH  89  93
ATOM     93  S   UNL     1      -1.400 -24.879 -11.657  1.00  0.00     0.124 S 
ATOM     94  O   UNL     1      -1.686 -24.665 -10.242  1.00  0.00    -0.237 OA
ATOM     95  O   UNL     1      -2.140 -24.036 -12.591  1.00  0.00    -0.237 OA
ATOM     96  O   UNL     1      -1.267 -26.278 -12.058  1.00  0.00    -0.744 OA
ENDBRANCH  89  93
ENDBRANCH  63  86
ENDBRANCH  37  38
ENDBRANCH  29  32
ENDBRANCH  27  28
ENDBRANCH  26  27
ENDBRANCH  25  26
ENDBRANCH   1  25
TORSDOF 20
