REMARK SMILES O=C(NCCCCNC(=O)c1ccc(-c2c3nc(c(-c4cc(S(=O)(=O)[O-])ccc4F)c4ccc([nH]4)c(-c4cc(S(=O)(=O)[O-])ccc4F)c4nc(c(-c5cc(S(=O)(=O)[O-])ccc5F)c5ccc2[nH]5)C=C4)C=C3)cc1)c1ccc(/C=N/NC(=O)c2cccc3ccccc23)cc1
REMARK SMILES IDX 5 1 4 2 3 3 1 4 2 5 74 7 75 8 94 9 76 10 93 11 77 12 78 13
REMARK SMILES IDX 79 14 80 15 81 16 82 18 83 19 84 20 92 21 85 22 87 23 91 24
REMARK SMILES IDX 86 25 88 26 90 27 89 28 6 29 7 30 8 31 9 32 10 34 11 35
REMARK SMILES IDX 12 36 73 37 13 38 72 39 14 40 15 41 16 42 66 43 17 44 71 45
REMARK SMILES IDX 65 46 67 47 18 48 70 49 64 50 63 51 19 53 51 54 31 55 50 56
REMARK SMILES IDX 32 57 35 58 49 59 68 60 33 61 34 62 48 64 69 65 36 66 20 67
REMARK SMILES IDX 21 68 29 69 22 70 28 71 30 72 27 73 23 74 24 75 25 76 26 77
REMARK SMILES IDX 52 78 53 79 61 80 54 81 60 82 62 83 59 84 55 85 56 86 57 87
REMARK SMILES IDX 58 88 37 89 38 90 46 91 39 92 45 93 47 94 44 95 40 96 41 97
REMARK SMILES IDX 42 98 43 99
REMARK H PARENT 3 6 80 17 8 33 67 52 35 63
REMARK Flexibility Score: inf
ROOT
ATOM      1  C   UNL     1       4.968  -2.332  -0.996  1.00  0.00     0.023 C 
ENDROOT
BRANCH   1   2
ATOM      2  C   UNL     1       4.595  -0.853  -0.981  1.00  0.00     0.116 C 
BRANCH   2   3
ATOM      3  N   UNL     1       3.159  -0.626  -1.056  1.00  0.00    -0.352 N 
ATOM      4  O   UNL     1       1.134   0.118  -0.379  1.00  0.00    -0.269 OA
ATOM      5  C   UNL     1       2.354   0.137  -0.247  1.00  0.00     0.251 C 
ATOM      6  H   UNL     1       2.698  -1.087  -1.794  1.00  0.00     0.163 HD
BRANCH   5   7
ATOM      7  C   UNL     1       2.953   0.957   0.826  1.00  0.00     0.039 A 
ATOM      8  C   UNL     1       4.035   1.808   0.570  1.00  0.00     0.014 A 
ATOM      9  C   UNL     1       2.428   0.841   2.118  1.00  0.00     0.014 A 
ATOM     10  C   UNL     1       4.677   2.442   1.631  1.00  0.00     0.010 A 
ATOM     11  C   UNL     1       3.041   1.509   3.176  1.00  0.00     0.010 A 
ATOM     12  C   UNL     1       4.184   2.274   2.928  1.00  0.00    -0.005 A 
BRANCH  12  13
ATOM     13  C   UNL     1       4.945   2.769   4.083  1.00  0.00     0.141 C 
ATOM     14  N   UNL     1       6.235   2.736   4.049  1.00  0.00    -0.180 NA
BRANCH  14  15
ATOM     15  N   UNL     1       6.949   2.977   5.176  1.00  0.00    -0.243 N 
ATOM     16  C   UNL     1       6.718   2.657   6.500  1.00  0.00     0.271 C 
ATOM     17  H   UNL     1       7.787   3.472   5.023  1.00  0.00     0.194 HD
ATOM     18  O   UNL     1       7.561   2.977   7.344  1.00  0.00    -0.267 OA
BRANCH  16  19
ATOM     19  C   UNL     1       5.490   1.985   6.990  1.00  0.00     0.049 A 
ATOM     20  C   UNL     1       4.834   2.682   8.022  1.00  0.00     0.014 A 
ATOM     21  C   UNL     1       5.023   0.707   6.567  1.00  0.00    -0.006 A 
ATOM     22  C   UNL     1       3.725   2.136   8.655  1.00  0.00     0.001 A 
ATOM     23  C   UNL     1       3.891   0.165   7.237  1.00  0.00    -0.018 A 
ATOM     24  C   UNL     1       5.590  -0.073   5.529  1.00  0.00     0.009 A 
ATOM     25  C   UNL     1       3.269   0.880   8.272  1.00  0.00     0.009 A 
ATOM     26  C   UNL     1       3.382  -1.090   6.870  1.00  0.00     0.009 A 
ATOM     27  C   UNL     1       5.034  -1.296   5.138  1.00  0.00     0.001 A 
ATOM     28  C   UNL     1       3.938  -1.810   5.816  1.00  0.00     0.001 A 
ENDBRANCH  16  19
ENDBRANCH  14  15
ENDBRANCH  12  13
ENDBRANCH   5   7
ENDBRANCH   2   3
ENDBRANCH   1   2
BRANCH   1  29
ATOM     29  C   UNL     1       4.525  -3.108  -2.233  1.00  0.00     0.023 C 
BRANCH  29  30
ATOM     30  C   UNL     1       4.928  -2.493  -3.567  1.00  0.00     0.116 C 
BRANCH  30  31
ATOM     31  N   UNL     1       6.370  -2.397  -3.740  1.00  0.00    -0.352 N 
ATOM     32  C   UNL     1       7.147  -2.861  -4.778  1.00  0.00     0.251 C 
ATOM     33  H   UNL     1       6.856  -1.939  -3.016  1.00  0.00     0.163 HD
ATOM     34  O   UNL     1       8.370  -2.813  -4.702  1.00  0.00    -0.269 OA
BRANCH  32  35
ATOM     35  C   UNL     1       6.488  -3.452  -5.963  1.00  0.00     0.039 A 
ATOM     36  C   UNL     1       6.894  -4.710  -6.412  1.00  0.00     0.014 A 
ATOM     37  C   UNL     1       5.427  -2.789  -6.585  1.00  0.00     0.014 A 
ATOM     38  C   UNL     1       6.176  -5.345  -7.430  1.00  0.00     0.010 A 
ATOM     39  C   UNL     1       4.668  -3.455  -7.542  1.00  0.00     0.010 A 
ATOM     40  C   UNL     1       5.028  -4.744  -7.970  1.00  0.00    -0.014 A 
BRANCH  40  41
ATOM     41  C   UNL     1       4.179  -5.432  -8.981  1.00  0.00     0.031 A 
ATOM     42  C   UNL     1       4.001  -4.816 -10.343  1.00  0.00     0.074 A 
ATOM     43  C   UNL     1       3.494  -6.546  -8.644  1.00  0.00     0.049 A 
ATOM     44  N   UNL     1       3.188  -5.161 -11.307  1.00  0.00    -0.248 NA
ATOM     45  C   UNL     1       4.826  -3.636 -10.647  1.00  0.00     0.031 C 
ATOM     46  C   UNL     1       3.561  -7.223  -7.347  1.00  0.00     0.029 A 
ATOM     47  N   UNL     1       2.588  -7.294  -9.357  1.00  0.00    -0.354 N 
ATOM     48  C   UNL     1       3.377  -4.222 -12.316  1.00  0.00     0.074 A 
ATOM     49  C   UNL     1       4.355  -3.272 -11.831  1.00  0.00     0.031 C 
ATOM     50  C   UNL     1       2.743  -8.289  -7.362  1.00  0.00     0.029 A 
ATOM     51  C   UNL     1       2.046  -8.341  -8.643  1.00  0.00     0.049 A 
ATOM     52  H   UNL     1       2.347  -7.100 -10.291  1.00  0.00     0.167 HD
ATOM     53  C   UNL     1       2.795  -4.165 -13.538  1.00  0.00     0.034 A 
ATOM     54  C   UNL     1       1.079  -9.223  -8.972  1.00  0.00     0.034 A 
ATOM     55  C   UNL     1       1.852  -5.142 -14.023  1.00  0.00     0.049 A 
ATOM     56  C   UNL     1       0.436  -9.123 -10.337  1.00  0.00     0.074 A 
ATOM     57  C   UNL     1       1.272  -5.225 -15.277  1.00  0.00     0.029 A 
ATOM     58  N   UNL     1       1.345  -6.198 -13.279  1.00  0.00    -0.354 N 
ATOM     59  N   UNL     1       0.675  -8.265 -11.302  1.00  0.00    -0.248 NA
ATOM     60  C   UNL     1      -0.601 -10.113 -10.661  1.00  0.00     0.031 C 
ATOM     61  C   UNL     1       0.358  -6.282 -15.267  1.00  0.00     0.029 A 
ATOM     62  C   UNL     1       0.431  -6.913 -14.036  1.00  0.00     0.049 A 
ATOM     63  H   UNL     1       1.597  -6.408 -12.350  1.00  0.00     0.167 HD
ATOM     64  C   UNL     1      -0.148  -8.645 -12.359  1.00  0.00     0.074 A 
ATOM     65  C   UNL     1      -0.883  -9.810 -11.919  1.00  0.00     0.031 C 
ATOM     66  C   UNL     1      -0.281  -8.085 -13.588  1.00  0.00     0.034 A 
BRANCH  53  67
ATOM     67  C   UNL     1       3.132  -2.998 -14.431  1.00  0.00     0.023 A 
ATOM     68  C   UNL     1       4.423  -2.806 -14.951  1.00  0.00     0.031 A 
ATOM     69  C   UNL     1       2.132  -2.075 -14.788  1.00  0.00     0.131 A 
ATOM     70  C   UNL     1       4.690  -1.691 -15.761  1.00  0.00     0.055 A 
ATOM     71  C   UNL     1       2.387  -1.010 -15.652  1.00  0.00     0.041 A 
ATOM     72  F   UNL     1       0.886  -2.197 -14.302  1.00  0.00    -0.206 F 
ATOM     73  C   UNL     1       3.675  -0.808 -16.137  1.00  0.00     0.022 A 
BRANCH  70  74
ATOM     74  S   UNL     1       6.408  -1.354 -16.234  1.00  0.00     0.124 S 
ATOM     75  O   UNL     1       7.040  -1.160 -14.931  1.00  0.00    -0.237 OA
ATOM     76  O   UNL     1       6.783  -2.567 -16.951  1.00  0.00    -0.237 OA
ATOM     77  O   UNL     1       6.307  -0.149 -17.056  1.00  0.00    -0.744 OA
ENDBRANCH  70  74
ENDBRANCH  53  67
BRANCH  54  78
ATOM     78  C   UNL     1       0.621 -10.264  -8.002  1.00  0.00     0.023 A 
ATOM     79  C   UNL     1       0.725 -11.630  -8.309  1.00  0.00     0.031 A 
ATOM     80  C   UNL     1      -0.017  -9.910  -6.799  1.00  0.00     0.131 A 
ATOM     81  C   UNL     1       0.133 -12.586  -7.468  1.00  0.00     0.055 A 
ATOM     82  C   UNL     1      -0.542 -10.869  -5.930  1.00  0.00     0.041 A 
ATOM     83  F   UNL     1      -0.147  -8.620  -6.452  1.00  0.00    -0.206 F 
ATOM     84  C   UNL     1      -0.487 -12.216  -6.273  1.00  0.00     0.022 A 
BRANCH  81  85
ATOM     85  S   UNL     1       0.059 -14.309  -8.033  1.00  0.00     0.124 S 
ATOM     86  O   UNL     1      -0.592 -14.166  -9.330  1.00  0.00    -0.237 OA
ATOM     87  O   UNL     1       1.471 -14.678  -8.060  1.00  0.00    -0.237 OA
ATOM     88  O   UNL     1      -0.738 -14.970  -7.003  1.00  0.00    -0.744 OA
ENDBRANCH  81  85
ENDBRANCH  54  78
BRANCH  66  89
ATOM     89  C   UNL     1      -1.196  -8.773 -14.571  1.00  0.00     0.023 A 
ATOM     90  C   UNL     1      -2.589  -8.817 -14.391  1.00  0.00     0.031 A 
ATOM     91  C   UNL     1      -0.656  -9.380 -15.720  1.00  0.00     0.131 A 
ATOM     92  C   UNL     1      -3.391  -9.492 -15.324  1.00  0.00     0.055 A 
ATOM     93  C   UNL     1      -1.465  -9.997 -16.674  1.00  0.00     0.041 A 
ATOM     94  F   UNL     1       0.668  -9.369 -15.941  1.00  0.00    -0.206 F 
ATOM     95  C   UNL     1      -2.840 -10.065 -16.473  1.00  0.00     0.022 A 
BRANCH  92  96
ATOM     96  S   UNL     1      -5.163  -9.673 -14.982  1.00  0.00     0.124 S 
ATOM     97  O   UNL     1      -5.155 -10.409 -13.722  1.00  0.00    -0.237 OA
ATOM     98  O   UNL     1      -5.611  -8.287 -14.906  1.00  0.00    -0.237 OA
ATOM     99  O   UNL     1      -5.660 -10.422 -16.134  1.00  0.00    -0.744 OA
ENDBRANCH  92  96
ENDBRANCH  66  89
ENDBRANCH  40  41
ENDBRANCH  32  35
ENDBRANCH  30  31
ENDBRANCH  29  30
ENDBRANCH   1  29
TORSDOF 17
