REMARK SMILES Cc1ccccc1NC(=S)NN1C(=O)CS[C@H]1c1ccccc1C(=O)NCCCCNC(=O)c1ccc(-c2c3nc(c(-c4cc(S(=O)(=O)[O-])ccc4F)c4ccc([nH]4)c(-c4cc(S(=O)(=O)[O-])ccc4F)c4nc(c(-c5cc(S(=O)(=O)[O-])ccc5F)c5ccc2[nH]5)C=C4)C=C3)cc1
REMARK SMILES IDX 27 1 26 2 24 3 25 4 23 6 18 7 19 8 20 9 22 10 21 11 17 12
REMARK SMILES IDX 12 13 13 14 14 15 15 16 16 17 11 18 9 20 10 21 8 22 7 24
REMARK SMILES IDX 1 25 2 26 3 27 4 28 6 29 5 30 28 31 29 32 30 33 31 34 32 35
REMARK SMILES IDX 33 37 34 38 35 39 96 40 36 41 95 42 37 43 38 44 39 45 89 46
REMARK SMILES IDX 40 47 94 48 88 49 90 50 41 51 93 52 87 53 86 54 42 56 74 57
REMARK SMILES IDX 54 58 73 59 55 60 58 61 72 62 91 63 56 64 57 65 71 67 92 68
REMARK SMILES IDX 59 69 43 70 44 71 52 72 45 73 51 74 53 75 50 76 46 77 47 78
REMARK SMILES IDX 48 79 49 80 75 81 76 82 84 83 77 84 83 85 85 86 82 87 78 88
REMARK SMILES IDX 79 89 80 90 81 91 60 92 61 93 69 94 62 95 68 96 70 97 67 98
REMARK SMILES IDX 63 99 64 100 65 101 66 102
REMARK H PARENT 26 5 11 19 8 23 31 36 90 55 58 66
REMARK Flexibility Score: inf
ROOT
ATOM      1  C   UNL     1      -3.295   2.946   0.466  1.00  0.00     0.116 C 
ENDROOT
BRANCH   1   2
ATOM      2  N   UNL     1      -2.505   4.138   1.246  1.00  0.00    -0.352 N 
ATOM      3  C   UNL     1      -2.470   5.479   1.027  1.00  0.00     0.251 C 
ATOM      4  O   UNL     1      -1.681   6.233   1.579  1.00  0.00    -0.269 OA
ATOM      5  H   UNL     1      -1.960   3.835   2.007  1.00  0.00     0.163 HD
BRANCH   3   6
ATOM      6  C   UNL     1      -3.508   5.983   0.139  1.00  0.00     0.046 A 
ATOM      7  C   UNL     1      -4.012   5.168  -0.884  1.00  0.00    -0.001 A 
ATOM      8  C   UNL     1      -5.343   5.462  -1.272  1.00  0.00     0.007 A 
ATOM      9  C   UNL     1      -6.058   6.550  -0.719  1.00  0.00     0.000 A 
ATOM     10  C   UNL     1      -4.161   7.143   0.604  1.00  0.00     0.014 A 
ATOM     11  C   UNL     1      -5.445   7.427   0.172  1.00  0.00     0.001 A 
BRANCH   7  12
ATOM     12  C   UNL     1      -3.212   3.891  -1.441  1.00  0.00     0.197 C 
ATOM     13  N   UNL     1      -1.601   3.330  -0.636  1.00  0.00    -0.236 N 
ATOM     14  C   UNL     1      -1.645   2.017   0.548  1.00  0.00     0.252 C 
ATOM     15  O   UNL     1      -0.779   2.076   1.411  1.00  0.00    -0.272 OA
ATOM     16  C   UNL     1      -3.421   0.963   0.454  1.00  0.00     0.174 C 
ATOM     17  S   UNL     1      -4.799   2.181  -1.089  1.00  0.00    -0.120 SA
BRANCH  13  18
ATOM     18  N   UNL     1      -0.269   3.886  -0.858  1.00  0.00    -0.270 N 
ATOM     19  H   UNL     1      -0.212   4.669  -1.452  1.00  0.00     0.191 HD
BRANCH  18  20
ATOM     20  C   UNL     1       0.946   3.420  -0.309  1.00  0.00     0.189 C 
ATOM     21  S   UNL     1       2.167   4.601  -0.148  1.00  0.00    -0.039 S 
BRANCH  20  22
ATOM     22  N   UNL     1       1.263   2.118   0.133  1.00  0.00    -0.331 N 
ATOM     23  H   UNL     1       1.983   2.089   0.803  1.00  0.00     0.169 HD
BRANCH  22  24
ATOM     24  C   UNL     1       0.716   0.782  -0.220  1.00  0.00     0.043 A 
ATOM     25  C   UNL     1       2.724   0.473  -2.031  1.00  0.00     0.046 C 
ATOM     26  C   UNL     1       1.233   0.280  -1.829  1.00  0.00    -0.028 A 
ATOM     27  C   UNL     1       0.256  -0.875  -2.791  1.00  0.00     0.005 A 
ATOM     28  C   UNL     1      -1.204  -1.674  -2.097  1.00  0.00     0.000 A 
ATOM     29  C   UNL     1      -0.711  -0.096   0.550  1.00  0.00     0.026 A 
ATOM     30  C   UNL     1      -1.736  -1.247  -0.423  1.00  0.00     0.002 A 
ENDBRANCH  22  24
ENDBRANCH  20  22
ENDBRANCH  18  20
ENDBRANCH  13  18
ENDBRANCH   7  12
ENDBRANCH   3   6
ENDBRANCH   1   2
BRANCH   1  31
ATOM     31  C   UNL     1      -2.513   1.645  -1.143  1.00  0.00     0.023 C 
BRANCH  31  32
ATOM     32  C   UNL     1      -0.991   0.393  -1.441  1.00  0.00     0.023 C 
BRANCH  32  33
ATOM     33  C   UNL     1       0.273  -1.278  -0.720  1.00  0.00     0.116 C 
BRANCH  33  34
ATOM     34  N   UNL     1      -0.116  -2.833  -0.143  1.00  0.00    -0.352 N 
ATOM     35  C   UNL     1       0.756  -3.924  -0.184  1.00  0.00     0.251 C 
ATOM     36  H   UNL     1      -1.011  -2.972   0.244  1.00  0.00     0.163 HD
ATOM     37  O   UNL     1       0.925  -4.702  -1.107  1.00  0.00    -0.269 OA
BRANCH  35  38
ATOM     38  C   UNL     1       1.542  -4.024   1.076  1.00  0.00     0.039 A 
ATOM     39  C   UNL     1       0.954  -4.722   2.140  1.00  0.00     0.014 A 
ATOM     40  C   UNL     1       2.247  -2.843   1.286  1.00  0.00     0.014 A 
ATOM     41  C   UNL     1       0.820  -4.074   3.362  1.00  0.00     0.010 A 
ATOM     42  C   UNL     1       1.898  -2.119   2.397  1.00  0.00     0.010 A 
ATOM     43  C   UNL     1       1.173  -2.731   3.425  1.00  0.00    -0.014 A 
BRANCH  43  44
ATOM     44  C   UNL     1       1.047  -1.897   4.599  1.00  0.00     0.031 A 
ATOM     45  C   UNL     1       2.297  -1.744   5.368  1.00  0.00     0.074 A 
ATOM     46  C   UNL     1      -0.095  -1.234   4.884  1.00  0.00     0.049 A 
ATOM     47  N   UNL     1       2.355  -1.311   6.571  1.00  0.00    -0.248 NA
ATOM     48  C   UNL     1       3.611  -2.158   4.852  1.00  0.00     0.031 C 
ATOM     49  C   UNL     1      -0.290  -0.182   5.880  1.00  0.00     0.029 A 
ATOM     50  N   UNL     1      -1.391  -1.584   4.492  1.00  0.00    -0.354 N 
ATOM     51  C   UNL     1       3.680  -1.093   6.858  1.00  0.00     0.074 A 
ATOM     52  C   UNL     1       4.422  -1.757   5.829  1.00  0.00     0.031 C 
ATOM     53  C   UNL     1      -1.581  -0.173   6.252  1.00  0.00     0.029 A 
ATOM     54  C   UNL     1      -2.219  -1.308   5.606  1.00  0.00     0.049 A 
ATOM     55  H   UNL     1      -1.670  -1.947   3.620  1.00  0.00     0.167 HD
ATOM     56  C   UNL     1       3.974  -0.233   7.861  1.00  0.00     0.034 A 
ATOM     57  C   UNL     1      -2.837  -2.333   6.264  1.00  0.00     0.034 A 
ATOM     58  C   UNL     1       2.787  -0.027   8.689  1.00  0.00     0.049 A 
ATOM     59  C   UNL     1      -2.330  -2.506   7.680  1.00  0.00     0.074 A 
ATOM     60  C   UNL     1       1.866   0.999   8.798  1.00  0.00     0.029 A 
ATOM     61  N   UNL     1       2.201  -1.146   9.278  1.00  0.00    -0.354 N 
ATOM     62  N   UNL     1      -1.206  -2.010   8.126  1.00  0.00    -0.248 NA
ATOM     63  C   UNL     1      -3.072  -3.220   8.713  1.00  0.00     0.031 C 
ATOM     64  C   UNL     1       0.664   0.437   9.325  1.00  0.00     0.029 A 
ATOM     65  C   UNL     1       0.880  -0.905   9.598  1.00  0.00     0.049 A 
ATOM     66  H   UNL     1       2.668  -1.996   9.444  1.00  0.00     0.167 HD
ATOM     67  C   UNL     1      -1.050  -2.327   9.452  1.00  0.00     0.074 A 
ATOM     68  C   UNL     1      -2.262  -3.065   9.774  1.00  0.00     0.031 C 
ATOM     69  C   UNL     1       0.060  -1.969  10.172  1.00  0.00     0.034 A 
BRANCH  56  70
ATOM     70  C   UNL     1       5.249   0.564   7.962  1.00  0.00     0.023 A 
ATOM     71  C   UNL     1       5.384   1.446   9.050  1.00  0.00     0.031 A 
ATOM     72  C   UNL     1       6.278   0.638   6.992  1.00  0.00     0.131 A 
ATOM     73  C   UNL     1       6.471   2.335   9.138  1.00  0.00     0.055 A 
ATOM     74  C   UNL     1       7.389   1.480   7.113  1.00  0.00     0.041 A 
ATOM     75  F   UNL     1       6.243  -0.040   5.839  1.00  0.00    -0.206 F 
ATOM     76  C   UNL     1       7.488   2.343   8.187  1.00  0.00     0.022 A 
BRANCH  73  77
ATOM     77  S   UNL     1       6.500   3.540  10.488  1.00  0.00     0.124 S 
ATOM     78  O   UNL     1       5.325   4.354  10.195  1.00  0.00    -0.237 OA
ATOM     79  O   UNL     1       6.420   2.685  11.667  1.00  0.00    -0.237 OA
ATOM     80  O   UNL     1       7.782   4.220  10.306  1.00  0.00    -0.744 OA
ENDBRANCH  73  77
ENDBRANCH  56  70
BRANCH  57  81
ATOM     81  C   UNL     1      -3.286  -3.405   5.323  1.00  0.00     0.023 A 
ATOM     82  C   UNL     1      -4.239  -3.019   4.354  1.00  0.00     0.031 A 
ATOM     83  C   UNL     1      -2.477  -4.512   5.035  1.00  0.00     0.131 A 
ATOM     84  C   UNL     1      -4.210  -3.585   3.070  1.00  0.00     0.055 A 
ATOM     85  C   UNL     1      -2.499  -5.117   3.768  1.00  0.00     0.041 A 
ATOM     86  F   UNL     1      -1.546  -4.923   5.908  1.00  0.00    -0.206 F 
ATOM     87  C   UNL     1      -3.322  -4.615   2.760  1.00  0.00     0.022 A 
BRANCH  84  88
ATOM     88  S   UNL     1      -5.133  -2.742   1.755  1.00  0.00     0.124 S 
ATOM     89  O   UNL     1      -6.511  -3.108   2.055  1.00  0.00    -0.237 OA
ATOM     90  O   UNL     1      -4.772  -1.345   1.987  1.00  0.00    -0.237 OA
ATOM     91  O   UNL     1      -4.579  -3.303   0.526  1.00  0.00    -0.744 OA
ENDBRANCH  84  88
ENDBRANCH  57  81
BRANCH  69  92
ATOM     92  C   UNL     1       0.451  -2.554  11.520  1.00  0.00     0.023 A 
ATOM     93  C   UNL     1      -0.158  -3.689  12.070  1.00  0.00     0.031 A 
ATOM     94  C   UNL     1       1.530  -2.026  12.275  1.00  0.00     0.131 A 
ATOM     95  C   UNL     1       0.209  -4.179  13.335  1.00  0.00     0.055 A 
ATOM     96  C   UNL     1       1.972  -2.586  13.478  1.00  0.00     0.041 A 
ATOM     97  F   UNL     1       2.217  -0.946  11.877  1.00  0.00    -0.206 F 
ATOM     98  C   UNL     1       1.293  -3.657  14.032  1.00  0.00     0.022 A 
BRANCH  95  99
ATOM     99  S   UNL     1      -0.844  -5.445  14.088  1.00  0.00     0.124 S 
ATOM    100  O   UNL     1      -2.127  -4.752  14.171  1.00  0.00    -0.237 OA
ATOM    101  O   UNL     1      -0.775  -6.530  13.115  1.00  0.00    -0.237 OA
ATOM    102  O   UNL     1      -0.199  -5.713  15.371  1.00  0.00    -0.744 OA
ENDBRANCH  95  99
ENDBRANCH  69  92
ENDBRANCH  43  44
ENDBRANCH  35  38
ENDBRANCH  33  34
ENDBRANCH  32  33
ENDBRANCH  31  32
ENDBRANCH   1  31
TORSDOF 19
