REMARK SMILES O=C(NCCCCNC(=O)[C@@H]1CN(C(=O)[C@H]2CC=CCC2)c2ccccc2O1)c1ccc(-c2c3nc(c(-c4cc(S(=O)(=O)[O-])ccc4F)c4ccc([nH]4)c(-c4cc(S(=O)(=O)[O-])ccc4F)c4nc(c(-c5cc(S(=O)(=O)[O-])ccc5F)c5ccc2[nH]5)C=C4)C=C3)cc1
REMARK SMILES IDX 5 1 4 2 3 3 1 4 2 5 29 7 30 8 91 9 31 10 90 11 32 12 33 13
REMARK SMILES IDX 34 14 84 15 35 16 89 17 83 18 85 19 36 20 88 21 82 22 81 23
REMARK SMILES IDX 37 25 69 26 49 27 68 28 50 29 53 30 67 31 86 32 51 33 52 34
REMARK SMILES IDX 66 36 87 37 54 38 38 39 39 40 47 41 40 42 46 43 48 44 45 45
REMARK SMILES IDX 41 46 42 47 43 48 44 49 70 50 71 51 79 52 72 53 78 54 80 55
REMARK SMILES IDX 77 56 73 57 74 58 75 59 76 60 55 61 56 62 64 63 57 64 63 65
REMARK SMILES IDX 65 66 62 67 58 68 59 69 60 70 61 71 6 72 7 73 8 74 9 75
REMARK SMILES IDX 10 77 11 78 12 79 28 80 13 81 27 82 22 83 26 84 23 85 25 86
REMARK SMILES IDX 24 87 14 88 15 89 16 90 17 91 21 92 18 93 20 94 19 95
REMARK H PARENT 3 6 85 24 53 35 8 76
REMARK Flexibility Score: inf
ROOT
ATOM      1  C   UNL     1       4.474   1.007  -1.956  1.00  0.00     0.023 C 
ENDROOT
BRANCH   1   2
ATOM      2  C   UNL     1       4.138   0.957  -0.488  1.00  0.00     0.116 C 
BRANCH   2   3
ATOM      3  N   UNL     1       2.704   0.837  -0.248  1.00  0.00    -0.352 N 
ATOM      4  O   UNL     1       0.842  -0.042   0.679  1.00  0.00    -0.269 OA
ATOM      5  C   UNL     1       2.055   0.059   0.695  1.00  0.00     0.251 C 
ATOM      6  H   UNL     1       2.124   1.379  -0.831  1.00  0.00     0.163 HD
BRANCH   5   7
ATOM      7  C   UNL     1       2.869  -0.674   1.698  1.00  0.00     0.039 A 
ATOM      8  C   UNL     1       4.030  -0.093   2.203  1.00  0.00     0.014 A 
ATOM      9  C   UNL     1       2.503  -1.961   2.104  1.00  0.00     0.014 A 
ATOM     10  C   UNL     1       4.929  -0.856   2.917  1.00  0.00     0.010 A 
ATOM     11  C   UNL     1       3.330  -2.669   2.986  1.00  0.00     0.010 A 
ATOM     12  C   UNL     1       4.560  -2.125   3.385  1.00  0.00    -0.014 A 
BRANCH  12  13
ATOM     13  C   UNL     1       5.447  -2.758   4.390  1.00  0.00     0.031 A 
ATOM     14  C   UNL     1       6.117  -4.074   4.133  1.00  0.00     0.074 A 
ATOM     15  C   UNL     1       5.703  -2.054   5.514  1.00  0.00     0.049 A 
ATOM     16  N   UNL     1       6.944  -4.733   4.902  1.00  0.00    -0.248 NA
ATOM     17  C   UNL     1       5.813  -4.746   2.862  1.00  0.00     0.031 C 
ATOM     18  C   UNL     1       5.088  -0.761   5.848  1.00  0.00     0.029 A 
ATOM     19  N   UNL     1       6.569  -2.276   6.549  1.00  0.00    -0.354 N 
ATOM     20  C   UNL     1       7.246  -5.908   4.222  1.00  0.00     0.074 A 
ATOM     21  C   UNL     1       6.488  -5.881   2.988  1.00  0.00     0.031 C 
ATOM     22  C   UNL     1       5.668  -0.263   6.945  1.00  0.00     0.029 A 
ATOM     23  C   UNL     1       6.600  -1.250   7.467  1.00  0.00     0.049 A 
ATOM     24  H   UNL     1       7.118  -3.089   6.630  1.00  0.00     0.167 HD
ATOM     25  C   UNL     1       8.081  -6.907   4.602  1.00  0.00     0.034 A 
ATOM     26  C   UNL     1       7.274  -1.129   8.625  1.00  0.00     0.034 A 
ATOM     27  C   UNL     1       8.819  -6.897   5.846  1.00  0.00     0.049 A 
ATOM     28  C   UNL     1       8.175  -2.261   9.025  1.00  0.00     0.074 A 
ATOM     29  C   UNL     1       9.673  -7.861   6.354  1.00  0.00     0.029 A 
ATOM     30  N   UNL     1       8.793  -5.864   6.779  1.00  0.00    -0.354 N 
ATOM     31  N   UNL     1       8.420  -3.382   8.384  1.00  0.00    -0.248 NA
ATOM     32  C   UNL     1       8.884  -2.119  10.298  1.00  0.00     0.031 C 
ATOM     33  C   UNL     1      10.115  -7.438   7.613  1.00  0.00     0.029 A 
ATOM     34  C   UNL     1       9.600  -6.176   7.863  1.00  0.00     0.049 A 
ATOM     35  H   UNL     1       8.275  -5.032   6.683  1.00  0.00     0.167 HD
ATOM     36  C   UNL     1       9.316  -4.081   9.181  1.00  0.00     0.074 A 
ATOM     37  C   UNL     1       9.602  -3.231  10.321  1.00  0.00     0.031 C 
ATOM     38  C   UNL     1       9.845  -5.318   9.000  1.00  0.00     0.034 A 
BRANCH  25  39
ATOM     39  C   UNL     1       8.195  -8.106   3.690  1.00  0.00     0.023 A 
ATOM     40  C   UNL     1       8.731  -8.005   2.393  1.00  0.00     0.031 A 
ATOM     41  C   UNL     1       7.741  -9.369   4.114  1.00  0.00     0.131 A 
ATOM     42  C   UNL     1       8.741  -9.126   1.548  1.00  0.00     0.055 A 
ATOM     43  C   UNL     1       7.824 -10.497   3.295  1.00  0.00     0.041 A 
ATOM     44  F   UNL     1       7.198  -9.526   5.331  1.00  0.00    -0.206 F 
ATOM     45  C   UNL     1       8.315 -10.377   1.998  1.00  0.00     0.022 A 
BRANCH  42  46
ATOM     46  S   UNL     1       9.200  -8.898  -0.192  1.00  0.00     0.124 S 
ATOM     47  O   UNL     1       8.190  -7.941  -0.639  1.00  0.00    -0.237 OA
ATOM     48  O   UNL     1      10.563  -8.391  -0.095  1.00  0.00    -0.237 OA
ATOM     49  O   UNL     1       9.071 -10.239  -0.759  1.00  0.00    -0.744 OA
ENDBRANCH  42  46
ENDBRANCH  25  39
BRANCH  26  50
ATOM     50  C   UNL     1       7.066   0.061   9.499  1.00  0.00     0.023 A 
ATOM     51  C   UNL     1       8.124   0.918   9.835  1.00  0.00     0.031 A 
ATOM     52  C   UNL     1       5.794   0.348  10.034  1.00  0.00     0.131 A 
ATOM     53  C   UNL     1       7.902   1.992  10.712  1.00  0.00     0.055 A 
ATOM     54  C   UNL     1       5.564   1.456  10.849  1.00  0.00     0.041 A 
ATOM     55  F   UNL     1       4.742  -0.437   9.747  1.00  0.00    -0.206 F 
ATOM     56  C   UNL     1       6.627   2.277  11.206  1.00  0.00     0.022 A 
BRANCH  53  57
ATOM     57  S   UNL     1       9.328   2.957  11.283  1.00  0.00     0.124 S 
ATOM     58  O   UNL     1      10.200   1.915  11.813  1.00  0.00    -0.237 OA
ATOM     59  O   UNL     1       9.771   3.598  10.049  1.00  0.00    -0.237 OA
ATOM     60  O   UNL     1       8.752   3.856  12.280  1.00  0.00    -0.744 OA
ENDBRANCH  53  57
ENDBRANCH  26  50
BRANCH  38  61
ATOM     61  C   UNL     1      10.800  -5.791  10.066  1.00  0.00     0.023 A 
ATOM     62  C   UNL     1      10.365  -6.032  11.381  1.00  0.00     0.031 A 
ATOM     63  C   UNL     1      12.167  -5.942   9.779  1.00  0.00     0.131 A 
ATOM     64  C   UNL     1      11.302  -6.332  12.380  1.00  0.00     0.055 A 
ATOM     65  C   UNL     1      13.084  -6.310  10.763  1.00  0.00     0.041 A 
ATOM     66  F   UNL     1      12.634  -5.719   8.540  1.00  0.00    -0.206 F 
ATOM     67  C   UNL     1      12.657  -6.488  12.076  1.00  0.00     0.022 A 
BRANCH  64  68
ATOM     68  S   UNL     1      10.742  -6.385  14.104  1.00  0.00     0.124 S 
ATOM     69  O   UNL     1      10.169  -5.054  14.277  1.00  0.00    -0.237 OA
ATOM     70  O   UNL     1       9.790  -7.491  14.089  1.00  0.00    -0.237 OA
ATOM     71  O   UNL     1      11.970  -6.634  14.855  1.00  0.00    -0.744 OA
ENDBRANCH  64  68
ENDBRANCH  38  61
ENDBRANCH  12  13
ENDBRANCH   5   7
ENDBRANCH   2   3
ENDBRANCH   1   2
BRANCH   1  72
ATOM     72  C   UNL     1       4.087   2.313  -2.652  1.00  0.00     0.023 C 
BRANCH  72  73
ATOM     73  C   UNL     1       5.208   3.143  -3.307  1.00  0.00     0.116 C 
BRANCH  73  74
ATOM     74  N   UNL     1       6.446   2.446  -3.619  1.00  0.00    -0.353 N 
ATOM     75  C   UNL     1       7.272   2.508  -4.712  1.00  0.00     0.262 C 
ATOM     76  H   UNL     1       6.744   1.818  -2.921  1.00  0.00     0.163 HD
ATOM     77  O   UNL     1       8.410   2.056  -4.574  1.00  0.00    -0.271 OA
BRANCH  75  78
ATOM     78  C   UNL     1       6.781   3.103  -6.043  1.00  0.00     0.281 C 
ATOM     79  C   UNL     1       6.065   2.040  -6.873  1.00  0.00     0.181 C 
ATOM     80  O   UNL     1       7.776   3.802  -6.780  1.00  0.00    -0.477 OA
ATOM     81  N   UNL     1       6.958   1.102  -7.562  1.00  0.00    -0.304 N 
ATOM     82  C   UNL     1       8.399   3.097  -7.777  1.00  0.00     0.144 A 
ATOM     83  C   UNL     1       8.067   1.790  -8.184  1.00  0.00     0.086 A 
ATOM     84  C   UNL     1       9.436   3.803  -8.402  1.00  0.00     0.049 A 
ATOM     85  C   UNL     1       8.812   1.237  -9.238  1.00  0.00     0.030 A 
ATOM     86  C   UNL     1      10.160   3.228  -9.441  1.00  0.00     0.004 A 
ATOM     87  C   UNL     1       9.847   1.943  -9.858  1.00  0.00     0.002 A 
BRANCH  81  88
ATOM     88  C   UNL     1       6.797  -0.283  -7.661  1.00  0.00     0.230 C 
ATOM     89  O   UNL     1       7.642  -1.012  -8.203  1.00  0.00    -0.274 OA
BRANCH  88  90
ATOM     90  C   UNL     1       5.575  -1.047  -7.113  1.00  0.00     0.083 C 
ATOM     91  C   UNL     1       5.367  -0.979  -5.608  1.00  0.00     0.040 C 
ATOM     92  C   UNL     1       4.286  -0.964  -7.941  1.00  0.00     0.018 C 
ATOM     93  C   UNL     1       4.151  -0.207  -5.218  1.00  0.00    -0.030 C 
ATOM     94  C   UNL     1       3.293   0.116  -7.521  1.00  0.00     0.028 C 
ATOM     95  C   UNL     1       3.238   0.313  -6.045  1.00  0.00    -0.031 C 
ENDBRANCH  88  90
ENDBRANCH  81  88
ENDBRANCH  75  78
ENDBRANCH  73  74
ENDBRANCH  72  73
ENDBRANCH   1  72
TORSDOF 16
