REMARK SMILES O=C(NCCCCNC(=O)[C@@H](c1ccc(NC(=O)N2CCCC2)cc1)[NH+]1CCCCCCC1)c1ccc(-c2c3nc(c(-c4cc(S(=O)(=O)[O-])ccc4F)c4ccc([nH]4)c(-c4cc(S(=O)(=O)[O-])ccc4F)c4nc(c(-c5cc(S(=O)(=O)[O-])ccc5F)c5ccc2[nH]5)C=C4)C=C3)cc1
REMARK SMILES IDX 7 1 6 2 5 3 4 4 3 5 1 6 2 7 34 9 35 10 96 11 36 12 95 13
REMARK SMILES IDX 37 14 38 15 39 16 89 17 40 18 94 19 88 20 90 21 41 22 93 23
REMARK SMILES IDX 87 24 86 25 42 27 74 28 54 29 73 30 55 31 58 32 72 33 91 34
REMARK SMILES IDX 56 35 57 36 71 38 92 39 59 40 43 41 44 42 52 43 45 44 51 45
REMARK SMILES IDX 53 46 50 47 46 48 47 49 48 50 49 51 75 52 76 53 84 54 77 55
REMARK SMILES IDX 83 56 85 57 82 58 78 59 79 60 80 61 81 62 60 63 61 64 69 65
REMARK SMILES IDX 62 66 68 67 70 68 67 69 63 70 64 71 65 72 66 73 8 74 9 75
REMARK SMILES IDX 10 77 11 78 12 79 13 80 25 81 14 82 24 83 15 84 16 85 17 86
REMARK SMILES IDX 18 88 19 89 20 90 23 91 21 92 22 93 26 94 27 96 28 97 29 98
REMARK SMILES IDX 30 99 31 100 33 102 32 103
REMARK H PARENT 3 8 90 26 58 37 8 76 16 87 26 95
REMARK Flexibility Score: 80.00
ROOT
ATOM      1  C   UNL     1       4.981   0.825   3.753  1.00  0.00     0.116 C 
ENDROOT
BRANCH   1   2
ATOM      2  C   UNL     1       4.631   2.104   3.006  1.00  0.00     0.023 C 
BRANCH   2   3
ATOM      3  C   UNL     1       5.067   2.113   1.545  1.00  0.00     0.023 C 
BRANCH   3   4
ATOM      4  C   UNL     1       4.656   0.887   0.735  1.00  0.00     0.116 C 
BRANCH   4   5
ATOM      5  N   UNL     1       3.237   0.562   0.831  1.00  0.00    -0.352 N 
ATOM      6  O   UNL     1       1.212  -0.053   0.024  1.00  0.00    -0.269 OA
ATOM      7  C   UNL     1       2.406   0.116  -0.172  1.00  0.00     0.251 C 
ATOM      8  H   UNL     1       2.825   0.676   1.718  1.00  0.00     0.163 HD
BRANCH   7   9
ATOM      9  C   UNL     1       3.002  -0.119  -1.501  1.00  0.00     0.039 A 
ATOM     10  C   UNL     1       4.125  -0.942  -1.611  1.00  0.00     0.014 A 
ATOM     11  C   UNL     1       2.512   0.583  -2.603  1.00  0.00     0.014 A 
ATOM     12  C   UNL     1       4.849  -0.944  -2.794  1.00  0.00     0.010 A 
ATOM     13  C   UNL     1       3.195   0.507  -3.818  1.00  0.00     0.010 A 
ATOM     14  C   UNL     1       4.387  -0.229  -3.913  1.00  0.00    -0.014 A 
BRANCH  14  15
ATOM     15  C   UNL     1       5.145  -0.314  -5.185  1.00  0.00     0.031 A 
ATOM     16  C   UNL     1       5.813   0.895  -5.778  1.00  0.00     0.074 A 
ATOM     17  C   UNL     1       5.253  -1.518  -5.780  1.00  0.00     0.049 A 
ATOM     18  N   UNL     1       6.502   0.994  -6.887  1.00  0.00    -0.248 NA
ATOM     19  C   UNL     1       5.686   2.158  -5.036  1.00  0.00     0.031 C 
ATOM     20  C   UNL     1       4.651  -2.757  -5.279  1.00  0.00     0.029 A 
ATOM     21  N   UNL     1       5.916  -1.906  -6.913  1.00  0.00    -0.354 N 
ATOM     22  C   UNL     1       6.878   2.329  -6.988  1.00  0.00     0.074 A 
ATOM     23  C   UNL     1       6.313   3.007  -5.839  1.00  0.00     0.031 C 
ATOM     24  C   UNL     1       5.016  -3.774  -6.070  1.00  0.00     0.029 A 
ATOM     25  C   UNL     1       5.804  -3.251  -7.178  1.00  0.00     0.049 A 
ATOM     26  H   UNL     1       6.423  -1.284  -7.483  1.00  0.00     0.167 HD
ATOM     27  C   UNL     1       7.629   2.925  -7.948  1.00  0.00     0.034 A 
ATOM     28  C   UNL     1       6.261  -3.979  -8.213  1.00  0.00     0.034 A 
ATOM     29  C   UNL     1       8.180   2.224  -9.086  1.00  0.00     0.049 A 
ATOM     30  C   UNL     1       7.043  -3.283  -9.290  1.00  0.00     0.074 A 
ATOM     31  C   UNL     1       8.965   2.724 -10.112  1.00  0.00     0.029 A 
ATOM     32  N   UNL     1       7.999   0.872  -9.353  1.00  0.00    -0.354 N 
ATOM     33  N   UNL     1       7.381  -2.017  -9.376  1.00  0.00    -0.248 NA
ATOM     34  C   UNL     1       7.502  -4.112 -10.409  1.00  0.00     0.031 C 
ATOM     35  C   UNL     1       9.202   1.693 -11.028  1.00  0.00     0.029 A 
ATOM     36  C   UNL     1       8.631   0.529 -10.540  1.00  0.00     0.049 A 
ATOM     37  H   UNL     1       7.495   0.247  -8.783  1.00  0.00     0.167 HD
ATOM     38  C   UNL     1       8.108  -1.901 -10.555  1.00  0.00     0.074 A 
ATOM     39  C   UNL     1       8.178  -3.230 -11.131  1.00  0.00     0.031 C 
ATOM     40  C   UNL     1       8.669  -0.797 -11.112  1.00  0.00     0.034 A 
BRANCH  27  41
ATOM     41  C   UNL     1       7.856   4.415  -7.834  1.00  0.00     0.023 A 
ATOM     42  C   UNL     1       8.582   4.977  -6.770  1.00  0.00     0.031 A 
ATOM     43  C   UNL     1       7.324   5.290  -8.799  1.00  0.00     0.131 A 
ATOM     44  C   UNL     1       8.703   6.372  -6.661  1.00  0.00     0.055 A 
ATOM     45  C   UNL     1       7.511   6.672  -8.726  1.00  0.00     0.041 A 
ATOM     46  F   UNL     1       6.603   4.816  -9.827  1.00  0.00    -0.206 F 
ATOM     47  C   UNL     1       8.193   7.222  -7.645  1.00  0.00     0.022 A 
BRANCH  44  48
ATOM     48  S   UNL     1       9.421   7.066  -5.146  1.00  0.00     0.124 S 
ATOM     49  O   UNL     1       8.534   6.520  -4.121  1.00  0.00    -0.237 OA
ATOM     50  O   UNL     1      10.777   6.533  -5.166  1.00  0.00    -0.237 OA
ATOM     51  O   UNL     1       9.314   8.510  -5.345  1.00  0.00    -0.744 OA
ENDBRANCH  44  48
ENDBRANCH  27  41
BRANCH  28  52
ATOM     52  C   UNL     1       5.956  -5.434  -8.292  1.00  0.00     0.023 A 
ATOM     53  C   UNL     1       6.978  -6.392  -8.231  1.00  0.00     0.031 A 
ATOM     54  C   UNL     1       4.631  -5.887  -8.439  1.00  0.00     0.131 A 
ATOM     55  C   UNL     1       6.664  -7.754  -8.350  1.00  0.00     0.055 A 
ATOM     56  C   UNL     1       4.319  -7.244  -8.502  1.00  0.00     0.041 A 
ATOM     57  F   UNL     1       3.616  -5.010  -8.495  1.00  0.00    -0.206 F 
ATOM     58  C   UNL     1       5.341  -8.187  -8.469  1.00  0.00     0.022 A 
BRANCH  55  59
ATOM     59  S   UNL     1       8.022  -8.953  -8.418  1.00  0.00     0.124 S 
ATOM     60  O   UNL     1       8.783  -8.476  -9.567  1.00  0.00    -0.237 OA
ATOM     61  O   UNL     1       8.649  -8.773  -7.113  1.00  0.00    -0.237 OA
ATOM     62  O   UNL     1       7.338 -10.230  -8.608  1.00  0.00    -0.744 OA
ENDBRANCH  55  59
ENDBRANCH  28  52
BRANCH  40  63
ATOM     63  C   UNL     1       9.432  -1.006 -12.395  1.00  0.00     0.023 A 
ATOM     64  C   UNL     1       8.782  -1.372 -13.587  1.00  0.00     0.031 A 
ATOM     65  C   UNL     1      10.831  -0.870 -12.416  1.00  0.00     0.131 A 
ATOM     66  C   UNL     1       9.537  -1.650 -14.736  1.00  0.00     0.055 A 
ATOM     67  C   UNL     1      11.571  -1.090 -13.578  1.00  0.00     0.041 A 
ATOM     68  F   UNL     1      11.501  -0.526 -11.305  1.00  0.00    -0.206 F 
ATOM     69  C   UNL     1      10.926  -1.496 -14.743  1.00  0.00     0.022 A 
BRANCH  66  70
ATOM     70  S   UNL     1       8.688  -2.311 -16.196  1.00  0.00     0.124 S 
ATOM     71  O   UNL     1       8.092  -3.535 -15.671  1.00  0.00    -0.237 OA
ATOM     72  O   UNL     1       7.756  -1.239 -16.527  1.00  0.00    -0.237 OA
ATOM     73  O   UNL     1       9.769  -2.511 -17.160  1.00  0.00    -0.744 OA
ENDBRANCH  66  70
ENDBRANCH  40  63
ENDBRANCH  14  15
ENDBRANCH   7   9
ENDBRANCH   4   5
ENDBRANCH   3   4
ENDBRANCH   2   3
ENDBRANCH   1   2
BRANCH   1  74
ATOM     74  N   UNL     1       6.326   0.798   4.276  1.00  0.00    -0.351 N 
ATOM     75  C   UNL     1       6.749   0.580   5.562  1.00  0.00     0.283 C 
ATOM     76  H   UNL     1       7.040   0.959   3.617  1.00  0.00     0.163 HD
ATOM     77  O   UNL     1       7.966   0.441   5.735  1.00  0.00    -0.268 OA
BRANCH  75  78
ATOM     78  C   UNL     1       5.757   0.539   6.775  1.00  0.00     0.305 C 
BRANCH  78  79
ATOM     79  C   UNL     1       5.050   1.902   6.929  1.00  0.00     0.019 A 
ATOM     80  C   UNL     1       5.796   2.967   7.465  1.00  0.00     0.012 A 
ATOM     81  C   UNL     1       3.752   2.196   6.486  1.00  0.00     0.012 A 
ATOM     82  C   UNL     1       5.285   4.268   7.497  1.00  0.00     0.027 A 
ATOM     83  C   UNL     1       3.248   3.502   6.496  1.00  0.00     0.027 A 
ATOM     84  C   UNL     1       4.038   4.556   6.944  1.00  0.00     0.042 A 
BRANCH  84  85
ATOM     85  N   UNL     1       3.519   5.857   6.831  1.00  0.00    -0.308 N 
ATOM     86  C   UNL     1       4.134   7.062   6.992  1.00  0.00     0.321 C 
ATOM     87  H   UNL     1       2.563   5.906   6.600  1.00  0.00     0.171 HD
ATOM     88  O   UNL     1       3.477   8.005   7.436  1.00  0.00    -0.248 OA
ATOM     89  N   UNL     1       5.447   7.195   6.645  1.00  0.00    -0.325 N 
ATOM     90  C   UNL     1       6.128   6.589   5.513  1.00  0.00     0.121 C 
ATOM     91  C   UNL     1       6.259   8.260   7.186  1.00  0.00     0.121 C 
ATOM     92  C   UNL     1       7.583   6.636   5.936  1.00  0.00     0.023 C 
ATOM     93  C   UNL     1       7.688   7.919   6.766  1.00  0.00     0.023 C 
ENDBRANCH  84  85
ENDBRANCH  78  79
BRANCH  78  94
ATOM     94  N   UNL     1       5.021  -0.767   6.990  1.00  0.00    -0.321 N 
ATOM     95  H   UNL     1       5.631  -1.332   7.582  1.00  0.00     0.349 HD
BRANCH  94  96
ATOM     96  C   UNL     1       3.842  -0.640   7.839  1.00  0.00     0.263 C 
BRANCH  96  97
ATOM     97  C   UNL     1       3.243  -1.863   8.538  1.00  0.00     0.061 C 
BRANCH  97  98
ATOM     98  C   UNL     1       4.247  -2.806   9.189  1.00  0.00     0.006 C 
BRANCH  98  99
ATOM     99  C   UNL     1       4.453  -4.093   8.395  1.00  0.00     0.000 C 
BRANCH  99 100
ATOM    100  C   UNL     1       5.252  -3.922   7.106  1.00  0.00     0.006 CG0
ATOM    101  G   UNL     1       4.521  -3.131   6.025  1.00  0.00     0.000 G0
ENDBRANCH  99 100
ENDBRANCH  98  99
ENDBRANCH  97  98
ENDBRANCH  96  97
ENDBRANCH  94  96
BRANCH  94 102
ATOM    102  C   UNL     1       4.981  -1.679   5.852  1.00  0.00     0.263 C 
BRANCH 102 103
ATOM    103  C   UNL     1       4.521  -3.131   6.025  1.00  0.00     0.061 CG0
ATOM    104  G   UNL     1       5.252  -3.922   7.106  1.00  0.00     0.000 G0
ENDBRANCH 102 103
ENDBRANCH  94 102
ENDBRANCH  78  94
ENDBRANCH  75  78
ENDBRANCH   1  74
TORSDOF 17
