REMARK SMILES C[C@@H]1CCC[C@H](S[C@@H]2CCC[C@]([NH2+]C3CC3)(C(=O)NCCCCNC(=O)c3ccc(-c4c5nc(c(-c6cc(S(=O)(=O)[O-])ccc6F)c6ccc([nH]6)c(-c6cc(S(=O)(=O)[O-])ccc6F)c6nc(c(-c7cc(S(=O)(=O)[O-])ccc7F)c7ccc4[nH]7)C=C6)C=C5)cc3)C2)C1
REMARK SMILES IDX 22 1 21 2 20 3 19 4 17 5 18 6 12 8 8 9 9 10 90 11 10 12
REMARK SMILES IDX 11 13 7 14 6 15 1 16 2 17 3 18 91 19 4 20 5 21 13 22 14 25
REMARK SMILES IDX 15 26 16 27 23 28 24 29 25 30 26 32 27 33 28 34 89 35 29 36
REMARK SMILES IDX 88 37 30 38 31 39 32 40 82 41 33 42 87 43 81 44 83 45 34 46
REMARK SMILES IDX 86 47 80 48 79 49 35 51 67 52 47 53 66 54 48 55 51 56 65 57
REMARK SMILES IDX 84 58 49 59 50 60 64 62 85 63 52 64 36 65 37 66 45 67 38 68
REMARK SMILES IDX 44 69 46 70 43 71 39 72 40 73 41 74 42 75 68 76 69 77 77 78
REMARK SMILES IDX 70 79 76 80 78 81 75 82 71 83 72 84 73 85 74 86 53 87 54 88
REMARK SMILES IDX 62 89 55 90 61 91 63 92 60 93 56 94 57 95 58 96 59 97
REMARK H PARENT 19 7 13 23 13 24 24 31 83 50 51 61
REMARK Flexibility Score: inf
ROOT
ATOM      1  C   UNL     1       6.028   3.948   4.639  1.00  0.00     0.023 C 
ENDROOT
BRANCH   1   2
ATOM      2  C   UNL     1       4.553   3.867   5.020  1.00  0.00     0.023 C 
BRANCH   2   3
ATOM      3  C   UNL     1       3.574   4.044   3.864  1.00  0.00     0.116 C 
BRANCH   3   4
ATOM      4  N   UNL     1       3.676   3.009   2.853  1.00  0.00    -0.351 N 
ATOM      5  C   UNL     1       2.832   2.005   2.465  1.00  0.00     0.281 C 
ATOM      6  O   UNL     1       3.215   1.327   1.506  1.00  0.00    -0.268 OA
ATOM      7  H   UNL     1       4.519   3.034   2.345  1.00  0.00     0.163 HD
BRANCH   5   8
ATOM      8  C   UNL     1       1.456   1.745   3.161  1.00  0.00     0.176 C 
ATOM      9  C   UNL     1      -0.760   0.389   2.886  1.00  0.00     0.053 C 
ATOM     10  C   UNL     1      -1.594   1.663   2.787  1.00  0.00     0.015 C 
ATOM     11  C   UNL     1       0.713   0.542   2.517  1.00  0.00     0.093 C 
ATOM     12  C   UNL     1      -0.870   2.856   3.401  1.00  0.00     0.008 C 
ATOM     13  C   UNL     1       0.558   2.987   2.881  1.00  0.00     0.079 C 
BRANCH   9  14
ATOM     14  S   UNL     1      -1.571  -1.105   2.145  1.00  0.00    -0.155 SA
BRANCH  14  15
ATOM     15  C   UNL     1      -1.597  -1.005   0.291  1.00  0.00     0.047 C 
ATOM     16  C   UNL     1       1.895  -1.471   0.143  1.00  0.00     0.007 C 
ATOM     17  C   UNL     1       0.763  -1.119  -0.828  1.00  0.00    -0.013 C 
ATOM     18  C   UNL     1       0.623   0.381  -1.164  1.00  0.00     0.003 C 
ATOM     19  C   UNL     1      -0.531  -1.837  -0.436  1.00  0.00     0.017 C 
ATOM     20  C   UNL     1      -0.617   1.141  -0.686  1.00  0.00     0.001 C 
ATOM     21  C   UNL     1      -1.855   0.300  -0.443  1.00  0.00     0.014 C 
ENDBRANCH  14  15
ENDBRANCH   9  14
BRANCH   8  22
ATOM     22  N   UNL     1       1.653   1.513   4.611  1.00  0.00    -0.331 N 
ATOM     23  H   UNL     1       0.721   1.461   5.021  1.00  0.00     0.347 HD
ATOM     24  H   UNL     1       2.266   2.286   4.870  1.00  0.00     0.347 HD
BRANCH  22  25
ATOM     25  C   UNL     1       2.395   0.344   5.122  1.00  0.00     0.183 C 
ATOM     26  C   UNL     1       3.085  -0.733   4.329  1.00  0.00     0.071 C 
ATOM     27  C   UNL     1       3.903   0.280   5.059  1.00  0.00     0.071 C 
ENDBRANCH  22  25
ENDBRANCH   8  22
ENDBRANCH   5   8
ENDBRANCH   3   4
ENDBRANCH   2   3
ENDBRANCH   1   2
BRANCH   1  28
ATOM     28  C   UNL     1       6.412   5.177   3.823  1.00  0.00     0.116 C 
BRANCH  28  29
ATOM     29  N   UNL     1       5.930   6.421   4.406  1.00  0.00    -0.352 N 
ATOM     30  C   UNL     1       6.598   7.604   4.619  1.00  0.00     0.251 C 
ATOM     31  H   UNL     1       4.987   6.415   4.689  1.00  0.00     0.163 HD
ATOM     32  O   UNL     1       6.054   8.510   5.230  1.00  0.00    -0.269 OA
BRANCH  30  33
ATOM     33  C   UNL     1       7.987   7.739   4.137  1.00  0.00     0.039 A 
ATOM     34  C   UNL     1       8.960   8.210   5.019  1.00  0.00     0.014 A 
ATOM     35  C   UNL     1       8.331   7.352   2.839  1.00  0.00     0.014 A 
ATOM     36  C   UNL     1      10.297   8.222   4.622  1.00  0.00     0.010 A 
ATOM     37  C   UNL     1       9.671   7.288   2.475  1.00  0.00     0.010 A 
ATOM     38  C   UNL     1      10.667   7.720   3.364  1.00  0.00    -0.014 A 
BRANCH  38  39
ATOM     39  C   UNL     1      12.093   7.646   2.954  1.00  0.00     0.031 A 
ATOM     40  C   UNL     1      12.572   8.449   1.776  1.00  0.00     0.074 A 
ATOM     41  C   UNL     1      12.934   6.818   3.604  1.00  0.00     0.049 A 
ATOM     42  N   UNL     1      13.745   8.452   1.199  1.00  0.00    -0.248 NA
ATOM     43  C   UNL     1      11.589   9.346   1.145  1.00  0.00     0.031 C 
ATOM     44  C   UNL     1      12.572   5.962   4.738  1.00  0.00     0.029 A 
ATOM     45  N   UNL     1      14.265   6.549   3.402  1.00  0.00    -0.354 N 
ATOM     46  C   UNL     1      13.643   9.347   0.140  1.00  0.00     0.074 A 
ATOM     47  C   UNL     1      12.272   9.810   0.110  1.00  0.00     0.031 C 
ATOM     48  C   UNL     1      13.657   5.281   5.140  1.00  0.00     0.029 A 
ATOM     49  C   UNL     1      14.780   5.611   4.268  1.00  0.00     0.049 A 
ATOM     50  H   UNL     1      14.802   6.987   2.703  1.00  0.00     0.167 HD
ATOM     51  C   UNL     1      14.611   9.769  -0.710  1.00  0.00     0.034 A 
ATOM     52  C   UNL     1      16.011   5.067   4.338  1.00  0.00     0.034 A 
ATOM     53  C   UNL     1      15.975   9.305  -0.662  1.00  0.00     0.049 A 
ATOM     54  C   UNL     1      17.062   5.529   3.357  1.00  0.00     0.074 A 
ATOM     55  C   UNL     1      17.041   9.678  -1.462  1.00  0.00     0.029 A 
ATOM     56  N   UNL     1      16.463   8.367   0.238  1.00  0.00    -0.354 N 
ATOM     57  N   UNL     1      16.956   6.404   2.383  1.00  0.00    -0.248 NA
ATOM     58  C   UNL     1      18.402   4.944   3.494  1.00  0.00     0.031 C 
ATOM     59  C   UNL     1      18.158   8.926  -1.083  1.00  0.00     0.029 A 
ATOM     60  C   UNL     1      17.809   8.137   0.002  1.00  0.00     0.049 A 
ATOM     61  H   UNL     1      15.931   7.928   0.941  1.00  0.00     0.167 HD
ATOM     62  C   UNL     1      18.225   6.498   1.819  1.00  0.00     0.074 A 
ATOM     63  C   UNL     1      19.082   5.608   2.573  1.00  0.00     0.031 C 
ATOM     64  C   UNL     1      18.648   7.250   0.771  1.00  0.00     0.034 A 
BRANCH  51  65
ATOM     65  C   UNL     1      14.221  10.779  -1.760  1.00  0.00     0.023 A 
ATOM     66  C   UNL     1      13.784  12.068  -1.408  1.00  0.00     0.031 A 
ATOM     67  C   UNL     1      14.276  10.452  -3.126  1.00  0.00     0.131 A 
ATOM     68  C   UNL     1      13.359  12.960  -2.403  1.00  0.00     0.055 A 
ATOM     69  C   UNL     1      13.926  11.372  -4.117  1.00  0.00     0.041 A 
ATOM     70  F   UNL     1      14.663   9.229  -3.521  1.00  0.00    -0.206 F 
ATOM     71  C   UNL     1      13.453  12.631  -3.757  1.00  0.00     0.022 A 
BRANCH  68  72
ATOM     72  S   UNL     1      12.568  14.511  -1.895  1.00  0.00     0.124 S 
ATOM     73  O   UNL     1      11.398  14.020  -1.171  1.00  0.00    -0.237 OA
ATOM     74  O   UNL     1      13.602  15.143  -1.084  1.00  0.00    -0.237 OA
ATOM     75  O   UNL     1      12.274  15.177  -3.162  1.00  0.00    -0.744 OA
ENDBRANCH  68  72
ENDBRANCH  51  65
BRANCH  52  76
ATOM     76  C   UNL     1      16.329   4.014   5.348  1.00  0.00     0.023 A 
ATOM     77  C   UNL     1      17.323   4.218   6.318  1.00  0.00     0.031 A 
ATOM     78  C   UNL     1      15.699   2.757   5.308  1.00  0.00     0.131 A 
ATOM     79  C   UNL     1      17.712   3.161   7.157  1.00  0.00     0.055 A 
ATOM     80  C   UNL     1      16.043   1.730   6.189  1.00  0.00     0.041 A 
ATOM     81  F   UNL     1      14.738   2.506   4.405  1.00  0.00    -0.206 F 
ATOM     82  C   UNL     1      17.070   1.922   7.108  1.00  0.00     0.022 A 
BRANCH  79  83
ATOM     83  S   UNL     1      19.163   3.390   8.222  1.00  0.00     0.124 S 
ATOM     84  O   UNL     1      20.177   3.799   7.257  1.00  0.00    -0.237 OA
ATOM     85  O   UNL     1      18.700   4.422   9.143  1.00  0.00    -0.237 OA
ATOM     86  O   UNL     1      19.360   2.069   8.814  1.00  0.00    -0.744 OA
ENDBRANCH  79  83
ENDBRANCH  52  76
BRANCH  64  87
ATOM     87  C   UNL     1      20.116   7.184   0.426  1.00  0.00     0.023 A 
ATOM     88  C   UNL     1      20.706   6.012  -0.077  1.00  0.00     0.031 A 
ATOM     89  C   UNL     1      20.935   8.311   0.615  1.00  0.00     0.131 A 
ATOM     90  C   UNL     1      22.087   5.975  -0.319  1.00  0.00     0.055 A 
ATOM     91  C   UNL     1      22.297   8.287   0.314  1.00  0.00     0.041 A 
ATOM     92  F   UNL     1      20.423   9.456   1.094  1.00  0.00    -0.206 F 
ATOM     93  C   UNL     1      22.883   7.111  -0.143  1.00  0.00     0.022 A 
BRANCH  90  94
ATOM     94  S   UNL     1      22.848   4.395  -0.780  1.00  0.00     0.124 S 
ATOM     95  O   UNL     1      22.500   3.547   0.355  1.00  0.00    -0.237 OA
ATOM     96  O   UNL     1      22.178   4.082  -2.039  1.00  0.00    -0.237 OA
ATOM     97  O   UNL     1      24.268   4.720  -0.900  1.00  0.00    -0.744 OA
ENDBRANCH  90  94
ENDBRANCH  64  87
ENDBRANCH  38  39
ENDBRANCH  30  33
ENDBRANCH  28  29
ENDBRANCH   1  28
TORSDOF 18
