REMARK SMILES O=C(NCCCCNC(=O)[C@H]1CS[C@@H](c2cccc(OCc3ccc(Cl)cc3Cl)c2)[NH2+]1)c1ccc(-c2c3nc(c(-c4cc(S(=O)(=O)[O-])ccc4F)c4ccc([nH]4)c(-c4cc(S(=O)(=O)[O-])ccc4F)c4nc(c(-c5cc(S(=O)(=O)[O-])ccc5F)c5ccc2[nH]5)C=C4)C=C3)cc1
REMARK SMILES IDX 6 1 5 2 4 3 3 4 1 5 2 6 32 8 33 9 94 10 34 11 93 12 35 13
REMARK SMILES IDX 36 14 37 15 87 16 38 17 92 18 86 19 88 20 39 21 91 22 85 23
REMARK SMILES IDX 84 24 40 26 72 27 52 28 71 29 53 30 56 31 70 32 89 33 54 34
REMARK SMILES IDX 55 35 69 37 90 38 57 39 41 40 42 41 50 42 43 43 49 44 51 45
REMARK SMILES IDX 48 46 44 47 45 48 46 49 47 50 73 51 74 52 82 53 75 54 81 55
REMARK SMILES IDX 83 56 80 57 76 58 77 59 78 60 79 61 58 62 59 63 67 64 60 65
REMARK SMILES IDX 66 66 68 67 65 68 61 69 62 70 63 71 64 72 7 73 8 74 9 75
REMARK SMILES IDX 10 77 11 78 12 79 31 80 13 81 14 82 15 85 16 86 30 87 17 88
REMARK SMILES IDX 19 89 18 90 20 91 21 92 22 93 23 94 28 95 24 96 27 97 29 98
REMARK SMILES IDX 25 99 26 100
REMARK H PARENT 3 7 88 25 56 36 8 76 31 83 31 84
REMARK Flexibility Score: inf
ROOT
ATOM      1  C   UNL     1       4.520  -1.455   3.457  1.00  0.00     0.023 C 
ENDROOT
BRANCH   1   2
ATOM      2  C   UNL     1       4.991  -0.401   2.453  1.00  0.00     0.023 C 
BRANCH   2   3
ATOM      3  C   UNL     1       4.659  -0.699   0.995  1.00  0.00     0.116 C 
BRANCH   3   4
ATOM      4  N   UNL     1       3.229  -0.838   0.764  1.00  0.00    -0.352 N 
ATOM      5  O   UNL     1       1.200  -0.285  -0.042  1.00  0.00    -0.269 OA
ATOM      6  C   UNL     1       2.419  -0.144  -0.102  1.00  0.00     0.251 C 
ATOM      7  H   UNL     1       2.778  -1.526   1.304  1.00  0.00     0.163 HD
BRANCH   6   8
ATOM      8  C   UNL     1       3.016   0.781  -1.088  1.00  0.00     0.039 A 
ATOM      9  C   UNL     1       4.109   0.388  -1.867  1.00  0.00     0.014 A 
ATOM     10  C   UNL     1       2.466   2.056  -1.238  1.00  0.00     0.014 A 
ATOM     11  C   UNL     1       4.727   1.309  -2.708  1.00  0.00     0.010 A 
ATOM     12  C   UNL     1       3.046   2.956  -2.134  1.00  0.00     0.010 A 
ATOM     13  C   UNL     1       4.196   2.598  -2.858  1.00  0.00    -0.014 A 
BRANCH  13  14
ATOM     14  C   UNL     1       4.817   3.562  -3.801  1.00  0.00     0.031 A 
ATOM     15  C   UNL     1       5.433   4.836  -3.296  1.00  0.00     0.074 A 
ATOM     16  C   UNL     1       4.787   3.301  -5.122  1.00  0.00     0.049 A 
ATOM     17  N   UNL     1       5.911   5.849  -3.971  1.00  0.00    -0.248 NA
ATOM     18  C   UNL     1       5.504   4.994  -1.838  1.00  0.00     0.031 C 
ATOM     19  C   UNL     1       4.223   2.093  -5.726  1.00  0.00     0.029 A 
ATOM     20  N   UNL     1       5.220   4.040  -6.193  1.00  0.00    -0.354 N 
ATOM     21  C   UNL     1       6.321   6.780  -3.022  1.00  0.00     0.074 A 
ATOM     22  C   UNL     1       5.998   6.218  -1.726  1.00  0.00     0.031 C 
ATOM     23  C   UNL     1       4.342   2.174  -7.059  1.00  0.00     0.029 A 
ATOM     24  C   UNL     1       4.922   3.467  -7.406  1.00  0.00     0.049 A 
ATOM     25  H   UNL     1       5.697   4.897  -6.102  1.00  0.00     0.167 HD
ATOM     26  C   UNL     1       6.915   7.985  -3.219  1.00  0.00     0.034 A 
ATOM     27  C   UNL     1       5.051   3.944  -8.659  1.00  0.00     0.034 A 
ATOM     28  C   UNL     1       7.214   8.525  -4.526  1.00  0.00     0.049 A 
ATOM     29  C   UNL     1       5.644   5.311  -8.861  1.00  0.00     0.074 A 
ATOM     30  C   UNL     1       7.846   9.715  -4.844  1.00  0.00     0.029 A 
ATOM     31  N   UNL     1       6.881   7.920  -5.734  1.00  0.00    -0.354 N 
ATOM     32  N   UNL     1       6.045   6.175  -7.958  1.00  0.00    -0.248 NA
ATOM     33  C   UNL     1       5.808   5.767 -10.247  1.00  0.00     0.031 C 
ATOM     34  C   UNL     1       7.820   9.868  -6.235  1.00  0.00     0.029 A 
ATOM     35  C   UNL     1       7.258   8.732  -6.794  1.00  0.00     0.049 A 
ATOM     36  H   UNL     1       6.442   7.044  -5.823  1.00  0.00     0.167 HD
ATOM     37  C   UNL     1       6.538   7.266  -8.668  1.00  0.00     0.074 A 
ATOM     38  C   UNL     1       6.380   6.951 -10.073  1.00  0.00     0.031 C 
ATOM     39  C   UNL     1       7.087   8.414  -8.195  1.00  0.00     0.034 A 
BRANCH  26  40
ATOM     40  C   UNL     1       7.216   8.818  -1.993  1.00  0.00     0.023 A 
ATOM     41  C   UNL     1       8.076   8.361  -0.979  1.00  0.00     0.031 A 
ATOM     42  C   UNL     1       6.589  10.063  -1.806  1.00  0.00     0.131 A 
ATOM     43  C   UNL     1       8.203   9.089   0.215  1.00  0.00     0.055 A 
ATOM     44  C   UNL     1       6.797  10.830  -0.658  1.00  0.00     0.041 A 
ATOM     45  F   UNL     1       5.742  10.548  -2.728  1.00  0.00    -0.206 F 
ATOM     46  C   UNL     1       7.590  10.334   0.372  1.00  0.00     0.022 A 
BRANCH  43  47
ATOM     47  S   UNL     1       9.018   8.293   1.627  1.00  0.00     0.124 S 
ATOM     48  O   UNL     1       8.260   7.049   1.744  1.00  0.00    -0.237 OA
ATOM     49  O   UNL     1      10.394   8.162   1.164  1.00  0.00    -0.237 OA
ATOM     50  O   UNL     1       8.812   9.242   2.720  1.00  0.00    -0.744 OA
ENDBRANCH  43  47
ENDBRANCH  26  40
BRANCH  27  51
ATOM     51  C   UNL     1       4.555   3.132  -9.804  1.00  0.00     0.023 A 
ATOM     52  C   UNL     1       5.437   2.573 -10.740  1.00  0.00     0.031 A 
ATOM     53  C   UNL     1       3.178   2.877  -9.955  1.00  0.00     0.131 A 
ATOM     54  C   UNL     1       4.930   1.801 -11.797  1.00  0.00     0.055 A 
ATOM     55  C   UNL     1       2.685   2.070 -10.980  1.00  0.00     0.041 A 
ATOM     56  F   UNL     1       2.295   3.382  -9.078  1.00  0.00    -0.206 F 
ATOM     57  C   UNL     1       3.564   1.532 -11.914  1.00  0.00     0.022 A 
BRANCH  54  58
ATOM     58  S   UNL     1       6.085   1.180 -13.050  1.00  0.00     0.124 S 
ATOM     59  O   UNL     1       6.632   2.420 -13.589  1.00  0.00    -0.237 OA
ATOM     60  O   UNL     1       6.997   0.370 -12.249  1.00  0.00    -0.237 OA
ATOM     61  O   UNL     1       5.225   0.428 -13.962  1.00  0.00    -0.744 OA
ENDBRANCH  54  58
ENDBRANCH  27  51
BRANCH  39  62
ATOM     62  C   UNL     1       7.621   9.396  -9.208  1.00  0.00     0.023 A 
ATOM     63  C   UNL     1       6.777  10.136 -10.053  1.00  0.00     0.031 A 
ATOM     64  C   UNL     1       9.008   9.614  -9.300  1.00  0.00     0.131 A 
ATOM     65  C   UNL     1       7.331  11.041 -10.973  1.00  0.00     0.055 A 
ATOM     66  C   UNL     1       9.549  10.553 -10.179  1.00  0.00     0.041 A 
ATOM     67  F   UNL     1       9.860   8.930  -8.520  1.00  0.00    -0.206 F 
ATOM     68  C   UNL     1       8.709  11.268 -11.027  1.00  0.00     0.022 A 
BRANCH  65  69
ATOM     69  S   UNL     1       6.232  11.886 -12.143  1.00  0.00     0.124 S 
ATOM     70  O   UNL     1       5.664  10.767 -12.888  1.00  0.00    -0.237 OA
ATOM     71  O   UNL     1       5.314  12.594 -11.257  1.00  0.00    -0.237 OA
ATOM     72  O   UNL     1       7.137  12.743 -12.907  1.00  0.00    -0.744 OA
ENDBRANCH  65  69
ENDBRANCH  39  62
ENDBRANCH  13  14
ENDBRANCH   6   8
ENDBRANCH   3   4
ENDBRANCH   2   3
ENDBRANCH   1   2
BRANCH   1  73
ATOM     73  C   UNL     1       4.995  -2.874   3.167  1.00  0.00     0.116 C 
BRANCH  73  74
ATOM     74  N   UNL     1       6.436  -3.004   3.270  1.00  0.00    -0.351 N 
ATOM     75  C   UNL     1       7.165  -3.895   4.006  1.00  0.00     0.279 C 
ATOM     76  H   UNL     1       6.961  -2.363   2.737  1.00  0.00     0.163 HD
ATOM     77  O   UNL     1       8.394  -3.884   3.906  1.00  0.00    -0.268 OA
BRANCH  75  78
ATOM     78  C   UNL     1       6.427  -4.915   4.890  1.00  0.00     0.283 C 
ATOM     79  C   UNL     1       5.812  -5.993   3.993  1.00  0.00     0.151 C 
ATOM     80  N   UNL     1       7.374  -5.503   5.868  1.00  0.00    -0.321 N 
ATOM     81  S   UNL     1       6.315  -7.582   4.682  1.00  0.00    -0.088 SA
ATOM     82  C   UNL     1       6.899  -6.840   6.212  1.00  0.00     0.274 C 
ATOM     83  H   UNL     1       7.411  -4.923   6.706  1.00  0.00     0.348 HD
ATOM     84  H   UNL     1       8.311  -5.553   5.466  1.00  0.00     0.348 HD
BRANCH  82  85
ATOM     85  C   UNL     1       7.942  -7.600   7.008  1.00  0.00     0.024 A 
ATOM     86  C   UNL     1       8.640  -8.724   6.544  1.00  0.00     0.011 A 
ATOM     87  C   UNL     1       8.259  -7.106   8.292  1.00  0.00     0.057 A 
ATOM     88  C   UNL     1       9.606  -9.341   7.342  1.00  0.00     0.004 A 
ATOM     89  C   UNL     1       9.259  -7.686   9.072  1.00  0.00     0.120 A 
ATOM     90  C   UNL     1       9.915  -8.821   8.598  1.00  0.00     0.046 A 
BRANCH  89  91
ATOM     91  O   UNL     1       9.733  -7.200  10.261  1.00  0.00    -0.489 OA
BRANCH  91  92
ATOM     92  C   UNL     1       9.168  -5.986  10.779  1.00  0.00     0.267 C 
BRANCH  92  93
ATOM     93  C   UNL     1       9.531  -4.714  10.030  1.00  0.00     0.008 A 
ATOM     94  C   UNL     1      10.569  -4.699   9.080  1.00  0.00     0.010 A 
ATOM     95  C   UNL     1       8.828  -3.517  10.257  1.00  0.00     0.049 A 
ATOM     96  C   UNL     1      10.843  -3.553   8.332  1.00  0.00     0.021 A 
ATOM     97  C   UNL     1       9.111  -2.364   9.520  1.00  0.00     0.041 A 
ATOM     98  Cl  UNL     1       7.579  -3.412  11.450  1.00  0.00    -0.084 Cl
ATOM     99  C   UNL     1      10.108  -2.393   8.550  1.00  0.00     0.042 A 
ATOM    100  Cl  UNL     1      10.439  -0.983   7.624  1.00  0.00    -0.084 Cl
ENDBRANCH  92  93
ENDBRANCH  91  92
ENDBRANCH  89  91
ENDBRANCH  82  85
ENDBRANCH  75  78
ENDBRANCH  73  74
ENDBRANCH   1  73
TORSDOF 18
