REMARK SMILES O=C(Cc1ccc(F)c(F)c1)NC1(C(=O)NCCCCNC(=O)c2ccc(-c3c4nc(c(-c5cc(S(=O)(=O)[O-])ccc5F)c5ccc([nH]5)c(-c5cc(S(=O)(=O)[O-])ccc5F)c5nc(c(-c6cc(S(=O)(=O)[O-])ccc6F)c6ccc3[nH]6)C=C5)C=C4)cc2)CCCC1
REMARK SMILES IDX 18 1 17 2 16 3 14 4 15 5 13 7 87 8 90 9 88 10 89 11 12 12
REMARK SMILES IDX 1 13 2 14 3 16 4 17 5 18 11 19 6 20 9 21 7 22 10 23 8 24
REMARK SMILES IDX 19 25 20 26 21 27 22 28 23 30 24 31 25 32 86 33 26 34 85 35
REMARK SMILES IDX 27 36 28 37 29 38 79 39 30 40 84 41 78 42 80 43 31 44 83 45
REMARK SMILES IDX 77 46 76 47 32 49 64 50 44 51 63 52 45 53 48 54 62 55 81 56
REMARK SMILES IDX 46 57 47 58 61 60 82 61 49 62 33 63 34 64 42 65 35 66 41 67
REMARK SMILES IDX 43 68 40 69 36 70 37 71 38 72 39 73 65 74 66 75 74 76 67 77
REMARK SMILES IDX 73 78 75 79 72 80 68 81 69 82 70 83 71 84 50 85 51 86 59 87
REMARK SMILES IDX 52 88 58 89 60 90 57 91 53 92 54 93 55 94 56 95
REMARK H PARENT 16 6 12 15 21 29 80 48 48 59
REMARK Flexibility Score: inf
ROOT
ATOM      1  C   UNL     1      -0.537   4.011   3.701  1.00  0.00     0.023 C 
ENDROOT
BRANCH   1   2
ATOM      2  C   UNL     1       0.948   4.154   3.386  1.00  0.00     0.116 C 
BRANCH   2   3
ATOM      3  N   UNL     1       1.657   2.902   3.506  1.00  0.00    -0.354 N 
ATOM      4  C   UNL     1       2.203   2.088   2.563  1.00  0.00     0.245 C 
ATOM      5  O   UNL     1       2.888   1.151   3.001  1.00  0.00    -0.272 OA
ATOM      6  H   UNL     1       1.764   2.583   4.431  1.00  0.00     0.163 HD
BRANCH   4   7
ATOM      7  C   UNL     1       2.098   2.351   1.019  1.00  0.00     0.119 C 
ATOM      8  C   UNL     1       2.895   3.607   0.614  1.00  0.00     0.038 C 
ATOM      9  C   UNL     1       0.683   2.557   0.457  1.00  0.00     0.038 C 
ATOM     10  C   UNL     1       1.938   4.612  -0.015  1.00  0.00     0.003 C 
ATOM     11  C   UNL     1       0.558   3.985  -0.056  1.00  0.00     0.003 C 
BRANCH   7  12
ATOM     12  N   UNL     1       2.782   1.186   0.405  1.00  0.00    -0.341 N 
ATOM     13  O   UNL     1       1.014  -0.282   0.216  1.00  0.00    -0.275 OA
ATOM     14  C   UNL     1       2.203  -0.018   0.068  1.00  0.00     0.225 C 
ATOM     15  H   UNL     1       3.744   1.283   0.221  1.00  0.00     0.164 HD
BRANCH  14  16
ATOM     16  C   UNL     1       3.179  -1.031  -0.505  1.00  0.00     0.135 C 
BRANCH  16  17
ATOM     17  C   UNL     1       3.905  -0.659  -1.789  1.00  0.00    -0.036 A 
ATOM     18  C   UNL     1       4.701  -1.648  -2.401  1.00  0.00     0.007 A 
ATOM     19  C   UNL     1       3.867   0.615  -2.380  1.00  0.00     0.046 A 
ATOM     20  C   UNL     1       5.449  -1.365  -3.549  1.00  0.00     0.043 A 
ATOM     21  C   UNL     1       4.630   0.895  -3.511  1.00  0.00     0.159 A 
ATOM     22  C   UNL     1       5.417  -0.087  -4.091  1.00  0.00     0.158 A 
ATOM     23  F   UNL     1       4.603   2.132  -4.028  1.00  0.00    -0.204 F 
ATOM     24  F   UNL     1       6.153   0.188  -5.177  1.00  0.00    -0.204 F 
ENDBRANCH  16  17
ENDBRANCH  14  16
ENDBRANCH   7  12
ENDBRANCH   4   7
ENDBRANCH   2   3
ENDBRANCH   1   2
BRANCH   1  25
ATOM     25  C   UNL     1      -0.869   4.053   5.193  1.00  0.00     0.023 C 
BRANCH  25  26
ATOM     26  C   UNL     1      -0.398   5.302   5.934  1.00  0.00     0.116 C 
BRANCH  26  27
ATOM     27  N   UNL     1      -0.829   6.548   5.318  1.00  0.00    -0.352 N 
ATOM     28  C   UNL     1      -1.152   7.734   5.936  1.00  0.00     0.251 C 
ATOM     29  H   UNL     1      -0.897   6.542   4.336  1.00  0.00     0.163 HD
ATOM     30  O   UNL     1      -1.585   8.676   5.278  1.00  0.00    -0.269 OA
BRANCH  28  31
ATOM     31  C   UNL     1      -1.018   7.834   7.404  1.00  0.00     0.039 A 
ATOM     32  C   UNL     1      -2.117   8.256   8.155  1.00  0.00     0.014 A 
ATOM     33  C   UNL     1       0.165   7.441   8.034  1.00  0.00     0.014 A 
ATOM     34  C   UNL     1      -2.054   8.206   9.549  1.00  0.00     0.010 A 
ATOM     35  C   UNL     1       0.199   7.325   9.419  1.00  0.00     0.010 A 
ATOM     36  C   UNL     1      -0.912   7.700  10.191  1.00  0.00    -0.014 A 
BRANCH  36  37
ATOM     37  C   UNL     1      -0.861   7.550  11.668  1.00  0.00     0.031 A 
ATOM     38  C   UNL     1       0.134   8.345  12.467  1.00  0.00     0.074 A 
ATOM     39  C   UNL     1      -1.656   6.647  12.275  1.00  0.00     0.049 A 
ATOM     40  N   UNL     1       0.395   8.298  13.748  1.00  0.00    -0.248 NA
ATOM     41  C   UNL     1       0.972   9.292  11.717  1.00  0.00     0.031 C 
ATOM     42  C   UNL     1      -2.622   5.779  11.598  1.00  0.00     0.029 A 
ATOM     43  N   UNL     1      -1.771   6.301  13.598  1.00  0.00    -0.354 N 
ATOM     44  C   UNL     1       1.437   9.195  13.955  1.00  0.00     0.074 A 
ATOM     45  C   UNL     1       1.801   9.720  12.656  1.00  0.00     0.031 C 
ATOM     46  C   UNL     1      -3.247   5.019  12.512  1.00  0.00     0.029 A 
ATOM     47  C   UNL     1      -2.703   5.316  13.833  1.00  0.00     0.049 A 
ATOM     48  H   UNL     1      -1.238   6.718  14.312  1.00  0.00     0.167 HD
ATOM     49  C   UNL     1       2.020   9.565  15.123  1.00  0.00     0.034 A 
ATOM     50  C   UNL     1      -3.070   4.716  14.982  1.00  0.00     0.034 A 
ATOM     51  C   UNL     1       1.631   9.045  16.411  1.00  0.00     0.049 A 
ATOM     52  C   UNL     1      -2.415   5.147  16.269  1.00  0.00     0.074 A 
ATOM     53  C   UNL     1       2.112   9.389  17.663  1.00  0.00     0.029 A 
ATOM     54  N   UNL     1       0.666   8.066  16.614  1.00  0.00    -0.354 N 
ATOM     55  N   UNL     1      -1.465   6.035  16.455  1.00  0.00    -0.248 NA
ATOM     56  C   UNL     1      -2.890   4.505  17.501  1.00  0.00     0.031 C 
ATOM     57  C   UNL     1       1.478   8.581  18.614  1.00  0.00     0.029 A 
ATOM     58  C   UNL     1       0.553   7.779  17.965  1.00  0.00     0.049 A 
ATOM     59  H   UNL     1       0.138   7.638  15.901  1.00  0.00     0.167 HD
ATOM     60  C   UNL     1      -1.252   6.079  17.830  1.00  0.00     0.074 A 
ATOM     61  C   UNL     1      -2.181   5.139  18.424  1.00  0.00     0.031 C 
ATOM     62  C   UNL     1      -0.373   6.831  18.539  1.00  0.00     0.034 A 
BRANCH  49  63
ATOM     63  C   UNL     1       3.149  10.564  15.044  1.00  0.00     0.023 A 
ATOM     64  C   UNL     1       2.947  11.866  14.551  1.00  0.00     0.031 A 
ATOM     65  C   UNL     1       4.453  10.201  15.424  1.00  0.00     0.131 A 
ATOM     66  C   UNL     1       4.041  12.724  14.368  1.00  0.00     0.055 A 
ATOM     67  C   UNL     1       5.524  11.091  15.320  1.00  0.00     0.041 A 
ATOM     68  F   UNL     1       4.713   8.967  15.883  1.00  0.00    -0.206 F 
ATOM     69  C   UNL     1       5.325  12.355  14.773  1.00  0.00     0.022 A 
BRANCH  66  70
ATOM     70  S   UNL     1       3.783  14.268  13.451  1.00  0.00     0.124 S 
ATOM     71  O   UNL     1       3.305  13.768  12.164  1.00  0.00    -0.237 OA
ATOM     72  O   UNL     1       2.800  14.963  14.272  1.00  0.00    -0.237 OA
ATOM     73  O   UNL     1       5.113  14.874  13.420  1.00  0.00    -0.744 OA
ENDBRANCH  66  70
ENDBRANCH  49  63
BRANCH  50  74
ATOM     74  C   UNL     1      -4.109   3.648  14.979  1.00  0.00     0.023 A 
ATOM     75  C   UNL     1      -5.350   3.846  15.606  1.00  0.00     0.031 A 
ATOM     76  C   UNL     1      -3.863   2.398  14.383  1.00  0.00     0.131 A 
ATOM     77  C   UNL     1      -6.280   2.798  15.665  1.00  0.00     0.055 A 
ATOM     78  C   UNL     1      -4.811   1.373  14.403  1.00  0.00     0.041 A 
ATOM     79  F   UNL     1      -2.697   2.160  13.763  1.00  0.00    -0.206 F 
ATOM     80  C   UNL     1      -6.023   1.566  15.058  1.00  0.00     0.022 A 
BRANCH  77  81
ATOM     81  S   UNL     1      -7.805   3.043  16.615  1.00  0.00     0.124 S 
ATOM     82  O   UNL     1      -7.283   3.361  17.939  1.00  0.00    -0.237 OA
ATOM     83  O   UNL     1      -8.437   4.142  15.893  1.00  0.00    -0.237 OA
ATOM     84  O   UNL     1      -8.486   1.754  16.504  1.00  0.00    -0.744 OA
ENDBRANCH  77  81
ENDBRANCH  50  74
BRANCH  62  85
ATOM     85  C   UNL     1      -0.414   6.693  20.040  1.00  0.00     0.023 A 
ATOM     86  C   UNL     1      -0.016   5.510  20.686  1.00  0.00     0.031 A 
ATOM     87  C   UNL     1      -0.876   7.759  20.833  1.00  0.00     0.131 A 
ATOM     88  C   UNL     1      -0.140   5.399  22.079  1.00  0.00     0.055 A 
ATOM     89  C   UNL     1      -0.943   7.663  22.224  1.00  0.00     0.041 A 
ATOM     90  F   UNL     1      -1.269   8.911  20.267  1.00  0.00    -0.206 F 
ATOM     91  C   UNL     1      -0.586   6.474  22.853  1.00  0.00     0.022 A 
BRANCH  88  92
ATOM     92  S   UNL     1       0.209   3.800  22.860  1.00  0.00     0.124 S 
ATOM     93  O   UNL     1      -0.738   2.919  22.184  1.00  0.00    -0.237 OA
ATOM     94  O   UNL     1       1.616   3.594  22.534  1.00  0.00    -0.237 OA
ATOM     95  O   UNL     1      -0.070   4.041  24.275  1.00  0.00    -0.744 OA
ENDBRANCH  88  92
ENDBRANCH  62  85
ENDBRANCH  36  37
ENDBRANCH  28  31
ENDBRANCH  26  27
ENDBRANCH  25  26
ENDBRANCH   1  25
TORSDOF 17
