REMARK SMILES Cc1nsc(N(C)C(=O)[C@@H](C)CCC[C@H](C)[NH3+])c1C(=O)NCCCCNC(=O)c1ccc(-c2c3nc(c(-c4cc(S(=O)(=O)[O-])ccc4F)c4ccc([nH]4)c(-c4cc(S(=O)(=O)[O-])ccc4F)c4nc(c(-c5cc(S(=O)(=O)[O-])ccc5F)c5ccc2[nH]5)C=C4)C=C3)cc1
REMARK SMILES IDX 19 1 20 2 21 3 18 5 1 6 2 7 3 8 4 9 5 10 6 11 7 12 8 13 9 14
REMARK SMILES IDX 10 15 11 16 12 17 13 18 14 19 15 20 16 21 17 22 22 26 23 27
REMARK SMILES IDX 24 28 25 29 26 30 27 31 28 33 29 34 30 35 91 36 31 37 90 38
REMARK SMILES IDX 32 39 33 40 34 41 84 42 35 43 89 44 83 45 85 46 36 47 88 48
REMARK SMILES IDX 82 49 81 50 37 52 69 53 49 54 68 55 50 56 53 57 67 58 86 59
REMARK SMILES IDX 51 60 52 61 66 63 87 64 54 65 38 66 39 67 47 68 40 69 46 70
REMARK SMILES IDX 48 71 45 72 41 73 42 74 43 75 44 76 70 77 71 78 79 79 72 80
REMARK SMILES IDX 78 81 80 82 77 83 73 84 74 85 75 86 76 87 55 88 56 89 64 90
REMARK SMILES IDX 57 91 63 92 65 93 62 94 58 95 59 96 60 97 61 98
REMARK H PARENT 21 4 17 23 17 24 17 25 26 32 85 51 53 62
REMARK Flexibility Score: inf
ROOT
ATOM      1  C   UNL     1      -6.079  10.218  -2.142  1.00  0.00     0.256 C 
ATOM      2  O   UNL     1      -5.033  10.375  -1.505  1.00  0.00    -0.269 OA
ATOM      3  N   UNL     1      -7.066   9.525  -1.475  1.00  0.00    -0.352 N 
ATOM      4  H   UNL     1      -6.777   8.672  -1.077  1.00  0.00     0.163 HD
ENDROOT
BRANCH   1   5
ATOM      5  C   UNL     1      -6.160  10.639  -3.552  1.00  0.00     0.097 A 
ATOM      6  C   UNL     1      -8.636  11.622  -3.943  1.00  0.00     0.069 C 
ATOM      7  C   UNL     1      -7.236  11.286  -4.314  1.00  0.00     0.066 A 
ATOM      8  N   UNL     1      -6.921  11.707  -5.539  1.00  0.00    -0.195 NA
ATOM      9  S   UNL     1      -5.346  11.437  -5.822  1.00  0.00    -0.017 S 
ATOM     10  C   UNL     1      -5.023  10.555  -4.389  1.00  0.00     0.131 A 
BRANCH  10  11
ATOM     11  N   UNL     1      -3.735   9.945  -4.295  1.00  0.00    -0.305 N 
ATOM     12  C   UNL     1      -2.625  10.347  -5.164  1.00  0.00     0.154 C 
BRANCH  11  13
ATOM     13  C   UNL     1      -3.608   8.844  -3.443  1.00  0.00     0.230 C 
ATOM     14  O   UNL     1      -4.574   8.107  -3.190  1.00  0.00    -0.274 OA
BRANCH  13  15
ATOM     15  C   UNL     1      -2.228   8.399  -2.894  1.00  0.00     0.076 C 
ATOM     16  C   UNL     1      -1.647   7.286  -3.777  1.00  0.00     0.018 C 
BRANCH  15  17
ATOM     17  C   UNL     1      -1.149   9.446  -2.565  1.00  0.00     0.013 C 
BRANCH  17  18
ATOM     18  C   UNL     1      -1.474  10.405  -1.413  1.00  0.00     0.007 C 
BRANCH  18  19
ATOM     19  C   UNL     1      -1.507   9.778  -0.009  1.00  0.00     0.064 C 
BRANCH  19  20
ATOM     20  C   UNL     1      -0.187   9.074   0.380  1.00  0.00     0.177 C 
ATOM     21  C   UNL     1      -0.376   7.566   0.554  1.00  0.00     0.075 C 
BRANCH  20  22
ATOM     22  N   UNL     1       0.377   9.613   1.617  1.00  0.00    -0.355 N 
ATOM     23  H   UNL     1      -0.267   9.437   2.389  1.00  0.00     0.344 HD
ATOM     24  H   UNL     1       0.520  10.618   1.516  1.00  0.00     0.344 HD
ATOM     25  H   UNL     1       1.270   9.160   1.809  1.00  0.00     0.344 HD
ENDBRANCH  20  22
ENDBRANCH  19  20
ENDBRANCH  18  19
ENDBRANCH  17  18
ENDBRANCH  15  17
ENDBRANCH  13  15
ENDBRANCH  11  13
ENDBRANCH  10  11
ENDBRANCH   1   5
BRANCH   3  26
ATOM     26  C   UNL     1      -8.457   9.853  -1.265  1.00  0.00     0.116 C 
BRANCH  26  27
ATOM     27  C   UNL     1      -9.438   8.778  -1.738  1.00  0.00     0.023 C 
BRANCH  27  28
ATOM     28  C   UNL     1      -9.816   7.708  -0.698  1.00  0.00     0.023 C 
BRANCH  28  29
ATOM     29  C   UNL     1     -10.494   8.214   0.577  1.00  0.00     0.116 C 
BRANCH  29  30
ATOM     30  N   UNL     1     -11.749   8.934   0.340  1.00  0.00    -0.352 N 
ATOM     31  C   UNL     1     -12.455   9.740   1.228  1.00  0.00     0.251 C 
ATOM     32  H   UNL     1     -12.141   8.834  -0.558  1.00  0.00     0.163 HD
ATOM     33  O   UNL     1     -13.653   9.921   1.096  1.00  0.00    -0.269 OA
BRANCH  31  34
ATOM     34  C   UNL     1     -11.703  10.402   2.312  1.00  0.00     0.039 A 
ATOM     35  C   UNL     1     -12.190  10.543   3.615  1.00  0.00     0.014 A 
ATOM     36  C   UNL     1     -10.438  10.864   1.974  1.00  0.00     0.014 A 
ATOM     37  C   UNL     1     -11.348  11.086   4.589  1.00  0.00     0.010 A 
ATOM     38  C   UNL     1      -9.553  11.193   2.958  1.00  0.00     0.010 A 
ATOM     39  C   UNL     1     -10.026  11.400   4.246  1.00  0.00    -0.014 A 
BRANCH  39  40
ATOM     40  C   UNL     1      -9.041  11.865   5.211  1.00  0.00     0.031 A 
ATOM     41  C   UNL     1      -8.725  10.888   6.282  1.00  0.00     0.074 A 
ATOM     42  C   UNL     1      -8.256  12.935   4.950  1.00  0.00     0.049 A 
ATOM     43  N   UNL     1      -9.055  10.959   7.527  1.00  0.00    -0.248 NA
ATOM     44  C   UNL     1      -8.139   9.590   5.904  1.00  0.00     0.031 C 
ATOM     45  C   UNL     1      -8.239  13.777   3.746  1.00  0.00     0.029 A 
ATOM     46  N   UNL     1      -7.190  13.406   5.644  1.00  0.00    -0.354 N 
ATOM     47  C   UNL     1      -8.463   9.858   8.136  1.00  0.00     0.074 A 
ATOM     48  C   UNL     1      -8.176   8.939   7.069  1.00  0.00     0.031 C 
ATOM     49  C   UNL     1      -7.070  14.452   3.684  1.00  0.00     0.029 A 
ATOM     50  C   UNL     1      -6.324  14.211   4.907  1.00  0.00     0.049 A 
ATOM     51  H   UNL     1      -7.040  13.196   6.594  1.00  0.00     0.167 HD
ATOM     52  C   UNL     1      -7.997   9.929   9.416  1.00  0.00     0.034 A 
ATOM     53  C   UNL     1      -5.063  14.590   5.258  1.00  0.00     0.034 A 
ATOM     54  C   UNL     1      -8.458  11.147  10.058  1.00  0.00     0.049 A 
ATOM     55  C   UNL     1      -4.999  14.464   6.743  1.00  0.00     0.074 A 
ATOM     56  C   UNL     1      -9.703  11.719  10.255  1.00  0.00     0.029 A 
ATOM     57  N   UNL     1      -7.555  12.181  10.212  1.00  0.00    -0.354 N 
ATOM     58  N   UNL     1      -5.749  15.172   7.550  1.00  0.00    -0.248 NA
ATOM     59  C   UNL     1      -4.528  13.202   7.299  1.00  0.00     0.031 C 
ATOM     60  C   UNL     1      -9.513  13.101   9.957  1.00  0.00     0.029 A 
ATOM     61  C   UNL     1      -8.152  13.319   9.725  1.00  0.00     0.049 A 
ATOM     62  H   UNL     1      -6.652  12.114  10.598  1.00  0.00     0.167 HD
ATOM     63  C   UNL     1      -6.208  14.272   8.502  1.00  0.00     0.074 A 
ATOM     64  C   UNL     1      -5.348  13.096   8.350  1.00  0.00     0.031 C 
ATOM     65  C   UNL     1      -7.430  14.418   9.104  1.00  0.00     0.034 A 
BRANCH  52  66
ATOM     66  C   UNL     1      -6.834   9.136   9.979  1.00  0.00     0.023 A 
ATOM     67  C   UNL     1      -6.508   9.368  11.330  1.00  0.00     0.031 A 
ATOM     68  C   UNL     1      -5.877   8.405   9.241  1.00  0.00     0.131 A 
ATOM     69  C   UNL     1      -5.252   9.010  11.847  1.00  0.00     0.055 A 
ATOM     70  C   UNL     1      -4.657   7.984   9.782  1.00  0.00     0.041 A 
ATOM     71  F   UNL     1      -6.011   8.129   7.941  1.00  0.00    -0.206 F 
ATOM     72  C   UNL     1      -4.321   8.320  11.080  1.00  0.00     0.022 A 
BRANCH  69  73
ATOM     73  S   UNL     1      -4.793   9.644  13.479  1.00  0.00     0.124 S 
ATOM     74  O   UNL     1      -5.014  11.076  13.307  1.00  0.00    -0.237 OA
ATOM     75  O   UNL     1      -5.735   8.945  14.346  1.00  0.00    -0.237 OA
ATOM     76  O   UNL     1      -3.396   9.239  13.617  1.00  0.00    -0.744 OA
ENDBRANCH  69  73
ENDBRANCH  52  66
BRANCH  53  77
ATOM     77  C   UNL     1      -3.872  14.681   4.350  1.00  0.00     0.023 A 
ATOM     78  C   UNL     1      -2.656  15.305   4.718  1.00  0.00     0.031 A 
ATOM     79  C   UNL     1      -3.844  13.941   3.142  1.00  0.00     0.131 A 
ATOM     80  C   UNL     1      -1.504  15.181   3.895  1.00  0.00     0.055 A 
ATOM     81  C   UNL     1      -2.711  13.829   2.332  1.00  0.00     0.041 A 
ATOM     82  F   UNL     1      -4.902  13.222   2.738  1.00  0.00    -0.206 F 
ATOM     83  C   UNL     1      -1.531  14.442   2.710  1.00  0.00     0.022 A 
BRANCH  80  84
ATOM     84  S   UNL     1       0.097  15.902   4.396  1.00  0.00     0.124 S 
ATOM     85  O   UNL     1      -0.126  17.328   4.185  1.00  0.00    -0.237 OA
ATOM     86  O   UNL     1       0.224  15.461   5.780  1.00  0.00    -0.237 OA
ATOM     87  O   UNL     1       1.052  15.287   3.471  1.00  0.00    -0.744 OA
ENDBRANCH  80  84
ENDBRANCH  53  77
BRANCH  65  88
ATOM     88  C   UNL     1      -8.198  15.722   8.943  1.00  0.00     0.023 A 
ATOM     89  C   UNL     1      -8.556  16.315   7.710  1.00  0.00     0.031 A 
ATOM     90  C   UNL     1      -8.727  16.298  10.114  1.00  0.00     0.131 A 
ATOM     91  C   UNL     1      -9.410  17.439   7.686  1.00  0.00     0.055 A 
ATOM     92  C   UNL     1      -9.591  17.392  10.085  1.00  0.00     0.041 A 
ATOM     93  F   UNL     1      -8.448  15.772  11.318  1.00  0.00    -0.206 F 
ATOM     94  C   UNL     1      -9.933  17.970   8.870  1.00  0.00     0.022 A 
BRANCH  91  95
ATOM     95  S   UNL     1      -9.848  18.253   6.114  1.00  0.00     0.124 S 
ATOM     96  O   UNL     1      -8.572  18.357   5.416  1.00  0.00    -0.237 OA
ATOM     97  O   UNL     1     -10.820  17.328   5.538  1.00  0.00    -0.237 OA
ATOM     98  O   UNL     1     -10.411  19.536   6.543  1.00  0.00    -0.744 OA
ENDBRANCH  91  95
ENDBRANCH  65  88
ENDBRANCH  39  40
ENDBRANCH  31  34
ENDBRANCH  29  30
ENDBRANCH  28  29
ENDBRANCH  27  28
ENDBRANCH  26  27
ENDBRANCH   3  26
TORSDOF 22
