REMARK SMILES O=C(NCCCCNC(=O)c1ccc(-c2c3nc(c(-c4cc(S(=O)(=O)[O-])ccc4F)c4ccc([nH]4)c(-c4cc(S(=O)(=O)[O-])ccc4F)c4nc(c(-c5cc(S(=O)(=O)[O-])ccc5F)c5ccc2[nH]5)C=C4)C=C3)cc1)C1=Cc2cc(Cl)cc(-c3ccc(O)cc3)c2O[C@@H]1C(F)(F)F
REMARK SMILES IDX 6 1 5 2 4 3 3 4 1 5 2 6 74 8 75 9 91 10 76 11 90 12 77 13
REMARK SMILES IDX 89 14 78 15 81 16 79 17 80 18 92 19 93 20 94 21 95 22 82 23
REMARK SMILES IDX 83 24 88 25 84 26 87 27 85 28 86 29 7 31 8 32 9 33 10 35
REMARK SMILES IDX 11 36 12 37 73 38 13 39 72 40 14 41 15 42 16 43 66 44 17 45
REMARK SMILES IDX 71 46 65 47 67 48 18 49 70 50 64 51 63 52 19 54 51 55 31 56
REMARK SMILES IDX 50 57 32 58 35 59 49 60 68 61 33 62 34 63 48 65 69 66 36 67
REMARK SMILES IDX 20 68 21 69 29 70 22 71 28 72 30 73 27 74 23 75 24 76 25 77
REMARK SMILES IDX 26 78 52 79 53 80 61 81 54 82 60 83 62 84 59 85 55 86 56 87
REMARK SMILES IDX 57 88 58 89 37 90 38 91 46 92 39 93 45 94 47 95 44 96 40 97
REMARK SMILES IDX 41 98 42 99 43 100
REMARK H PARENT 3 7 86 30 8 34 67 53 35 64
REMARK Flexibility Score: inf
ROOT
ATOM      1  C   UNL     1       4.216  -3.469  -3.121  1.00  0.00     0.023 C 
ENDROOT
BRANCH   1   2
ATOM      2  C   UNL     1       4.514  -3.266  -1.637  1.00  0.00     0.023 C 
BRANCH   2   3
ATOM      3  C   UNL     1       4.197  -1.897  -1.045  1.00  0.00     0.116 C 
BRANCH   3   4
ATOM      4  N   UNL     1       2.863  -1.726  -0.497  1.00  0.00    -0.352 N 
ATOM      5  O   UNL     1       1.180  -0.753   0.625  1.00  0.00    -0.270 OA
ATOM      6  C   UNL     1       2.385  -0.781   0.371  1.00  0.00     0.251 C 
ATOM      7  H   UNL     1       2.201  -2.391  -0.795  1.00  0.00     0.163 HD
BRANCH   6   8
ATOM      8  C   UNL     1       3.245   0.278   0.989  1.00  0.00     0.067 C 
ATOM      9  C   UNL     1       4.526   0.074   1.349  1.00  0.00     0.025 C 
ATOM     10  C   UNL     1       2.876   1.666   0.504  1.00  0.00     0.314 C 
ATOM     11  C   UNL     1       5.453   0.648   0.333  1.00  0.00     0.019 A 
ATOM     12  O   UNL     1       3.688   2.019  -0.648  1.00  0.00    -0.475 OA
ATOM     13  C   UNL     1       6.746   0.120   0.259  1.00  0.00     0.032 A 
ATOM     14  C   UNL     1       4.953   1.471  -0.699  1.00  0.00     0.135 A 
ATOM     15  C   UNL     1       7.500   0.331  -0.888  1.00  0.00     0.042 A 
ATOM     16  C   UNL     1       5.695   1.645  -1.880  1.00  0.00     0.026 A 
ATOM     17  Cl  UNL     1       9.025  -0.448  -1.049  1.00  0.00    -0.084 Cl
ATOM     18  C   UNL     1       6.979   1.066  -1.953  1.00  0.00     0.033 A 
BRANCH  10  19
ATOM     19  C   UNL     1       2.949   2.732   1.613  1.00  0.00     0.429 C 
ATOM     20  F   UNL     1       2.500   3.935   1.185  1.00  0.00    -0.167 F 
ATOM     21  F   UNL     1       2.189   2.388   2.683  1.00  0.00    -0.167 F 
ATOM     22  F   UNL     1       4.209   2.921   2.078  1.00  0.00    -0.167 F 
ENDBRANCH  10  19
BRANCH  16  23
ATOM     23  C   UNL     1       5.117   2.217  -3.107  1.00  0.00    -0.014 A 
ATOM     24  C   UNL     1       4.114   1.516  -3.801  1.00  0.00     0.012 A 
ATOM     25  C   UNL     1       5.624   3.392  -3.678  1.00  0.00     0.012 A 
ATOM     26  C   UNL     1       3.676   1.939  -5.055  1.00  0.00     0.047 A 
ATOM     27  C   UNL     1       5.178   3.827  -4.931  1.00  0.00     0.047 A 
ATOM     28  C   UNL     1       4.225   3.081  -5.617  1.00  0.00     0.115 A 
BRANCH  28  29
ATOM     29  O   UNL     1       3.804   3.432  -6.864  1.00  0.00    -0.508 OA
ATOM     30  H   UNL     1       3.161   2.913  -7.304  1.00  0.00     0.293 HD
ENDBRANCH  28  29
ENDBRANCH  16  23
ENDBRANCH   6   8
ENDBRANCH   3   4
ENDBRANCH   2   3
ENDBRANCH   1   2
BRANCH   1  31
ATOM     31  C   UNL     1       4.838  -2.486  -4.115  1.00  0.00     0.116 C 
BRANCH  31  32
ATOM     32  N   UNL     1       6.287  -2.362  -4.066  1.00  0.00    -0.352 N 
ATOM     33  C   UNL     1       7.167  -2.188  -5.123  1.00  0.00     0.251 C 
ATOM     34  H   UNL     1       6.693  -2.408  -3.170  1.00  0.00     0.163 HD
ATOM     35  O   UNL     1       8.364  -2.081  -4.920  1.00  0.00    -0.269 OA
BRANCH  33  36
ATOM     36  C   UNL     1       6.638  -2.206  -6.510  1.00  0.00     0.039 A 
ATOM     37  C   UNL     1       7.124  -3.168  -7.399  1.00  0.00     0.014 A 
ATOM     38  C   UNL     1       5.597  -1.357  -6.893  1.00  0.00     0.014 A 
ATOM     39  C   UNL     1       6.476  -3.368  -8.622  1.00  0.00     0.010 A 
ATOM     40  C   UNL     1       4.914  -1.600  -8.086  1.00  0.00     0.010 A 
ATOM     41  C   UNL     1       5.320  -2.636  -8.944  1.00  0.00    -0.014 A 
BRANCH  41  42
ATOM     42  C   UNL     1       4.475  -3.014 -10.114  1.00  0.00     0.031 A 
ATOM     43  C   UNL     1       4.269  -2.062 -11.260  1.00  0.00     0.074 A 
ATOM     44  C   UNL     1       3.817  -4.194 -10.097  1.00  0.00     0.049 A 
ATOM     45  N   UNL     1       3.528  -2.207 -12.329  1.00  0.00    -0.248 NA
ATOM     46  C   UNL     1       4.966  -0.770 -11.183  1.00  0.00     0.031 C 
ATOM     47  C   UNL     1       3.882  -5.182  -9.017  1.00  0.00     0.029 A 
ATOM     48  N   UNL     1       2.955  -4.761 -11.005  1.00  0.00    -0.354 N 
ATOM     49  C   UNL     1       3.653  -1.022 -13.045  1.00  0.00     0.074 A 
ATOM     50  C   UNL     1       4.512  -0.154 -12.266  1.00  0.00     0.031 C 
ATOM     51  C   UNL     1       3.112  -6.236  -9.333  1.00  0.00     0.029 A 
ATOM     52  C   UNL     1       2.462  -5.987 -10.615  1.00  0.00     0.049 A 
ATOM     53  H   UNL     1       2.712  -4.330 -11.856  1.00  0.00     0.167 HD
ATOM     54  C   UNL     1       3.112  -0.694 -14.245  1.00  0.00     0.034 A 
ATOM     55  C   UNL     1       1.579  -6.814 -11.211  1.00  0.00     0.034 A 
ATOM     56  C   UNL     1       2.277  -1.575 -15.025  1.00  0.00     0.049 A 
ATOM     57  C   UNL     1       0.992  -6.421 -12.545  1.00  0.00     0.074 A 
ATOM     58  C   UNL     1       1.768  -1.374 -16.297  1.00  0.00     0.029 A 
ATOM     59  N   UNL     1       1.811  -2.813 -14.605  1.00  0.00    -0.354 N 
ATOM     60  N   UNL     1       1.204  -5.335 -13.252  1.00  0.00    -0.248 NA
ATOM     61  C   UNL     1       0.056  -7.368 -13.166  1.00  0.00     0.031 C 
ATOM     62  C   UNL     1       0.941  -2.455 -16.617  1.00  0.00     0.029 A 
ATOM     63  C   UNL     1       0.989  -3.367 -15.576  1.00  0.00     0.049 A 
ATOM     64  H   UNL     1       2.031  -3.236 -13.743  1.00  0.00     0.167 HD
ATOM     65  C   UNL     1       0.459  -5.492 -14.417  1.00  0.00     0.074 A 
ATOM     66  C   UNL     1      -0.200  -6.777 -14.323  1.00  0.00     0.031 C 
ATOM     67  C   UNL     1       0.336  -4.650 -15.474  1.00  0.00     0.034 A 
BRANCH  54  68
ATOM     68  C   UNL     1       3.386   0.688 -14.785  1.00  0.00     0.023 A 
ATOM     69  C   UNL     1       4.677   1.096 -15.160  1.00  0.00     0.031 A 
ATOM     70  C   UNL     1       2.332   1.606 -14.943  1.00  0.00     0.131 A 
ATOM     71  C   UNL     1       4.890   2.404 -15.622  1.00  0.00     0.055 A 
ATOM     72  C   UNL     1       2.539   2.882 -15.469  1.00  0.00     0.041 A 
ATOM     73  F   UNL     1       1.080   1.276 -14.585  1.00  0.00    -0.206 F 
ATOM     74  C   UNL     1       3.826   3.291 -15.803  1.00  0.00     0.022 A 
BRANCH  71  75
ATOM     75  S   UNL     1       6.595   2.965 -15.884  1.00  0.00     0.124 S 
ATOM     76  O   UNL     1       7.160   2.826 -14.544  1.00  0.00    -0.237 OA
ATOM     77  O   UNL     1       7.087   2.026 -16.885  1.00  0.00    -0.237 OA
ATOM     78  O   UNL     1       6.436   4.342 -16.345  1.00  0.00    -0.744 OA
ENDBRANCH  71  75
ENDBRANCH  54  68
BRANCH  55  79
ATOM     79  C   UNL     1       1.170  -8.094 -10.560  1.00  0.00     0.023 A 
ATOM     80  C   UNL     1       1.447  -9.331 -11.164  1.00  0.00     0.031 A 
ATOM     81  C   UNL     1       0.432  -8.096  -9.364  1.00  0.00     0.131 A 
ATOM     82  C   UNL     1       0.936 -10.513 -10.605  1.00  0.00     0.055 A 
ATOM     83  C   UNL     1      -0.024  -9.280  -8.780  1.00  0.00     0.041 A 
ATOM     84  F   UNL     1       0.143  -6.942  -8.741  1.00  0.00    -0.206 F 
ATOM     85  C   UNL     1       0.212 -10.497  -9.411  1.00  0.00     0.022 A 
BRANCH  82  86
ATOM     86  S   UNL     1       1.134 -12.064 -11.525  1.00  0.00     0.124 S 
ATOM     87  O   UNL     1       0.544 -11.723 -12.815  1.00  0.00    -0.237 OA
ATOM     88  O   UNL     1       2.582 -12.241 -11.508  1.00  0.00    -0.237 OA
ATOM     89  O   UNL     1       0.380 -13.030 -10.729  1.00  0.00    -0.744 OA
ENDBRANCH  82  86
ENDBRANCH  55  79
BRANCH  67  90
ATOM     90  C   UNL     1      -0.498  -5.123 -16.639  1.00  0.00     0.023 A 
ATOM     91  C   UNL     1      -1.891  -5.281 -16.540  1.00  0.00     0.031 A 
ATOM     92  C   UNL     1       0.117  -5.427 -17.867  1.00  0.00     0.131 A 
ATOM     93  C   UNL     1      -2.618  -5.777 -17.633  1.00  0.00     0.055 A 
ATOM     94  C   UNL     1      -0.618  -5.867 -18.968  1.00  0.00     0.041 A 
ATOM     95  F   UNL     1       1.445  -5.296 -18.016  1.00  0.00    -0.206 F 
ATOM     96  C   UNL     1      -1.992  -6.055 -18.852  1.00  0.00     0.022 A 
BRANCH  93  97
ATOM     97  S   UNL     1      -4.386  -6.124 -17.423  1.00  0.00     0.124 S 
ATOM     98  O   UNL     1      -4.374  -7.122 -16.357  1.00  0.00    -0.237 OA
ATOM     99  O   UNL     1      -4.922  -4.815 -17.064  1.00  0.00    -0.237 OA
ATOM    100  O   UNL     1      -4.796  -6.622 -18.734  1.00  0.00    -0.744 OA
ENDBRANCH  93  97
ENDBRANCH  67  90
ENDBRANCH  41  42
ENDBRANCH  33  36
ENDBRANCH  31  32
ENDBRANCH   1  31
TORSDOF 17
