REMARK SMILES Cc1cc(C)c2c(CCCC(=O)NCCCCNC(=O)c3ccc(-c4c5nc(c(-c6cc(S(=O)(=O)[O-])ccc6F)c6ccc([nH]6)c(-c6cc(S(=O)(=O)[O-])ccc6F)c6nc(c(-c7cc(S(=O)(=O)[O-])ccc7F)c7ccc4[nH]7)C=C6)C=C5)cc3)c(-c3ccccn3)[nH]c2c1
REMARK SMILES IDX 15 1 14 2 13 3 11 4 12 5 10 7 9 8 8 9 7 10 1 11 2 12 3 13
REMARK SMILES IDX 93 14 4 15 92 16 5 17 6 18 91 19 84 20 85 22 86 23 90 24
REMARK SMILES IDX 87 25 89 26 88 27 16 28 17 29 18 30 19 31 20 33 21 34 22 35
REMARK SMILES IDX 83 36 23 37 82 38 24 39 25 40 26 41 76 42 27 43 81 44 75 45
REMARK SMILES IDX 77 46 28 47 80 48 74 49 73 50 29 52 61 53 41 54 60 55 42 56
REMARK SMILES IDX 45 57 59 58 78 59 43 60 44 61 58 63 79 64 46 65 30 66 31 67
REMARK SMILES IDX 39 68 32 69 38 70 40 71 37 72 33 73 34 74 35 75 36 76 62 77
REMARK SMILES IDX 63 78 71 79 64 80 70 81 72 82 69 83 65 84 66 85 67 86 68 87
REMARK SMILES IDX 47 88 48 89 56 90 49 91 55 92 57 93 54 94 50 95 51 96 52 97
REMARK SMILES IDX 53 98
REMARK H PARENT 13 6 91 21 18 32 77 51 45 62
REMARK Flexibility Score: inf
ROOT
ATOM      1  C   UNL     1       0.393   5.925  -5.173  1.00  0.00     0.023 C 
ENDROOT
BRANCH   1   2
ATOM      2  C   UNL     1       0.604   7.005  -4.111  1.00  0.00     0.116 C 
BRANCH   2   3
ATOM      3  N   UNL     1      -0.172   8.200  -4.352  1.00  0.00    -0.356 N 
ATOM      4  C   UNL     1      -1.240   8.744  -3.720  1.00  0.00     0.220 C 
ATOM      5  O   UNL     1      -1.596   9.857  -4.129  1.00  0.00    -0.275 OA
ATOM      6  H   UNL     1       0.136   8.722  -5.128  1.00  0.00     0.163 HD
BRANCH   4   7
ATOM      7  C   UNL     1      -1.936   8.159  -2.503  1.00  0.00     0.100 C 
BRANCH   7   8
ATOM      8  C   UNL     1      -2.592   6.799  -2.453  1.00  0.00     0.015 C 
BRANCH   8   9
ATOM      9  C   UNL     1      -1.791   5.513  -2.443  1.00  0.00     0.039 C 
BRANCH   9  10
ATOM     10  C   UNL     1      -0.739   5.088  -1.433  1.00  0.00    -0.013 A 
ATOM     11  C   UNL     1       1.129  -0.183  -0.036  1.00  0.00     0.044 C 
ATOM     12  C   UNL     1       0.624   1.151  -0.501  1.00  0.00    -0.049 A 
ATOM     13  C   UNL     1      -0.336   1.232  -1.509  1.00  0.00     0.007 A 
ATOM     14  C   UNL     1       1.108   2.321   0.088  1.00  0.00     0.030 A 
ATOM     15  C   UNL     1      -0.857   2.466  -1.957  1.00  0.00    -0.041 A 
ATOM     16  C   UNL     1       0.569   3.543  -0.331  1.00  0.00     0.047 A 
ATOM     17  C   UNL     1      -1.815   2.415  -3.122  1.00  0.00     0.045 C 
ATOM     18  C   UNL     1      -0.419   3.660  -1.302  1.00  0.00     0.006 A 
ATOM     19  N   UNL     1       0.897   4.810   0.069  1.00  0.00    -0.353 N 
ATOM     20  C   UNL     1       0.208   5.768  -0.643  1.00  0.00     0.068 A 
ATOM     21  H   UNL     1       1.547   5.012   0.779  1.00  0.00     0.167 HD
BRANCH  20  22
ATOM     22  C   UNL     1       0.699   7.147  -0.536  1.00  0.00     0.087 A 
ATOM     23  C   UNL     1       1.911   7.514  -1.125  1.00  0.00     0.030 A 
ATOM     24  N   UNL     1      -0.083   8.024   0.125  1.00  0.00    -0.255 NA
ATOM     25  C   UNL     1       2.257   8.862  -1.183  1.00  0.00     0.004 A 
ATOM     26  C   UNL     1       0.278   9.333   0.045  1.00  0.00     0.112 A 
ATOM     27  C   UNL     1       1.402   9.798  -0.621  1.00  0.00     0.020 A 
ENDBRANCH  20  22
ENDBRANCH   9  10
ENDBRANCH   8   9
ENDBRANCH   7   8
ENDBRANCH   4   7
ENDBRANCH   2   3
ENDBRANCH   1   2
BRANCH   1  28
ATOM     28  C   UNL     1       1.236   6.091  -6.439  1.00  0.00     0.023 C 
BRANCH  28  29
ATOM     29  C   UNL     1       2.736   5.915  -6.224  1.00  0.00     0.116 C 
BRANCH  29  30
ATOM     30  N   UNL     1       3.119   4.556  -5.851  1.00  0.00    -0.352 N 
ATOM     31  C   UNL     1       4.400   4.109  -5.592  1.00  0.00     0.251 C 
ATOM     32  H   UNL     1       2.393   3.894  -5.777  1.00  0.00     0.163 HD
ATOM     33  O   UNL     1       4.686   2.918  -5.747  1.00  0.00    -0.269 OA
BRANCH  31  34
ATOM     34  C   UNL     1       5.413   5.078  -5.133  1.00  0.00     0.039 A 
ATOM     35  C   UNL     1       6.714   5.056  -5.633  1.00  0.00     0.014 A 
ATOM     36  C   UNL     1       5.025   6.054  -4.209  1.00  0.00     0.014 A 
ATOM     37  C   UNL     1       7.585   6.080  -5.264  1.00  0.00     0.010 A 
ATOM     38  C   UNL     1       5.845   7.132  -3.945  1.00  0.00     0.010 A 
ATOM     39  C   UNL     1       7.136   7.147  -4.454  1.00  0.00    -0.014 A 
BRANCH  39  40
ATOM     40  C   UNL     1       7.948   8.365  -4.335  1.00  0.00     0.031 A 
ATOM     41  C   UNL     1       8.398   8.857  -5.662  1.00  0.00     0.074 A 
ATOM     42  C   UNL     1       8.175   9.085  -3.211  1.00  0.00     0.049 A 
ATOM     43  N   UNL     1       9.523   8.579  -6.232  1.00  0.00    -0.248 NA
ATOM     44  C   UNL     1       7.435   9.514  -6.565  1.00  0.00     0.031 C 
ATOM     45  C   UNL     1       7.579   8.888  -1.886  1.00  0.00     0.029 A 
ATOM     46  N   UNL     1       8.958  10.196  -3.018  1.00  0.00    -0.354 N 
ATOM     47  C   UNL     1       9.541   9.338  -7.393  1.00  0.00     0.074 A 
ATOM     48  C   UNL     1       8.167   9.647  -7.677  1.00  0.00     0.031 C 
ATOM     49  C   UNL     1       7.847   9.953  -1.093  1.00  0.00     0.029 A 
ATOM     50  C   UNL     1       8.778  10.831  -1.784  1.00  0.00     0.049 A 
ATOM     51  H   UNL     1       9.596  10.520  -3.694  1.00  0.00     0.167 HD
ATOM     52  C   UNL     1      10.698   9.958  -7.757  1.00  0.00     0.034 A 
ATOM     53  C   UNL     1       9.408  11.944  -1.311  1.00  0.00     0.034 A 
ATOM     54  C   UNL     1      11.803   9.445  -6.977  1.00  0.00     0.049 A 
ATOM     55  C   UNL     1      10.730  11.978  -1.975  1.00  0.00     0.074 A 
ATOM     56  C   UNL     1      12.558   8.295  -6.913  1.00  0.00     0.029 A 
ATOM     57  N   UNL     1      11.959  10.100  -5.783  1.00  0.00    -0.354 N 
ATOM     58  N   UNL     1      11.639  11.057  -1.794  1.00  0.00    -0.248 NA
ATOM     59  C   UNL     1      10.916  12.829  -3.143  1.00  0.00     0.031 C 
ATOM     60  C   UNL     1      13.070   8.225  -5.580  1.00  0.00     0.029 A 
ATOM     61  C   UNL     1      12.671   9.361  -4.881  1.00  0.00     0.049 A 
ATOM     62  H   UNL     1      11.599  10.997  -5.597  1.00  0.00     0.167 HD
ATOM     63  C   UNL     1      12.247  10.938  -3.026  1.00  0.00     0.074 A 
ATOM     64  C   UNL     1      11.885  12.147  -3.759  1.00  0.00     0.031 C 
ATOM     65  C   UNL     1      12.693   9.733  -3.479  1.00  0.00     0.034 A 
BRANCH  52  66
ATOM     66  C   UNL     1      10.791  11.353  -8.352  1.00  0.00     0.023 A 
ATOM     67  C   UNL     1      12.081  11.832  -8.667  1.00  0.00     0.031 A 
ATOM     68  C   UNL     1       9.768  12.327  -8.325  1.00  0.00     0.131 A 
ATOM     69  C   UNL     1      12.317  13.204  -8.868  1.00  0.00     0.055 A 
ATOM     70  C   UNL     1      10.000  13.683  -8.568  1.00  0.00     0.041 A 
ATOM     71  F   UNL     1       8.509  12.048  -7.969  1.00  0.00    -0.206 F 
ATOM     72  C   UNL     1      11.283  14.134  -8.819  1.00  0.00     0.022 A 
BRANCH  69  73
ATOM     73  S   UNL     1      14.023  13.774  -9.092  1.00  0.00     0.124 S 
ATOM     74  O   UNL     1      14.634  13.394  -7.824  1.00  0.00    -0.237 OA
ATOM     75  O   UNL     1      14.443  13.015 -10.265  1.00  0.00    -0.237 OA
ATOM     76  O   UNL     1      13.872  15.211  -9.309  1.00  0.00    -0.744 OA
ENDBRANCH  69  73
ENDBRANCH  52  66
BRANCH  53  77
ATOM     77  C   UNL     1       8.843  13.117  -0.569  1.00  0.00     0.023 A 
ATOM     78  C   UNL     1       9.659  14.163  -0.063  1.00  0.00     0.031 A 
ATOM     79  C   UNL     1       7.456  13.369  -0.597  1.00  0.00     0.131 A 
ATOM     80  C   UNL     1       9.086  15.395   0.345  1.00  0.00     0.055 A 
ATOM     81  C   UNL     1       6.898  14.591  -0.202  1.00  0.00     0.041 A 
ATOM     82  F   UNL     1       6.596  12.467  -1.093  1.00  0.00    -0.206 F 
ATOM     83  C   UNL     1       7.712  15.616   0.254  1.00  0.00     0.022 A 
BRANCH  80  84
ATOM     84  S   UNL     1      10.132  16.792   0.890  1.00  0.00     0.124 S 
ATOM     85  O   UNL     1      10.457  16.414   2.260  1.00  0.00    -0.237 OA
ATOM     86  O   UNL     1      11.230  16.763  -0.069  1.00  0.00    -0.237 OA
ATOM     87  O   UNL     1       9.243  17.949   0.765  1.00  0.00    -0.744 OA
ENDBRANCH  80  84
ENDBRANCH  53  77
BRANCH  65  88
ATOM     88  C   UNL     1      13.186   8.720  -2.487  1.00  0.00     0.023 A 
ATOM     89  C   UNL     1      12.398   7.972  -1.590  1.00  0.00     0.031 A 
ATOM     90  C   UNL     1      14.562   8.433  -2.561  1.00  0.00     0.131 A 
ATOM     91  C   UNL     1      13.004   6.954  -0.822  1.00  0.00     0.055 A 
ATOM     92  C   UNL     1      15.150   7.416  -1.819  1.00  0.00     0.041 A 
ATOM     93  F   UNL     1      15.352   9.117  -3.405  1.00  0.00    -0.206 F 
ATOM     94  C   UNL     1      14.370   6.668  -0.947  1.00  0.00     0.022 A 
BRANCH  91  95
ATOM     95  S   UNL     1      12.018   5.949   0.336  1.00  0.00     0.124 S 
ATOM     96  O   UNL     1      11.503   6.938   1.276  1.00  0.00    -0.237 OA
ATOM     97  O   UNL     1      11.030   5.324  -0.539  1.00  0.00    -0.237 OA
ATOM     98  O   UNL     1      12.996   5.019   0.905  1.00  0.00    -0.744 OA
ENDBRANCH  91  95
ENDBRANCH  65  88
ENDBRANCH  39  40
ENDBRANCH  31  34
ENDBRANCH  29  30
ENDBRANCH  28  29
ENDBRANCH   1  28
TORSDOF 18
