REMARK SMILES O=C(NCCCCNC(=O)[C@H]1CCCCN1S(=O)(=O)c1cc[nH]c1)c1ccc(-c2c3nc(c(-c4cc(S(=O)(=O)[O-])ccc4F)c4ccc([nH]4)c(-c4cc(S(=O)(=O)[O-])ccc4F)c4nc(c(-c5cc(S(=O)(=O)[O-])ccc5F)c5ccc2[nH]5)C=C4)C=C3)cc1
REMARK SMILES IDX 5 1 4 2 3 3 1 4 2 5 25 7 26 8 87 9 27 10 86 11 28 12 29 13
REMARK SMILES IDX 30 14 80 15 31 16 85 17 79 18 81 19 32 20 84 21 78 22 77 23
REMARK SMILES IDX 33 25 65 26 45 27 64 28 46 29 49 30 63 31 82 32 47 33 48 34
REMARK SMILES IDX 62 36 83 37 50 38 34 39 35 40 43 41 36 42 42 43 44 44 41 45
REMARK SMILES IDX 37 46 38 47 39 48 40 49 66 50 67 51 75 52 68 53 74 54 76 55
REMARK SMILES IDX 73 56 69 57 70 58 71 59 72 60 51 61 52 62 60 63 53 64 59 65
REMARK SMILES IDX 61 66 58 67 54 68 55 69 56 70 57 71 6 72 7 73 8 74 9 75
REMARK SMILES IDX 10 77 11 78 12 79 16 80 13 81 15 82 14 83 17 84 18 85 19 86
REMARK SMILES IDX 20 87 21 88 24 89 22 90 23 91
REMARK H PARENT 3 6 81 24 49 35 8 76 23 92
REMARK Flexibility Score: inf
ROOT
ATOM      1  C   UNL     1       9.576  -2.537  -6.241  1.00  0.00     0.023 C 
ENDROOT
BRANCH   1   2
ATOM      2  C   UNL     1       8.749  -1.425  -6.892  1.00  0.00     0.116 C 
BRANCH   2   3
ATOM      3  N   UNL     1       8.938  -0.092  -6.353  1.00  0.00    -0.352 N 
ATOM      4  O   UNL     1       9.800   1.938  -6.005  1.00  0.00    -0.269 OA
ATOM      5  C   UNL     1       9.986   0.793  -6.418  1.00  0.00     0.251 C 
ATOM      6  H   UNL     1       8.167   0.243  -5.841  1.00  0.00     0.163 HD
BRANCH   5   7
ATOM      7  C   UNL     1      11.340   0.392  -6.873  1.00  0.00     0.039 A 
ATOM      8  C   UNL     1      11.567  -0.553  -7.874  1.00  0.00     0.014 A 
ATOM      9  C   UNL     1      12.437   1.001  -6.242  1.00  0.00     0.014 A 
ATOM     10  C   UNL     1      12.855  -0.991  -8.144  1.00  0.00     0.010 A 
ATOM     11  C   UNL     1      13.741   0.604  -6.544  1.00  0.00     0.010 A 
ATOM     12  C   UNL     1      13.945  -0.404  -7.491  1.00  0.00    -0.014 A 
BRANCH  12  13
ATOM     13  C   UNL     1      15.269  -0.647  -8.110  1.00  0.00     0.031 A 
ATOM     14  C   UNL     1      15.364   0.193  -9.422  1.00  0.00     0.074 A 
ATOM     15  C   UNL     1      16.083  -1.594  -7.534  1.00  0.00     0.049 A 
ATOM     16  N   UNL     1      15.897  -0.095 -10.570  1.00  0.00    -0.248 NA
ATOM     17  C   UNL     1      14.627   1.494  -9.514  1.00  0.00     0.031 C 
ATOM     18  C   UNL     1      15.823  -2.278  -6.241  1.00  0.00     0.029 A 
ATOM     19  N   UNL     1      17.281  -2.187  -7.894  1.00  0.00    -0.354 N 
ATOM     20  C   UNL     1      15.830   1.072 -11.378  1.00  0.00     0.074 A 
ATOM     21  C   UNL     1      14.878   1.929 -10.751  1.00  0.00     0.031 C 
ATOM     22  C   UNL     1      16.760  -3.227  -5.981  1.00  0.00     0.029 A 
ATOM     23  C   UNL     1      17.741  -3.256  -7.051  1.00  0.00     0.049 A 
ATOM     24  H   UNL     1      17.789  -1.893  -8.684  1.00  0.00     0.167 HD
ATOM     25  C   UNL     1      16.720   1.332 -12.385  1.00  0.00     0.034 A 
ATOM     26  C   UNL     1      18.810  -4.109  -7.234  1.00  0.00     0.034 A 
ATOM     27  C   UNL     1      17.622   0.234 -12.489  1.00  0.00     0.049 A 
ATOM     28  C   UNL     1      19.501  -3.528  -8.394  1.00  0.00     0.074 A 
ATOM     29  C   UNL     1      17.464  -1.072 -12.864  1.00  0.00     0.029 A 
ATOM     30  N   UNL     1      18.819   0.372 -11.818  1.00  0.00    -0.354 N 
ATOM     31  N   UNL     1      20.222  -2.451  -8.360  1.00  0.00    -0.248 NA
ATOM     32  C   UNL     1      19.337  -4.171  -9.705  1.00  0.00     0.031 C 
ATOM     33  C   UNL     1      18.268  -1.749 -11.927  1.00  0.00     0.029 A 
ATOM     34  C   UNL     1      19.084  -0.836 -11.242  1.00  0.00     0.049 A 
ATOM     35  H   UNL     1      19.373   1.184 -11.765  1.00  0.00     0.167 HD
ATOM     36  C   UNL     1      20.306  -2.119  -9.685  1.00  0.00     0.074 A 
ATOM     37  C   UNL     1      20.078  -3.339 -10.433  1.00  0.00     0.031 C 
ATOM     38  C   UNL     1      19.936  -0.872 -10.074  1.00  0.00     0.034 A 
BRANCH  25  39
ATOM     39  C   UNL     1      17.143   2.597 -13.107  1.00  0.00     0.023 A 
ATOM     40  C   UNL     1      18.171   2.421 -14.071  1.00  0.00     0.031 A 
ATOM     41  C   UNL     1      16.929   3.909 -12.672  1.00  0.00     0.131 A 
ATOM     42  C   UNL     1      19.091   3.436 -14.350  1.00  0.00     0.055 A 
ATOM     43  C   UNL     1      17.786   4.957 -13.048  1.00  0.00     0.041 A 
ATOM     44  F   UNL     1      15.951   4.221 -11.813  1.00  0.00    -0.206 F 
ATOM     45  C   UNL     1      18.909   4.712 -13.839  1.00  0.00     0.022 A 
BRANCH  42  46
ATOM     46  S   UNL     1      20.648   2.957 -15.156  1.00  0.00     0.124 S 
ATOM     47  O   UNL     1      21.157   1.944 -14.238  1.00  0.00    -0.237 OA
ATOM     48  O   UNL     1      20.184   2.469 -16.452  1.00  0.00    -0.237 OA
ATOM     49  O   UNL     1      21.405   4.206 -15.197  1.00  0.00    -0.744 OA
ENDBRANCH  42  46
ENDBRANCH  25  39
BRANCH  26  50
ATOM     50  C   UNL     1      19.474  -5.399  -6.710  1.00  0.00     0.023 A 
ATOM     51  C   UNL     1      19.139  -6.156  -5.572  1.00  0.00     0.031 A 
ATOM     52  C   UNL     1      20.532  -5.985  -7.495  1.00  0.00     0.131 A 
ATOM     53  C   UNL     1      19.768  -7.427  -5.340  1.00  0.00     0.055 A 
ATOM     54  C   UNL     1      21.053  -7.267  -7.327  1.00  0.00     0.041 A 
ATOM     55  F   UNL     1      21.145  -5.327  -8.487  1.00  0.00    -0.206 F 
ATOM     56  C   UNL     1      20.658  -8.008  -6.249  1.00  0.00     0.022 A 
BRANCH  53  57
ATOM     57  S   UNL     1      19.472  -8.405  -3.830  1.00  0.00     0.124 S 
ATOM     58  O   UNL     1      20.508  -7.901  -2.935  1.00  0.00    -0.237 OA
ATOM     59  O   UNL     1      18.098  -8.066  -3.480  1.00  0.00    -0.237 OA
ATOM     60  O   UNL     1      19.666  -9.785  -4.279  1.00  0.00    -0.744 OA
ENDBRANCH  53  57
ENDBRANCH  26  50
BRANCH  38  61
ATOM     61  C   UNL     1      20.096   0.216  -9.011  1.00  0.00     0.023 A 
ATOM     62  C   UNL     1      21.339   0.407  -8.373  1.00  0.00     0.031 A 
ATOM     63  C   UNL     1      19.037   1.002  -8.524  1.00  0.00     0.131 A 
ATOM     64  C   UNL     1      21.479   1.310  -7.298  1.00  0.00     0.055 A 
ATOM     65  C   UNL     1      19.170   1.902  -7.455  1.00  0.00     0.041 A 
ATOM     66  F   UNL     1      17.822   0.918  -9.059  1.00  0.00    -0.206 F 
ATOM     67  C   UNL     1      20.398   2.058  -6.833  1.00  0.00     0.022 A 
BRANCH  64  68
ATOM     68  S   UNL     1      23.103   1.521  -6.516  1.00  0.00     0.124 S 
ATOM     69  O   UNL     1      23.305   0.243  -5.843  1.00  0.00    -0.237 OA
ATOM     70  O   UNL     1      23.973   1.787  -7.657  1.00  0.00    -0.237 OA
ATOM     71  O   UNL     1      22.908   2.662  -5.620  1.00  0.00    -0.744 OA
ENDBRANCH  64  68
ENDBRANCH  38  61
ENDBRANCH  12  13
ENDBRANCH   5   7
ENDBRANCH   2   3
ENDBRANCH   1   2
BRANCH   1  72
ATOM     72  C   UNL     1       9.224  -2.848  -4.785  1.00  0.00     0.023 C 
BRANCH  72  73
ATOM     73  C   UNL     1       7.745  -3.107  -4.527  1.00  0.00     0.116 C 
BRANCH  73  74
ATOM     74  N   UNL     1       7.231  -4.177  -5.363  1.00  0.00    -0.355 N 
ATOM     75  C   UNL     1       6.631  -5.354  -5.041  1.00  0.00     0.238 C 
ATOM     76  H   UNL     1       7.335  -4.024  -6.330  1.00  0.00     0.163 HD
ATOM     77  O   UNL     1       6.271  -6.071  -5.979  1.00  0.00    -0.273 OA
BRANCH  75  78
ATOM     78  C   UNL     1       6.347  -5.717  -3.577  1.00  0.00     0.162 C 
ATOM     79  C   UNL     1       4.842  -5.592  -3.309  1.00  0.00     0.030 C 
ATOM     80  N   UNL     1       6.848  -7.068  -3.151  1.00  0.00    -0.185 NA
ATOM     81  C   UNL     1       4.038  -6.736  -3.917  1.00  0.00     0.004 C 
ATOM     82  C   UNL     1       6.107  -8.191  -3.780  1.00  0.00     0.103 C 
ATOM     83  C   UNL     1       4.613  -8.077  -3.488  1.00  0.00     0.017 C 
BRANCH  80  84
ATOM     84  S   UNL     1       8.560  -7.162  -3.282  1.00  0.00     0.245 S 
ATOM     85  O   UNL     1       8.911  -7.299  -4.670  1.00  0.00    -0.207 OA
ATOM     86  O   UNL     1       9.101  -6.090  -2.459  1.00  0.00    -0.207 OA
BRANCH  84  87
ATOM     87  C   UNL     1       9.129  -8.620  -2.543  1.00  0.00     0.100 A 
ATOM     88  C   UNL     1       8.983  -9.926  -3.085  1.00  0.00     0.041 A 
ATOM     89  C   UNL     1       9.850  -8.745  -1.371  1.00  0.00     0.104 A 
ATOM     90  C   UNL     1       9.584 -10.805  -2.211  1.00  0.00     0.083 A 
ATOM     91  N   UNL     1      10.137 -10.074  -1.190  1.00  0.00    -0.366 N 
ATOM     92  H   UNL     1      10.658 -10.446  -0.442  1.00  0.00     0.165 HD
ENDBRANCH  84  87
ENDBRANCH  80  84
ENDBRANCH  75  78
ENDBRANCH  73  74
ENDBRANCH  72  73
ENDBRANCH   1  72
TORSDOF 16
