REMARK SMILES C[NH2+][C@]1(C(=O)NCCCCNC(=O)c2ccc(-c3c4nc(c(-c5cc(S(=O)(=O)[O-])ccc5F)c5ccc([nH]5)c(-c5cc(S(=O)(=O)[O-])ccc5F)c5nc(c(-c6cc(S(=O)(=O)[O-])ccc6F)c6ccc3[nH]6)C=C5)C=C4)cc2)CCC[C@@H]1CCOC[C@@H]1CCCO1
REMARK SMILES IDX 7 1 6 2 4 3 5 4 3 6 77 7 80 8 78 9 79 10 2 11 1 12 81 15
REMARK SMILES IDX 82 16 83 17 84 18 85 19 86 20 89 21 87 22 88 23 8 24 9 25
REMARK SMILES IDX 10 26 11 27 12 28 13 30 14 31 15 32 76 33 16 34 75 35 17 36
REMARK SMILES IDX 18 37 19 38 69 39 20 40 74 41 68 42 70 43 21 44 73 45 67 46
REMARK SMILES IDX 66 47 22 49 54 50 34 51 53 52 35 53 38 54 52 55 71 56 36 57
REMARK SMILES IDX 37 58 51 60 72 61 39 62 23 63 24 64 32 65 25 66 31 67 33 68
REMARK SMILES IDX 30 69 26 70 27 71 28 72 29 73 55 74 56 75 64 76 57 77 63 78
REMARK SMILES IDX 65 79 62 80 58 81 59 82 60 83 61 84 40 85 41 86 49 87 42 88
REMARK SMILES IDX 48 89 50 90 47 91 43 92 44 93 45 94 46 95
REMARK H PARENT 6 5 2 13 2 14 11 29 70 48 38 59
REMARK Flexibility Score: inf
ROOT
ATOM      1  C   UNL     1       0.653  -0.142  -2.723  1.00  0.00     0.116 C 
ENDROOT
BRANCH   1   2
ATOM      2  N   UNL     1       1.155  -0.737  -1.502  1.00  0.00    -0.351 N 
ATOM      3  C   UNL     1       0.602  -1.021  -0.291  1.00  0.00     0.281 C 
ATOM      4  O   UNL     1       1.438  -1.336   0.567  1.00  0.00    -0.268 OA
ATOM      5  H   UNL     1       2.104  -0.992  -1.560  1.00  0.00     0.163 HD
BRANCH   3   6
ATOM      6  C   UNL     1      -0.950  -1.075  -0.006  1.00  0.00     0.178 C 
ATOM      7  C   UNL     1      -1.748   0.156  -0.515  1.00  0.00     0.079 C 
ATOM      8  C   UNL     1      -1.633  -2.220  -0.817  1.00  0.00     0.063 C 
ATOM      9  C   UNL     1      -3.161  -0.343  -0.845  1.00  0.00     0.008 C 
ATOM     10  C   UNL     1      -3.123  -1.864  -0.715  1.00  0.00     0.011 C 
BRANCH   6  11
ATOM     11  N   UNL     1      -1.228  -1.039   1.462  1.00  0.00    -0.336 N 
ATOM     12  C   UNL     1      -0.809  -2.149   2.294  1.00  0.00     0.331 C 
ATOM     13  H   UNL     1      -0.774  -0.203   1.830  1.00  0.00     0.346 HD
ATOM     14  H   UNL     1      -2.247  -1.071   1.515  1.00  0.00     0.346 HD
ENDBRANCH   6  11
BRANCH   8  15
ATOM     15  C   UNL     1      -1.304  -3.659  -0.391  1.00  0.00     0.039 C 
BRANCH  15  16
ATOM     16  C   UNL     1      -1.572  -4.757  -1.425  1.00  0.00     0.161 C 
BRANCH  16  17
ATOM     17  O   UNL     1      -0.501  -4.974  -2.326  1.00  0.00    -0.379 OA
BRANCH  17  18
ATOM     18  C   UNL     1      -0.383  -4.184  -3.506  1.00  0.00     0.192 C 
BRANCH  18  19
ATOM     19  C   UNL     1      -1.537  -4.240  -4.523  1.00  0.00     0.144 C 
ATOM     20  C   UNL     1      -2.686  -3.279  -4.267  1.00  0.00     0.037 C 
ATOM     21  O   UNL     1      -2.100  -5.558  -4.632  1.00  0.00    -0.376 OA
ATOM     22  C   UNL     1      -3.872  -4.003  -4.848  1.00  0.00     0.031 C 
ATOM     23  C   UNL     1      -3.526  -5.455  -4.608  1.00  0.00     0.160 C 
ENDBRANCH  18  19
ENDBRANCH  17  18
ENDBRANCH  16  17
ENDBRANCH  15  16
ENDBRANCH   8  15
ENDBRANCH   3   6
ENDBRANCH   1   2
BRANCH   1  24
ATOM     24  C   UNL     1       0.818   1.381  -2.701  1.00  0.00     0.023 C 
BRANCH  24  25
ATOM     25  C   UNL     1       2.266   1.873  -2.787  1.00  0.00     0.023 C 
BRANCH  25  26
ATOM     26  C   UNL     1       3.005   1.503  -4.068  1.00  0.00     0.116 C 
BRANCH  26  27
ATOM     27  N   UNL     1       2.352   2.005  -5.266  1.00  0.00    -0.352 N 
ATOM     28  C   UNL     1       2.922   2.513  -6.409  1.00  0.00     0.251 C 
ATOM     29  H   UNL     1       1.367   1.976  -5.258  1.00  0.00     0.163 HD
ATOM     30  O   UNL     1       2.206   3.008  -7.276  1.00  0.00    -0.269 OA
BRANCH  28  31
ATOM     31  C   UNL     1       4.392   2.499  -6.564  1.00  0.00     0.039 A 
ATOM     32  C   UNL     1       5.036   3.664  -6.989  1.00  0.00     0.014 A 
ATOM     33  C   UNL     1       5.136   1.353  -6.269  1.00  0.00     0.014 A 
ATOM     34  C   UNL     1       6.431   3.701  -7.050  1.00  0.00     0.010 A 
ATOM     35  C   UNL     1       6.527   1.413  -6.265  1.00  0.00     0.010 A 
ATOM     36  C   UNL     1       7.189   2.588  -6.652  1.00  0.00    -0.014 A 
BRANCH  36  37
ATOM     37  C   UNL     1       8.675   2.636  -6.628  1.00  0.00     0.031 A 
ATOM     38  C   UNL     1       9.474   1.738  -7.532  1.00  0.00     0.074 A 
ATOM     39  C   UNL     1       9.301   3.439  -5.744  1.00  0.00     0.049 A 
ATOM     40  N   UNL     1      10.770   1.575  -7.602  1.00  0.00    -0.248 NA
ATOM     41  C   UNL     1       8.710   0.888  -8.457  1.00  0.00     0.031 C 
ATOM     42  C   UNL     1       8.633   4.322  -4.785  1.00  0.00     0.029 A 
ATOM     43  N   UNL     1      10.637   3.634  -5.497  1.00  0.00    -0.354 N 
ATOM     44  C   UNL     1      10.977   0.594  -8.566  1.00  0.00     0.074 A 
ATOM     45  C   UNL     1       9.669   0.160  -9.009  1.00  0.00     0.031 C 
ATOM     46  C   UNL     1       9.561   4.977  -4.069  1.00  0.00     0.029 A 
ATOM     47  C   UNL     1      10.887   4.531  -4.483  1.00  0.00     0.049 A 
ATOM     48  H   UNL     1      11.350   3.176  -5.998  1.00  0.00     0.167 HD
ATOM     49  C   UNL     1      12.150   0.115  -9.051  1.00  0.00     0.034 A 
ATOM     50  C   UNL     1      12.052   4.936  -3.939  1.00  0.00     0.034 A 
ATOM     51  C   UNL     1      13.446   0.569  -8.606  1.00  0.00     0.049 A 
ATOM     52  C   UNL     1      13.343   4.381  -4.485  1.00  0.00     0.074 A 
ATOM     53  C   UNL     1      14.696   0.200  -9.073  1.00  0.00     0.029 A 
ATOM     54  N   UNL     1      13.661   1.486  -7.584  1.00  0.00    -0.354 N 
ATOM     55  N   UNL     1      13.524   3.495  -5.437  1.00  0.00    -0.248 NA
ATOM     56  C   UNL     1      14.586   4.890  -3.891  1.00  0.00     0.031 C 
ATOM     57  C   UNL     1      15.664   0.837  -8.289  1.00  0.00     0.029 A 
ATOM     58  C   UNL     1      15.022   1.668  -7.385  1.00  0.00     0.049 A 
ATOM     59  H   UNL     1      12.951   1.940  -7.075  1.00  0.00     0.167 HD
ATOM     60  C   UNL     1      14.903   3.364  -5.576  1.00  0.00     0.074 A 
ATOM     61  C   UNL     1      15.504   4.272  -4.620  1.00  0.00     0.031 C 
ATOM     62  C   UNL     1      15.609   2.568  -6.420  1.00  0.00     0.034 A 
BRANCH  49  63
ATOM     63  C   UNL     1      12.079  -0.974 -10.096  1.00  0.00     0.023 A 
ATOM     64  C   UNL     1      11.484  -0.757 -11.351  1.00  0.00     0.031 A 
ATOM     65  C   UNL     1      12.594  -2.254  -9.825  1.00  0.00     0.131 A 
ATOM     66  C   UNL     1      11.349  -1.821 -12.256  1.00  0.00     0.055 A 
ATOM     67  C   UNL     1      12.531  -3.287 -10.764  1.00  0.00     0.041 A 
ATOM     68  F   UNL     1      13.156  -2.529  -8.638  1.00  0.00    -0.206 F 
ATOM     69  C   UNL     1      11.891  -3.078 -11.982  1.00  0.00     0.022 A 
BRANCH  66  70
ATOM     70  S   UNL     1      10.327  -1.575 -13.735  1.00  0.00     0.124 S 
ATOM     71  O   UNL     1       9.037  -1.221 -13.146  1.00  0.00    -0.237 OA
ATOM     72  O   UNL     1      11.029  -0.501 -14.428  1.00  0.00    -0.237 OA
ATOM     73  O   UNL     1      10.364  -2.877 -14.398  1.00  0.00    -0.744 OA
ENDBRANCH  66  70
ENDBRANCH  49  63
BRANCH  50  74
ATOM     74  C   UNL     1      12.058   5.908  -2.807  1.00  0.00     0.023 A 
ATOM     75  C   UNL     1      12.616   7.188  -2.953  1.00  0.00     0.031 A 
ATOM     76  C   UNL     1      11.536   5.556  -1.550  1.00  0.00     0.131 A 
ATOM     77  C   UNL     1      12.680   8.053  -1.850  1.00  0.00     0.055 A 
ATOM     78  C   UNL     1      11.554   6.439  -0.469  1.00  0.00     0.041 A 
ATOM     79  F   UNL     1      10.985   4.346  -1.358  1.00  0.00    -0.206 F 
ATOM     80  C   UNL     1      12.141   7.692  -0.613  1.00  0.00     0.022 A 
BRANCH  77  81
ATOM     81  S   UNL     1      13.552   9.633  -2.034  1.00  0.00     0.124 S 
ATOM     82  O   UNL     1      14.884   9.193  -2.432  1.00  0.00    -0.237 OA
ATOM     83  O   UNL     1      12.761  10.297  -3.065  1.00  0.00    -0.237 OA
ATOM     84  O   UNL     1      13.462  10.229  -0.703  1.00  0.00    -0.744 OA
ENDBRANCH  77  81
ENDBRANCH  50  74
BRANCH  62  85
ATOM     85  C   UNL     1      17.113   2.683  -6.374  1.00  0.00     0.023 A 
ATOM     86  C   UNL     1      17.855   2.279  -5.249  1.00  0.00     0.031 A 
ATOM     87  C   UNL     1      17.814   3.215  -7.471  1.00  0.00     0.131 A 
ATOM     88  C   UNL     1      19.245   2.464  -5.226  1.00  0.00     0.055 A 
ATOM     89  C   UNL     1      19.204   3.338  -7.467  1.00  0.00     0.041 A 
ATOM     90  F   UNL     1      17.157   3.619  -8.570  1.00  0.00    -0.206 F 
ATOM     91  C   UNL     1      19.926   2.974  -6.335  1.00  0.00     0.022 A 
BRANCH  88  92
ATOM     92  S   UNL     1      20.146   2.113  -3.692  1.00  0.00     0.124 S 
ATOM     93  O   UNL     1      19.488   3.006  -2.743  1.00  0.00    -0.237 OA
ATOM     94  O   UNL     1      19.899   0.688  -3.503  1.00  0.00    -0.237 OA
ATOM     95  O   UNL     1      21.528   2.464  -4.017  1.00  0.00    -0.744 OA
ENDBRANCH  88  92
ENDBRANCH  62  85
ENDBRANCH  36  37
ENDBRANCH  28  31
ENDBRANCH  26  27
ENDBRANCH  25  26
ENDBRANCH  24  25
ENDBRANCH   1  24
TORSDOF 20
