REMARK SMILES C[C@@H](C(=O)NCCCCNC(=O)c1ccc(-c2c3nc(c(-c4cc(S(=O)(=O)[O-])ccc4F)c4ccc([nH]4)c(-c4cc(S(=O)(=O)[O-])ccc4F)c4nc(c(-c5cc(S(=O)(=O)[O-])ccc5F)c5ccc2[nH]5)C=C4)C=C3)cc1)[C@H](C)[S@@](=O)c1ccc(F)c(F)c1
REMARK SMILES IDX 7 1 6 2 5 3 3 4 4 5 2 7 1 8 76 9 77 10 78 11 79 12 80 13
REMARK SMILES IDX 81 14 87 15 82 16 85 17 83 18 86 19 84 20 8 21 9 22 10 23
REMARK SMILES IDX 11 24 12 26 13 27 14 28 75 29 15 30 74 31 16 32 17 33 18 34
REMARK SMILES IDX 68 35 19 36 73 37 67 38 69 39 20 40 72 41 66 42 65 43 21 45
REMARK SMILES IDX 53 46 33 47 52 48 34 49 37 50 51 51 70 52 35 53 36 54 50 56
REMARK SMILES IDX 71 57 38 58 22 59 23 60 31 61 24 62 30 63 32 64 29 65 25 66
REMARK SMILES IDX 26 67 27 68 28 69 54 70 55 71 63 72 56 73 62 74 64 75 61 76
REMARK SMILES IDX 57 77 58 78 59 79 60 80 39 81 40 82 48 83 41 84 47 85 49 86
REMARK SMILES IDX 46 87 42 88 43 89 44 90 45 91
REMARK H PARENT 5 6 10 25 69 44 37 55
REMARK Flexibility Score: inf
ROOT
ATOM      1  C   UNL     1      -2.920   4.071  -0.588  1.00  0.00     0.023 C 
ENDROOT
BRANCH   1   2
ATOM      2  C   UNL     1      -1.935   3.299  -1.468  1.00  0.00     0.116 C 
BRANCH   2   3
ATOM      3  N   UNL     1      -0.931   2.616  -0.667  1.00  0.00    -0.356 N 
ATOM      4  C   UNL     1      -0.790   1.287  -0.386  1.00  0.00     0.224 C 
ATOM      5  O   UNL     1       0.044   0.955   0.455  1.00  0.00    -0.275 OA
ATOM      6  H   UNL     1      -0.248   3.202  -0.267  1.00  0.00     0.163 HD
BRANCH   4   7
ATOM      7  C   UNL     1      -1.689   0.277  -1.090  1.00  0.00     0.091 C 
ATOM      8  C   UNL     1      -3.006   0.228  -0.301  1.00  0.00     0.019 C 
BRANCH   7   9
ATOM      9  C   UNL     1      -1.053  -1.130  -1.237  1.00  0.00     0.093 C 
ATOM     10  C   UNL     1       0.464  -1.169  -1.453  1.00  0.00     0.023 C 
BRANCH   9  11
ATOM     11  S   UNL     1      -1.881  -2.142  -2.574  1.00  0.00     0.057 S 
ATOM     12  O   UNL     1      -3.331  -1.768  -2.641  1.00  0.00    -0.254 OA
BRANCH  11  13
ATOM     13  C   UNL     1      -1.159  -1.449  -4.078  1.00  0.00     0.042 A 
ATOM     14  C   UNL     1      -0.226  -2.215  -4.793  1.00  0.00     0.021 A 
ATOM     15  C   UNL     1      -1.578  -0.221  -4.600  1.00  0.00     0.060 A 
ATOM     16  C   UNL     1       0.305  -1.742  -5.997  1.00  0.00     0.043 A 
ATOM     17  C   UNL     1      -1.022   0.258  -5.782  1.00  0.00     0.160 A 
ATOM     18  C   UNL     1      -0.089  -0.499  -6.479  1.00  0.00     0.158 A 
ATOM     19  F   UNL     1      -1.409   1.452  -6.251  1.00  0.00    -0.204 F 
ATOM     20  F   UNL     1       0.425  -0.047  -7.631  1.00  0.00    -0.204 F 
ENDBRANCH  11  13
ENDBRANCH   9  11
ENDBRANCH   7   9
ENDBRANCH   4   7
ENDBRANCH   2   3
ENDBRANCH   1   2
BRANCH   1  21
ATOM     21  C   UNL     1      -2.316   5.272   0.142  1.00  0.00     0.023 C 
BRANCH  21  22
ATOM     22  C   UNL     1      -1.723   6.348  -0.760  1.00  0.00     0.116 C 
BRANCH  22  23
ATOM     23  N   UNL     1      -2.702   6.926  -1.667  1.00  0.00    -0.352 N 
ATOM     24  C   UNL     1      -2.928   8.248  -1.967  1.00  0.00     0.251 C 
ATOM     25  H   UNL     1      -3.284   6.280  -2.130  1.00  0.00     0.163 HD
ATOM     26  O   UNL     1      -3.904   8.560  -2.643  1.00  0.00    -0.269 OA
BRANCH  24  27
ATOM     27  C   UNL     1      -2.015   9.288  -1.442  1.00  0.00     0.039 A 
ATOM     28  C   UNL     1      -2.563  10.433  -0.861  1.00  0.00     0.014 A 
ATOM     29  C   UNL     1      -0.628   9.124  -1.502  1.00  0.00     0.014 A 
ATOM     30  C   UNL     1      -1.721  11.380  -0.274  1.00  0.00     0.010 A 
ATOM     31  C   UNL     1       0.204  10.032  -0.852  1.00  0.00     0.010 A 
ATOM     32  C   UNL     1      -0.333  11.168  -0.226  1.00  0.00    -0.014 A 
BRANCH  32  33
ATOM     33  C   UNL     1       0.566  12.116   0.485  1.00  0.00     0.031 A 
ATOM     34  C   UNL     1       1.616  12.880  -0.275  1.00  0.00     0.074 A 
ATOM     35  C   UNL     1       0.472  12.242   1.824  1.00  0.00     0.049 A 
ATOM     36  N   UNL     1       2.529  13.701   0.176  1.00  0.00    -0.248 NA
ATOM     37  C   UNL     1       1.661  12.671  -1.730  1.00  0.00     0.031 C 
ATOM     38  C   UNL     1      -0.477  11.522   2.676  1.00  0.00     0.029 A 
ATOM     39  N   UNL     1       1.185  13.015   2.707  1.00  0.00    -0.354 N 
ATOM     40  C   UNL     1       3.263  14.102  -0.936  1.00  0.00     0.074 A 
ATOM     41  C   UNL     1       2.725  13.382  -2.071  1.00  0.00     0.031 C 
ATOM     42  C   UNL     1      -0.305  11.906   3.951  1.00  0.00     0.029 A 
ATOM     43  C   UNL     1       0.795  12.861   4.018  1.00  0.00     0.049 A 
ATOM     44  H   UNL     1       1.909  13.622   2.428  1.00  0.00     0.167 HD
ATOM     45  C   UNL     1       4.274  15.003  -1.007  1.00  0.00     0.034 A 
ATOM     46  C   UNL     1       1.277  13.418   5.148  1.00  0.00     0.034 A 
ATOM     47  C   UNL     1       4.792  15.719   0.134  1.00  0.00     0.049 A 
ATOM     48  C   UNL     1       2.421  14.396   5.046  1.00  0.00     0.074 A 
ATOM     49  C   UNL     1       5.777  16.691   0.167  1.00  0.00     0.029 A 
ATOM     50  N   UNL     1       4.375  15.537   1.447  1.00  0.00    -0.354 N 
ATOM     51  N   UNL     1       3.067  14.804   3.978  1.00  0.00    -0.248 NA
ATOM     52  C   UNL     1       2.891  14.997   6.300  1.00  0.00     0.031 C 
ATOM     53  C   UNL     1       6.004  17.044   1.501  1.00  0.00     0.029 A 
ATOM     54  C   UNL     1       5.105  16.353   2.298  1.00  0.00     0.049 A 
ATOM     55  H   UNL     1       3.664  14.918   1.732  1.00  0.00     0.167 HD
ATOM     56  C   UNL     1       3.999  15.734   4.431  1.00  0.00     0.074 A 
ATOM     57  C   UNL     1       3.815  15.840   5.864  1.00  0.00     0.031 C 
ATOM     58  C   UNL     1       4.921  16.440   3.728  1.00  0.00     0.034 A 
BRANCH  45  59
ATOM     59  C   UNL     1       4.897  15.246  -2.361  1.00  0.00     0.023 A 
ATOM     60  C   UNL     1       4.157  15.783  -3.430  1.00  0.00     0.031 A 
ATOM     61  C   UNL     1       6.246  14.923  -2.594  1.00  0.00     0.131 A 
ATOM     62  C   UNL     1       4.747  15.914  -4.696  1.00  0.00     0.055 A 
ATOM     63  C   UNL     1       6.851  15.132  -3.835  1.00  0.00     0.041 A 
ATOM     64  F   UNL     1       6.999  14.387  -1.620  1.00  0.00    -0.206 F 
ATOM     65  C   UNL     1       6.096  15.617  -4.900  1.00  0.00     0.022 A 
BRANCH  62  66
ATOM     66  S   UNL     1       3.689  16.346  -6.104  1.00  0.00     0.124 S 
ATOM     67  O   UNL     1       2.723  15.250  -6.094  1.00  0.00    -0.237 OA
ATOM     68  O   UNL     1       3.174  17.655  -5.721  1.00  0.00    -0.237 OA
ATOM     69  O   UNL     1       4.610  16.344  -7.238  1.00  0.00    -0.744 OA
ENDBRANCH  62  66
ENDBRANCH  45  59
BRANCH  46  70
ATOM     70  C   UNL     1       0.699  13.062   6.476  1.00  0.00     0.023 A 
ATOM     71  C   UNL     1       0.066  14.030   7.272  1.00  0.00     0.031 A 
ATOM     72  C   UNL     1       0.819  11.760   6.995  1.00  0.00     0.131 A 
ATOM     73  C   UNL     1      -0.373  13.698   8.564  1.00  0.00     0.055 A 
ATOM     74  C   UNL     1       0.329  11.420   8.257  1.00  0.00     0.041 A 
ATOM     75  F   UNL     1       1.412  10.794   6.275  1.00  0.00    -0.206 F 
ATOM     76  C   UNL     1      -0.258  12.396   9.056  1.00  0.00     0.022 A 
BRANCH  73  77
ATOM     77  S   UNL     1      -1.006  15.020   9.632  1.00  0.00     0.124 S 
ATOM     78  O   UNL     1       0.119  15.947   9.654  1.00  0.00    -0.237 OA
ATOM     79  O   UNL     1      -2.188  15.461   8.899  1.00  0.00    -0.237 OA
ATOM     80  O   UNL     1      -1.277  14.336  10.895  1.00  0.00    -0.744 OA
ENDBRANCH  73  77
ENDBRANCH  46  70
BRANCH  58  81
ATOM     81  C   UNL     1       5.769  17.421   4.502  1.00  0.00     0.023 A 
ATOM     82  C   UNL     1       6.695  16.996   5.471  1.00  0.00     0.031 A 
ATOM     83  C   UNL     1       5.633  18.803   4.279  1.00  0.00     0.131 A 
ATOM     84  C   UNL     1       7.402  17.944   6.225  1.00  0.00     0.055 A 
ATOM     85  C   UNL     1       6.387  19.739   4.987  1.00  0.00     0.041 A 
ATOM     86  F   UNL     1       4.762  19.266   3.368  1.00  0.00    -0.206 F 
ATOM     87  C   UNL     1       7.268  19.312   5.977  1.00  0.00     0.022 A 
BRANCH  84  88
ATOM     88  S   UNL     1       8.428  17.369   7.606  1.00  0.00     0.124 S 
ATOM     89  O   UNL     1       7.456  16.658   8.430  1.00  0.00    -0.237 OA
ATOM     90  O   UNL     1       9.421  16.539   6.933  1.00  0.00    -0.237 OA
ATOM     91  O   UNL     1       8.947  18.606   8.187  1.00  0.00    -0.744 OA
ENDBRANCH  84  88
ENDBRANCH  58  81
ENDBRANCH  32  33
ENDBRANCH  24  27
ENDBRANCH  22  23
ENDBRANCH  21  22
ENDBRANCH   1  21
TORSDOF 17
