REMARK SMILES COc1ccc(NC(=O)N[C@@H]2C=C[C@H](C(=O)NCCCCNC(=O)c3ccc(-c4c5nc(c(-c6cc(S(=O)(=O)[O-])ccc6F)c6ccc([nH]6)c(-c6cc(S(=O)(=O)[O-])ccc6F)c6nc(c(-c7cc(S(=O)(=O)[O-])ccc7F)c7ccc4[nH]7)C=C6)C=C5)cc3)C2)c(C)c1
REMARK SMILES IDX 19 1 18 2 17 3 15 4 16 5 14 7 11 8 12 9 88 10 13 11 10 12
REMARK SMILES IDX 7 13 8 14 9 16 6 18 3 19 4 20 91 21 5 22 89 23 90 24 2 25
REMARK SMILES IDX 1 26 20 27 21 28 22 29 23 30 24 32 25 33 26 34 87 35 27 36
REMARK SMILES IDX 86 37 28 38 29 39 30 40 80 41 31 42 85 43 79 44 81 45 32 46
REMARK SMILES IDX 84 47 78 48 77 49 33 51 65 52 45 53 64 54 46 55 49 56 63 57
REMARK SMILES IDX 82 58 47 59 48 60 62 62 83 63 50 64 34 65 35 66 43 67 36 68
REMARK SMILES IDX 42 69 44 70 41 71 37 72 38 73 39 74 40 75 66 76 67 77 75 78
REMARK SMILES IDX 68 79 74 80 76 81 73 82 69 83 70 84 71 85 72 86 51 87 52 88
REMARK SMILES IDX 60 89 53 90 59 91 61 92 58 93 54 94 55 95 56 96 57 97
REMARK H PARENT 17 6 7 15 10 17 22 31 81 50 49 61
REMARK Flexibility Score: inf
ROOT
ATOM      1  C   UNL     1      -1.280   2.661   2.232  1.00  0.00     0.023 C 
ENDROOT
BRANCH   1   2
ATOM      2  C   UNL     1      -0.935   1.180   2.429  1.00  0.00     0.116 C 
BRANCH   2   3
ATOM      3  N   UNL     1      -0.211   0.628   1.292  1.00  0.00    -0.356 N 
ATOM      4  C   UNL     1       1.124   0.440   1.119  1.00  0.00     0.227 C 
ATOM      5  O   UNL     1       1.511  -0.008   0.037  1.00  0.00    -0.274 OA
ATOM      6  H   UNL     1      -0.774   0.349   0.534  1.00  0.00     0.163 HD
BRANCH   4   7
ATOM      7  C   UNL     1       2.076   0.791   2.260  1.00  0.00     0.103 C 
ATOM      8  C   UNL     1       3.874   2.358   2.770  1.00  0.00     0.107 C 
ATOM      9  C   UNL     1       4.403   1.065   2.231  1.00  0.00    -0.006 C 
ATOM     10  C   UNL     1       2.410   2.295   2.311  1.00  0.00     0.047 C 
ATOM     11  C   UNL     1       3.427   0.183   2.013  1.00  0.00    -0.016 C 
BRANCH   8  12
ATOM     12  N   UNL     1       4.673   3.419   2.218  1.00  0.00    -0.332 N 
ATOM     13  N   UNL     1       6.498   3.933   3.716  1.00  0.00    -0.308 N 
ATOM     14  C   UNL     1       5.803   4.040   2.570  1.00  0.00     0.319 C 
ATOM     15  H   UNL     1       7.256   4.562   3.715  1.00  0.00     0.171 HD
ATOM     16  O   UNL     1       6.232   4.878   1.762  1.00  0.00    -0.248 OA
ATOM     17  H   UNL     1       4.296   3.774   1.380  1.00  0.00     0.165 HD
BRANCH  13  18
ATOM     18  C   UNL     1       6.478   3.198   4.918  1.00  0.00     0.046 A 
ATOM     19  C   UNL     1       6.078   1.922   7.422  1.00  0.00     0.119 A 
ATOM     20  C   UNL     1       5.659   1.320   6.252  1.00  0.00     0.048 A 
ATOM     21  C   UNL     1       6.846   3.082   7.325  1.00  0.00     0.052 A 
ATOM     22  C   UNL     1       5.913   1.938   5.027  1.00  0.00     0.030 A 
ATOM     23  C   UNL     1       7.078   3.720   6.082  1.00  0.00    -0.024 A 
ATOM     24  C   UNL     1       8.056   4.865   6.082  1.00  0.00     0.047 C 
BRANCH  19  25
ATOM     25  O   UNL     1       5.859   1.440   8.681  1.00  0.00    -0.497 OA
ATOM     26  C   UNL     1       4.884   0.401   8.784  1.00  0.00     0.278 C 
ENDBRANCH  19  25
ENDBRANCH  13  18
ENDBRANCH   8  12
ENDBRANCH   4   7
ENDBRANCH   2   3
ENDBRANCH   1   2
BRANCH   1  27
ATOM     27  C   UNL     1      -1.939   3.020   0.900  1.00  0.00     0.023 C 
BRANCH  27  28
ATOM     28  C   UNL     1      -3.148   2.179   0.517  1.00  0.00     0.116 C 
BRANCH  28  29
ATOM     29  N   UNL     1      -4.432   2.654   1.000  1.00  0.00    -0.352 N 
ATOM     30  C   UNL     1      -5.685   2.072   0.841  1.00  0.00     0.251 C 
ATOM     31  H   UNL     1      -4.413   3.497   1.507  1.00  0.00     0.163 HD
ATOM     32  O   UNL     1      -6.696   2.637   1.200  1.00  0.00    -0.269 OA
BRANCH  30  33
ATOM     33  C   UNL     1      -5.756   0.665   0.349  1.00  0.00     0.039 A 
ATOM     34  C   UNL     1      -6.484  -0.241   1.130  1.00  0.00     0.014 A 
ATOM     35  C   UNL     1      -4.946   0.201  -0.684  1.00  0.00     0.014 A 
ATOM     36  C   UNL     1      -6.199  -1.603   1.042  1.00  0.00     0.010 A 
ATOM     37  C   UNL     1      -4.592  -1.137  -0.709  1.00  0.00     0.010 A 
ATOM     38  C   UNL     1      -5.164  -2.025   0.203  1.00  0.00    -0.014 A 
BRANCH  38  39
ATOM     39  C   UNL     1      -4.551  -3.344   0.322  1.00  0.00     0.031 A 
ATOM     40  C   UNL     1      -4.926  -4.430  -0.607  1.00  0.00     0.074 A 
ATOM     41  C   UNL     1      -3.670  -3.614   1.314  1.00  0.00     0.049 A 
ATOM     42  N   UNL     1      -5.106  -5.657  -0.243  1.00  0.00    -0.248 NA
ATOM     43  C   UNL     1      -5.143  -4.203  -2.032  1.00  0.00     0.031 C 
ATOM     44  C   UNL     1      -2.917  -4.856   1.490  1.00  0.00     0.029 A 
ATOM     45  N   UNL     1      -3.422  -2.913   2.494  1.00  0.00    -0.354 N 
ATOM     46  C   UNL     1      -5.163  -6.410  -1.392  1.00  0.00     0.074 A 
ATOM     47  C   UNL     1      -5.279  -5.458  -2.475  1.00  0.00     0.031 C 
ATOM     48  C   UNL     1      -2.588  -4.973   2.787  1.00  0.00     0.029 A 
ATOM     49  C   UNL     1      -3.238  -3.880   3.493  1.00  0.00     0.049 A 
ATOM     50  H   UNL     1      -3.383  -1.936   2.604  1.00  0.00     0.167 HD
ATOM     51  C   UNL     1      -4.929  -7.752  -1.363  1.00  0.00     0.034 A 
ATOM     52  C   UNL     1      -4.014  -4.011   4.608  1.00  0.00     0.034 A 
ATOM     53  C   UNL     1      -4.548  -8.223  -0.038  1.00  0.00     0.049 A 
ATOM     54  C   UNL     1      -4.580  -5.406   4.792  1.00  0.00     0.074 A 
ATOM     55  C   UNL     1      -3.313  -8.505   0.524  1.00  0.00     0.029 A 
ATOM     56  N   UNL     1      -5.461  -8.201   1.008  1.00  0.00    -0.354 N 
ATOM     57  N   UNL     1      -4.633  -6.301   3.846  1.00  0.00    -0.248 NA
ATOM     58  C   UNL     1      -5.186  -5.877   6.035  1.00  0.00     0.031 C 
ATOM     59  C   UNL     1      -3.483  -8.626   1.923  1.00  0.00     0.029 A 
ATOM     60  C   UNL     1      -4.823  -8.438   2.212  1.00  0.00     0.049 A 
ATOM     61  H   UNL     1      -6.427  -8.041   0.907  1.00  0.00     0.167 HD
ATOM     62  C   UNL     1      -5.298  -7.416   4.298  1.00  0.00     0.074 A 
ATOM     63  C   UNL     1      -5.590  -7.111   5.687  1.00  0.00     0.031 C 
ATOM     64  C   UNL     1      -5.566  -8.470   3.466  1.00  0.00     0.034 A 
BRANCH  51  65
ATOM     65  C   UNL     1      -4.714  -8.544  -2.625  1.00  0.00     0.023 A 
ATOM     66  C   UNL     1      -3.687  -9.505  -2.690  1.00  0.00     0.031 A 
ATOM     67  C   UNL     1      -5.472  -8.368  -3.798  1.00  0.00     0.131 A 
ATOM     68  C   UNL     1      -3.378 -10.163  -3.892  1.00  0.00     0.055 A 
ATOM     69  C   UNL     1      -5.139  -8.991  -5.009  1.00  0.00     0.041 A 
ATOM     70  F   UNL     1      -6.561  -7.582  -3.807  1.00  0.00    -0.206 F 
ATOM     71  C   UNL     1      -4.076  -9.884  -5.064  1.00  0.00     0.022 A 
BRANCH  68  72
ATOM     72  S   UNL     1      -2.039 -11.388  -3.898  1.00  0.00     0.124 S 
ATOM     73  O   UNL     1      -0.900 -10.604  -3.431  1.00  0.00    -0.237 OA
ATOM     74  O   UNL     1      -2.544 -12.402  -2.978  1.00  0.00    -0.237 OA
ATOM     75  O   UNL     1      -1.968 -11.805  -5.298  1.00  0.00    -0.744 OA
ENDBRANCH  68  72
ENDBRANCH  51  65
BRANCH  52  76
ATOM     76  C   UNL     1      -4.721  -2.771   5.028  1.00  0.00     0.023 A 
ATOM     77  C   UNL     1      -3.945  -1.659   5.408  1.00  0.00     0.031 A 
ATOM     78  C   UNL     1      -6.072  -2.562   4.716  1.00  0.00     0.131 A 
ATOM     79  C   UNL     1      -4.482  -0.368   5.322  1.00  0.00     0.055 A 
ATOM     80  C   UNL     1      -6.616  -1.275   4.673  1.00  0.00     0.041 A 
ATOM     81  F   UNL     1      -6.849  -3.581   4.322  1.00  0.00    -0.206 F 
ATOM     82  C   UNL     1      -5.809  -0.168   4.933  1.00  0.00     0.022 A 
BRANCH  79  83
ATOM     83  S   UNL     1      -3.391   1.075   5.477  1.00  0.00     0.124 S 
ATOM     84  O   UNL     1      -3.705   1.562   6.814  1.00  0.00    -0.237 OA
ATOM     85  O   UNL     1      -2.053   0.513   5.309  1.00  0.00    -0.237 OA
ATOM     86  O   UNL     1      -3.826   1.924   4.370  1.00  0.00    -0.744 OA
ENDBRANCH  79  83
ENDBRANCH  52  76
BRANCH  64  87
ATOM     87  C   UNL     1      -6.460  -9.662   3.762  1.00  0.00     0.023 A 
ATOM     88  C   UNL     1      -7.319  -9.741   4.867  1.00  0.00     0.031 A 
ATOM     89  C   UNL     1      -6.521 -10.768   2.874  1.00  0.00     0.131 A 
ATOM     90  C   UNL     1      -8.113 -10.880   5.103  1.00  0.00     0.055 A 
ATOM     91  C   UNL     1      -7.366 -11.867   3.070  1.00  0.00     0.041 A 
ATOM     92  F   UNL     1      -5.769 -10.832   1.765  1.00  0.00    -0.206 F 
ATOM     93  C   UNL     1      -8.159 -11.937   4.201  1.00  0.00     0.022 A 
BRANCH  90  94
ATOM     94  S   UNL     1      -9.039 -10.972   6.659  1.00  0.00     0.124 S 
ATOM     95  O   UNL     1      -7.967 -10.921   7.650  1.00  0.00    -0.237 OA
ATOM     96  O   UNL     1      -9.890  -9.789   6.586  1.00  0.00    -0.237 OA
ATOM     97  O   UNL     1      -9.740 -12.251   6.570  1.00  0.00    -0.744 OA
ENDBRANCH  90  94
ENDBRANCH  64  87
ENDBRANCH  38  39
ENDBRANCH  30  33
ENDBRANCH  28  29
ENDBRANCH  27  28
ENDBRANCH   1  27
TORSDOF 17
