REMARK SMILES NC(=O)c1ccc(NC(=O)Cc2ccccc2C(=O)NCCCCNC(=O)c2ccc(-c3c4nc(c(-c5cc(S(=O)(=O)[O-])ccc5F)c5ccc([nH]5)c(-c5cc(S(=O)(=O)[O-])ccc5F)c5nc(c(-c6cc(S(=O)(=O)[O-])ccc6F)c6ccc3[nH]6)C=C5)C=C4)cc2)cc1
REMARK SMILES IDX 22 1 21 2 20 3 18 4 19 5 17 7 12 8 13 9 14 10 16 11 15 12
REMARK SMILES IDX 11 13 9 14 8 15 10 17 7 18 4 19 5 20 92 21 6 22 91 23 2 24
REMARK SMILES IDX 1 25 3 28 23 29 24 30 25 31 26 32 27 34 28 35 29 36 90 37
REMARK SMILES IDX 30 38 89 39 31 40 32 41 33 42 83 43 34 44 88 45 82 46 84 47
REMARK SMILES IDX 35 48 87 49 81 50 80 51 36 53 68 54 48 55 67 56 49 57 52 58
REMARK SMILES IDX 66 59 85 60 50 61 51 62 65 64 86 65 53 66 37 67 38 68 46 69
REMARK SMILES IDX 39 70 45 71 47 72 44 73 40 74 41 75 42 76 43 77 69 78 70 79
REMARK SMILES IDX 78 80 71 81 77 82 79 83 76 84 72 85 73 86 74 87 75 88 54 89
REMARK SMILES IDX 55 90 63 91 56 92 62 93 64 94 61 95 57 96 58 97 59 98 60 99
REMARK H PARENT 20 6 8 16 1 26 1 27 25 33 84 52 52 63
REMARK Flexibility Score: inf
ROOT
ATOM      1  C   UNL     1       1.578  -3.614   8.267  1.00  0.00     0.023 C 
ENDROOT
BRANCH   1   2
ATOM      2  C   UNL     1       0.825  -3.578   6.932  1.00  0.00     0.116 C 
BRANCH   2   3
ATOM      3  N   UNL     1      -0.568  -3.261   7.147  1.00  0.00    -0.352 N 
ATOM      4  C   UNL     1      -1.387  -2.180   7.261  1.00  0.00     0.251 C 
ATOM      5  O   UNL     1      -2.557  -2.505   7.518  1.00  0.00    -0.269 OA
ATOM      6  H   UNL     1      -1.091  -4.090   7.240  1.00  0.00     0.163 HD
BRANCH   4   7
ATOM      7  C   UNL     1      -1.118  -0.706   7.087  1.00  0.00     0.043 A 
ATOM      8  C   UNL     1       0.017   0.100   7.353  1.00  0.00    -0.026 A 
ATOM      9  C   UNL     1      -0.124   1.514   7.302  1.00  0.00     0.005 A 
ATOM     10  C   UNL     1      -1.303   2.133   6.904  1.00  0.00     0.000 A 
ATOM     11  C   UNL     1      -2.295  -0.031   6.662  1.00  0.00     0.014 A 
ATOM     12  C   UNL     1      -2.389   1.356   6.561  1.00  0.00     0.001 A 
BRANCH   8  13
ATOM     13  C   UNL     1       1.391  -0.405   7.711  1.00  0.00     0.136 C 
BRANCH  13  14
ATOM     14  C   UNL     1       2.584   0.450   7.309  1.00  0.00     0.228 C 
ATOM     15  N   UNL     1       2.904   0.761   6.016  1.00  0.00    -0.326 N 
ATOM     16  H   UNL     1       3.737   1.280   5.946  1.00  0.00     0.169 HD
ATOM     17  O   UNL     1       3.332   0.899   8.187  1.00  0.00    -0.274 OA
BRANCH  15  18
ATOM     18  C   UNL     1       2.316   0.511   4.760  1.00  0.00     0.041 A 
ATOM     19  C   UNL     1       1.104   0.312   2.219  1.00  0.00     0.039 A 
ATOM     20  C   UNL     1       0.673  -0.490   3.269  1.00  0.00     0.016 A 
ATOM     21  C   UNL     1       2.177   1.184   2.414  1.00  0.00     0.016 A 
ATOM     22  C   UNL     1       1.297  -0.403   4.516  1.00  0.00     0.027 A 
ATOM     23  C   UNL     1       2.779   1.276   3.679  1.00  0.00     0.027 A 
BRANCH  19  24
ATOM     24  C   UNL     1       0.371   0.230   0.939  1.00  0.00     0.248 C 
ATOM     25  N   UNL     1       1.115   0.264  -0.201  1.00  0.00    -0.366 N 
ATOM     26  H   UNL     1       0.674   0.212  -1.079  1.00  0.00     0.159 HD
ATOM     27  H   UNL     1       2.096   0.339  -0.146  1.00  0.00     0.159 HD
ATOM     28  O   UNL     1      -0.849   0.102   0.907  1.00  0.00    -0.270 OA
ENDBRANCH  19  24
ENDBRANCH  15  18
ENDBRANCH  13  14
ENDBRANCH   8  13
ENDBRANCH   4   7
ENDBRANCH   2   3
ENDBRANCH   1   2
BRANCH   1  29
ATOM     29  C   UNL     1       2.034  -5.011   8.665  1.00  0.00     0.023 C 
BRANCH  29  30
ATOM     30  C   UNL     1       3.062  -5.603   7.713  1.00  0.00     0.116 C 
BRANCH  30  31
ATOM     31  N   UNL     1       4.321  -4.870   7.680  1.00  0.00    -0.352 N 
ATOM     32  C   UNL     1       5.587  -5.397   7.550  1.00  0.00     0.251 C 
ATOM     33  H   UNL     1       4.260  -3.891   7.760  1.00  0.00     0.163 HD
ATOM     34  O   UNL     1       6.577  -4.679   7.615  1.00  0.00    -0.269 OA
BRANCH  32  35
ATOM     35  C   UNL     1       5.710  -6.859   7.389  1.00  0.00     0.039 A 
ATOM     36  C   UNL     1       6.456  -7.578   8.322  1.00  0.00     0.014 A 
ATOM     37  C   UNL     1       4.958  -7.517   6.412  1.00  0.00     0.014 A 
ATOM     38  C   UNL     1       6.383  -8.971   8.323  1.00  0.00     0.010 A 
ATOM     39  C   UNL     1       4.809  -8.896   6.481  1.00  0.00     0.010 A 
ATOM     40  C   UNL     1       5.521  -9.639   7.437  1.00  0.00    -0.014 A 
BRANCH  40  41
ATOM     41  C   UNL     1       5.358 -11.116   7.490  1.00  0.00     0.031 A 
ATOM     42  C   UNL     1       5.733 -11.950   6.295  1.00  0.00     0.074 A 
ATOM     43  C   UNL     1       4.832 -11.697   8.588  1.00  0.00     0.049 A 
ATOM     44  N   UNL     1       5.623 -13.241   6.121  1.00  0.00    -0.248 NA
ATOM     45  C   UNL     1       6.272 -11.231   5.130  1.00  0.00     0.031 C 
ATOM     46  C   UNL     1       4.388 -10.988   9.790  1.00  0.00     0.029 A 
ATOM     47  N   UNL     1       4.579 -13.016   8.873  1.00  0.00    -0.354 N 
ATOM     48  C   UNL     1       6.071 -13.486   4.828  1.00  0.00     0.074 A 
ATOM     49  C   UNL     1       6.378 -12.202   4.238  1.00  0.00     0.031 C 
ATOM     50  C   UNL     1       3.956 -11.881  10.695  1.00  0.00     0.029 A 
ATOM     51  C   UNL     1       4.039 -13.221  10.123  1.00  0.00     0.049 A 
ATOM     52  H   UNL     1       4.766 -13.748   8.242  1.00  0.00     0.167 HD
ATOM     53  C   UNL     1       6.242 -14.676   4.201  1.00  0.00     0.034 A 
ATOM     54  C   UNL     1       3.647 -14.358  10.733  1.00  0.00     0.034 A 
ATOM     55  C   UNL     1       5.943 -15.947   4.809  1.00  0.00     0.049 A 
ATOM     56  C   UNL     1       3.805 -15.667   9.998  1.00  0.00     0.074 A 
ATOM     57  C   UNL     1       6.132 -17.215   4.289  1.00  0.00     0.029 A 
ATOM     58  N   UNL     1       5.380 -16.115   6.068  1.00  0.00    -0.354 N 
ATOM     59  N   UNL     1       4.292 -15.886   8.798  1.00  0.00    -0.248 NA
ATOM     60  C   UNL     1       3.367 -16.880  10.700  1.00  0.00     0.031 C 
ATOM     61  C   UNL     1       5.609 -18.142   5.196  1.00  0.00     0.029 A 
ATOM     62  C   UNL     1       5.175 -17.462   6.322  1.00  0.00     0.049 A 
ATOM     63  H   UNL     1       5.159 -15.383   6.689  1.00  0.00     0.167 HD
ATOM     64  C   UNL     1       4.245 -17.266   8.616  1.00  0.00     0.074 A 
ATOM     65  C   UNL     1       3.700 -17.827   9.835  1.00  0.00     0.031 C 
ATOM     66  C   UNL     1       4.620 -18.005   7.540  1.00  0.00     0.034 A 
BRANCH  53  67
ATOM     67  C   UNL     1       6.754 -14.646   2.781  1.00  0.00     0.023 A 
ATOM     68  C   UNL     1       8.017 -14.115   2.461  1.00  0.00     0.031 A 
ATOM     69  C   UNL     1       5.960 -15.132   1.727  1.00  0.00     0.131 A 
ATOM     70  C   UNL     1       8.413 -14.008   1.120  1.00  0.00     0.055 A 
ATOM     71  C   UNL     1       6.399 -15.105   0.402  1.00  0.00     0.041 A 
ATOM     72  F   UNL     1       4.736 -15.628   1.965  1.00  0.00    -0.206 F 
ATOM     73  C   UNL     1       7.626 -14.526   0.090  1.00  0.00     0.022 A 
BRANCH  70  74
ATOM     74  S   UNL     1       9.900 -13.044   0.733  1.00  0.00     0.124 S 
ATOM     75  O   UNL     1       9.559 -11.739   1.295  1.00  0.00    -0.237 OA
ATOM     76  O   UNL     1      10.947 -13.784   1.426  1.00  0.00    -0.237 OA
ATOM     77  O   UNL     1       9.965 -13.086  -0.727  1.00  0.00    -0.744 OA
ENDBRANCH  70  74
ENDBRANCH  53  67
BRANCH  54  78
ATOM     78  C   UNL     1       3.051 -14.321  12.102  1.00  0.00     0.023 A 
ATOM     79  C   UNL     1       3.670 -14.973  13.181  1.00  0.00     0.031 A 
ATOM     80  C   UNL     1       1.823 -13.678  12.341  1.00  0.00     0.131 A 
ATOM     81  C   UNL     1       3.037 -15.013  14.433  1.00  0.00     0.055 A 
ATOM     82  C   UNL     1       1.227 -13.669  13.604  1.00  0.00     0.041 A 
ATOM     83  F   UNL     1       1.185 -13.040  11.347  1.00  0.00    -0.206 F 
ATOM     84  C   UNL     1       1.827 -14.352  14.656  1.00  0.00     0.022 A 
BRANCH  81  85
ATOM     85  S   UNL     1       3.768 -16.032  15.744  1.00  0.00     0.124 S 
ATOM     86  O   UNL     1       3.803 -17.346  15.113  1.00  0.00    -0.237 OA
ATOM     87  O   UNL     1       5.059 -15.383  15.948  1.00  0.00    -0.237 OA
ATOM     88  O   UNL     1       2.822 -15.894  16.849  1.00  0.00    -0.744 OA
ENDBRANCH  81  85
ENDBRANCH  54  78
BRANCH  66  89
ATOM     89  C   UNL     1       4.489 -19.504   7.651  1.00  0.00     0.023 A 
ATOM     90  C   UNL     1       3.235 -20.133   7.746  1.00  0.00     0.031 A 
ATOM     91  C   UNL     1       5.637 -20.316   7.652  1.00  0.00     0.131 A 
ATOM     92  C   UNL     1       3.161 -21.526   7.886  1.00  0.00     0.055 A 
ATOM     93  C   UNL     1       5.555 -21.707   7.725  1.00  0.00     0.041 A 
ATOM     94  F   UNL     1       6.861 -19.770   7.568  1.00  0.00    -0.206 F 
ATOM     95  C   UNL     1       4.312 -22.319   7.855  1.00  0.00     0.022 A 
BRANCH  92  96
ATOM     96  S   UNL     1       1.544 -22.286   8.197  1.00  0.00     0.124 S 
ATOM     97  O   UNL     1       1.137 -21.634   9.437  1.00  0.00    -0.237 OA
ATOM     98  O   UNL     1       0.790 -21.915   7.004  1.00  0.00    -0.237 OA
ATOM     99  O   UNL     1       1.852 -23.710   8.316  1.00  0.00    -0.744 OA
ENDBRANCH  92  96
ENDBRANCH  66  89
ENDBRANCH  40  41
ENDBRANCH  32  35
ENDBRANCH  30  31
ENDBRANCH  29  30
ENDBRANCH   1  29
TORSDOF 18
