REMARK SMILES CSCc1ccc(C(=O)Nc2cc(C)c(C(=O)NCCCCNC(=O)c3ccc(-c4c5nc(c(-c6cc(S(=O)(=O)[O-])ccc6F)c6ccc([nH]6)c(-c6cc(S(=O)(=O)[O-])ccc6F)c6nc(c(-c7cc(S(=O)(=O)[O-])ccc7F)c7ccc4[nH]7)C=C6)C=C5)cc3)s2)cc1
REMARK SMILES IDX 20 1 19 2 18 3 16 4 17 5 15 7 11 8 12 9 89 10 13 11 14 12
REMARK SMILES IDX 10 13 8 14 9 15 7 17 4 18 5 19 91 20 6 21 90 22 3 23 2 24
REMARK SMILES IDX 1 25 21 26 22 27 23 28 24 29 25 31 26 32 27 33 88 34 28 35
REMARK SMILES IDX 87 36 29 37 30 38 31 39 81 40 32 41 86 42 80 43 82 44 33 45
REMARK SMILES IDX 85 46 79 47 78 48 34 50 66 51 46 52 65 53 47 54 50 55 64 56
REMARK SMILES IDX 83 57 48 58 49 59 63 61 84 62 51 63 35 64 36 65 44 66 37 67
REMARK SMILES IDX 43 68 45 69 42 70 38 71 39 72 40 73 41 74 67 75 68 76 76 77
REMARK SMILES IDX 69 78 75 79 77 80 74 81 70 82 71 83 72 84 73 85 52 86 53 87
REMARK SMILES IDX 61 88 54 89 60 90 62 91 59 92 55 93 56 94 57 95 58 96
REMARK H PARENT 18 6 10 16 23 30 82 49 50 60
REMARK Flexibility Score: inf
ROOT
ATOM      1  C   UNL     1       5.470  -9.156   1.551  1.00  0.00     0.023 C 
ENDROOT
BRANCH   1   2
ATOM      2  C   UNL     1       4.191  -9.985   1.716  1.00  0.00     0.116 C 
BRANCH   2   3
ATOM      3  N   UNL     1       3.100  -9.138   2.127  1.00  0.00    -0.351 N 
ATOM      4  C   UNL     1       2.084  -8.491   1.481  1.00  0.00     0.261 C 
ATOM      5  O   UNL     1       1.379  -7.844   2.269  1.00  0.00    -0.268 OA
ATOM      6  H   UNL     1       3.083  -8.991   3.100  1.00  0.00     0.163 HD
BRANCH   4   7
ATOM      7  C   UNL     1       1.808  -8.515   0.035  1.00  0.00     0.097 A 
ATOM      8  C   UNL     1       0.563  -7.747  -1.969  1.00  0.00     0.096 A 
ATOM      9  C   UNL     1       1.631  -8.519  -2.317  1.00  0.00     0.042 A 
ATOM     10  S   UNL     1       0.187  -7.931  -0.341  1.00  0.00    -0.112 S 
ATOM     11  C   UNL     1       2.466  -8.805  -1.170  1.00  0.00    -0.025 A 
ATOM     12  C   UNL     1       3.861  -9.227  -1.465  1.00  0.00     0.046 C 
BRANCH   8  13
ATOM     13  N   UNL     1      -0.214  -6.996  -2.807  1.00  0.00    -0.314 N 
ATOM     14  C   UNL     1      -0.688  -5.713  -2.622  1.00  0.00     0.256 C 
ATOM     15  O   UNL     1      -1.462  -5.264  -3.474  1.00  0.00    -0.269 OA
ATOM     16  H   UNL     1      -0.469  -7.428  -3.654  1.00  0.00     0.171 HD
BRANCH  14  17
ATOM     17  C   UNL     1      -0.234  -4.790  -1.531  1.00  0.00     0.040 A 
ATOM     18  C   UNL     1       0.466  -2.943   0.512  1.00  0.00    -0.038 A 
ATOM     19  C   UNL     1      -0.756  -2.839  -0.165  1.00  0.00     0.005 A 
ATOM     20  C   UNL     1       1.343  -3.968   0.133  1.00  0.00     0.005 A 
ATOM     21  C   UNL     1      -1.097  -3.746  -1.176  1.00  0.00     0.014 A 
ATOM     22  C   UNL     1       1.017  -4.848  -0.907  1.00  0.00     0.014 A 
BRANCH  18  23
ATOM     23  C   UNL     1       0.828  -2.061   1.687  1.00  0.00     0.104 C 
BRANCH  23  24
ATOM     24  S   UNL     1       0.314  -0.318   1.568  1.00  0.00    -0.161 SA
ATOM     25  C   UNL     1       1.331   0.198   0.165  1.00  0.00     0.085 C 
ENDBRANCH  23  24
ENDBRANCH  18  23
ENDBRANCH  14  17
ENDBRANCH   8  13
ENDBRANCH   4   7
ENDBRANCH   2   3
ENDBRANCH   1   2
BRANCH   1  26
ATOM     26  C   UNL     1       6.386  -9.115   2.772  1.00  0.00     0.023 C 
BRANCH  26  27
ATOM     27  C   UNL     1       6.987 -10.464   3.149  1.00  0.00     0.116 C 
BRANCH  27  28
ATOM     28  N   UNL     1       7.696 -11.116   2.058  1.00  0.00    -0.352 N 
ATOM     29  C   UNL     1       8.706 -12.052   2.132  1.00  0.00     0.251 C 
ATOM     30  H   UNL     1       7.419 -10.854   1.150  1.00  0.00     0.163 HD
ATOM     31  O   UNL     1       9.256 -12.442   1.121  1.00  0.00    -0.269 OA
BRANCH  29  32
ATOM     32  C   UNL     1       9.138 -12.514   3.469  1.00  0.00     0.039 A 
ATOM     33  C   UNL     1      10.495 -12.453   3.789  1.00  0.00     0.014 A 
ATOM     34  C   UNL     1       8.201 -12.929   4.417  1.00  0.00     0.014 A 
ATOM     35  C   UNL     1      10.903 -12.737   5.092  1.00  0.00     0.010 A 
ATOM     36  C   UNL     1       8.599 -13.132   5.732  1.00  0.00     0.010 A 
ATOM     37  C   UNL     1       9.954 -13.037   6.083  1.00  0.00    -0.014 A 
BRANCH  37  38
ATOM     38  C   UNL     1      10.363 -13.255   7.493  1.00  0.00     0.031 A 
ATOM     39  C   UNL     1      10.151 -14.596   8.137  1.00  0.00     0.074 A 
ATOM     40  C   UNL     1      10.867 -12.228   8.205  1.00  0.00     0.049 A 
ATOM     41  N   UNL     1      10.392 -14.972   9.366  1.00  0.00    -0.248 NA
ATOM     42  C   UNL     1       9.554 -15.643   7.294  1.00  0.00     0.031 C 
ATOM     43  C   UNL     1      11.063 -10.865   7.703  1.00  0.00     0.029 A 
ATOM     44  N   UNL     1      11.302 -12.166   9.504  1.00  0.00    -0.354 N 
ATOM     45  C   UNL     1       9.968 -16.294   9.448  1.00  0.00     0.074 A 
ATOM     46  C   UNL     1       9.388 -16.627   8.164  1.00  0.00     0.031 C 
ATOM     47  C   UNL     1      11.609 -10.113   8.672  1.00  0.00     0.029 A 
ATOM     48  C   UNL     1      11.767 -10.925   9.874  1.00  0.00     0.049 A 
ATOM     49  H   UNL     1      11.284 -12.938  10.115  1.00  0.00     0.167 HD
ATOM     50  C   UNL     1      10.079 -17.158  10.487  1.00  0.00     0.034 A 
ATOM     51  C   UNL     1      12.263 -10.493  11.050  1.00  0.00     0.034 A 
ATOM     52  C   UNL     1      10.673 -16.810  11.755  1.00  0.00     0.049 A 
ATOM     53  C   UNL     1      12.379 -11.471  12.191  1.00  0.00     0.074 A 
ATOM     54  C   UNL     1      10.884 -17.617  12.859  1.00  0.00     0.029 A 
ATOM     55  N   UNL     1      11.149 -15.548  12.089  1.00  0.00    -0.354 N 
ATOM     56  N   UNL     1      12.025 -12.735  12.235  1.00  0.00    -0.248 NA
ATOM     57  C   UNL     1      12.976 -10.967  13.433  1.00  0.00     0.031 C 
ATOM     58  C   UNL     1      11.433 -16.830  13.879  1.00  0.00     0.029 A 
ATOM     59  C   UNL     1      11.631 -15.549  13.389  1.00  0.00     0.049 A 
ATOM     60  H   UNL     1      11.144 -14.767  11.490  1.00  0.00     0.167 HD
ATOM     61  C   UNL     1      12.386 -13.185  13.502  1.00  0.00     0.074 A 
ATOM     62  C   UNL     1      13.000 -12.061  14.180  1.00  0.00     0.031 C 
ATOM     63  C   UNL     1      12.228 -14.415  14.055  1.00  0.00     0.034 A 
BRANCH  50  64
ATOM     64  C   UNL     1       9.526 -18.549  10.289  1.00  0.00     0.023 A 
ATOM     65  C   UNL     1      10.042 -19.413   9.305  1.00  0.00     0.031 A 
ATOM     66  C   UNL     1       8.444 -19.006  11.060  1.00  0.00     0.131 A 
ATOM     67  C   UNL     1       9.422 -20.647   9.060  1.00  0.00     0.055 A 
ATOM     68  C   UNL     1       7.887 -20.273  10.870  1.00  0.00     0.041 A 
ATOM     69  F   UNL     1       7.894 -18.221  12.001  1.00  0.00    -0.206 F 
ATOM     70  C   UNL     1       8.365 -21.095   9.853  1.00  0.00     0.022 A 
BRANCH  67  71
ATOM     71  S   UNL     1       9.920 -21.586   7.590  1.00  0.00     0.124 S 
ATOM     72  O   UNL     1       9.620 -20.637   6.520  1.00  0.00    -0.237 OA
ATOM     73  O   UNL     1      11.333 -21.840   7.841  1.00  0.00    -0.237 OA
ATOM     74  O   UNL     1       9.056 -22.764   7.628  1.00  0.00    -0.744 OA
ENDBRANCH  67  71
ENDBRANCH  50  64
BRANCH  51  75
ATOM     75  C   UNL     1      12.696  -9.076  11.213  1.00  0.00     0.023 A 
ATOM     76  C   UNL     1      14.044  -8.755  11.436  1.00  0.00     0.031 A 
ATOM     77  C   UNL     1      11.763  -8.025  11.189  1.00  0.00     0.131 A 
ATOM     78  C   UNL     1      14.417  -7.424  11.674  1.00  0.00     0.055 A 
ATOM     79  C   UNL     1      12.145  -6.696  11.377  1.00  0.00     0.041 A 
ATOM     80  F   UNL     1      10.462  -8.277  10.969  1.00  0.00    -0.206 F 
ATOM     81  C   UNL     1      13.478  -6.390  11.635  1.00  0.00     0.022 A 
BRANCH  78  82
ATOM     82  S   UNL     1      16.141  -7.070  12.113  1.00  0.00     0.124 S 
ATOM     83  O   UNL     1      16.318  -7.889  13.306  1.00  0.00    -0.237 OA
ATOM     84  O   UNL     1      16.853  -7.512  10.919  1.00  0.00    -0.237 OA
ATOM     85  O   UNL     1      16.144  -5.626  12.339  1.00  0.00    -0.744 OA
ENDBRANCH  78  82
ENDBRANCH  51  75
BRANCH  63  86
ATOM     86  C   UNL     1      12.771 -14.608  15.449  1.00  0.00     0.023 A 
ATOM     87  C   UNL     1      12.216 -13.945  16.557  1.00  0.00     0.031 A 
ATOM     88  C   UNL     1      13.876 -15.450  15.666  1.00  0.00     0.131 A 
ATOM     89  C   UNL     1      12.806 -14.085  17.822  1.00  0.00     0.055 A 
ATOM     90  C   UNL     1      14.421 -15.634  16.938  1.00  0.00     0.041 A 
ATOM     91  F   UNL     1      14.447 -16.107  14.644  1.00  0.00    -0.206 F 
ATOM     92  C   UNL     1      13.895 -14.937  18.022  1.00  0.00     0.022 A 
BRANCH  89  93
ATOM     93  S   UNL     1      12.194 -13.057  19.186  1.00  0.00     0.124 S 
ATOM     94  O   UNL     1      12.370 -11.710  18.653  1.00  0.00    -0.237 OA
ATOM     95  O   UNL     1      10.814 -13.513  19.324  1.00  0.00    -0.237 OA
ATOM     96  O   UNL     1      13.075 -13.404  20.299  1.00  0.00    -0.744 OA
ENDBRANCH  89  93
ENDBRANCH  63  86
ENDBRANCH  37  38
ENDBRANCH  29  32
ENDBRANCH  27  28
ENDBRANCH  26  27
ENDBRANCH   1  26
TORSDOF 18
