REMARK SMILES N#Cc1ccc(/C=C/C(=O)N2C[C@@H](O)C[C@H]2C(=O)NCCCCNC(=O)c2ccc(-c3c4nc(c(-c5cc(S(=O)(=O)[O-])ccc5F)c5ccc([nH]5)c(-c5cc(S(=O)(=O)[O-])ccc5F)c5nc(c(-c6cc(S(=O)(=O)[O-])ccc6F)c6ccc3[nH]6)C=C5)C=C4)cc2)cc1
REMARK SMILES IDX 21 1 20 2 19 3 17 4 18 5 16 7 11 8 12 9 13 10 15 11 9 12
REMARK SMILES IDX 10 13 8 14 7 15 6 16 3 17 4 18 91 19 5 20 90 21 2 22 1 23
REMARK SMILES IDX 14 24 22 26 23 27 24 28 25 29 26 31 27 32 28 33 89 34 29 35
REMARK SMILES IDX 88 36 30 37 31 38 32 39 82 40 33 41 87 42 81 43 83 44 34 45
REMARK SMILES IDX 86 46 80 47 79 48 35 50 67 51 47 52 66 53 48 54 51 55 65 56
REMARK SMILES IDX 84 57 49 58 50 59 64 61 85 62 52 63 36 64 37 65 45 66 38 67
REMARK SMILES IDX 44 68 46 69 43 70 39 71 40 72 41 73 42 74 68 75 69 76 77 77
REMARK SMILES IDX 70 78 76 79 78 80 75 81 71 82 72 83 73 84 74 85 53 86 54 87
REMARK SMILES IDX 62 88 55 89 61 90 63 91 60 92 56 93 57 94 58 95 59 96
REMARK H PARENT 19 6 14 25 24 30 83 49 51 60
REMARK Flexibility Score: inf
ROOT
ATOM      1  C   UNL     1       8.908   0.434  -2.425  1.00  0.00     0.023 C 
ENDROOT
BRANCH   1   2
ATOM      2  C   UNL     1       9.447  -0.446  -1.308  1.00  0.00     0.116 C 
BRANCH   2   3
ATOM      3  N   UNL     1       9.714   0.295  -0.099  1.00  0.00    -0.354 N 
ATOM      4  C   UNL     1       9.053   0.292   1.094  1.00  0.00     0.242 C 
ATOM      5  O   UNL     1       9.624   0.824   2.052  1.00  0.00    -0.273 OA
ATOM      6  H   UNL     1      10.493   0.896  -0.142  1.00  0.00     0.163 HD
BRANCH   4   7
ATOM      7  C   UNL     1       7.751  -0.510   1.310  1.00  0.00     0.177 C 
ATOM      8  N   UNL     1       6.649  -0.274   0.371  1.00  0.00    -0.324 N 
ATOM      9  C   UNL     1       6.278  -1.485  -0.343  1.00  0.00     0.152 C 
ATOM     10  C   UNL     1       6.817  -2.616   0.526  1.00  0.00     0.136 C 
ATOM     11  C   UNL     1       8.015  -2.021   1.266  1.00  0.00     0.069 C 
BRANCH   8  12
ATOM     12  C   UNL     1       5.970   0.921   0.446  1.00  0.00     0.247 C 
ATOM     13  O   UNL     1       6.454   1.935   0.941  1.00  0.00    -0.270 OA
BRANCH  12  14
ATOM     14  C   UNL     1       4.570   0.983  -0.037  1.00  0.00     0.072 C 
ATOM     15  C   UNL     1       3.663   0.113   0.436  1.00  0.00     0.014 C 
BRANCH  15  16
ATOM     16  C   UNL     1       2.224   0.126   0.163  1.00  0.00    -0.025 A 
ATOM     17  C   UNL     1      -0.576   0.045  -0.071  1.00  0.00     0.052 A 
ATOM     18  C   UNL     1       0.093   1.272  -0.029  1.00  0.00     0.020 A 
ATOM     19  C   UNL     1       0.157  -1.144  -0.024  1.00  0.00     0.020 A 
ATOM     20  C   UNL     1       1.487   1.312   0.089  1.00  0.00     0.009 A 
ATOM     21  C   UNL     1       1.548  -1.102   0.096  1.00  0.00     0.009 A 
BRANCH  17  22
ATOM     22  C   UNL     1      -2.009   0.003  -0.128  1.00  0.00     0.099 C 
ATOM     23  N   UNL     1      -3.167  -0.038  -0.155  1.00  0.00    -0.192 NA
ENDBRANCH  17  22
ENDBRANCH  15  16
ENDBRANCH  12  14
ENDBRANCH   8  12
BRANCH  10  24
ATOM     24  O   UNL     1       7.180  -3.755  -0.235  1.00  0.00    -0.391 OA
ATOM     25  H   UNL     1       7.862  -3.509  -0.879  1.00  0.00     0.211 HD
ENDBRANCH  10  24
ENDBRANCH   4   7
ENDBRANCH   2   3
ENDBRANCH   1   2
BRANCH   1  26
ATOM     26  C   UNL     1       9.980   1.296  -3.087  1.00  0.00     0.023 C 
BRANCH  26  27
ATOM     27  C   UNL     1      11.173   0.518  -3.632  1.00  0.00     0.116 C 
BRANCH  27  28
ATOM     28  N   UNL     1      10.793  -0.496  -4.606  1.00  0.00    -0.352 N 
ATOM     29  C   UNL     1      11.395  -0.785  -5.808  1.00  0.00     0.251 C 
ATOM     30  H   UNL     1      10.007  -1.043  -4.375  1.00  0.00     0.163 HD
ATOM     31  O   UNL     1      10.861  -1.558  -6.596  1.00  0.00    -0.269 OA
BRANCH  29  32
ATOM     32  C   UNL     1      12.669  -0.116  -6.141  1.00  0.00     0.039 A 
ATOM     33  C   UNL     1      12.799   0.521  -7.376  1.00  0.00     0.014 A 
ATOM     34  C   UNL     1      13.699  -0.056  -5.198  1.00  0.00     0.014 A 
ATOM     35  C   UNL     1      13.941   1.277  -7.637  1.00  0.00     0.010 A 
ATOM     36  C   UNL     1      14.790   0.774  -5.425  1.00  0.00     0.010 A 
ATOM     37  C   UNL     1      14.927   1.447  -6.649  1.00  0.00    -0.014 A 
BRANCH  37  38
ATOM     38  C   UNL     1      16.108   2.319  -6.881  1.00  0.00     0.031 A 
ATOM     39  C   UNL     1      17.493   1.732  -6.849  1.00  0.00     0.074 A 
ATOM     40  C   UNL     1      15.936   3.642  -7.075  1.00  0.00     0.049 A 
ATOM     41  N   UNL     1      18.648   2.333  -6.973  1.00  0.00    -0.248 NA
ATOM     42  C   UNL     1      17.592   0.283  -6.619  1.00  0.00     0.031 C 
ATOM     43  C   UNL     1      14.644   4.333  -7.094  1.00  0.00     0.029 A 
ATOM     44  N   UNL     1      16.848   4.646  -7.291  1.00  0.00    -0.354 N 
ATOM     45  C   UNL     1      19.609   1.339  -6.831  1.00  0.00     0.074 A 
ATOM     46  C   UNL     1      18.902   0.111  -6.539  1.00  0.00     0.031 C 
ATOM     47  C   UNL     1      14.844   5.635  -7.349  1.00  0.00     0.029 A 
ATOM     48  C   UNL     1      16.278   5.889  -7.449  1.00  0.00     0.049 A 
ATOM     49  H   UNL     1      17.819   4.490  -7.331  1.00  0.00     0.167 HD
ATOM     50  C   UNL     1      20.955   1.437  -6.958  1.00  0.00     0.034 A 
ATOM     51  C   UNL     1      16.845   7.098  -7.633  1.00  0.00     0.034 A 
ATOM     52  C   UNL     1      21.643   2.670  -7.249  1.00  0.00     0.049 A 
ATOM     53  C   UNL     1      18.349   7.191  -7.710  1.00  0.00     0.074 A 
ATOM     54  C   UNL     1      22.998   2.873  -7.442  1.00  0.00     0.029 A 
ATOM     55  N   UNL     1      21.035   3.913  -7.372  1.00  0.00    -0.354 N 
ATOM     56  N   UNL     1      19.242   6.231  -7.622  1.00  0.00    -0.248 NA
ATOM     57  C   UNL     1      18.922   8.527  -7.918  1.00  0.00     0.031 C 
ATOM     58  C   UNL     1      23.219   4.246  -7.585  1.00  0.00     0.029 A 
ATOM     59  C   UNL     1      21.993   4.891  -7.593  1.00  0.00     0.049 A 
ATOM     60  H   UNL     1      20.066   4.076  -7.312  1.00  0.00     0.167 HD
ATOM     61  C   UNL     1      20.479   6.846  -7.804  1.00  0.00     0.074 A 
ATOM     62  C   UNL     1      20.214   8.253  -8.020  1.00  0.00     0.031 C 
ATOM     63  C   UNL     1      21.720   6.295  -7.800  1.00  0.00     0.034 A 
BRANCH  50  64
ATOM     64  C   UNL     1      21.770   0.181  -6.750  1.00  0.00     0.023 A 
ATOM     65  C   UNL     1      21.613  -0.949  -7.572  1.00  0.00     0.031 A 
ATOM     66  C   UNL     1      22.705   0.106  -5.702  1.00  0.00     0.131 A 
ATOM     67  C   UNL     1      22.320  -2.126  -7.286  1.00  0.00     0.055 A 
ATOM     68  C   UNL     1      23.474  -1.038  -5.482  1.00  0.00     0.041 A 
ATOM     69  F   UNL     1      22.880   1.141  -4.866  1.00  0.00    -0.206 F 
ATOM     70  C   UNL     1      23.273  -2.169  -6.266  1.00  0.00     0.022 A 
BRANCH  67  71
ATOM     71  S   UNL     1      21.857  -3.646  -8.162  1.00  0.00     0.124 S 
ATOM     72  O   UNL     1      20.439  -3.758  -7.826  1.00  0.00    -0.237 OA
ATOM     73  O   UNL     1      22.161  -3.316  -9.549  1.00  0.00    -0.237 OA
ATOM     74  O   UNL     1      22.714  -4.664  -7.558  1.00  0.00    -0.744 OA
ENDBRANCH  67  71
ENDBRANCH  50  64
BRANCH  51  75
ATOM     75  C   UNL     1      16.000   8.325  -7.738  1.00  0.00     0.023 A 
ATOM     76  C   UNL     1      16.008   9.116  -8.898  1.00  0.00     0.031 A 
ATOM     77  C   UNL     1      15.214   8.757  -6.654  1.00  0.00     0.131 A 
ATOM     78  C   UNL     1      15.293  10.324  -8.927  1.00  0.00     0.055 A 
ATOM     79  C   UNL     1      14.449   9.923  -6.713  1.00  0.00     0.041 A 
ATOM     80  F   UNL     1      15.171   8.043  -5.518  1.00  0.00    -0.206 F 
ATOM     81  C   UNL     1      14.499  10.723  -7.850  1.00  0.00     0.022 A 
BRANCH  78  82
ATOM     82  S   UNL     1      15.510  11.427 -10.351  1.00  0.00     0.124 S 
ATOM     83  O   UNL     1      16.951  11.648 -10.336  1.00  0.00    -0.237 OA
ATOM     84  O   UNL     1      14.996  10.612 -11.446  1.00  0.00    -0.237 OA
ATOM     85  O   UNL     1      14.695  12.590 -10.006  1.00  0.00    -0.744 OA
ENDBRANCH  78  82
ENDBRANCH  51  75
BRANCH  63  86
ATOM     86  C   UNL     1      22.886   7.210  -8.095  1.00  0.00     0.023 A 
ATOM     87  C   UNL     1      23.235   8.273  -7.244  1.00  0.00     0.031 A 
ATOM     88  C   UNL     1      23.660   7.012  -9.254  1.00  0.00     0.131 A 
ATOM     89  C   UNL     1      24.286   9.134  -7.596  1.00  0.00     0.055 A 
ATOM     90  C   UNL     1      24.753   7.824  -9.558  1.00  0.00     0.041 A 
ATOM     91  F   UNL     1      23.369   6.018 -10.109  1.00  0.00    -0.206 F 
ATOM     92  C   UNL     1      25.062   8.902  -8.735  1.00  0.00     0.022 A 
BRANCH  89  93
ATOM     93  S   UNL     1      24.552  10.631  -6.609  1.00  0.00     0.124 S 
ATOM     94  O   UNL     1      23.255  11.292  -6.706  1.00  0.00    -0.237 OA
ATOM     95  O   UNL     1      24.893  10.085  -5.299  1.00  0.00    -0.237 OA
ATOM     96  O   UNL     1      25.647  11.309  -7.301  1.00  0.00    -0.744 OA
ENDBRANCH  89  93
ENDBRANCH  63  86
ENDBRANCH  37  38
ENDBRANCH  29  32
ENDBRANCH  27  28
ENDBRANCH  26  27
ENDBRANCH   1  26
TORSDOF 19
