REMARK SMILES O=C(NCCCCNC(=O)c1ccc(Br)c(NC(=S)NC(=O)c2cccs2)c1)c1ccc(-c2c3nc(c(-c4cc(S(=O)(=O)[O-])ccc4F)c4ccc([nH]4)c(-c4cc(S(=O)(=O)[O-])ccc4F)c4nc(c(-c5cc(S(=O)(=O)[O-])ccc5F)c5ccc2[nH]5)C=C4)C=C3)cc1
REMARK SMILES IDX 6 1 5 2 4 3 3 4 1 5 2 6 29 8 30 9 91 10 31 11 90 12 32 13
REMARK SMILES IDX 33 14 34 15 84 16 35 17 89 18 83 19 85 20 36 21 88 22 82 23
REMARK SMILES IDX 81 24 37 26 69 27 49 28 68 29 50 30 53 31 67 32 86 33 51 34
REMARK SMILES IDX 52 35 66 37 87 38 54 39 38 40 39 41 47 42 40 43 46 44 48 45
REMARK SMILES IDX 45 46 41 47 42 48 43 49 44 50 70 51 71 52 79 53 72 54 78 55
REMARK SMILES IDX 80 56 77 57 73 58 74 59 75 60 76 61 55 62 56 63 64 64 57 65
REMARK SMILES IDX 63 66 65 67 62 68 58 69 59 70 60 71 61 72 7 73 8 74 9 75
REMARK SMILES IDX 10 77 11 78 12 79 28 80 13 81 16 82 14 83 15 84 17 85 18 87
REMARK SMILES IDX 19 88 20 89 21 90 22 92 23 93 24 94 27 95 25 96 26 97
REMARK H PARENT 3 7 85 25 53 36 8 76 17 86 20 91
REMARK Flexibility Score: inf
ROOT
ATOM      1  C   UNL     1       4.247  -3.264   1.850  1.00  0.00     0.023 C 
ENDROOT
BRANCH   1   2
ATOM      2  C   UNL     1       4.775  -1.845   1.671  1.00  0.00     0.023 C 
BRANCH   2   3
ATOM      3  C   UNL     1       4.417  -1.196   0.344  1.00  0.00     0.116 C 
BRANCH   3   4
ATOM      4  N   UNL     1       2.978  -1.112   0.126  1.00  0.00    -0.352 N 
ATOM      5  O   UNL     1       0.983  -0.077  -0.103  1.00  0.00    -0.269 OA
ATOM      6  C   UNL     1       2.207   0.006  -0.082  1.00  0.00     0.251 C 
ATOM      7  H   UNL     1       2.496  -1.970   0.127  1.00  0.00     0.163 HD
BRANCH   6   8
ATOM      8  C   UNL     1       2.883   1.306  -0.249  1.00  0.00     0.039 A 
ATOM      9  C   UNL     1       3.987   1.405  -1.097  1.00  0.00     0.014 A 
ATOM     10  C   UNL     1       2.461   2.404   0.501  1.00  0.00     0.014 A 
ATOM     11  C   UNL     1       4.778   2.541  -1.055  1.00  0.00     0.010 A 
ATOM     12  C   UNL     1       3.186   3.596   0.435  1.00  0.00     0.010 A 
ATOM     13  C   UNL     1       4.365   3.665  -0.323  1.00  0.00    -0.014 A 
BRANCH  13  14
ATOM     14  C   UNL     1       5.141   4.925  -0.447  1.00  0.00     0.031 A 
ATOM     15  C   UNL     1       5.787   5.571   0.744  1.00  0.00     0.074 A 
ATOM     16  C   UNL     1       5.269   5.472  -1.673  1.00  0.00     0.049 A 
ATOM     17  N   UNL     1       6.475   6.682   0.798  1.00  0.00    -0.248 NA
ATOM     18  C   UNL     1       5.634   4.894   2.039  1.00  0.00     0.031 C 
ATOM     19  C   UNL     1       4.689   4.921  -2.903  1.00  0.00     0.029 A 
ATOM     20  N   UNL     1       5.933   6.592  -2.098  1.00  0.00    -0.354 N 
ATOM     21  C   UNL     1       6.830   6.848   2.132  1.00  0.00     0.074 A 
ATOM     22  C   UNL     1       6.243   5.741   2.859  1.00  0.00     0.031 C 
ATOM     23  C   UNL     1       5.070   5.670  -3.945  1.00  0.00     0.029 A 
ATOM     24  C   UNL     1       5.828   6.810  -3.452  1.00  0.00     0.049 A 
ATOM     25  H   UNL     1       6.438   7.183  -1.493  1.00  0.00     0.167 HD
ATOM     26  C   UNL     1       7.581   7.831   2.689  1.00  0.00     0.034 A 
ATOM     27  C   UNL     1       6.254   7.835  -4.213  1.00  0.00     0.034 A 
ATOM     28  C   UNL     1       8.142   8.933   1.943  1.00  0.00     0.049 A 
ATOM     29  C   UNL     1       7.000   8.959  -3.550  1.00  0.00     0.074 A 
ATOM     30  C   UNL     1       8.935   9.968   2.407  1.00  0.00     0.029 A 
ATOM     31  N   UNL     1       7.954   9.161   0.585  1.00  0.00    -0.354 N 
ATOM     32  N   UNL     1       7.340   9.093  -2.289  1.00  0.00    -0.248 NA
ATOM     33  C   UNL     1       7.422  10.069  -4.411  1.00  0.00     0.031 C 
ATOM     34  C   UNL     1       9.136  10.872   1.361  1.00  0.00     0.029 A 
ATOM     35  C   UNL     1       8.573  10.344   0.210  1.00  0.00     0.049 A 
ATOM     36  H   UNL     1       7.455   8.568  -0.023  1.00  0.00     0.167 HD
ATOM     37  C   UNL     1       8.048  10.287  -2.214  1.00  0.00     0.074 A 
ATOM     38  C   UNL     1       8.099  10.823  -3.559  1.00  0.00     0.031 C 
ATOM     39  C   UNL     1       8.611  10.881  -1.131  1.00  0.00     0.034 A 
BRANCH  26  40
ATOM     40  C   UNL     1       7.793   7.792   4.184  1.00  0.00     0.023 A 
ATOM     41  C   UNL     1       8.463   6.729   4.811  1.00  0.00     0.031 A 
ATOM     42  C   UNL     1       7.312   8.835   4.996  1.00  0.00     0.131 A 
ATOM     43  C   UNL     1       8.566   6.695   6.210  1.00  0.00     0.055 A 
ATOM     44  C   UNL     1       7.504   8.843   6.378  1.00  0.00     0.041 A 
ATOM     45  F   UNL     1       6.639   9.866   4.459  1.00  0.00    -0.206 F 
ATOM     46  C   UNL     1       8.121   7.760   6.996  1.00  0.00     0.022 A 
BRANCH  43  47
ATOM     47  S   UNL     1       9.134   5.163   6.996  1.00  0.00     0.124 S 
ATOM     48  O   UNL     1       8.178   4.191   6.469  1.00  0.00    -0.237 OA
ATOM     49  O   UNL     1      10.502   5.044   6.506  1.00  0.00    -0.237 OA
ATOM     50  O   UNL     1       9.003   5.441   8.424  1.00  0.00    -0.744 OA
ENDBRANCH  43  47
ENDBRANCH  26  40
BRANCH  27  51
ATOM     51  C   UNL     1       5.940   7.871  -5.670  1.00  0.00     0.023 A 
ATOM     52  C   UNL     1       6.962   7.907  -6.629  1.00  0.00     0.031 A 
ATOM     53  C   UNL     1       4.608   7.921  -6.123  1.00  0.00     0.131 A 
ATOM     54  C   UNL     1       6.638   8.054  -7.986  1.00  0.00     0.055 A 
ATOM     55  C   UNL     1       4.290   7.985  -7.479  1.00  0.00     0.041 A 
ATOM     56  F   UNL     1       3.590   7.896  -5.247  1.00  0.00    -0.206 F 
ATOM     57  C   UNL     1       5.310   8.070  -8.419  1.00  0.00     0.022 A 
BRANCH  54  58
ATOM     58  S   UNL     1       7.980   8.363  -9.165  1.00  0.00     0.124 S 
ATOM     59  O   UNL     1       8.591   9.563  -8.604  1.00  0.00    -0.237 OA
ATOM     60  O   UNL     1       8.762   7.136  -9.063  1.00  0.00    -0.237 OA
ATOM     61  O   UNL     1       7.280   8.553 -10.433  1.00  0.00    -0.744 OA
ENDBRANCH  54  58
ENDBRANCH  27  51
BRANCH  39  62
ATOM     62  C   UNL     1       9.386  12.155  -1.368  1.00  0.00     0.023 A 
ATOM     63  C   UNL     1       8.772  13.323  -1.851  1.00  0.00     0.031 A 
ATOM     64  C   UNL     1      10.770  12.194  -1.117  1.00  0.00     0.131 A 
ATOM     65  C   UNL     1       9.551  14.456  -2.133  1.00  0.00     0.055 A 
ATOM     66  C   UNL     1      11.524  13.351  -1.316  1.00  0.00     0.041 A 
ATOM     67  F   UNL     1      11.415  11.104  -0.669  1.00  0.00    -0.206 F 
ATOM     68  C   UNL     1      10.917  14.486  -1.842  1.00  0.00     0.022 A 
BRANCH  65  69
ATOM     69  S   UNL     1       8.780  15.842  -3.012  1.00  0.00     0.124 S 
ATOM     70  O   UNL     1       8.292  15.194  -4.226  1.00  0.00    -0.237 OA
ATOM     71  O   UNL     1       7.758  16.282  -2.069  1.00  0.00    -0.237 OA
ATOM     72  O   UNL     1       9.885  16.778  -3.211  1.00  0.00    -0.744 OA
ENDBRANCH  65  69
ENDBRANCH  39  62
ENDBRANCH  13  14
ENDBRANCH   6   8
ENDBRANCH   3   4
ENDBRANCH   2   3
ENDBRANCH   1   2
BRANCH   1  73
ATOM     73  C   UNL     1       4.460  -4.186   0.653  1.00  0.00     0.116 C 
BRANCH  73  74
ATOM     74  N   UNL     1       5.845  -4.232   0.235  1.00  0.00    -0.352 N 
ATOM     75  C   UNL     1       6.748  -5.258   0.126  1.00  0.00     0.251 C 
ATOM     76  H   UNL     1       6.210  -3.355  -0.023  1.00  0.00     0.163 HD
ATOM     77  O   UNL     1       7.894  -4.918  -0.151  1.00  0.00    -0.269 OA
BRANCH  75  78
ATOM     78  C   UNL     1       6.258  -6.738   0.341  1.00  0.00     0.041 A 
ATOM     79  C   UNL     1       4.741  -7.014  -0.623  1.00  0.00     0.015 A 
ATOM     80  C   UNL     1       6.835  -8.370   1.456  1.00  0.00     0.041 A 
ATOM     81  C   UNL     1       3.949  -8.601  -0.444  1.00  0.00     0.018 A 
ATOM     82  C   UNL     1       5.967  -9.757   1.630  1.00  0.00     0.055 A 
ATOM     83  C   UNL     1       4.547  -9.889   0.649  1.00  0.00     0.041 A 
ATOM     84  Br  UNL     1       3.454 -11.424   0.857  1.00  0.00    -0.049 Br
BRANCH  82  85
ATOM     85  N   UNL     1       6.433 -10.408   2.793  1.00  0.00    -0.331 N 
ATOM     86  H   UNL     1       6.024 -11.286   2.973  1.00  0.00     0.169 HD
BRANCH  85  87
ATOM     87  C   UNL     1       7.390  -9.995   3.727  1.00  0.00     0.177 C 
ATOM     88  S   UNL     1       7.691 -11.062   4.995  1.00  0.00    -0.040 S 
BRANCH  87  89
ATOM     89  N   UNL     1       8.184  -8.776   3.740  1.00  0.00    -0.298 N 
ATOM     90  C   UNL     1       8.644  -7.420   3.176  1.00  0.00     0.267 C 
ATOM     91  H   UNL     1       8.723  -8.870   4.559  1.00  0.00     0.172 HD
ATOM     92  O   UNL     1       9.667  -6.931   3.652  1.00  0.00    -0.268 OA
BRANCH  90  93
ATOM     93  C   UNL     1       7.810  -6.742   2.081  1.00  0.00     0.092 A 
ATOM     94  C   UNL     1       6.145  -6.711   2.457  1.00  0.00     0.025 A 
ATOM     95  S   UNL     1       8.325  -7.644   0.013  1.00  0.00    -0.139 S 
ATOM     96  C   UNL     1       5.085  -7.807   1.304  1.00  0.00     0.012 A 
ATOM     97  C   UNL     1       6.165  -8.504  -0.211  1.00  0.00     0.065 A 
ENDBRANCH  90  93
ENDBRANCH  87  89
ENDBRANCH  85  87
ENDBRANCH  82  85
ENDBRANCH  75  78
ENDBRANCH  73  74
ENDBRANCH   1  73
TORSDOF 18
