REMARK SMILES CCCCCCNC(=O)Oc1cccc(-c2ccc([C@@H](C)C(=O)NCCCCNC(=O)c3ccc(-c4c5nc(c(-c6cc(S(=O)(=O)[O-])ccc6F)c6ccc([nH]6)c(-c6cc(S(=O)(=O)[O-])ccc6F)c6nc(c(-c7cc(S(=O)(=O)[O-])ccc7F)c7ccc4[nH]7)C=C6)C=C5)cc3)cc2O)c1
REMARK SMILES IDX 20 1 21 2 19 3 16 4 17 5 96 6 18 7 95 8 15 9 11 10 12 11
REMARK SMILES IDX 98 12 13 13 14 14 10 15 8 16 7 17 9 19 6 20 5 21 4 22 3 23
REMARK SMILES IDX 2 24 1 25 97 26 22 28 23 29 24 30 25 32 26 33 27 34 28 35
REMARK SMILES IDX 29 36 30 37 31 39 32 40 33 41 94 42 34 43 93 44 35 45 36 46
REMARK SMILES IDX 37 47 87 48 38 49 92 50 86 51 88 52 39 53 91 54 85 55 84 56
REMARK SMILES IDX 40 58 72 59 52 60 71 61 53 62 56 63 70 64 89 65 54 66 55 67
REMARK SMILES IDX 69 69 90 70 57 71 41 72 42 73 50 74 43 75 49 76 51 77 48 78
REMARK SMILES IDX 44 79 45 80 46 81 47 82 73 83 74 84 82 85 75 86 81 87 83 88
REMARK SMILES IDX 80 89 76 90 77 91 78 92 79 93 58 94 59 95 67 96 60 97 66 98
REMARK SMILES IDX 68 99 65 100 61 101 62 102 63 103 64 104
REMARK H PARENT 7 18 97 27 24 31 29 38 88 57 56 68
REMARK Flexibility Score: inf
ROOT
ATOM      1  C   UNL     1      -4.947 -10.262   8.563  1.00  0.00     0.105 C 
ATOM      2  C   UNL     1      -6.219 -10.865   9.161  1.00  0.00     0.023 C 
ENDROOT
BRANCH   1   3
ATOM      3  C   UNL     1      -5.111  -9.622   7.194  1.00  0.00    -0.032 A 
ATOM      4  C   UNL     1      -5.240  -8.430   4.588  1.00  0.00     0.024 A 
ATOM      5  C   UNL     1      -5.808  -9.685   4.863  1.00  0.00     0.013 A 
ATOM      6  C   UNL     1      -4.657  -7.763   5.680  1.00  0.00     0.123 A 
ATOM      7  C   UNL     1      -5.795 -10.239   6.147  1.00  0.00     0.005 A 
ATOM      8  C   UNL     1      -4.551  -8.362   6.942  1.00  0.00     0.051 A 
BRANCH   4   9
ATOM      9  C   UNL     1      -5.287  -7.896   3.204  1.00  0.00    -0.011 A 
ATOM     10  C   UNL     1      -4.301  -6.675   1.346  1.00  0.00     0.133 A 
ATOM     11  C   UNL     1      -5.434  -6.877   0.564  1.00  0.00     0.047 A 
ATOM     12  C   UNL     1      -4.209  -7.191   2.641  1.00  0.00     0.056 A 
ATOM     13  C   UNL     1      -6.494  -7.606   1.085  1.00  0.00     0.004 A 
ATOM     14  C   UNL     1      -6.425  -8.092   2.394  1.00  0.00     0.009 A 
BRANCH  10  15
ATOM     15  O   UNL     1      -3.341  -5.787   0.834  1.00  0.00    -0.410 OA
BRANCH  15  16
ATOM     16  C   UNL     1      -1.996  -6.115   0.892  1.00  0.00     0.412 C 
ATOM     17  N   UNL     1      -1.185  -5.074   0.531  1.00  0.00    -0.321 N 
ATOM     18  H   UNL     1      -0.217  -5.253   0.511  1.00  0.00     0.167 HD
ATOM     19  O   UNL     1      -1.534  -7.199   1.219  1.00  0.00    -0.224 OA
BRANCH  17  20
ATOM     20  C   UNL     1      -1.607  -3.734   0.174  1.00  0.00     0.119 C 
BRANCH  20  21
ATOM     21  C   UNL     1      -1.019  -2.681   1.113  1.00  0.00     0.021 C 
BRANCH  21  22
ATOM     22  C   UNL     1       0.510  -2.569   1.073  1.00  0.00     0.002 C 
BRANCH  22  23
ATOM     23  C   UNL     1       1.111  -2.267  -0.303  1.00  0.00    -0.000 C 
BRANCH  23  24
ATOM     24  C   UNL     1       0.621  -0.977  -0.965  1.00  0.00    -0.003 C 
ATOM     25  C   UNL     1       0.983   0.274  -0.180  1.00  0.00     0.004 C 
ENDBRANCH  23  24
ENDBRANCH  22  23
ENDBRANCH  21  22
ENDBRANCH  20  21
ENDBRANCH  17  20
ENDBRANCH  15  16
ENDBRANCH  10  15
ENDBRANCH   4   9
BRANCH   6  26
ATOM     26  O   UNL     1      -4.195  -6.474   5.608  1.00  0.00    -0.507 OA
ATOM     27  H   UNL     1      -4.233  -6.007   4.796  1.00  0.00     0.293 HD
ENDBRANCH   6  26
ENDBRANCH   1   3
BRANCH   1  28
ATOM     28  C   UNL     1      -3.708 -11.161   8.697  1.00  0.00     0.227 C 
ATOM     29  O   UNL     1      -2.745 -10.777   9.373  1.00  0.00    -0.274 OA
ATOM     30  N   UNL     1      -3.598 -12.395   8.134  1.00  0.00    -0.356 N 
ATOM     31  H   UNL     1      -2.771 -12.874   8.373  1.00  0.00     0.163 HD
BRANCH  30  32
ATOM     32  C   UNL     1      -4.474 -13.134   7.250  1.00  0.00     0.116 C 
BRANCH  32  33
ATOM     33  C   UNL     1      -4.087 -12.957   5.781  1.00  0.00     0.023 C 
BRANCH  33  34
ATOM     34  C   UNL     1      -3.054 -13.954   5.264  1.00  0.00     0.023 C 
BRANCH  34  35
ATOM     35  C   UNL     1      -3.485 -15.414   5.313  1.00  0.00     0.116 C 
BRANCH  35  36
ATOM     36  N   UNL     1      -4.715 -15.694   4.584  1.00  0.00    -0.352 N 
ATOM     37  C   UNL     1      -5.051 -16.844   3.905  1.00  0.00     0.251 C 
ATOM     38  H   UNL     1      -5.388 -14.974   4.577  1.00  0.00     0.163 HD
ATOM     39  O   UNL     1      -6.092 -16.902   3.259  1.00  0.00    -0.269 OA
BRANCH  37  40
ATOM     40  C   UNL     1      -4.107 -17.981   3.928  1.00  0.00     0.039 A 
ATOM     41  C   UNL     1      -3.691 -18.543   2.720  1.00  0.00     0.014 A 
ATOM     42  C   UNL     1      -3.565 -18.418   5.139  1.00  0.00     0.014 A 
ATOM     43  C   UNL     1      -2.667 -19.492   2.723  1.00  0.00     0.010 A 
ATOM     44  C   UNL     1      -2.486 -19.293   5.130  1.00  0.00     0.010 A 
ATOM     45  C   UNL     1      -2.024 -19.840   3.923  1.00  0.00    -0.014 A 
BRANCH  45  46
ATOM     46  C   UNL     1      -0.869 -20.774   3.940  1.00  0.00     0.031 A 
ATOM     47  C   UNL     1      -0.963 -22.067   4.703  1.00  0.00     0.074 A 
ATOM     48  C   UNL     1       0.287 -20.421   3.344  1.00  0.00     0.049 A 
ATOM     49  N   UNL     1      -0.046 -22.976   4.913  1.00  0.00    -0.248 NA
ATOM     50  C   UNL     1      -2.251 -22.352   5.354  1.00  0.00     0.031 C 
ATOM     51  C   UNL     1       0.521 -19.161   2.632  1.00  0.00     0.029 A 
ATOM     52  N   UNL     1       1.489 -21.078   3.254  1.00  0.00    -0.354 N 
ATOM     53  C   UNL     1      -0.637 -23.926   5.739  1.00  0.00     0.074 A 
ATOM     54  C   UNL     1      -1.966 -23.443   6.046  1.00  0.00     0.031 C 
ATOM     55  C   UNL     1       1.778 -19.148   2.163  1.00  0.00     0.029 A 
ATOM     56  C   UNL     1       2.456 -20.373   2.575  1.00  0.00     0.049 A 
ATOM     57  H   UNL     1       1.644 -21.970   3.639  1.00  0.00     0.167 HD
ATOM     58  C   UNL     1      -0.127 -25.103   6.178  1.00  0.00     0.034 A 
ATOM     59  C   UNL     1       3.747 -20.671   2.325  1.00  0.00     0.034 A 
ATOM     60  C   UNL     1       1.196 -25.572   5.842  1.00  0.00     0.049 A 
ATOM     61  C   UNL     1       4.294 -21.988   2.813  1.00  0.00     0.074 A 
ATOM     62  C   UNL     1       1.786 -26.783   6.155  1.00  0.00     0.029 A 
ATOM     63  N   UNL     1       2.141 -24.843   5.128  1.00  0.00    -0.354 N 
ATOM     64  N   UNL     1       3.697 -22.917   3.524  1.00  0.00    -0.248 NA
ATOM     65  C   UNL     1       5.681 -22.302   2.453  1.00  0.00     0.031 C 
ATOM     66  C   UNL     1       3.110 -26.756   5.700  1.00  0.00     0.029 A 
ATOM     67  C   UNL     1       3.322 -25.563   5.026  1.00  0.00     0.049 A 
ATOM     68  H   UNL     1       1.993 -23.946   4.750  1.00  0.00     0.167 HD
ATOM     69  C   UNL     1       4.631 -23.939   3.675  1.00  0.00     0.074 A 
ATOM     70  C   UNL     1       5.823 -23.515   2.967  1.00  0.00     0.031 C 
ATOM     71  C   UNL     1       4.512 -25.120   4.334  1.00  0.00     0.034 A 
BRANCH  58  72
ATOM     72  C   UNL     1      -0.996 -25.938   7.092  1.00  0.00     0.023 A 
ATOM     73  C   UNL     1      -2.253 -26.420   6.685  1.00  0.00     0.031 A 
ATOM     74  C   UNL     1      -0.586 -26.212   8.409  1.00  0.00     0.131 A 
ATOM     75  C   UNL     1      -3.095 -27.057   7.610  1.00  0.00     0.055 A 
ATOM     76  C   UNL     1      -1.389 -26.932   9.297  1.00  0.00     0.041 A 
ATOM     77  F   UNL     1       0.594 -25.763   8.866  1.00  0.00    -0.206 F 
ATOM     78  C   UNL     1      -2.660 -27.340   8.906  1.00  0.00     0.022 A 
BRANCH  75  79
ATOM     79  S   UNL     1      -4.826 -27.345   7.149  1.00  0.00     0.124 S 
ATOM     80  O   UNL     1      -5.270 -25.993   6.813  1.00  0.00    -0.237 OA
ATOM     81  O   UNL     1      -4.703 -28.273   6.031  1.00  0.00    -0.237 OA
ATOM     82  O   UNL     1      -5.417 -27.902   8.363  1.00  0.00    -0.744 OA
ENDBRANCH  75  79
ENDBRANCH  58  72
BRANCH  59  83
ATOM     83  C   UNL     1       4.609 -19.702   1.591  1.00  0.00     0.023 A 
ATOM     84  C   UNL     1       5.107 -19.992   0.311  1.00  0.00     0.031 A 
ATOM     85  C   UNL     1       4.955 -18.467   2.169  1.00  0.00     0.131 A 
ATOM     86  C   UNL     1       5.949 -19.073  -0.337  1.00  0.00     0.055 A 
ATOM     87  C   UNL     1       5.752 -17.536   1.501  1.00  0.00     0.041 A 
ATOM     88  F   UNL     1       4.498 -18.137   3.388  1.00  0.00    -0.206 F 
ATOM     89  C   UNL     1       6.263 -17.842   0.244  1.00  0.00     0.022 A 
BRANCH  86  90
ATOM     90  S   UNL     1       6.680 -19.534  -1.932  1.00  0.00     0.124 S 
ATOM     91  O   UNL     1       7.436 -20.730  -1.579  1.00  0.00    -0.237 OA
ATOM     92  O   UNL     1       5.496 -19.745  -2.759  1.00  0.00    -0.237 OA
ATOM     93  O   UNL     1       7.485 -18.367  -2.288  1.00  0.00    -0.744 OA
ENDBRANCH  86  90
ENDBRANCH  59  83
BRANCH  71  94
ATOM     94  C   UNL     1       5.695 -26.057   4.284  1.00  0.00     0.023 A 
ATOM     95  C   UNL     1       6.918 -25.742   4.902  1.00  0.00     0.031 A 
ATOM     96  C   UNL     1       5.595 -27.285   3.604  1.00  0.00     0.131 A 
ATOM     97  C   UNL     1       8.007 -26.619   4.782  1.00  0.00     0.055 A 
ATOM     98  C   UNL     1       6.662 -28.181   3.543  1.00  0.00     0.041 A 
ATOM     99  F   UNL     1       4.453 -27.636   2.991  1.00  0.00    -0.206 F 
ATOM    100  C   UNL     1       7.881 -27.844   4.123  1.00  0.00     0.022 A 
BRANCH  97 101
ATOM    101  S   UNL     1       9.623 -26.094   5.418  1.00  0.00     0.124 S 
ATOM    102  O   UNL     1       9.857 -24.862   4.672  1.00  0.00    -0.237 OA
ATOM    103  O   UNL     1       9.361 -25.936   6.845  1.00  0.00    -0.237 OA
ATOM    104  O   UNL     1      10.506 -27.206   5.071  1.00  0.00    -0.744 OA
ENDBRANCH  97 101
ENDBRANCH  71  94
ENDBRANCH  45  46
ENDBRANCH  37  40
ENDBRANCH  35  36
ENDBRANCH  34  35
ENDBRANCH  33  34
ENDBRANCH  32  33
ENDBRANCH  30  32
ENDBRANCH   1  28
TORSDOF 24
