REMARK SMILES Nc1oc(-c2ccccc2)cc1C(=O)NCCCCNC(=O)c1ccc(-c2c3nc(c(-c4cc(S(=O)(=O)[O-])ccc4F)c4ccc([nH]4)c(-c4cc(S(=O)(=O)[O-])ccc4F)c4nc(c(-c5cc(S(=O)(=O)[O-])ccc5F)c5ccc2[nH]5)C=C4)C=C3)cc1
REMARK SMILES IDX 18 1 17 2 16 3 15 4 13 5 14 6 12 8 2 9 3 10 4 11 11 12 1 13
REMARK SMILES IDX 5 16 6 17 10 18 7 19 9 20 8 21 19 22 20 23 21 24 22 26 23 27
REMARK SMILES IDX 24 28 85 29 25 30 84 31 26 32 27 33 28 34 78 35 29 36 83 37
REMARK SMILES IDX 77 38 79 39 30 40 82 41 76 42 75 43 31 45 63 46 43 47 62 48
REMARK SMILES IDX 44 49 47 50 61 51 80 52 45 53 46 54 60 56 81 57 48 58 32 59
REMARK SMILES IDX 33 60 41 61 34 62 40 63 42 64 39 65 35 66 36 67 37 68 38 69
REMARK SMILES IDX 64 70 65 71 73 72 66 73 72 74 74 75 71 76 67 77 68 78 69 79
REMARK SMILES IDX 70 80 49 81 50 82 58 83 51 84 57 85 59 86 56 87 52 88 53 89
REMARK SMILES IDX 54 90 55 91
REMARK H PARENT 15 7 1 14 1 15 20 25 79 44 47 55
REMARK Flexibility Score: inf
ROOT
ATOM      1  C   UNL     1      -5.654   1.756   2.252  1.00  0.00     0.023 C 
ENDROOT
BRANCH   1   2
ATOM      2  C   UNL     1      -4.498   2.520   1.583  1.00  0.00     0.023 C 
BRANCH   2   3
ATOM      3  C   UNL     1      -3.190   2.547   2.381  1.00  0.00     0.116 C 
BRANCH   3   4
ATOM      4  N   UNL     1      -2.477   1.286   2.300  1.00  0.00    -0.352 N 
ATOM      5  C   UNL     1      -1.462   0.843   1.489  1.00  0.00     0.256 C 
ATOM      6  O   UNL     1      -1.060  -0.309   1.700  1.00  0.00    -0.269 OA
ATOM      7  H   UNL     1      -2.782   0.617   2.954  1.00  0.00     0.163 HD
BRANCH   5   8
ATOM      8  C   UNL     1      -0.874   1.677   0.451  1.00  0.00     0.103 A 
ATOM      9  C   UNL     1       0.287   1.348  -0.239  1.00  0.00     0.203 A 
ATOM     10  O   UNL     1       0.653   2.330  -1.105  1.00  0.00    -0.440 OA
ATOM     11  C   UNL     1      -0.277   3.311  -0.985  1.00  0.00     0.137 A 
ATOM     12  C   UNL     1      -1.262   2.925  -0.106  1.00  0.00     0.067 A 
BRANCH   9  13
ATOM     13  N   UNL     1       1.093   0.282  -0.192  1.00  0.00    -0.369 N 
ATOM     14  H   UNL     1       1.884   0.238  -0.775  1.00  0.00     0.159 HD
ATOM     15  H   UNL     1       0.894  -0.458   0.426  1.00  0.00     0.159 HD
ENDBRANCH   9  13
BRANCH  11  16
ATOM     16  C   UNL     1      -0.087   4.538  -1.728  1.00  0.00     0.017 A 
ATOM     17  C   UNL     1      -0.160   4.558  -3.123  1.00  0.00     0.012 A 
ATOM     18  C   UNL     1       0.029   5.748  -1.028  1.00  0.00     0.012 A 
ATOM     19  C   UNL     1      -0.163   5.778  -3.805  1.00  0.00     0.001 A 
ATOM     20  C   UNL     1       0.036   6.964  -1.710  1.00  0.00     0.001 A 
ATOM     21  C   UNL     1      -0.075   6.978  -3.099  1.00  0.00     0.000 A 
ENDBRANCH  11  16
ENDBRANCH   5   8
ENDBRANCH   3   4
ENDBRANCH   2   3
ENDBRANCH   1   2
BRANCH   1  22
ATOM     22  C   UNL     1      -6.178   2.366   3.552  1.00  0.00     0.116 C 
BRANCH  22  23
ATOM     23  N   UNL     1      -6.723   3.720   3.382  1.00  0.00    -0.352 N 
ATOM     24  C   UNL     1      -7.034   4.651   4.360  1.00  0.00     0.251 C 
ATOM     25  H   UNL     1      -6.890   4.001   2.454  1.00  0.00     0.163 HD
ATOM     26  O   UNL     1      -7.875   5.529   4.139  1.00  0.00    -0.269 OA
BRANCH  24  27
ATOM     27  C   UNL     1      -6.318   4.605   5.646  1.00  0.00     0.039 A 
ATOM     28  C   UNL     1      -6.896   4.920   6.881  1.00  0.00     0.014 A 
ATOM     29  C   UNL     1      -4.995   4.191   5.579  1.00  0.00     0.014 A 
ATOM     30  C   UNL     1      -6.127   4.766   8.039  1.00  0.00     0.010 A 
ATOM     31  C   UNL     1      -4.349   3.795   6.710  1.00  0.00     0.010 A 
ATOM     32  C   UNL     1      -4.847   4.204   7.935  1.00  0.00    -0.014 A 
BRANCH  32  33
ATOM     33  C   UNL     1      -3.991   3.895   9.072  1.00  0.00     0.031 A 
ATOM     34  C   UNL     1      -4.528   2.803   9.919  1.00  0.00     0.074 A 
ATOM     35  C   UNL     1      -2.695   4.290   9.116  1.00  0.00     0.049 A 
ATOM     36  N   UNL     1      -5.130   2.912  11.056  1.00  0.00    -0.248 NA
ATOM     37  C   UNL     1      -4.636   1.458   9.323  1.00  0.00     0.031 C 
ATOM     38  C   UNL     1      -1.941   5.064   8.120  1.00  0.00     0.029 A 
ATOM     39  N   UNL     1      -1.730   3.977  10.020  1.00  0.00    -0.354 N 
ATOM     40  C   UNL     1      -5.397   1.605  11.451  1.00  0.00     0.074 A 
ATOM     41  C   UNL     1      -5.382   0.838  10.239  1.00  0.00     0.031 C 
ATOM     42  C   UNL     1      -0.613   4.960   8.367  1.00  0.00     0.029 A 
ATOM     43  C   UNL     1      -0.419   4.240   9.614  1.00  0.00     0.049 A 
ATOM     44  H   UNL     1      -1.940   3.591  10.901  1.00  0.00     0.167 HD
ATOM     45  C   UNL     1      -5.253   1.221  12.752  1.00  0.00     0.034 A 
ATOM     46  C   UNL     1       0.729   3.859  10.249  1.00  0.00     0.034 A 
ATOM     47  C   UNL     1      -5.081   2.389  13.601  1.00  0.00     0.049 A 
ATOM     48  C   UNL     1       0.339   3.546  11.652  1.00  0.00     0.074 A 
ATOM     49  C   UNL     1      -5.813   3.541  13.825  1.00  0.00     0.029 A 
ATOM     50  N   UNL     1      -3.806   2.675  14.050  1.00  0.00    -0.354 N 
ATOM     51  N   UNL     1      -0.117   4.447  12.481  1.00  0.00    -0.248 NA
ATOM     52  C   UNL     1      -0.055   2.176  11.950  1.00  0.00     0.031 C 
ATOM     53  C   UNL     1      -4.840   4.584  13.892  1.00  0.00     0.029 A 
ATOM     54  C   UNL     1      -3.570   4.009  13.828  1.00  0.00     0.049 A 
ATOM     55  H   UNL     1      -3.179   2.035  14.457  1.00  0.00     0.167 HD
ATOM     56  C   UNL     1      -1.187   3.838  13.122  1.00  0.00     0.074 A 
ATOM     57  C   UNL     1      -1.050   2.413  12.812  1.00  0.00     0.031 C 
ATOM     58  C   UNL     1      -2.253   4.567  13.572  1.00  0.00     0.034 A 
BRANCH  45  59
ATOM     59  C   UNL     1      -4.822  -0.162  13.220  1.00  0.00     0.023 A 
ATOM     60  C   UNL     1      -4.584  -0.297  14.601  1.00  0.00     0.031 A 
ATOM     61  C   UNL     1      -4.365  -1.238  12.426  1.00  0.00     0.131 A 
ATOM     62  C   UNL     1      -3.776  -1.328  15.105  1.00  0.00     0.055 A 
ATOM     63  C   UNL     1      -3.615  -2.301  12.941  1.00  0.00     0.041 A 
ATOM     64  F   UNL     1      -4.552  -1.312  11.106  1.00  0.00    -0.206 F 
ATOM     65  C   UNL     1      -3.276  -2.328  14.281  1.00  0.00     0.022 A 
BRANCH  62  66
ATOM     66  S   UNL     1      -3.228  -1.203  16.823  1.00  0.00     0.124 S 
ATOM     67  O   UNL     1      -2.616   0.122  16.828  1.00  0.00    -0.237 OA
ATOM     68  O   UNL     1      -4.488  -1.335  17.547  1.00  0.00    -0.237 OA
ATOM     69  O   UNL     1      -2.304  -2.324  16.964  1.00  0.00    -0.744 OA
ENDBRANCH  62  66
ENDBRANCH  45  59
BRANCH  46  70
ATOM     70  C   UNL     1       2.035   3.432   9.651  1.00  0.00     0.023 A 
ATOM     71  C   UNL     1       3.246   3.357  10.384  1.00  0.00     0.031 A 
ATOM     72  C   UNL     1       2.047   2.832   8.371  1.00  0.00     0.131 A 
ATOM     73  C   UNL     1       4.384   2.707   9.835  1.00  0.00     0.055 A 
ATOM     74  C   UNL     1       3.168   2.188   7.839  1.00  0.00     0.041 A 
ATOM     75  F   UNL     1       0.934   2.774   7.622  1.00  0.00    -0.206 F 
ATOM     76  C   UNL     1       4.340   2.113   8.573  1.00  0.00     0.022 A 
BRANCH  73  77
ATOM     77  S   UNL     1       5.935   2.541  10.790  1.00  0.00     0.124 S 
ATOM     78  O   UNL     1       6.432   3.912  10.817  1.00  0.00    -0.237 OA
ATOM     79  O   UNL     1       5.471   1.993  12.059  1.00  0.00    -0.237 OA
ATOM     80  O   UNL     1       6.737   1.617   9.986  1.00  0.00    -0.744 OA
ENDBRANCH  73  77
ENDBRANCH  46  70
BRANCH  58  81
ATOM     81  C   UNL     1      -2.131   6.078  13.640  1.00  0.00     0.023 A 
ATOM     82  C   UNL     1      -1.861   6.934  12.546  1.00  0.00     0.031 A 
ATOM     83  C   UNL     1      -2.445   6.678  14.873  1.00  0.00     0.131 A 
ATOM     84  C   UNL     1      -1.911   8.334  12.719  1.00  0.00     0.055 A 
ATOM     85  C   UNL     1      -2.516   8.059  15.033  1.00  0.00     0.041 A 
ATOM     86  F   UNL     1      -2.735   5.920  15.943  1.00  0.00    -0.206 F 
ATOM     87  C   UNL     1      -2.244   8.894  13.957  1.00  0.00     0.022 A 
BRANCH  84  88
ATOM     88  S   UNL     1      -1.525   9.466  11.341  1.00  0.00     0.124 S 
ATOM     89  O   UNL     1      -0.292   8.922  10.787  1.00  0.00    -0.237 OA
ATOM     90  O   UNL     1      -2.711   9.353  10.496  1.00  0.00    -0.237 OA
ATOM     91  O   UNL     1      -1.374  10.765  12.001  1.00  0.00    -0.744 OA
ENDBRANCH  84  88
ENDBRANCH  58  81
ENDBRANCH  32  33
ENDBRANCH  24  27
ENDBRANCH  22  23
ENDBRANCH   1  22
TORSDOF 16
