REMARK SMILES N#CC1=C(N)N2C(=O)[C@@H](CC(=O)NCCCCNC(=O)c3ccc(-c4c5nc(c(-c6cc(S(=O)(=O)[O-])ccc6F)c6ccc([nH]6)c(-c6cc(S(=O)(=O)[O-])ccc6F)c6nc(c(-c7cc(S(=O)(=O)[O-])ccc7F)c7ccc4[nH]7)C=C6)C=C5)cc3)SC2=C(C#N)[C@H]1c1ccc(Cl)cc1
REMARK SMILES IDX 16 1 15 2 14 3 13 4 11 5 12 6 10 8 9 9 3 10 4 11 89 12 6 13
REMARK SMILES IDX 86 14 7 15 85 16 8 17 84 18 2 19 1 20 5 21 90 24 91 25 96 26
REMARK SMILES IDX 92 27 95 28 93 29 94 30 87 31 88 32 17 33 18 34 19 35 20 37
REMARK SMILES IDX 21 38 22 39 83 40 23 41 82 42 24 43 25 44 26 45 76 46 27 47
REMARK SMILES IDX 81 48 75 49 77 50 28 51 80 52 74 53 73 54 29 56 61 57 41 58
REMARK SMILES IDX 60 59 42 60 45 61 59 62 78 63 43 64 44 65 58 67 79 68 46 69
REMARK SMILES IDX 30 70 31 71 39 72 32 73 38 74 40 75 37 76 33 77 34 78 35 79
REMARK SMILES IDX 36 80 62 81 63 82 71 83 64 84 70 85 72 86 69 87 65 88 66 89
REMARK SMILES IDX 67 90 68 91 47 92 48 93 56 94 49 95 55 96 57 97 54 98 50 99
REMARK SMILES IDX 51 100 52 101 53 102
REMARK H PARENT 13 7 5 22 5 23 18 36 77 55 45 66
REMARK Flexibility Score: inf
ROOT
ATOM      1  C   UNL     1       7.267  -6.460  -0.001  1.00  0.00     0.023 C 
ENDROOT
BRANCH   1   2
ATOM      2  C   UNL     1       8.334  -5.489   0.509  1.00  0.00     0.023 C 
BRANCH   2   3
ATOM      3  C   UNL     1       9.264  -4.949  -0.579  1.00  0.00     0.116 C 
BRANCH   3   4
ATOM      4  N   UNL     1       8.564  -4.347  -1.699  1.00  0.00    -0.356 N 
ATOM      5  C   UNL     1       8.339  -3.037  -1.975  1.00  0.00     0.221 C 
ATOM      6  O   UNL     1       7.719  -2.716  -2.988  1.00  0.00    -0.275 OA
ATOM      7  H   UNL     1       8.197  -4.983  -2.355  1.00  0.00     0.163 HD
BRANCH   5   8
ATOM      8  C   UNL     1       8.857  -1.983  -1.034  1.00  0.00     0.125 C 
BRANCH   8   9
ATOM      9  C   UNL     1       8.138  -1.972   0.308  1.00  0.00     0.152 C 
ATOM     10  C   UNL     1       3.819  -0.083  -0.041  1.00  0.00     0.083 C 
ATOM     11  C   UNL     1       4.478  -1.238   0.185  1.00  0.00     0.126 C 
ATOM     12  C   UNL     1       4.549   1.225  -0.362  1.00  0.00     0.107 C 
ATOM     13  N   UNL     1       5.867  -1.206   0.245  1.00  0.00    -0.258 N 
ATOM     14  C   UNL     1       5.953   1.175   0.209  1.00  0.00     0.073 C 
ATOM     15  C   UNL     1       6.660  -2.341   0.225  1.00  0.00     0.247 C 
ATOM     16  C   UNL     1       6.521  -0.013   0.438  1.00  0.00     0.099 C 
ATOM     17  O   UNL     1       6.231  -3.483   0.097  1.00  0.00    -0.273 OA
ATOM     18  S   UNL     1       8.151  -0.261   0.958  1.00  0.00    -0.093 SA
BRANCH  10  19
ATOM     19  C   UNL     1       2.299  -0.083  -0.041  1.00  0.00     0.100 C 
ATOM     20  N   UNL     1       1.038  -0.083  -0.041  1.00  0.00    -0.193 NA
ENDBRANCH  10  19
BRANCH  11  21
ATOM     21  N   UNL     1       3.816  -2.426   0.356  1.00  0.00    -0.384 N 
ATOM     22  H   UNL     1       2.832  -2.452   0.314  1.00  0.00     0.158 HD
ATOM     23  H   UNL     1       4.323  -3.253   0.521  1.00  0.00     0.158 HD
ENDBRANCH  11  21
BRANCH  12  24
ATOM     24  C   UNL     1       4.546   1.528  -1.880  1.00  0.00    -0.034 A 
ATOM     25  C   UNL     1       5.726   1.548  -2.657  1.00  0.00     0.006 A 
ATOM     26  C   UNL     1       3.334   1.786  -2.548  1.00  0.00     0.006 A 
ATOM     27  C   UNL     1       5.694   1.817  -4.030  1.00  0.00     0.021 A 
ATOM     28  C   UNL     1       3.300   2.027  -3.928  1.00  0.00     0.021 A 
ATOM     29  C   UNL     1       4.481   2.048  -4.662  1.00  0.00     0.041 A 
ATOM     30  Cl  UNL     1       4.442   2.368  -6.351  1.00  0.00    -0.084 Cl
ENDBRANCH  12  24
BRANCH  14  31
ATOM     31  C   UNL     1       6.704   2.461   0.514  1.00  0.00     0.098 C 
ATOM     32  N   UNL     1       7.327   3.528   0.767  1.00  0.00    -0.193 NA
ENDBRANCH  14  31
ENDBRANCH   8   9
ENDBRANCH   5   8
ENDBRANCH   3   4
ENDBRANCH   2   3
ENDBRANCH   1   2
BRANCH   1  33
ATOM     33  C   UNL     1       7.861  -7.718  -0.612  1.00  0.00     0.116 C 
BRANCH  33  34
ATOM     34  N   UNL     1       8.739  -8.393   0.335  1.00  0.00    -0.352 N 
ATOM     35  C   UNL     1       8.743  -9.708   0.718  1.00  0.00     0.251 C 
ATOM     36  H   UNL     1       9.423  -7.825   0.757  1.00  0.00     0.163 HD
ATOM     37  O   UNL     1       9.352 -10.052   1.721  1.00  0.00    -0.269 OA
BRANCH  35  38
ATOM     38  C   UNL     1       7.997 -10.681  -0.098  1.00  0.00     0.039 A 
ATOM     39  C   UNL     1       7.206 -11.636   0.539  1.00  0.00     0.014 A 
ATOM     40  C   UNL     1       8.074 -10.625  -1.493  1.00  0.00     0.014 A 
ATOM     41  C   UNL     1       6.447 -12.512  -0.233  1.00  0.00     0.010 A 
ATOM     42  C   UNL     1       7.254 -11.440  -2.256  1.00  0.00     0.010 A 
ATOM     43  C   UNL     1       6.441 -12.398  -1.633  1.00  0.00    -0.014 A 
BRANCH  43  44
ATOM     44  C   UNL     1       5.598 -13.279  -2.471  1.00  0.00     0.031 A 
ATOM     45  C   UNL     1       6.245 -14.222  -3.444  1.00  0.00     0.074 A 
ATOM     46  C   UNL     1       4.258 -13.168  -2.404  1.00  0.00     0.049 A 
ATOM     47  N   UNL     1       5.690 -15.005  -4.331  1.00  0.00    -0.248 NA
ATOM     48  C   UNL     1       7.715 -14.261  -3.440  1.00  0.00     0.031 C 
ATOM     49  C   UNL     1       3.531 -12.248  -1.527  1.00  0.00     0.029 A 
ATOM     50  N   UNL     1       3.271 -13.822  -3.093  1.00  0.00    -0.354 N 
ATOM     51  C   UNL     1       6.742 -15.625  -4.996  1.00  0.00     0.074 A 
ATOM     52  C   UNL     1       7.964 -15.064  -4.462  1.00  0.00     0.031 C 
ATOM     53  C   UNL     1       2.213 -12.411  -1.718  1.00  0.00     0.029 A 
ATOM     54  C   UNL     1       2.003 -13.405  -2.765  1.00  0.00     0.049 A 
ATOM     55  H   UNL     1       3.452 -14.523  -3.760  1.00  0.00     0.167 HD
ATOM     56  C   UNL     1       6.689 -16.593  -5.944  1.00  0.00     0.034 A 
ATOM     57  C   UNL     1       0.808 -13.766  -3.269  1.00  0.00     0.034 A 
ATOM     58  C   UNL     1       5.454 -17.129  -6.461  1.00  0.00     0.049 A 
ATOM     59  C   UNL     1       0.770 -14.809  -4.356  1.00  0.00     0.074 A 
ATOM     60  C   UNL     1       5.272 -18.145  -7.382  1.00  0.00     0.029 A 
ATOM     61  N   UNL     1       4.184 -16.678  -6.114  1.00  0.00    -0.354 N 
ATOM     62  N   UNL     1       1.771 -15.435  -4.934  1.00  0.00    -0.248 NA
ATOM     63  C   UNL     1      -0.554 -15.197  -4.853  1.00  0.00     0.031 C 
ATOM     64  C   UNL     1       3.902 -18.254  -7.649  1.00  0.00     0.029 A 
ATOM     65  C   UNL     1       3.219 -17.365  -6.834  1.00  0.00     0.049 A 
ATOM     66  H   UNL     1       3.999 -15.973  -5.452  1.00  0.00     0.167 HD
ATOM     67  C   UNL     1       1.193 -16.304  -5.855  1.00  0.00     0.074 A 
ATOM     68  C   UNL     1      -0.242 -16.137  -5.734  1.00  0.00     0.031 C 
ATOM     69  C   UNL     1       1.792 -17.163  -6.721  1.00  0.00     0.034 A 
BRANCH  56  70
ATOM     70  C   UNL     1       8.006 -17.098  -6.488  1.00  0.00     0.023 A 
ATOM     71  C   UNL     1       8.969 -17.692  -5.652  1.00  0.00     0.031 A 
ATOM     72  C   UNL     1       8.332 -16.931  -7.845  1.00  0.00     0.131 A 
ATOM     73  C   UNL     1      10.241 -18.003  -6.156  1.00  0.00     0.055 A 
ATOM     74  C   UNL     1       9.566 -17.333  -8.362  1.00  0.00     0.041 A 
ATOM     75  F   UNL     1       7.466 -16.350  -8.691  1.00  0.00    -0.206 F 
ATOM     76  C   UNL     1      10.537 -17.853  -7.511  1.00  0.00     0.022 A 
BRANCH  73  77
ATOM     77  S   UNL     1      11.554 -18.428  -4.978  1.00  0.00     0.124 S 
ATOM     78  O   UNL     1      11.562 -17.253  -4.109  1.00  0.00    -0.237 OA
ATOM     79  O   UNL     1      11.055 -19.661  -4.381  1.00  0.00    -0.237 OA
ATOM     80  O   UNL     1      12.737 -18.576  -5.823  1.00  0.00    -0.744 OA
ENDBRANCH  73  77
ENDBRANCH  56  70
BRANCH  57  81
ATOM     81  C   UNL     1      -0.439 -13.121  -2.772  1.00  0.00     0.023 A 
ATOM     82  C   UNL     1      -1.412 -13.857  -2.079  1.00  0.00     0.031 A 
ATOM     83  C   UNL     1      -0.679 -11.752  -2.991  1.00  0.00     0.131 A 
ATOM     84  C   UNL     1      -2.596 -13.230  -1.660  1.00  0.00     0.055 A 
ATOM     85  C   UNL     1      -1.834 -11.121  -2.527  1.00  0.00     0.041 A 
ATOM     86  F   UNL     1       0.223 -11.001  -3.643  1.00  0.00    -0.206 F 
ATOM     87  C   UNL     1      -2.806 -11.864  -1.866  1.00  0.00     0.022 A 
BRANCH  84  88
ATOM     88  S   UNL     1      -3.892 -14.242  -0.896  1.00  0.00     0.124 S 
ATOM     89  O   UNL     1      -4.176 -15.207  -1.952  1.00  0.00    -0.237 OA
ATOM     90  O   UNL     1      -3.213 -14.764   0.285  1.00  0.00    -0.237 OA
ATOM     91  O   UNL     1      -4.959 -13.281  -0.625  1.00  0.00    -0.744 OA
ENDBRANCH  84  88
ENDBRANCH  57  81
BRANCH  69  92
ATOM     92  C   UNL     1       0.883 -17.996  -7.591  1.00  0.00     0.023 A 
ATOM     93  C   UNL     1       0.074 -17.412  -8.582  1.00  0.00     0.031 A 
ATOM     94  C   UNL     1       0.821 -19.391  -7.424  1.00  0.00     0.131 A 
ATOM     95  C   UNL     1      -0.801 -18.213  -9.330  1.00  0.00     0.055 A 
ATOM     96  C   UNL     1      -0.003 -20.190  -8.217  1.00  0.00     0.041 A 
ATOM     97  F   UNL     1       1.568 -20.001  -6.490  1.00  0.00    -0.206 F 
ATOM     98  C   UNL     1      -0.830 -19.600  -9.168  1.00  0.00     0.022 A 
BRANCH  95  99
ATOM     99  S   UNL     1      -1.973 -17.405 -10.454  1.00  0.00     0.124 S 
ATOM    100  O   UNL     1      -2.725 -16.549  -9.543  1.00  0.00    -0.237 OA
ATOM    101  O   UNL     1      -1.087 -16.719 -11.389  1.00  0.00    -0.237 OA
ATOM    102  O   UNL     1      -2.728 -18.521 -11.022  1.00  0.00    -0.744 OA
ENDBRANCH  95  99
ENDBRANCH  69  92
ENDBRANCH  43  44
ENDBRANCH  35  38
ENDBRANCH  33  34
ENDBRANCH   1  33
TORSDOF 19
