REMARK SMILES CCCC[C@H](C(=O)NCCCCNC(=O)c1ccc(-c2c3nc(c(-c4cc(S(=O)(=O)[O-])ccc4F)c4ccc([nH]4)c(-c4cc(S(=O)(=O)[O-])ccc4F)c4nc(c(-c5cc(S(=O)(=O)[O-])ccc5F)c5ccc2[nH]5)C=C4)C=C3)cc1)[C@](C)(O)c1ccc(Cl)c(Cl)c1
REMARK SMILES IDX 10 1 9 2 8 3 6 4 7 5 5 7 4 8 3 9 2 10 1 11 79 12 80 13 81 14
REMARK SMILES IDX 82 16 83 17 89 18 84 19 87 20 85 21 88 22 86 23 11 24 12 25
REMARK SMILES IDX 13 26 14 27 15 29 16 30 17 31 78 32 18 33 77 34 19 35 20 36
REMARK SMILES IDX 21 37 71 38 22 39 76 40 70 41 72 42 23 43 75 44 69 45 68 46
REMARK SMILES IDX 24 48 56 49 36 50 55 51 37 52 40 53 54 54 73 55 38 56 39 57
REMARK SMILES IDX 53 59 74 60 41 61 25 62 26 63 34 64 27 65 33 66 35 67 32 68
REMARK SMILES IDX 28 69 29 70 30 71 31 72 57 73 58 74 66 75 59 76 65 77 67 78
REMARK SMILES IDX 64 79 60 80 61 81 62 82 63 83 42 84 43 85 51 86 44 87 50 88
REMARK SMILES IDX 52 89 49 90 45 91 46 92 47 93 48 94
REMARK H PARENT 8 6 81 15 13 28 72 47 40 58
REMARK Flexibility Score: inf
ROOT
ATOM      1  C   UNL     1      -4.474   1.755   2.110  1.00  0.00     0.023 C 
ENDROOT
BRANCH   1   2
ATOM      2  C   UNL     1      -3.478   0.599   2.190  1.00  0.00     0.116 C 
BRANCH   2   3
ATOM      3  N   UNL     1      -2.104   0.978   1.912  1.00  0.00    -0.356 N 
ATOM      4  C   UNL     1      -0.936   0.572   2.476  1.00  0.00     0.226 C 
ATOM      5  O   UNL     1       0.108   0.976   1.951  1.00  0.00    -0.275 OA
ATOM      6  H   UNL     1      -2.002   1.642   1.193  1.00  0.00     0.163 HD
BRANCH   4   7
ATOM      7  C   UNL     1      -0.852  -0.360   3.693  1.00  0.00     0.114 C 
BRANCH   7   8
ATOM      8  C   UNL     1      -1.514   0.279   4.943  1.00  0.00     0.017 C 
BRANCH   8   9
ATOM      9  C   UNL     1      -1.166   1.761   5.200  1.00  0.00     0.001 C 
BRANCH   9  10
ATOM     10  C   UNL     1      -2.250   2.783   4.848  1.00  0.00    -0.003 C 
ATOM     11  C   UNL     1      -3.604   2.510   5.492  1.00  0.00     0.004 C 
ENDBRANCH   9  10
ENDBRANCH   8   9
ENDBRANCH   7   8
BRANCH   7  12
ATOM     12  C   UNL     1      -1.260  -1.847   3.340  1.00  0.00     0.098 C 
ATOM     13  C   UNL     1      -0.726  -2.220   1.932  1.00  0.00     0.048 C 
BRANCH  12  14
ATOM     14  O   UNL     1      -2.693  -1.939   3.333  1.00  0.00    -0.385 OA
ATOM     15  H   UNL     1      -2.957  -2.847   3.117  1.00  0.00     0.211 HD
ENDBRANCH  12  14
BRANCH  12  16
ATOM     16  C   UNL     1      -0.861  -2.957   4.339  1.00  0.00    -0.014 A 
ATOM     17  C   UNL     1      -1.245  -4.293   4.076  1.00  0.00     0.008 A 
ATOM     18  C   UNL     1      -0.202  -2.727   5.557  1.00  0.00     0.028 A 
ATOM     19  C   UNL     1      -1.017  -5.329   4.988  1.00  0.00     0.022 A 
ATOM     20  C   UNL     1      -0.021  -3.751   6.503  1.00  0.00     0.060 A 
ATOM     21  C   UNL     1      -0.427  -5.055   6.217  1.00  0.00     0.059 A 
ATOM     22  Cl  UNL     1       0.681  -3.321   8.025  1.00  0.00    -0.083 Cl
ATOM     23  Cl  UNL     1      -0.240  -6.361   7.332  1.00  0.00    -0.083 Cl
ENDBRANCH  12  16
ENDBRANCH   7  12
ENDBRANCH   4   7
ENDBRANCH   2   3
ENDBRANCH   1   2
BRANCH   1  24
ATOM     24  C   UNL     1      -4.539   2.469   0.769  1.00  0.00     0.023 C 
BRANCH  24  25
ATOM     25  C   UNL     1      -4.954   1.563  -0.377  1.00  0.00     0.116 C 
BRANCH  25  26
ATOM     26  N   UNL     1      -6.312   1.060  -0.207  1.00  0.00    -0.352 N 
ATOM     27  C   UNL     1      -7.484   1.466  -0.809  1.00  0.00     0.251 C 
ATOM     28  H   UNL     1      -6.406   0.318   0.434  1.00  0.00     0.163 HD
ATOM     29  O   UNL     1      -8.559   1.102  -0.359  1.00  0.00    -0.269 OA
BRANCH  27  30
ATOM     30  C   UNL     1      -7.418   2.363  -1.984  1.00  0.00     0.039 A 
ATOM     31  C   UNL     1      -8.298   3.443  -2.084  1.00  0.00     0.014 A 
ATOM     32  C   UNL     1      -6.463   2.143  -2.975  1.00  0.00     0.014 A 
ATOM     33  C   UNL     1      -8.157   4.350  -3.139  1.00  0.00     0.010 A 
ATOM     34  C   UNL     1      -6.244   3.109  -3.945  1.00  0.00     0.010 A 
ATOM     35  C   UNL     1      -7.099   4.217  -4.052  1.00  0.00    -0.014 A 
BRANCH  35  36
ATOM     36  C   UNL     1      -6.876   5.171  -5.170  1.00  0.00     0.031 A 
ATOM     37  C   UNL     1      -6.858   4.646  -6.584  1.00  0.00     0.074 A 
ATOM     38  C   UNL     1      -6.589   6.464  -4.921  1.00  0.00     0.049 A 
ATOM     39  N   UNL     1      -6.469   5.232  -7.686  1.00  0.00    -0.248 NA
ATOM     40  C   UNL     1      -7.280   3.247  -6.766  1.00  0.00     0.031 C 
ATOM     41  C   UNL     1      -6.539   7.085  -3.595  1.00  0.00     0.029 A 
ATOM     42  N   UNL     1      -6.267   7.489  -5.776  1.00  0.00    -0.354 N 
ATOM     43  C   UNL     1      -6.559   4.263  -8.680  1.00  0.00     0.074 A 
ATOM     44  C   UNL     1      -6.964   3.034  -8.033  1.00  0.00     0.031 C 
ATOM     45  C   UNL     1      -6.236   8.387  -3.729  1.00  0.00     0.029 A 
ATOM     46  C   UNL     1      -6.013   8.683  -5.140  1.00  0.00     0.049 A 
ATOM     47  H   UNL     1      -6.221   7.380  -6.753  1.00  0.00     0.167 HD
ATOM     48  C   UNL     1      -6.354   4.392 -10.014  1.00  0.00     0.034 A 
ATOM     49  C   UNL     1      -5.630   9.875  -5.641  1.00  0.00     0.034 A 
ATOM     50  C   UNL     1      -6.004   5.638 -10.645  1.00  0.00     0.049 A 
ATOM     51  C   UNL     1      -5.422  10.000  -7.131  1.00  0.00     0.074 A 
ATOM     52  C   UNL     1      -5.816   5.904 -11.990  1.00  0.00     0.029 A 
ATOM     53  N   UNL     1      -5.806   6.837  -9.971  1.00  0.00    -0.354 N 
ATOM     54  N   UNL     1      -5.525   9.078  -8.061  1.00  0.00    -0.248 NA
ATOM     55  C   UNL     1      -5.057  11.328  -7.641  1.00  0.00     0.031 C 
ATOM     56  C   UNL     1      -5.460   7.250 -12.124  1.00  0.00     0.029 A 
ATOM     57  C   UNL     1      -5.492   7.841 -10.871  1.00  0.00     0.049 A 
ATOM     58  H   UNL     1      -5.877   6.955  -8.996  1.00  0.00     0.167 HD
ATOM     59  C   UNL     1      -5.280   9.727  -9.268  1.00  0.00     0.074 A 
ATOM     60  C   UNL     1      -5.032  11.117  -8.948  1.00  0.00     0.031 C 
ATOM     61  C   UNL     1      -5.266   9.224 -10.528  1.00  0.00     0.034 A 
BRANCH  48  62
ATOM     62  C   UNL     1      -6.503   3.151 -10.862  1.00  0.00     0.023 A 
ATOM     63  C   UNL     1      -7.725   2.461 -10.948  1.00  0.00     0.031 A 
ATOM     64  C   UNL     1      -5.402   2.626 -11.561  1.00  0.00     0.131 A 
ATOM     65  C   UNL     1      -7.794   1.240 -11.634  1.00  0.00     0.055 A 
ATOM     66  C   UNL     1      -5.502   1.457 -12.320  1.00  0.00     0.041 A 
ATOM     67  F   UNL     1      -4.204   3.227 -11.503  1.00  0.00    -0.206 F 
ATOM     68  C   UNL     1      -6.699   0.747 -12.345  1.00  0.00     0.022 A 
BRANCH  65  69
ATOM     69  S   UNL     1      -9.291   0.233 -11.453  1.00  0.00     0.124 S 
ATOM     70  O   UNL     1      -9.296  -0.027 -10.015  1.00  0.00    -0.237 OA
ATOM     71  O   UNL     1     -10.335   1.125 -11.943  1.00  0.00    -0.237 OA
ATOM     72  O   UNL     1      -9.022  -0.935 -12.289  1.00  0.00    -0.744 OA
ENDBRANCH  65  69
ENDBRANCH  48  62
BRANCH  49  73
ATOM     73  C   UNL     1      -5.420  11.049  -4.746  1.00  0.00     0.023 A 
ATOM     74  C   UNL     1      -6.228  12.192  -4.862  1.00  0.00     0.031 A 
ATOM     75  C   UNL     1      -4.377  11.075  -3.804  1.00  0.00     0.131 A 
ATOM     76  C   UNL     1      -5.944  13.334  -4.097  1.00  0.00     0.055 A 
ATOM     77  C   UNL     1      -4.133  12.193  -3.003  1.00  0.00     0.041 A 
ATOM     78  F   UNL     1      -3.578  10.008  -3.645  1.00  0.00    -0.206 F 
ATOM     79  C   UNL     1      -4.909  13.338  -3.159  1.00  0.00     0.022 A 
BRANCH  76  80
ATOM     80  S   UNL     1      -6.883  14.851  -4.424  1.00  0.00     0.124 S 
ATOM     81  O   UNL     1      -6.641  15.048  -5.848  1.00  0.00    -0.237 OA
ATOM     82  O   UNL     1      -8.236  14.454  -4.050  1.00  0.00    -0.237 OA
ATOM     83  O   UNL     1      -6.257  15.834  -3.542  1.00  0.00    -0.744 OA
ENDBRANCH  76  80
ENDBRANCH  49  73
BRANCH  61  84
ATOM     84  C   UNL     1      -5.051  10.202 -11.655  1.00  0.00     0.023 A 
ATOM     85  C   UNL     1      -3.817  10.841 -11.857  1.00  0.00     0.031 A 
ATOM     86  C   UNL     1      -6.104  10.489 -12.541  1.00  0.00     0.131 A 
ATOM     87  C   UNL     1      -3.680  11.776 -12.895  1.00  0.00     0.055 A 
ATOM     88  C   UNL     1      -5.945  11.378 -13.605  1.00  0.00     0.041 A 
ATOM     89  F   UNL     1      -7.302   9.903 -12.391  1.00  0.00    -0.206 F 
ATOM     90  C   UNL     1      -4.731  12.036 -13.779  1.00  0.00     0.022 A 
BRANCH  87  91
ATOM     91  S   UNL     1      -2.129  12.705 -13.030  1.00  0.00     0.124 S 
ATOM     92  O   UNL     1      -2.065  13.380 -11.738  1.00  0.00    -0.237 OA
ATOM     93  O   UNL     1      -1.148  11.646 -13.244  1.00  0.00    -0.237 OA
ATOM     94  O   UNL     1      -2.353  13.582 -14.178  1.00  0.00    -0.744 OA
ENDBRANCH  87  91
ENDBRANCH  61  84
ENDBRANCH  35  36
ENDBRANCH  27  30
ENDBRANCH  25  26
ENDBRANCH  24  25
ENDBRANCH   1  24
TORSDOF 20
