REMARK SMILES CC[N@@H+]1CCO[C@@H](c2ncc(C(=O)NCCCCNC(=O)c3ccc(-c4c5nc(c(-c6cc(S(=O)(=O)[O-])ccc6F)c6ccc([nH]6)c(-c6cc(S(=O)(=O)[O-])ccc6F)c6nc(c(-c7cc(S(=O)(=O)[O-])ccc7F)c7ccc4[nH]7)C=C6)C=C5)cc3)s2)C1
REMARK SMILES IDX 17 1 16 2 15 3 14 4 12 5 13 6 11 8 8 9 9 10 85 11 10 12 7 13
REMARK SMILES IDX 3 14 4 15 86 16 5 18 6 19 2 20 1 21 18 22 19 23 20 24 21 26
REMARK SMILES IDX 22 27 23 28 84 29 24 30 83 31 25 32 26 33 27 34 77 35 28 36
REMARK SMILES IDX 82 37 76 38 78 39 29 40 81 41 75 42 74 43 30 45 62 46 42 47
REMARK SMILES IDX 61 48 43 49 46 50 60 51 79 52 44 53 45 54 59 56 80 57 47 58
REMARK SMILES IDX 31 59 32 60 40 61 33 62 39 63 41 64 38 65 34 66 35 67 36 68
REMARK SMILES IDX 37 69 63 70 64 71 72 72 65 73 71 74 73 75 70 76 66 77 67 78
REMARK SMILES IDX 68 79 69 80 48 81 49 82 57 83 50 84 56 85 58 86 55 87 51 88
REMARK SMILES IDX 52 89 53 90 54 91
REMARK H PARENT 14 7 3 17 19 25 78 44 46 55
REMARK Flexibility Score: inf
ROOT
ATOM      1  C   UNL     1       6.859  -5.563   4.984  1.00  0.00     0.023 C 
ENDROOT
BRANCH   1   2
ATOM      2  C   UNL     1       6.132  -4.611   4.029  1.00  0.00     0.023 C 
BRANCH   2   3
ATOM      3  C   UNL     1       6.334  -4.913   2.544  1.00  0.00     0.116 C 
BRANCH   3   4
ATOM      4  N   UNL     1       5.564  -6.068   2.117  1.00  0.00    -0.351 N 
ATOM      5  C   UNL     1       4.392  -6.152   1.402  1.00  0.00     0.263 C 
ATOM      6  O   UNL     1       4.059  -7.286   1.042  1.00  0.00    -0.268 OA
ATOM      7  H   UNL     1       5.945  -6.936   2.384  1.00  0.00     0.163 HD
BRANCH   5   8
ATOM      8  C   UNL     1       3.616  -4.967   1.101  1.00  0.00     0.112 A 
ATOM      9  C   UNL     1       2.081  -3.351   0.111  1.00  0.00     0.128 A 
ATOM     10  N   UNL     1       2.619  -2.852   1.207  1.00  0.00    -0.246 NA
ATOM     11  S   UNL     1       2.600  -4.935  -0.294  1.00  0.00    -0.111 S 
ATOM     12  C   UNL     1       3.465  -3.774   1.777  1.00  0.00     0.137 A 
BRANCH   9  13
ATOM     13  C   UNL     1       1.114  -2.546  -0.712  1.00  0.00     0.232 C 
ATOM     14  N   UNL     1       0.961  -0.614  -2.314  1.00  0.00    -0.331 N 
ATOM     15  C   UNL     1      -0.042  -1.427  -3.042  1.00  0.00     0.291 C 
ATOM     16  C   UNL     1       1.866  -1.535  -1.596  1.00  0.00     0.302 C 
ATOM     17  H   UNL     1       1.543  -0.078  -2.958  1.00  0.00     0.348 HD
ATOM     18  C   UNL     1      -0.703  -2.538  -2.191  1.00  0.00     0.222 C 
ATOM     19  O   UNL     1       0.266  -3.373  -1.531  1.00  0.00    -0.359 OA
BRANCH  14  20
ATOM     20  C   UNL     1       0.338   0.453  -1.512  1.00  0.00     0.258 C 
ATOM     21  C   UNL     1       0.917   0.777  -0.134  1.00  0.00     0.071 C 
ENDBRANCH  14  20
ENDBRANCH   9  13
ENDBRANCH   5   8
ENDBRANCH   3   4
ENDBRANCH   2   3
ENDBRANCH   1   2
BRANCH   1  22
ATOM     22  C   UNL     1       8.376  -5.618   4.831  1.00  0.00     0.116 C 
BRANCH  22  23
ATOM     23  N   UNL     1       9.016  -4.317   4.949  1.00  0.00    -0.352 N 
ATOM     24  C   UNL     1      10.253  -4.011   5.465  1.00  0.00     0.251 C 
ATOM     25  H   UNL     1       8.493  -3.554   4.614  1.00  0.00     0.163 HD
ATOM     26  O   UNL     1      10.587  -2.835   5.582  1.00  0.00    -0.269 OA
BRANCH  24  27
ATOM     27  C   UNL     1      11.150  -5.095   5.920  1.00  0.00     0.039 A 
ATOM     28  C   UNL     1      11.757  -4.980   7.173  1.00  0.00     0.014 A 
ATOM     29  C   UNL     1      11.373  -6.228   5.132  1.00  0.00     0.014 A 
ATOM     30  C   UNL     1      12.525  -6.036   7.668  1.00  0.00     0.010 A 
ATOM     31  C   UNL     1      12.086  -7.306   5.654  1.00  0.00     0.010 A 
ATOM     32  C   UNL     1      12.661  -7.224   6.931  1.00  0.00    -0.014 A 
BRANCH  32  33
ATOM     33  C   UNL     1      13.376  -8.395   7.501  1.00  0.00     0.031 A 
ATOM     34  C   UNL     1      14.649  -8.893   6.874  1.00  0.00     0.074 A 
ATOM     35  C   UNL     1      12.841  -9.043   8.555  1.00  0.00     0.049 A 
ATOM     36  N   UNL     1      15.393  -9.915   7.213  1.00  0.00    -0.248 NA
ATOM     37  C   UNL     1      15.131  -8.162   5.694  1.00  0.00     0.031 C 
ATOM     38  C   UNL     1      11.580  -8.688   9.213  1.00  0.00     0.029 A 
ATOM     39  N   UNL     1      13.282 -10.136   9.258  1.00  0.00    -0.354 N 
ATOM     40  C   UNL     1      16.429  -9.954   6.286  1.00  0.00     0.074 A 
ATOM     41  C   UNL     1      16.178  -8.891   5.335  1.00  0.00     0.031 C 
ATOM     42  C   UNL     1      11.366  -9.528  10.237  1.00  0.00     0.029 A 
ATOM     43  C   UNL     1      12.449 -10.504  10.289  1.00  0.00     0.049 A 
ATOM     44  H   UNL     1      14.116 -10.612   9.043  1.00  0.00     0.167 HD
ATOM     45  C   UNL     1      17.501 -10.785   6.246  1.00  0.00     0.034 A 
ATOM     46  C   UNL     1      12.545 -11.515  11.174  1.00  0.00     0.034 A 
ATOM     47  C   UNL     1      17.738 -11.837   7.206  1.00  0.00     0.049 A 
ATOM     48  C   UNL     1      13.741 -12.428  11.105  1.00  0.00     0.074 A 
ATOM     49  C   UNL     1      18.819 -12.697   7.295  1.00  0.00     0.029 A 
ATOM     50  N   UNL     1      16.875 -12.181   8.240  1.00  0.00    -0.354 N 
ATOM     51  N   UNL     1      14.747 -12.411  10.261  1.00  0.00    -0.248 NA
ATOM     52  C   UNL     1      13.822 -13.486  12.120  1.00  0.00     0.031 C 
ATOM     53  C   UNL     1      18.579 -13.599   8.339  1.00  0.00     0.029 A 
ATOM     54  C   UNL     1      17.384 -13.258   8.951  1.00  0.00     0.049 A 
ATOM     55  H   UNL     1      16.026 -11.725   8.440  1.00  0.00     0.167 HD
ATOM     56  C   UNL     1      15.591 -13.444  10.658  1.00  0.00     0.074 A 
ATOM     57  C   UNL     1      14.988 -14.043  11.832  1.00  0.00     0.031 C 
ATOM     58  C   UNL     1      16.759 -13.862  10.104  1.00  0.00     0.034 A 
BRANCH  45  59
ATOM     59  C   UNL     1      18.481 -10.598   5.111  1.00  0.00     0.023 A 
ATOM     60  C   UNL     1      19.213  -9.406   4.957  1.00  0.00     0.031 A 
ATOM     61  C   UNL     1      18.667 -11.610   4.153  1.00  0.00     0.131 A 
ATOM     62  C   UNL     1      20.034  -9.227   3.834  1.00  0.00     0.055 A 
ATOM     63  C   UNL     1      19.549 -11.457   3.081  1.00  0.00     0.041 A 
ATOM     64  F   UNL     1      17.983 -12.762   4.234  1.00  0.00    -0.206 F 
ATOM     65  C   UNL     1      20.227 -10.254   2.908  1.00  0.00     0.022 A 
BRANCH  62  66
ATOM     66  S   UNL     1      20.733  -7.582   3.526  1.00  0.00     0.124 S 
ATOM     67  O   UNL     1      19.526  -6.764   3.424  1.00  0.00    -0.237 OA
ATOM     68  O   UNL     1      21.556  -7.362   4.709  1.00  0.00    -0.237 OA
ATOM     69  O   UNL     1      21.469  -7.750   2.275  1.00  0.00    -0.744 OA
ENDBRANCH  62  66
ENDBRANCH  45  59
BRANCH  46  70
ATOM     70  C   UNL     1      11.483 -11.726  12.199  1.00  0.00     0.023 A 
ATOM     71  C   UNL     1      11.759 -11.574  13.567  1.00  0.00     0.031 A 
ATOM     72  C   UNL     1      10.187 -12.123  11.827  1.00  0.00     0.131 A 
ATOM     73  C   UNL     1      10.768 -11.864  14.517  1.00  0.00     0.055 A 
ATOM     74  C   UNL     1       9.189 -12.361  12.774  1.00  0.00     0.041 A 
ATOM     75  F   UNL     1       9.868 -12.275  10.532  1.00  0.00    -0.206 F 
ATOM     76  C   UNL     1       9.481 -12.245  14.129  1.00  0.00     0.022 A 
BRANCH  73  77
ATOM     77  S   UNL     1      11.209 -11.813  16.276  1.00  0.00     0.124 S 
ATOM     78  O   UNL     1      12.302 -12.777  16.337  1.00  0.00    -0.237 OA
ATOM     79  O   UNL     1      11.578 -10.413  16.454  1.00  0.00    -0.237 OA
ATOM     80  O   UNL     1       9.977 -12.221  16.947  1.00  0.00    -0.744 OA
ENDBRANCH  73  77
ENDBRANCH  46  70
BRANCH  58  81
ATOM     81  C   UNL     1      17.461 -15.009  10.790  1.00  0.00     0.023 A 
ATOM     82  C   UNL     1      16.895 -16.296  10.838  1.00  0.00     0.031 A 
ATOM     83  C   UNL     1      18.691 -14.804  11.438  1.00  0.00     0.131 A 
ATOM     84  C   UNL     1      17.523 -17.308  11.579  1.00  0.00     0.055 A 
ATOM     85  C   UNL     1      19.344 -15.832  12.119  1.00  0.00     0.041 A 
ATOM     86  F   UNL     1      19.277 -13.595  11.428  1.00  0.00    -0.206 F 
ATOM     87  C   UNL     1      18.751 -17.089  12.207  1.00  0.00     0.022 A 
BRANCH  84  88
ATOM     88  S   UNL     1      16.653 -18.884  11.809  1.00  0.00     0.124 S 
ATOM     89  O   UNL     1      15.399 -18.452  12.419  1.00  0.00    -0.237 OA
ATOM     90  O   UNL     1      16.557 -19.388  10.443  1.00  0.00    -0.237 OA
ATOM     91  O   UNL     1      17.542 -19.641  12.688  1.00  0.00    -0.744 OA
ENDBRANCH  84  88
ENDBRANCH  58  81
ENDBRANCH  32  33
ENDBRANCH  24  27
ENDBRANCH  22  23
ENDBRANCH   1  22
TORSDOF 16
