REMARK SMILES CN(C(=O)C[C@H]1SC(=O)N(c2cccc(O)c2)C1=O)c1ccccc1C(=O)NCCCCNC(=O)c1ccc(-c2c3nc(c(-c4cc(S(=O)(=O)[O-])ccc4F)c4ccc([nH]4)c(-c4cc(S(=O)(=O)[O-])ccc4F)c4nc(c(-c5cc(S(=O)(=O)[O-])ccc5F)c5ccc2[nH]5)C=C4)C=C3)cc1
REMARK SMILES IDX 29 1 28 2 26 3 27 4 25 6 20 7 21 8 22 9 24 10 23 11 2 12
REMARK SMILES IDX 1 13 3 14 4 15 5 16 6 17 7 18 18 19 8 20 10 21 19 22 9 23
REMARK SMILES IDX 11 24 12 25 17 26 13 27 15 28 14 29 16 30 30 32 31 33 32 34
REMARK SMILES IDX 33 35 34 36 35 38 36 39 37 40 98 41 38 42 97 43 39 44 40 45
REMARK SMILES IDX 41 46 91 47 42 48 96 49 90 50 92 51 43 52 95 53 89 54 88 55
REMARK SMILES IDX 44 57 76 58 56 59 75 60 57 61 60 62 74 63 93 64 58 65 59 66
REMARK SMILES IDX 73 68 94 69 61 70 45 71 46 72 54 73 47 74 53 75 55 76 52 77
REMARK SMILES IDX 48 78 49 79 50 80 51 81 77 82 78 83 86 84 79 85 85 86 87 87
REMARK SMILES IDX 84 88 80 89 81 90 82 91 83 92 62 93 63 94 71 95 64 96 70 97
REMARK SMILES IDX 72 98 69 99 65 100 66 101 67 102 68 103
REMARK H PARENT 28 5 16 31 33 37 92 56 60 67
REMARK Flexibility Score: inf
ROOT
ATOM      1  C   UNL     1      -2.663  -0.234  -1.330  1.00  0.00     0.116 C 
ENDROOT
BRANCH   1   2
ATOM      2  N   UNL     1      -3.537   0.786  -0.837  1.00  0.00    -0.352 N 
ATOM      3  C   UNL     1      -4.407   1.668  -1.396  1.00  0.00     0.253 C 
ATOM      4  O   UNL     1      -5.183   2.153  -0.558  1.00  0.00    -0.269 OA
ATOM      5  H   UNL     1      -3.500   0.870   0.143  1.00  0.00     0.163 HD
BRANCH   3   6
ATOM      6  C   UNL     1      -4.566   2.087  -2.837  1.00  0.00     0.063 A 
ATOM      7  C   UNL     1      -3.722   2.019  -3.970  1.00  0.00     0.056 A 
ATOM      8  C   UNL     1      -4.145   2.623  -5.188  1.00  0.00     0.027 A 
ATOM      9  C   UNL     1      -5.348   3.311  -5.308  1.00  0.00     0.002 A 
ATOM     10  C   UNL     1      -5.798   2.783  -3.018  1.00  0.00     0.016 A 
ATOM     11  C   UNL     1      -6.180   3.394  -4.213  1.00  0.00     0.001 A 
BRANCH   7  12
ATOM     12  N   UNL     1      -2.411   1.438  -4.063  1.00  0.00    -0.315 N 
ATOM     13  C   UNL     1      -2.400   0.117  -4.711  1.00  0.00     0.153 C 
BRANCH  12  14
ATOM     14  C   UNL     1      -1.335   2.347  -4.152  1.00  0.00     0.228 C 
ATOM     15  O   UNL     1      -1.448   3.530  -3.820  1.00  0.00    -0.274 OA
BRANCH  14  16
ATOM     16  C   UNL     1       0.026   1.876  -4.661  1.00  0.00     0.125 C 
BRANCH  16  17
ATOM     17  C   UNL     1       0.990   1.714  -3.495  1.00  0.00     0.156 C 
ATOM     18  S   UNL     1       2.038   0.266  -3.776  1.00  0.00    -0.050 SA
ATOM     19  C   UNL     1       2.005   2.793  -3.148  1.00  0.00     0.248 C 
ATOM     20  C   UNL     1       3.190   0.834  -2.595  1.00  0.00     0.293 C 
ATOM     21  N   UNL     1       3.090   2.205  -2.496  1.00  0.00    -0.240 N 
ATOM     22  O   UNL     1       1.850   3.982  -3.396  1.00  0.00    -0.273 OA
ATOM     23  O   UNL     1       3.894   0.065  -1.969  1.00  0.00    -0.261 OA
BRANCH  21  24
ATOM     24  C   UNL     1       4.091   2.943  -1.818  1.00  0.00     0.056 A 
ATOM     25  C   UNL     1       5.441   2.603  -2.011  1.00  0.00     0.027 A 
ATOM     26  C   UNL     1       3.773   3.978  -0.932  1.00  0.00     0.073 A 
ATOM     27  C   UNL     1       6.457   3.302  -1.363  1.00  0.00     0.006 A 
ATOM     28  C   UNL     1       4.797   4.630  -0.243  1.00  0.00     0.117 A 
ATOM     29  C   UNL     1       6.135   4.316  -0.467  1.00  0.00     0.046 A 
BRANCH  28  30
ATOM     30  O   UNL     1       4.452   5.578   0.677  1.00  0.00    -0.508 OA
ATOM     31  H   UNL     1       5.119   6.032   1.154  1.00  0.00     0.293 HD
ENDBRANCH  28  30
ENDBRANCH  21  24
ENDBRANCH  16  17
ENDBRANCH  14  16
ENDBRANCH  12  14
ENDBRANCH   7  12
ENDBRANCH   3   6
ENDBRANCH   1   2
BRANCH   1  32
ATOM     32  C   UNL     1      -1.220   0.234  -1.312  1.00  0.00     0.023 C 
BRANCH  32  33
ATOM     33  C   UNL     1      -0.274  -0.607  -0.471  1.00  0.00     0.023 C 
BRANCH  33  34
ATOM     34  C   UNL     1      -0.163  -2.046  -0.953  1.00  0.00     0.116 C 
BRANCH  34  35
ATOM     35  N   UNL     1       0.450  -2.194  -2.271  1.00  0.00    -0.352 N 
ATOM     36  C   UNL     1       1.492  -3.016  -2.652  1.00  0.00     0.251 C 
ATOM     37  H   UNL     1       0.069  -1.631  -2.983  1.00  0.00     0.163 HD
ATOM     38  O   UNL     1       1.892  -3.041  -3.810  1.00  0.00    -0.269 OA
BRANCH  36  39
ATOM     39  C   UNL     1       2.123  -3.846  -1.618  1.00  0.00     0.039 A 
ATOM     40  C   UNL     1       3.475  -3.674  -1.320  1.00  0.00     0.014 A 
ATOM     41  C   UNL     1       1.306  -4.664  -0.840  1.00  0.00     0.014 A 
ATOM     42  C   UNL     1       3.991  -4.266  -0.168  1.00  0.00     0.010 A 
ATOM     43  C   UNL     1       1.788  -5.131   0.369  1.00  0.00     0.010 A 
ATOM     44  C   UNL     1       3.136  -4.944   0.717  1.00  0.00    -0.014 A 
BRANCH  44  45
ATOM     45  C   UNL     1       3.605  -5.476   2.021  1.00  0.00     0.031 A 
ATOM     46  C   UNL     1       3.426  -6.940   2.320  1.00  0.00     0.074 A 
ATOM     47  C   UNL     1       4.069  -4.634   2.966  1.00  0.00     0.049 A 
ATOM     48  N   UNL     1       3.599  -7.585   3.443  1.00  0.00    -0.248 NA
ATOM     49  C   UNL     1       2.931  -7.778   1.216  1.00  0.00     0.031 C 
ATOM     50  C   UNL     1       4.230  -3.186   2.807  1.00  0.00     0.029 A 
ATOM     51  N   UNL     1       4.469  -4.869   4.258  1.00  0.00    -0.354 N 
ATOM     52  C   UNL     1       3.202  -8.893   3.188  1.00  0.00     0.074 A 
ATOM     53  C   UNL     1       2.706  -8.927   1.831  1.00  0.00     0.031 C 
ATOM     54  C   UNL     1       4.712  -2.668   3.948  1.00  0.00     0.029 A 
ATOM     55  C   UNL     1       4.836  -3.731   4.939  1.00  0.00     0.049 A 
ATOM     56  H   UNL     1       4.490  -5.768   4.659  1.00  0.00     0.167 HD
ATOM     57  C   UNL     1       3.270  -9.971   4.006  1.00  0.00     0.034 A 
ATOM     58  C   UNL     1       5.203  -3.559   6.225  1.00  0.00     0.034 A 
ATOM     59  C   UNL     1       3.790  -9.909   5.349  1.00  0.00     0.049 A 
ATOM     60  C   UNL     1       5.261  -4.768   7.124  1.00  0.00     0.074 A 
ATOM     61  C   UNL     1       3.992 -10.946   6.242  1.00  0.00     0.029 A 
ATOM     62  N   UNL     1       4.175  -8.743   6.000  1.00  0.00    -0.354 N 
ATOM     63  N   UNL     1       4.957  -6.016   6.849  1.00  0.00    -0.248 NA
ATOM     64  C   UNL     1       5.715  -4.547   8.502  1.00  0.00     0.031 C 
ATOM     65  C   UNL     1       4.410 -10.398   7.458  1.00  0.00     0.029 A 
ATOM     66  C   UNL     1       4.564  -9.028   7.299  1.00  0.00     0.049 A 
ATOM     67  H   UNL     1       4.171  -7.844   5.597  1.00  0.00     0.167 HD
ATOM     68  C   UNL     1       5.202  -6.734   8.016  1.00  0.00     0.074 A 
ATOM     69  C   UNL     1       5.699  -5.780   8.989  1.00  0.00     0.031 C 
ATOM     70  C   UNL     1       5.035  -8.059   8.263  1.00  0.00     0.034 A 
BRANCH  57  71
ATOM     71  C   UNL     1       2.739 -11.283   3.475  1.00  0.00     0.023 A 
ATOM     72  C   UNL     1       3.266 -11.886   2.318  1.00  0.00     0.031 A 
ATOM     73  C   UNL     1       1.653 -11.916   4.105  1.00  0.00     0.131 A 
ATOM     74  C   UNL     1       2.647 -13.022   1.775  1.00  0.00     0.055 A 
ATOM     75  C   UNL     1       1.105 -13.103   3.615  1.00  0.00     0.041 A 
ATOM     76  F   UNL     1       1.088 -11.379   5.198  1.00  0.00    -0.206 F 
ATOM     77  C   UNL     1       1.589 -13.652   2.431  1.00  0.00     0.022 A 
BRANCH  74  78
ATOM     78  S   UNL     1       3.128 -13.553   0.108  1.00  0.00     0.124 S 
ATOM     79  O   UNL     1       2.874 -12.343  -0.672  1.00  0.00    -0.237 OA
ATOM     80  O   UNL     1       4.529 -13.917   0.284  1.00  0.00    -0.237 OA
ATOM     81  O   UNL     1       2.223 -14.665  -0.172  1.00  0.00    -0.744 OA
ENDBRANCH  74  78
ENDBRANCH  57  71
BRANCH  58  82
ATOM     82  C   UNL     1       5.510  -2.193   6.742  1.00  0.00     0.023 A 
ATOM     83  C   UNL     1       6.798  -1.850   7.182  1.00  0.00     0.031 A 
ATOM     84  C   UNL     1       4.506  -1.209   6.814  1.00  0.00     0.131 A 
ATOM     85  C   UNL     1       7.041  -0.569   7.704  1.00  0.00     0.055 A 
ATOM     86  C   UNL     1       4.766   0.080   7.282  1.00  0.00     0.041 A 
ATOM     87  F   UNL     1       3.256  -1.483   6.406  1.00  0.00    -0.206 F 
ATOM     88  C   UNL     1       6.038   0.403   7.740  1.00  0.00     0.022 A 
BRANCH  85  89
ATOM     89  S   UNL     1       8.675  -0.208   8.404  1.00  0.00     0.124 S 
ATOM     90  O   UNL     1       8.780  -1.218   9.451  1.00  0.00    -0.237 OA
ATOM     91  O   UNL     1       9.548  -0.388   7.249  1.00  0.00    -0.237 OA
ATOM     92  O   UNL     1       8.547   1.169   8.876  1.00  0.00    -0.744 OA
ENDBRANCH  85  89
ENDBRANCH  58  82
BRANCH  70  93
ATOM     93  C   UNL     1       5.420  -8.556   9.635  1.00  0.00     0.023 A 
ATOM     94  C   UNL     1       4.723  -8.158  10.788  1.00  0.00     0.031 A 
ATOM     95  C   UNL     1       6.497  -9.447   9.789  1.00  0.00     0.131 A 
ATOM     96  C   UNL     1       5.144  -8.606  12.049  1.00  0.00     0.055 A 
ATOM     97  C   UNL     1       6.867  -9.946  11.038  1.00  0.00     0.041 A 
ATOM     98  F   UNL     1       7.203  -9.858   8.723  1.00  0.00    -0.206 F 
ATOM     99  C   UNL     1       6.197  -9.515  12.179  1.00  0.00     0.022 A 
BRANCH  96 100
ATOM    100  S   UNL     1       4.360  -7.907  13.527  1.00  0.00     0.124 S 
ATOM    101  O   UNL     1       4.633  -6.483  13.368  1.00  0.00    -0.237 OA
ATOM    102  O   UNL     1       2.968  -8.312  13.365  1.00  0.00    -0.237 OA
ATOM    103  O   UNL     1       5.069  -8.555  14.629  1.00  0.00    -0.744 OA
ENDBRANCH  96 100
ENDBRANCH  70  93
ENDBRANCH  44  45
ENDBRANCH  36  39
ENDBRANCH  34  35
ENDBRANCH  33  34
ENDBRANCH  32  33
ENDBRANCH   1  32
TORSDOF 20
