REMARK SMILES O=C(C[C@H]1CCCCO1)N[C@@H](C(=O)NCCCCNC(=O)c1ccc(-c2c3nc(c(-c4cc(S(=O)(=O)[O-])ccc4F)c4ccc([nH]4)c(-c4cc(S(=O)(=O)[O-])ccc4F)c4nc(c(-c5cc(S(=O)(=O)[O-])ccc5F)c5ccc2[nH]5)C=C4)C=C3)cc1)C1CCCCC1
REMARK SMILES IDX 16 1 15 2 14 3 12 4 13 5 11 7 10 8 1 9 2 10 3 12 4 13 5 14
REMARK SMILES IDX 9 15 6 16 8 17 7 18 85 19 86 20 90 21 87 22 89 23 88 24
REMARK SMILES IDX 17 25 18 26 19 27 20 28 21 30 22 31 23 32 84 33 24 34 83 35
REMARK SMILES IDX 25 36 26 37 27 38 77 39 28 40 82 41 76 42 78 43 29 44 81 45
REMARK SMILES IDX 75 46 74 47 30 49 62 50 42 51 61 52 43 53 46 54 60 55 79 56
REMARK SMILES IDX 44 57 45 58 59 60 80 61 47 62 31 63 32 64 40 65 33 66 39 67
REMARK SMILES IDX 41 68 38 69 34 70 35 71 36 72 37 73 63 74 64 75 72 76 65 77
REMARK SMILES IDX 71 78 73 79 70 80 66 81 67 82 68 83 69 84 48 85 49 86 57 87
REMARK SMILES IDX 50 88 56 89 58 90 55 91 51 92 52 93 53 94 54 95
REMARK H PARENT 14 6 10 11 19 29 78 48 46 59
REMARK Flexibility Score: inf
ROOT
ATOM      1  C   UNL     1       3.140   2.706   4.342  1.00  0.00     0.023 C 
ENDROOT
BRANCH   1   2
ATOM      2  C   UNL     1       2.020   1.685   4.546  1.00  0.00     0.116 C 
BRANCH   2   3
ATOM      3  N   UNL     1       0.730   2.252   4.201  1.00  0.00    -0.354 N 
ATOM      4  C   UNL     1      -0.024   2.052   3.077  1.00  0.00     0.242 C 
ATOM      5  O   UNL     1      -1.057   2.713   2.959  1.00  0.00    -0.273 OA
ATOM      6  H   UNL     1       0.344   2.865   4.867  1.00  0.00     0.163 HD
BRANCH   4   7
ATOM      7  C   UNL     1       0.442   1.022   2.015  1.00  0.00     0.174 C 
BRANCH   7   8
ATOM      8  N   UNL     1       1.704   1.514   1.457  1.00  0.00    -0.344 N 
ATOM      9  O   UNL     1       2.774  -0.507   1.521  1.00  0.00    -0.275 OA
ATOM     10  C   UNL     1       2.782   0.686   1.232  1.00  0.00     0.223 C 
ATOM     11  H   UNL     1       1.785   2.470   1.236  1.00  0.00     0.164 HD
BRANCH  10  12
ATOM     12  C   UNL     1       4.007   1.360   0.647  1.00  0.00     0.132 C 
BRANCH  12  13
ATOM     13  C   UNL     1       3.668   2.073  -0.661  1.00  0.00     0.127 C 
ATOM     14  C   UNL     1       3.623   3.595  -0.491  1.00  0.00     0.033 C 
ATOM     15  O   UNL     1       4.657   1.759  -1.653  1.00  0.00    -0.378 OA
ATOM     16  C   UNL     1       3.209   4.235  -1.811  1.00  0.00     0.005 C 
ATOM     17  C   UNL     1       4.278   2.247  -2.942  1.00  0.00     0.160 C 
ATOM     18  C   UNL     1       4.121   3.764  -2.939  1.00  0.00     0.029 C 
ENDBRANCH  12  13
ENDBRANCH  10  12
ENDBRANCH   7   8
BRANCH   7  19
ATOM     19  C   UNL     1      -0.639   0.815   0.914  1.00  0.00     0.021 C 
ATOM     20  C   UNL     1      -0.085   0.164  -0.369  1.00  0.00     0.006 C 
ATOM     21  C   UNL     1      -1.802  -0.033   1.474  1.00  0.00     0.006 C 
ATOM     22  C   UNL     1      -1.176  -0.115  -1.401  1.00  0.00     0.000 C 
ATOM     23  C   UNL     1      -2.878  -0.315   0.430  1.00  0.00     0.000 C 
ATOM     24  C   UNL     1      -2.292  -0.967  -0.816  1.00  0.00     0.000 C 
ENDBRANCH   7  19
ENDBRANCH   4   7
ENDBRANCH   2   3
ENDBRANCH   1   2
BRANCH   1  25
ATOM     25  C   UNL     1       3.130   3.866   5.342  1.00  0.00     0.023 C 
BRANCH  25  26
ATOM     26  C   UNL     1       3.201   3.458   6.811  1.00  0.00     0.116 C 
BRANCH  26  27
ATOM     27  N   UNL     1       4.370   2.652   7.120  1.00  0.00    -0.352 N 
ATOM     28  C   UNL     1       5.149   2.669   8.252  1.00  0.00     0.251 C 
ATOM     29  H   UNL     1       4.640   2.008   6.426  1.00  0.00     0.163 HD
ATOM     30  O   UNL     1       6.185   2.011   8.290  1.00  0.00    -0.269 OA
BRANCH  28  31
ATOM     31  C   UNL     1       4.754   3.515   9.398  1.00  0.00     0.039 A 
ATOM     32  C   UNL     1       5.714   4.341   9.986  1.00  0.00     0.014 A 
ATOM     33  C   UNL     1       3.438   3.515   9.870  1.00  0.00     0.014 A 
ATOM     34  C   UNL     1       5.337   5.221  11.004  1.00  0.00     0.010 A 
ATOM     35  C   UNL     1       3.051   4.439  10.837  1.00  0.00     0.010 A 
ATOM     36  C   UNL     1       3.995   5.306  11.410  1.00  0.00    -0.014 A 
BRANCH  36  37
ATOM     37  C   UNL     1       3.562   6.306  12.420  1.00  0.00     0.031 A 
ATOM     38  C   UNL     1       3.010   5.856  13.744  1.00  0.00     0.074 A 
ATOM     39  C   UNL     1       3.608   7.618  12.115  1.00  0.00     0.049 A 
ATOM     40  N   UNL     1       2.526   6.573  14.726  1.00  0.00    -0.248 NA
ATOM     41  C   UNL     1       2.970   4.406  13.983  1.00  0.00     0.031 C 
ATOM     42  C   UNL     1       4.079   8.174  10.844  1.00  0.00     0.029 A 
ATOM     43  N   UNL     1       3.249   8.724  12.845  1.00  0.00    -0.354 N 
ATOM     44  C   UNL     1       2.116   5.664  15.694  1.00  0.00     0.074 A 
ATOM     45  C   UNL     1       2.351   4.342  15.152  1.00  0.00     0.031 C 
ATOM     46  C   UNL     1       4.003   9.513  10.893  1.00  0.00     0.029 A 
ATOM     47  C   UNL     1       3.438   9.913  12.178  1.00  0.00     0.049 A 
ATOM     48  H   UNL     1       2.889   8.671  13.759  1.00  0.00     0.167 HD
ATOM     49  C   UNL     1       1.612   5.909  16.930  1.00  0.00     0.034 A 
ATOM     50  C   UNL     1       3.176  11.180  12.554  1.00  0.00     0.034 A 
ATOM     51  C   UNL     1       1.393   7.234  17.458  1.00  0.00     0.049 A 
ATOM     52  C   UNL     1       2.599  11.428  13.925  1.00  0.00     0.074 A 
ATOM     53  C   UNL     1       0.942   7.598  18.715  1.00  0.00     0.029 A 
ATOM     54  N   UNL     1       1.599   8.415  16.756  1.00  0.00    -0.354 N 
ATOM     55  N   UNL     1       2.270  10.558  14.852  1.00  0.00    -0.248 NA
ATOM     56  C   UNL     1       2.371  12.828  14.304  1.00  0.00     0.031 C 
ATOM     57  C   UNL     1       0.812   8.991  18.750  1.00  0.00     0.029 A 
ATOM     58  C   UNL     1       1.255   9.505  17.542  1.00  0.00     0.049 A 
ATOM     59  H   UNL     1       1.940   8.471  15.834  1.00  0.00     0.167 HD
ATOM     60  C   UNL     1       1.824  11.309  15.935  1.00  0.00     0.074 A 
ATOM     61  C   UNL     1       1.941  12.701  15.550  1.00  0.00     0.031 C 
ATOM     62  C   UNL     1       1.364  10.888  17.141  1.00  0.00     0.034 A 
BRANCH  49  63
ATOM     63  C   UNL     1       1.242   4.715  17.779  1.00  0.00     0.023 A 
ATOM     64  C   UNL     1       2.206   3.779  18.195  1.00  0.00     0.031 A 
ATOM     65  C   UNL     1      -0.094   4.493  18.156  1.00  0.00     0.131 A 
ATOM     66  C   UNL     1       1.810   2.628  18.893  1.00  0.00     0.055 A 
ATOM     67  C   UNL     1      -0.469   3.389  18.924  1.00  0.00     0.041 A 
ATOM     68  F   UNL     1      -1.062   5.340  17.773  1.00  0.00    -0.206 F 
ATOM     69  C   UNL     1       0.482   2.439  19.283  1.00  0.00     0.022 A 
BRANCH  66  70
ATOM     70  S   UNL     1       3.030   1.312  19.155  1.00  0.00     0.124 S 
ATOM     71  O   UNL     1       3.415   0.991  17.782  1.00  0.00    -0.237 OA
ATOM     72  O   UNL     1       4.044   1.978  19.963  1.00  0.00    -0.237 OA
ATOM     73  O   UNL     1       2.269   0.270  19.841  1.00  0.00    -0.744 OA
ENDBRANCH  66  70
ENDBRANCH  49  63
BRANCH  50  74
ATOM     74  C   UNL     1       3.448  12.315  11.626  1.00  0.00     0.023 A 
ATOM     75  C   UNL     1       4.417  13.284  11.931  1.00  0.00     0.031 A 
ATOM     76  C   UNL     1       2.715  12.467  10.435  1.00  0.00     0.131 A 
ATOM     77  C   UNL     1       4.595  14.387  11.082  1.00  0.00     0.055 A 
ATOM     78  C   UNL     1       2.933  13.539   9.567  1.00  0.00     0.041 A 
ATOM     79  F   UNL     1       1.782  11.565  10.092  1.00  0.00    -0.206 F 
ATOM     80  C   UNL     1       3.869  14.514   9.896  1.00  0.00     0.022 A 
BRANCH  77  81
ATOM     81  S   UNL     1       5.737  15.701  11.594  1.00  0.00     0.124 S 
ATOM     82  O   UNL     1       5.171  16.104  12.876  1.00  0.00    -0.237 OA
ATOM     83  O   UNL     1       7.010  14.990  11.648  1.00  0.00    -0.237 OA
ATOM     84  O   UNL     1       5.621  16.687  10.521  1.00  0.00    -0.744 OA
ENDBRANCH  77  81
ENDBRANCH  50  74
BRANCH  62  85
ATOM     85  C   UNL     1       0.997  11.954  18.144  1.00  0.00     0.023 A 
ATOM     86  C   UNL     1      -0.096  12.815  17.945  1.00  0.00     0.031 A 
ATOM     87  C   UNL     1       1.764  12.118  19.312  1.00  0.00     0.131 A 
ATOM     88  C   UNL     1      -0.359  13.837  18.870  1.00  0.00     0.055 A 
ATOM     89  C   UNL     1       1.460  13.096  20.259  1.00  0.00     0.041 A 
ATOM     90  F   UNL     1       2.820  11.325  19.553  1.00  0.00    -0.206 F 
ATOM     91  C   UNL     1       0.402  13.972  20.035  1.00  0.00     0.022 A 
BRANCH  88  92
ATOM     92  S   UNL     1      -1.655  15.047  18.488  1.00  0.00     0.124 S 
ATOM     93  O   UNL     1      -1.186  15.605  17.224  1.00  0.00    -0.237 OA
ATOM     94  O   UNL     1      -2.849  14.211  18.412  1.00  0.00    -0.237 OA
ATOM     95  O   UNL     1      -1.614  15.965  19.625  1.00  0.00    -0.744 OA
ENDBRANCH  88  92
ENDBRANCH  62  85
ENDBRANCH  36  37
ENDBRANCH  28  31
ENDBRANCH  26  27
ENDBRANCH  25  26
ENDBRANCH   1  25
TORSDOF 18
