REMARK SMILES Cc1cc(Br)cc([N+](=O)[O-])c1OCCC[C@@](C)([NH3+])C(=O)NCCCCNC(=O)c1ccc(-c2c3nc(c(-c4cc(S(=O)(=O)[O-])ccc4F)c4ccc([nH]4)c(-c4cc(S(=O)(=O)[O-])ccc4F)c4nc(c(-c5cc(S(=O)(=O)[O-])ccc5F)c5ccc2[nH]5)C=C4)C=C3)cc1
REMARK SMILES IDX 22 1 21 2 19 3 20 4 16 6 17 7 15 8 14 9 13 10 12 11 11 12
REMARK SMILES IDX 1 13 2 14 3 15 4 16 7 17 5 18 6 19 8 20 9 21 10 22 18 23
REMARK SMILES IDX 23 27 24 28 25 29 26 30 27 31 28 33 29 34 30 35 91 36 31 37
REMARK SMILES IDX 90 38 32 39 33 40 34 41 84 42 35 43 89 44 83 45 85 46 36 47
REMARK SMILES IDX 88 48 82 49 81 50 37 52 69 53 49 54 68 55 50 56 53 57 67 58
REMARK SMILES IDX 86 59 51 60 52 61 66 63 87 64 54 65 38 66 39 67 47 68 40 69
REMARK SMILES IDX 46 70 48 71 45 72 41 73 42 74 43 75 44 76 70 77 71 78 79 79
REMARK SMILES IDX 72 80 78 81 80 82 77 83 73 84 74 85 75 86 76 87 55 88 56 89
REMARK SMILES IDX 64 90 57 91 63 92 65 93 62 94 58 95 59 96 60 97 61 98
REMARK H PARENT 21 5 18 24 18 25 18 26 26 32 85 51 53 62
REMARK Flexibility Score: inf
ROOT
ATOM      1  C   UNL     1      -3.080  -4.249   2.747  1.00  0.00     0.116 C 
ENDROOT
BRANCH   1   2
ATOM      2  N   UNL     1      -3.827  -3.040   2.452  1.00  0.00    -0.351 N 
ATOM      3  C   UNL     1      -4.525  -2.625   1.363  1.00  0.00     0.280 C 
ATOM      4  O   UNL     1      -5.343  -1.725   1.594  1.00  0.00    -0.268 OA
ATOM      5  H   UNL     1      -3.828  -2.389   3.191  1.00  0.00     0.163 HD
BRANCH   3   6
ATOM      6  C   UNL     1      -4.385  -3.221  -0.074  1.00  0.00     0.171 C 
ATOM      7  C   UNL     1      -5.567  -4.186  -0.247  1.00  0.00     0.090 C 
BRANCH   6   8
ATOM      8  C   UNL     1      -4.364  -2.150  -1.226  1.00  0.00     0.082 C 
BRANCH   8   9
ATOM      9  C   UNL     1      -5.091  -0.798  -1.067  1.00  0.00     0.049 C 
BRANCH   9  10
ATOM     10  C   UNL     1      -4.337   0.341  -0.328  1.00  0.00     0.230 C 
BRANCH  10  11
ATOM     11  O   UNL     1      -3.181   0.750  -1.081  1.00  0.00    -0.487 OA
BRANCH  11  12
ATOM     12  C   UNL     1      -2.062   1.140  -0.374  1.00  0.00     0.200 A 
ATOM     13  C   UNL     1      -1.482  -1.269   0.234  1.00  0.00     0.049 C 
ATOM     14  C   UNL     1      -1.133   0.161   0.027  1.00  0.00    -0.001 A 
ATOM     15  C   UNL     1       0.218   0.492   0.223  1.00  0.00     0.023 A 
ATOM     16  C   UNL     1       0.645   1.803   0.107  1.00  0.00     0.025 A 
ATOM     17  C   UNL     1      -1.628   2.478  -0.378  1.00  0.00     0.312 A 
ATOM     18  Br  UNL     1       2.483   2.195   0.287  1.00  0.00    -0.051 Br
ATOM     19  C   UNL     1      -0.277   2.810  -0.138  1.00  0.00     0.105 A 
BRANCH  17  20
ATOM     20  N   UNL     1      -2.561   3.587  -0.573  1.00  0.00     0.066 N 
ATOM     21  O   UNL     1      -2.089   4.663  -0.974  1.00  0.00    -0.258 OA
ATOM     22  O   UNL     1      -3.746   3.422  -0.260  1.00  0.00    -0.258 OA
ENDBRANCH  17  20
ENDBRANCH  11  12
ENDBRANCH  10  11
ENDBRANCH   9  10
ENDBRANCH   8   9
ENDBRANCH   6   8
BRANCH   6  23
ATOM     23  N   UNL     1      -3.175  -4.066  -0.246  1.00  0.00    -0.345 N 
ATOM     24  H   UNL     1      -3.142  -4.423  -1.200  1.00  0.00     0.345 HD
ATOM     25  H   UNL     1      -3.210  -4.848   0.409  1.00  0.00     0.345 HD
ATOM     26  H   UNL     1      -2.341  -3.507  -0.063  1.00  0.00     0.345 HD
ENDBRANCH   6  23
ENDBRANCH   3   6
ENDBRANCH   1   2
BRANCH   1  27
ATOM     27  C   UNL     1      -1.694  -3.946   3.322  1.00  0.00     0.023 C 
BRANCH  27  28
ATOM     28  C   UNL     1      -1.678  -3.166   4.643  1.00  0.00     0.023 C 
BRANCH  28  29
ATOM     29  C   UNL     1      -2.612  -3.687   5.732  1.00  0.00     0.116 C 
BRANCH  29  30
ATOM     30  N   UNL     1      -2.455  -5.109   5.985  1.00  0.00    -0.352 N 
ATOM     31  C   UNL     1      -2.544  -5.805   7.163  1.00  0.00     0.251 C 
ATOM     32  H   UNL     1      -2.256  -5.655   5.190  1.00  0.00     0.163 HD
ATOM     33  O   UNL     1      -2.284  -7.007   7.165  1.00  0.00    -0.269 OA
BRANCH  31  34
ATOM     34  C   UNL     1      -2.898  -5.115   8.422  1.00  0.00     0.039 A 
ATOM     35  C   UNL     1      -2.185  -5.445   9.578  1.00  0.00     0.014 A 
ATOM     36  C   UNL     1      -3.917  -4.160   8.480  1.00  0.00     0.014 A 
ATOM     37  C   UNL     1      -2.458  -4.781  10.774  1.00  0.00     0.010 A 
ATOM     38  C   UNL     1      -4.135  -3.443   9.656  1.00  0.00     0.010 A 
ATOM     39  C   UNL     1      -3.412  -3.751  10.818  1.00  0.00    -0.014 A 
BRANCH  39  40
ATOM     40  C   UNL     1      -3.649  -3.000  12.080  1.00  0.00     0.031 A 
ATOM     41  C   UNL     1      -4.983  -3.072  12.773  1.00  0.00     0.074 A 
ATOM     42  C   UNL     1      -2.659  -2.240  12.590  1.00  0.00     0.049 A 
ATOM     43  N   UNL     1      -5.362  -2.513  13.894  1.00  0.00    -0.248 NA
ATOM     44  C   UNL     1      -6.036  -3.850  12.105  1.00  0.00     0.031 C 
ATOM     45  C   UNL     1      -1.342  -2.050  11.977  1.00  0.00     0.029 A 
ATOM     46  N   UNL     1      -2.598  -1.496  13.741  1.00  0.00    -0.354 N 
ATOM     47  C   UNL     1      -6.696  -2.871  14.065  1.00  0.00     0.074 A 
ATOM     48  C   UNL     1      -7.077  -3.632  12.894  1.00  0.00     0.031 C 
ATOM     49  C   UNL     1      -0.590  -1.280  12.780  1.00  0.00     0.029 A 
ATOM     50  C   UNL     1      -1.379  -0.888  13.943  1.00  0.00     0.049 A 
ATOM     51  H   UNL     1      -3.354  -1.405  14.365  1.00  0.00     0.167 HD
ATOM     52  C   UNL     1      -7.518  -2.613  15.114  1.00  0.00     0.034 A 
ATOM     53  C   UNL     1      -0.946  -0.107  14.952  1.00  0.00     0.034 A 
ATOM     54  C   UNL     1      -7.118  -1.853  16.275  1.00  0.00     0.049 A 
ATOM     55  C   UNL     1      -1.879   0.172  16.103  1.00  0.00     0.074 A 
ATOM     56  C   UNL     1      -7.852  -1.566  17.413  1.00  0.00     0.029 A 
ATOM     57  N   UNL     1      -5.878  -1.249  16.443  1.00  0.00    -0.354 N 
ATOM     58  N   UNL     1      -3.118  -0.228  16.279  1.00  0.00    -0.248 NA
ATOM     59  C   UNL     1      -1.347   0.987  17.200  1.00  0.00     0.031 C 
ATOM     60  C   UNL     1      -7.084  -0.732  18.234  1.00  0.00     0.029 A 
ATOM     61  C   UNL     1      -5.837  -0.569  17.652  1.00  0.00     0.049 A 
ATOM     62  H   UNL     1      -5.135  -1.296  15.798  1.00  0.00     0.167 HD
ATOM     63  C   UNL     1      -3.500   0.261  17.526  1.00  0.00     0.074 A 
ATOM     64  C   UNL     1      -2.351   0.963  18.062  1.00  0.00     0.031 C 
ATOM     65  C   UNL     1      -4.689   0.140  18.171  1.00  0.00     0.034 A 
BRANCH  52  66
ATOM     66  C   UNL     1      -8.933  -3.140  15.035  1.00  0.00     0.023 A 
ATOM     67  C   UNL     1      -9.205  -4.518  14.948  1.00  0.00     0.031 A 
ATOM     68  C   UNL     1     -10.026  -2.255  15.018  1.00  0.00     0.131 A 
ATOM     69  C   UNL     1     -10.524  -4.964  14.768  1.00  0.00     0.055 A 
ATOM     70  C   UNL     1     -11.343  -2.711  14.927  1.00  0.00     0.041 A 
ATOM     71  F   UNL     1      -9.832  -0.928  15.075  1.00  0.00    -0.206 F 
ATOM     72  C   UNL     1     -11.597  -4.072  14.785  1.00  0.00     0.022 A 
BRANCH  69  73
ATOM     73  S   UNL     1     -10.799  -6.710  14.359  1.00  0.00     0.124 S 
ATOM     74  O   UNL     1     -10.017  -6.852  13.133  1.00  0.00    -0.237 OA
ATOM     75  O   UNL     1     -10.275  -7.396  15.534  1.00  0.00    -0.237 OA
ATOM     76  O   UNL     1     -12.247  -6.795  14.179  1.00  0.00    -0.744 OA
ENDBRANCH  69  73
ENDBRANCH  52  66
BRANCH  53  77
ATOM     77  C   UNL     1       0.434   0.459  14.932  1.00  0.00     0.023 A 
ATOM     78  C   UNL     1       1.378   0.108  15.911  1.00  0.00     0.031 A 
ATOM     79  C   UNL     1       0.817   1.398  13.957  1.00  0.00     0.131 A 
ATOM     80  C   UNL     1       2.637   0.728  15.925  1.00  0.00     0.055 A 
ATOM     81  C   UNL     1       2.090   1.969  13.941  1.00  0.00     0.041 A 
ATOM     82  F   UNL     1      -0.044   1.766  12.994  1.00  0.00    -0.206 F 
ATOM     83  C   UNL     1       3.005   1.646  14.938  1.00  0.00     0.022 A 
BRANCH  80  84
ATOM     84  S   UNL     1       3.759   0.388  17.310  1.00  0.00     0.124 S 
ATOM     85  O   UNL     1       2.947   0.785  18.454  1.00  0.00    -0.237 OA
ATOM     86  O   UNL     1       4.000  -1.043  17.159  1.00  0.00    -0.237 OA
ATOM     87  O   UNL     1       4.910   1.244  17.033  1.00  0.00    -0.744 OA
ENDBRANCH  80  84
ENDBRANCH  53  77
BRANCH  65  88
ATOM     88  C   UNL     1      -4.780   0.742  19.554  1.00  0.00     0.023 A 
ATOM     89  C   UNL     1      -4.654   2.126  19.772  1.00  0.00     0.031 A 
ATOM     90  C   UNL     1      -4.957  -0.087  20.676  1.00  0.00     0.131 A 
ATOM     91  C   UNL     1      -4.624   2.628  21.081  1.00  0.00     0.055 A 
ATOM     92  C   UNL     1      -5.003   0.427  21.973  1.00  0.00     0.041 A 
ATOM     93  F   UNL     1      -5.081  -1.417  20.532  1.00  0.00    -0.206 F 
ATOM     94  C   UNL     1      -4.817   1.790  22.182  1.00  0.00     0.022 A 
BRANCH  91  95
ATOM     95  S   UNL     1      -4.197   4.373  21.333  1.00  0.00     0.124 S 
ATOM     96  O   UNL     1      -2.911   4.472  20.648  1.00  0.00    -0.237 OA
ATOM     97  O   UNL     1      -5.313   5.062  20.694  1.00  0.00    -0.237 OA
ATOM     98  O   UNL     1      -4.137   4.506  22.787  1.00  0.00    -0.744 OA
ENDBRANCH  91  95
ENDBRANCH  65  88
ENDBRANCH  39  40
ENDBRANCH  31  34
ENDBRANCH  29  30
ENDBRANCH  28  29
ENDBRANCH  27  28
ENDBRANCH   1  27
TORSDOF 21
