REMARK SMILES Cc1oc2cc3c(cc2c1C)[C@H](C)[C@@H](CC(=O)N[C@H](CC1=c2ccccc2=NC1)C(=O)NCCCCNC(=O)c1ccc(-c2c4nc(c(-c5cc(S(=O)(=O)[O-])ccc5F)c5ccc([nH]5)c(-c5cc(S(=O)(=O)[O-])ccc5F)c5nc(c(-c6cc(S(=O)(=O)[O-])ccc6F)c6ccc2[nH]6)C=C5)C=C4)cc1)C(=O)O3
REMARK SMILES IDX 34 1 33 2 32 3 30 4 31 5 19 7 18 8 16 9 17 10 15 12 14 13
REMARK SMILES IDX 1 14 2 15 3 16 10 17 4 18 9 19 11 20 5 21 8 22 6 23 7 24
REMARK SMILES IDX 105 25 12 26 103 27 13 28 104 29 20 30 21 31 22 32 29 33
REMARK SMILES IDX 23 34 27 35 28 36 24 37 26 38 25 39 35 40 36 41 37 42 38 43
REMARK SMILES IDX 39 45 40 46 41 47 102 48 42 49 101 50 43 51 44 52 45 53
REMARK SMILES IDX 95 54 46 55 100 56 94 57 96 58 47 59 99 60 93 61 92 62 48 64
REMARK SMILES IDX 80 65 60 66 79 67 61 68 64 69 78 70 97 71 62 72 63 73 77 75
REMARK SMILES IDX 98 76 65 77 49 78 50 79 58 80 51 81 57 82 59 83 56 84 52 85
REMARK SMILES IDX 53 86 54 87 55 88 81 89 82 90 90 91 83 92 89 93 91 94 88 95
REMARK SMILES IDX 84 96 85 97 86 98 87 99 66 100 67 101 75 102 68 103 74 104
REMARK SMILES IDX 76 105 73 106 69 107 70 108 71 109 72 110
REMARK H PARENT 32 6 18 11 37 44 96 63 64 74
REMARK Flexibility Score: inf
ROOT
ATOM      1  C   UNL     1      -1.433  14.178  -2.886  1.00  0.00     0.023 C 
ENDROOT
BRANCH   1   2
ATOM      2  C   UNL     1      -0.379  12.509  -1.849  1.00  0.00     0.116 C 
BRANCH   2   3
ATOM      3  N   UNL     1      -1.218  11.059  -1.147  1.00  0.00    -0.354 N 
ATOM      4  C   UNL     1      -2.144  10.123  -1.751  1.00  0.00     0.242 C 
ATOM      5  O   UNL     1      -3.159   9.827  -1.108  1.00  0.00    -0.273 OA
ATOM      6  H   UNL     1      -1.010  10.879  -0.202  1.00  0.00     0.163 HD
BRANCH   4   7
ATOM      7  C   UNL     1      -1.765   9.311  -3.144  1.00  0.00     0.175 C 
BRANCH   7   8
ATOM      8  N   UNL     1      -0.455   8.716  -2.506  1.00  0.00    -0.344 N 
ATOM      9  C   UNL     1       0.764   8.205  -2.663  1.00  0.00     0.221 C 
ATOM     10  O   UNL     1       1.424   8.053  -1.623  1.00  0.00    -0.275 OA
ATOM     11  H   UNL     1      -0.609   8.728  -1.534  1.00  0.00     0.164 HD
BRANCH   9  12
ATOM     12  C   UNL     1       1.427   7.830  -3.945  1.00  0.00     0.116 C 
BRANCH  12  13
ATOM     13  C   UNL     1       0.835   6.676  -4.709  1.00  0.00     0.116 C 
ATOM     14  C   UNL     1      -3.182   2.660 -10.896  1.00  0.00     0.088 C 
ATOM     15  C   UNL     1      -2.454   3.570  -9.996  1.00  0.00     0.105 A 
ATOM     16  O   UNL     1      -2.854   3.510  -8.700  1.00  0.00    -0.461 OA
ATOM     17  C   UNL     1      -1.380   4.432 -10.138  1.00  0.00    -0.002 A 
ATOM     18  C   UNL     1      -1.987   4.263  -7.988  1.00  0.00     0.138 A 
ATOM     19  C   UNL     1      -1.106   4.923  -8.831  1.00  0.00     0.024 A 
ATOM     20  C   UNL     1      -0.560   4.713 -11.339  1.00  0.00     0.049 C 
ATOM     21  C   UNL     1      -1.943   4.307  -6.612  1.00  0.00     0.095 A 
ATOM     22  C   UNL     1      -0.158   5.806  -8.285  1.00  0.00     0.020 A 
ATOM     23  C   UNL     1      -0.895   5.057  -6.098  1.00  0.00     0.138 A 
ATOM     24  C   UNL     1      -0.036   5.861  -6.895  1.00  0.00    -0.001 A 
ATOM     25  O   UNL     1      -0.754   4.977  -4.718  1.00  0.00    -0.426 OA
ATOM     26  C   UNL     1       0.878   6.885  -6.231  1.00  0.00     0.035 C 
ATOM     27  C   UNL     1      -0.598   6.296  -4.426  1.00  0.00     0.315 C 
ATOM     28  C   UNL     1       2.318   6.882  -6.752  1.00  0.00     0.014 C 
ATOM     29  O   UNL     1      -1.561   7.026  -4.300  1.00  0.00    -0.251 OA
ENDBRANCH  12  13
ENDBRANCH   9  12
ENDBRANCH   7   8
BRANCH   7  30
ATOM     30  C   UNL     1      -1.847  10.159  -4.780  1.00  0.00     0.068 C 
BRANCH  30  31
ATOM     31  C   UNL     1      -0.757  11.618  -5.101  1.00  0.00    -0.037 C 
ATOM     32  C   UNL     1      -0.706  12.816  -4.384  1.00  0.00     0.001 A 
ATOM     33  C   UNL     1       0.347  11.002  -4.481  1.00  0.00     0.174 C 
ATOM     34  C   UNL     1       0.570  13.788  -3.395  1.00  0.00     0.010 A 
ATOM     35  C   UNL     1      -1.597  12.063  -3.344  1.00  0.00     0.065 A 
ATOM     36  N   UNL     1      -0.526  11.062  -3.306  1.00  0.00    -0.280 NA
ATOM     37  C   UNL     1       0.288  14.366  -1.875  1.00  0.00     0.001 A 
ATOM     38  C   UNL     1      -2.379  12.881  -1.708  1.00  0.00     0.028 A 
ATOM     39  C   UNL     1      -1.391  13.911  -0.935  1.00  0.00     0.002 A 
ENDBRANCH  30  31
ENDBRANCH   7  30
ENDBRANCH   4   7
ENDBRANCH   2   3
ENDBRANCH   1   2
BRANCH   1  40
ATOM     40  C   UNL     1      -1.608  15.898  -2.338  1.00  0.00     0.023 C 
BRANCH  40  41
ATOM     41  C   UNL     1      -0.931  16.540  -1.075  1.00  0.00     0.116 C 
BRANCH  41  42
ATOM     42  N   UNL     1       0.312  17.299  -1.244  1.00  0.00    -0.352 N 
ATOM     43  C   UNL     1       0.480  18.655  -1.093  1.00  0.00     0.251 C 
ATOM     44  H   UNL     1       1.112  16.782  -1.492  1.00  0.00     0.163 HD
ATOM     45  O   UNL     1       1.573  19.172  -0.924  1.00  0.00    -0.269 OA
BRANCH  43  46
ATOM     46  C   UNL     1      -0.758  19.420  -1.226  1.00  0.00     0.039 A 
ATOM     47  C   UNL     1      -1.676  19.312  -0.177  1.00  0.00     0.014 A 
ATOM     48  C   UNL     1      -1.139  19.637  -2.553  1.00  0.00     0.014 A 
ATOM     49  C   UNL     1      -3.010  19.184  -0.514  1.00  0.00     0.010 A 
ATOM     50  C   UNL     1      -2.482  19.585  -2.869  1.00  0.00     0.010 A 
ATOM     51  C   UNL     1      -3.404  19.287  -1.859  1.00  0.00    -0.014 A 
BRANCH  51  52
ATOM     52  C   UNL     1      -4.851  19.401  -2.046  1.00  0.00     0.031 A 
ATOM     53  C   UNL     1      -5.153  20.870  -1.970  1.00  0.00     0.074 A 
ATOM     54  C   UNL     1      -5.606  18.574  -2.795  1.00  0.00     0.049 A 
ATOM     55  N   UNL     1      -4.828  21.654  -2.956  1.00  0.00    -0.248 NA
ATOM     56  C   UNL     1      -5.301  21.567  -0.690  1.00  0.00     0.031 C 
ATOM     57  C   UNL     1      -5.173  17.870  -4.009  1.00  0.00     0.029 A 
ATOM     58  N   UNL     1      -6.966  18.363  -2.746  1.00  0.00    -0.354 N 
ATOM     59  C   UNL     1      -4.644  22.920  -2.433  1.00  0.00     0.074 A 
ATOM     60  C   UNL     1      -4.952  22.819  -1.025  1.00  0.00     0.031 C 
ATOM     61  C   UNL     1      -6.271  17.516  -4.710  1.00  0.00     0.029 A 
ATOM     62  C   UNL     1      -7.470  17.853  -3.942  1.00  0.00     0.049 A 
ATOM     63  H   UNL     1      -7.521  18.552  -1.955  1.00  0.00     0.167 HD
ATOM     64  C   UNL     1      -4.226  23.967  -3.195  1.00  0.00     0.034 A 
ATOM     65  C   UNL     1      -8.658  18.274  -4.463  1.00  0.00     0.034 A 
ATOM     66  C   UNL     1      -4.017  23.660  -4.582  1.00  0.00     0.049 A 
ATOM     67  C   UNL     1      -8.237  19.613  -5.047  1.00  0.00     0.074 A 
ATOM     68  C   UNL     1      -2.962  23.499  -5.450  1.00  0.00     0.029 A 
ATOM     69  N   UNL     1      -5.135  23.387  -5.338  1.00  0.00    -0.354 N 
ATOM     70  N   UNL     1      -7.550  19.803  -6.147  1.00  0.00    -0.248 NA
ATOM     71  C   UNL     1      -8.277  20.776  -4.158  1.00  0.00     0.031 C 
ATOM     72  C   UNL     1      -3.477  22.720  -6.537  1.00  0.00     0.029 A 
ATOM     73  C   UNL     1      -4.807  22.410  -6.244  1.00  0.00     0.049 A 
ATOM     74  H   UNL     1      -6.015  23.817  -5.245  1.00  0.00     0.167 HD
ATOM     75  C   UNL     1      -6.841  20.997  -5.950  1.00  0.00     0.074 A 
ATOM     76  C   UNL     1      -7.378  21.563  -4.732  1.00  0.00     0.031 C 
ATOM     77  C   UNL     1      -5.738  21.375  -6.668  1.00  0.00     0.034 A 
BRANCH  64  78
ATOM     78  C   UNL     1      -4.277  25.374  -2.743  1.00  0.00     0.023 A 
ATOM     79  C   UNL     1      -3.253  26.041  -2.057  1.00  0.00     0.031 A 
ATOM     80  C   UNL     1      -5.400  26.109  -3.171  1.00  0.00     0.131 A 
ATOM     81  C   UNL     1      -3.376  27.427  -1.843  1.00  0.00     0.055 A 
ATOM     82  C   UNL     1      -5.505  27.479  -2.975  1.00  0.00     0.041 A 
ATOM     83  F   UNL     1      -6.403  25.491  -3.820  1.00  0.00    -0.206 F 
ATOM     84  C   UNL     1      -4.485  28.146  -2.313  1.00  0.00     0.022 A 
BRANCH  81  85
ATOM     85  S   UNL     1      -2.105  28.385  -0.968  1.00  0.00     0.124 S 
ATOM     86  O   UNL     1      -1.725  29.381  -1.966  1.00  0.00    -0.237 OA
ATOM     87  O   UNL     1      -2.854  28.904   0.175  1.00  0.00    -0.237 OA
ATOM     88  O   UNL     1      -1.082  27.397  -0.644  1.00  0.00    -0.744 OA
ENDBRANCH  81  85
ENDBRANCH  64  78
BRANCH  65  89
ATOM     89  C   UNL     1      -9.819  18.071  -3.524  1.00  0.00     0.023 A 
ATOM     90  C   UNL     1     -10.647  19.085  -3.023  1.00  0.00     0.031 A 
ATOM     91  C   UNL     1     -10.036  16.769  -3.011  1.00  0.00     0.131 A 
ATOM     92  C   UNL     1     -11.481  18.836  -1.919  1.00  0.00     0.055 A 
ATOM     93  C   UNL     1     -10.917  16.509  -1.957  1.00  0.00     0.041 A 
ATOM     94  F   UNL     1      -9.355  15.722  -3.507  1.00  0.00    -0.206 F 
ATOM     95  C   UNL     1     -11.616  17.557  -1.377  1.00  0.00     0.022 A 
BRANCH  92  96
ATOM     96  S   UNL     1     -12.325  20.203  -1.074  1.00  0.00     0.124 S 
ATOM     97  O   UNL     1     -13.691  19.701  -0.961  1.00  0.00    -0.237 OA
ATOM     98  O   UNL     1     -11.571  20.276   0.174  1.00  0.00    -0.237 OA
ATOM     99  O   UNL     1     -12.141  21.327  -1.986  1.00  0.00    -0.744 OA
ENDBRANCH  92  96
ENDBRANCH  65  89
BRANCH  77 100
ATOM    100  C   UNL     1      -5.384  20.545  -7.866  1.00  0.00     0.023 A 
ATOM    101  C   UNL     1      -4.122  19.928  -7.976  1.00  0.00     0.031 A 
ATOM    102  C   UNL     1      -6.240  20.507  -8.976  1.00  0.00     0.131 A 
ATOM    103  C   UNL     1      -3.712  19.390  -9.201  1.00  0.00     0.055 A 
ATOM    104  C   UNL     1      -5.854  19.906 -10.174  1.00  0.00     0.041 A 
ATOM    105  F   UNL     1      -7.439  21.113  -8.939  1.00  0.00    -0.206 F 
ATOM    106  C   UNL     1      -4.577  19.364 -10.299  1.00  0.00     0.022 A 
BRANCH 103 107
ATOM    107  S   UNL     1      -2.012  18.802  -9.441  1.00  0.00     0.124 S 
ATOM    108  O   UNL     1      -2.211  17.522 -10.119  1.00  0.00    -0.237 OA
ATOM    109  O   UNL     1      -1.441  19.861 -10.269  1.00  0.00    -0.237 OA
ATOM    110  O   UNL     1      -1.476  18.706  -8.086  1.00  0.00    -0.744 OA
ENDBRANCH 103 107
ENDBRANCH  77 100
ENDBRANCH  51  52
ENDBRANCH  43  46
ENDBRANCH  41  42
ENDBRANCH  40  41
ENDBRANCH   1  40
TORSDOF 19
