REMARK SMILES O=C(CNC(=O)CN1C(=O)S/C(=C\c2cccc(Br)c2)C1=O)NCCCCNC(=O)c1ccc(-c2c3nc(c(-c4cc(S(=O)(=O)[O-])ccc4F)c4ccc([nH]4)c(-c4cc(S(=O)(=O)[O-])ccc4F)c4nc(c(-c5cc(S(=O)(=O)[O-])ccc5F)c5ccc2[nH]5)C=C4)C=C3)cc1
REMARK SMILES IDX 25 1 24 2 23 3 1 4 2 5 3 7 4 8 5 9 6 11 7 12 8 13 9 14 21 15
REMARK SMILES IDX 10 16 11 17 12 18 22 19 13 20 14 21 15 22 20 23 16 24 18 25
REMARK SMILES IDX 17 26 19 27 26 28 27 29 28 30 29 31 30 33 31 34 32 35 93 36
REMARK SMILES IDX 33 37 92 38 34 39 35 40 36 41 86 42 37 43 91 44 85 45 87 46
REMARK SMILES IDX 38 47 90 48 84 49 83 50 39 52 71 53 51 54 70 55 52 56 55 57
REMARK SMILES IDX 69 58 88 59 53 60 54 61 68 63 89 64 56 65 40 66 41 67 49 68
REMARK SMILES IDX 42 69 48 70 50 71 47 72 43 73 44 74 45 75 46 76 72 77 73 78
REMARK SMILES IDX 81 79 74 80 80 81 82 82 79 83 75 84 76 85 77 86 78 87 57 88
REMARK SMILES IDX 58 89 66 90 59 91 65 92 67 93 64 94 60 95 61 96 62 97 63 98
REMARK H PARENT 23 6 4 10 28 32 87 51 55 62
REMARK Flexibility Score: inf
ROOT
ATOM      1  C   UNL     1       1.799   1.107   2.783  1.00  0.00     0.023 C 
ENDROOT
BRANCH   1   2
ATOM      2  C   UNL     1       1.471   1.672   1.403  1.00  0.00     0.116 C 
BRANCH   2   3
ATOM      3  N   UNL     1       2.272   1.054   0.362  1.00  0.00    -0.355 N 
ATOM      4  O   UNL     1       0.875  -0.722  -0.045  1.00  0.00    -0.273 OA
ATOM      5  C   UNL     1       1.920  -0.119  -0.269  1.00  0.00     0.239 C 
ATOM      6  H   UNL     1       3.110   1.496   0.094  1.00  0.00     0.163 HD
BRANCH   5   7
ATOM      7  C   UNL     1       3.009  -0.694  -1.186  1.00  0.00     0.216 C 
BRANCH   7   8
ATOM      8  N   UNL     1       3.995   0.305  -1.575  1.00  0.00    -0.345 N 
ATOM      9  C   UNL     1       5.353   0.255  -1.585  1.00  0.00     0.240 C 
ATOM     10  H   UNL     1       3.614   1.159  -1.881  1.00  0.00     0.164 HD
ATOM     11  O   UNL     1       5.922   1.130  -2.244  1.00  0.00    -0.273 OA
BRANCH   9  12
ATOM     12  C   UNL     1       6.146  -0.902  -0.973  1.00  0.00     0.229 C 
BRANCH  12  13
ATOM     13  N   UNL     1       5.927  -1.181   0.439  1.00  0.00    -0.259 N 
ATOM     14  C   UNL     1       5.585  -2.431   0.872  1.00  0.00     0.294 C 
ATOM     15  C   UNL     1       6.273  -0.270   1.411  1.00  0.00     0.268 C 
ATOM     16  O   UNL     1       5.330  -3.401   0.173  1.00  0.00    -0.261 OA
ATOM     17  S   UNL     1       5.562  -2.489   2.625  1.00  0.00    -0.022 SA
ATOM     18  C   UNL     1       6.146  -0.879   2.772  1.00  0.00     0.083 C 
ATOM     19  O   UNL     1       6.557   0.902   1.212  1.00  0.00    -0.268 OA
ATOM     20  C   UNL     1       6.390  -0.188   3.897  1.00  0.00     0.029 C 
BRANCH  20  21
ATOM     21  C   UNL     1       6.147  -0.633   5.280  1.00  0.00    -0.023 A 
ATOM     22  C   UNL     1       6.986  -1.541   5.923  1.00  0.00     0.008 A 
ATOM     23  C   UNL     1       5.057  -0.121   5.995  1.00  0.00     0.023 A 
ATOM     24  C   UNL     1       6.713  -1.944   7.238  1.00  0.00     0.002 A 
ATOM     25  C   UNL     1       4.763  -0.548   7.287  1.00  0.00     0.018 A 
ATOM     26  C   UNL     1       5.591  -1.461   7.916  1.00  0.00     0.016 A 
ATOM     27  Br  UNL     1       3.226   0.120   8.162  1.00  0.00    -0.051 Br
ENDBRANCH  20  21
ENDBRANCH  12  13
ENDBRANCH   9  12
ENDBRANCH   7   8
ENDBRANCH   5   7
ENDBRANCH   2   3
ENDBRANCH   1   2
BRANCH   1  28
ATOM     28  C   UNL     1       3.288   1.138   3.117  1.00  0.00     0.023 C 
BRANCH  28  29
ATOM     29  C   UNL     1       3.921   2.499   3.439  1.00  0.00     0.116 C 
BRANCH  29  30
ATOM     30  N   UNL     1       3.614   3.000   4.770  1.00  0.00    -0.352 N 
ATOM     31  C   UNL     1       4.395   3.383   5.843  1.00  0.00     0.251 C 
ATOM     32  H   UNL     1       2.648   3.083   4.941  1.00  0.00     0.163 HD
ATOM     33  O   UNL     1       3.800   3.734   6.863  1.00  0.00    -0.269 OA
BRANCH  31  34
ATOM     34  C   UNL     1       5.891   3.343   5.866  1.00  0.00     0.039 A 
ATOM     35  C   UNL     1       6.517   3.059   7.093  1.00  0.00     0.014 A 
ATOM     36  C   UNL     1       6.703   3.641   4.773  1.00  0.00     0.014 A 
ATOM     37  C   UNL     1       7.918   3.036   7.213  1.00  0.00     0.010 A 
ATOM     38  C   UNL     1       8.106   3.558   4.878  1.00  0.00     0.010 A 
ATOM     39  C   UNL     1       8.739   3.263   6.099  1.00  0.00    -0.014 A 
BRANCH  39  40
ATOM     40  C   UNL     1      10.237   3.230   6.203  1.00  0.00     0.031 A 
ATOM     41  C   UNL     1      11.058   4.467   5.912  1.00  0.00     0.074 A 
ATOM     42  C   UNL     1      10.886   2.090   6.526  1.00  0.00     0.049 A 
ATOM     43  N   UNL     1      12.360   4.610   5.853  1.00  0.00    -0.248 NA
ATOM     44  C   UNL     1      10.310   5.702   5.638  1.00  0.00     0.031 C 
ATOM     45  C   UNL     1      10.246   0.815   6.851  1.00  0.00     0.029 A 
ATOM     46  N   UNL     1      12.233   1.814   6.624  1.00  0.00    -0.354 N 
ATOM     47  C   UNL     1      12.589   5.943   5.517  1.00  0.00     0.074 A 
ATOM     48  C   UNL     1      11.284   6.550   5.341  1.00  0.00     0.031 C 
ATOM     49  C   UNL     1      11.194  -0.098   7.123  1.00  0.00     0.029 A 
ATOM     50  C   UNL     1      12.514   0.502   6.938  1.00  0.00     0.049 A 
ATOM     51  H   UNL     1      12.932   2.493   6.482  1.00  0.00     0.167 HD
ATOM     52  C   UNL     1      13.767   6.606   5.380  1.00  0.00     0.034 A 
ATOM     53  C   UNL     1      13.689  -0.157   7.043  1.00  0.00     0.034 A 
ATOM     54  C   UNL     1      15.069   6.007   5.565  1.00  0.00     0.049 A 
ATOM     55  C   UNL     1      14.988   0.583   6.810  1.00  0.00     0.074 A 
ATOM     56  C   UNL     1      16.313   6.616   5.494  1.00  0.00     0.029 A 
ATOM     57  N   UNL     1      15.306   4.668   5.843  1.00  0.00    -0.354 N 
ATOM     58  N   UNL     1      15.179   1.847   6.516  1.00  0.00    -0.248 NA
ATOM     59  C   UNL     1      16.229  -0.197   6.928  1.00  0.00     0.031 C 
ATOM     60  C   UNL     1      17.297   5.632   5.638  1.00  0.00     0.029 A 
ATOM     61  C   UNL     1      16.672   4.425   5.899  1.00  0.00     0.049 A 
ATOM     62  H   UNL     1      14.606   3.989   5.979  1.00  0.00     0.167 HD
ATOM     63  C   UNL     1      16.562   2.019   6.457  1.00  0.00     0.074 A 
ATOM     64  C   UNL     1      17.155   0.734   6.755  1.00  0.00     0.031 C 
ATOM     65  C   UNL     1      17.274   3.144   6.188  1.00  0.00     0.034 A 
BRANCH  52  66
ATOM     66  C   UNL     1      13.709   8.062   4.968  1.00  0.00     0.023 A 
ATOM     67  C   UNL     1      13.104   9.040   5.776  1.00  0.00     0.031 A 
ATOM     68  C   UNL     1      14.270   8.477   3.746  1.00  0.00     0.131 A 
ATOM     69  C   UNL     1      13.008  10.365   5.320  1.00  0.00     0.055 A 
ATOM     70  C   UNL     1      14.250   9.812   3.339  1.00  0.00     0.041 A 
ATOM     71  F   UNL     1      14.847   7.588   2.922  1.00  0.00    -0.206 F 
ATOM     72  C   UNL     1      13.602  10.763   4.121  1.00  0.00     0.022 A 
BRANCH  69  73
ATOM     73  S   UNL     1      11.967  11.526   6.246  1.00  0.00     0.124 S 
ATOM     74  O   UNL     1      10.678  10.837   6.237  1.00  0.00    -0.237 OA
ATOM     75  O   UNL     1      12.644  11.599   7.535  1.00  0.00    -0.237 OA
ATOM     76  O   UNL     1      12.017  12.746   5.443  1.00  0.00    -0.744 OA
ENDBRANCH  69  73
ENDBRANCH  52  66
BRANCH  53  77
ATOM     77  C   UNL     1      13.714  -1.620   7.352  1.00  0.00     0.023 A 
ATOM     78  C   UNL     1      14.338  -2.107   8.512  1.00  0.00     0.031 A 
ATOM     79  C   UNL     1      13.179  -2.560   6.452  1.00  0.00     0.131 A 
ATOM     80  C   UNL     1      14.460  -3.491   8.715  1.00  0.00     0.055 A 
ATOM     81  C   UNL     1      13.245  -3.934   6.690  1.00  0.00     0.041 A 
ATOM     82  F   UNL     1      12.575  -2.153   5.323  1.00  0.00    -0.206 F 
ATOM     83  C   UNL     1      13.902  -4.407   7.821  1.00  0.00     0.022 A 
BRANCH  80  84
ATOM     84  S   UNL     1      15.453  -4.082  10.114  1.00  0.00     0.124 S 
ATOM     85  O   UNL     1      16.751  -3.480   9.830  1.00  0.00    -0.237 OA
ATOM     86  O   UNL     1      14.726  -3.534  11.254  1.00  0.00    -0.237 OA
ATOM     87  O   UNL     1      15.396  -5.536   9.981  1.00  0.00    -0.744 OA
ENDBRANCH  80  84
ENDBRANCH  53  77
BRANCH  65  88
ATOM     88  C   UNL     1      18.783   3.053   6.260  1.00  0.00     0.023 A 
ATOM     89  C   UNL     1      19.529   2.252   5.376  1.00  0.00     0.031 A 
ATOM     90  C   UNL     1      19.488   3.778   7.240  1.00  0.00     0.131 A 
ATOM     91  C   UNL     1      20.923   2.150   5.526  1.00  0.00     0.055 A 
ATOM     92  C   UNL     1      20.880   3.726   7.341  1.00  0.00     0.041 A 
ATOM     93  F   UNL     1      18.834   4.555   8.118  1.00  0.00    -0.206 F 
ATOM     94  C   UNL     1      21.604   2.898   6.490  1.00  0.00     0.022 A 
BRANCH  91  95
ATOM     95  S   UNL     1      21.826   0.947   4.511  1.00  0.00     0.124 S 
ATOM     96  O   UNL     1      21.158  -0.303   4.856  1.00  0.00    -0.237 OA
ATOM     97  O   UNL     1      21.592   1.442   3.158  1.00  0.00    -0.237 OA
ATOM     98  O   UNL     1      23.205   1.065   4.983  1.00  0.00    -0.744 OA
ENDBRANCH  91  95
ENDBRANCH  65  88
ENDBRANCH  39  40
ENDBRANCH  31  34
ENDBRANCH  29  30
ENDBRANCH  28  29
ENDBRANCH   1  28
TORSDOF 18
