REMARK SMILES O=C(NCCCCNC(=O)[C@H]1O[C@@H](Oc2c(-c3cc(O)c(O)c(O)c3)oc3cc(O)cc(O)c3c2=O)[C@H](O)[C@@H](O)[C@@H]1O)c1ccc(-c2c3nc(c(-c4cc(S(=O)(=O)[O-])ccc4F)c4ccc([nH]4)c(-c4cc(S(=O)(=O)[O-])ccc4F)c4nc(c(-c5cc(S(=O)(=O)[O-])ccc5F)c5ccc2[nH]5)C=C4)C=C3)cc1
REMARK SMILES IDX 6 1 5 2 4 3 3 4 1 5 2 6 43 8 44 9 105 10 45 11 104 12 46 13
REMARK SMILES IDX 47 14 48 15 98 16 49 17 103 18 97 19 99 20 50 21 102 22
REMARK SMILES IDX 96 23 95 24 51 26 83 27 63 28 82 29 64 30 67 31 81 32 100 33
REMARK SMILES IDX 65 34 66 35 80 37 101 38 68 39 52 40 53 41 61 42 54 43 60 44
REMARK SMILES IDX 62 45 59 46 55 47 56 48 57 49 58 50 84 51 85 52 93 53 86 54
REMARK SMILES IDX 92 55 94 56 91 57 87 58 88 59 89 60 90 61 69 62 70 63 78 64
REMARK SMILES IDX 71 65 77 66 79 67 76 68 72 69 73 70 74 71 75 72 7 73 8 74
REMARK SMILES IDX 9 75 10 77 11 78 12 79 41 80 13 81 39 82 37 83 42 84 14 86
REMARK SMILES IDX 15 87 16 88 35 89 26 90 34 91 36 92 27 93 32 94 28 95 31 96
REMARK SMILES IDX 29 97 17 98 18 99 25 100 19 101 23 102 21 103 20 104 24 106
REMARK SMILES IDX 22 108 33 110 30 112 40 114 38 116
REMARK H PARENT 3 7 99 25 67 36 8 76 42 85 20 105 24 107 22 109 33 111 30 113
REMARK H PARENT 40 115 38 117
REMARK Flexibility Score: inf
ROOT
ATOM      1  C   UNL     1      10.205  -3.671  -6.029  1.00  0.00     0.023 C 
ENDROOT
BRANCH   1   2
ATOM      2  C   UNL     1      10.884  -3.353  -7.352  1.00  0.00     0.023 C 
BRANCH   2   3
ATOM      3  C   UNL     1      11.101  -1.874  -7.618  1.00  0.00     0.116 C 
BRANCH   3   4
ATOM      4  N   UNL     1      11.934  -1.219  -6.617  1.00  0.00    -0.352 N 
ATOM      5  O   UNL     1      13.671   0.012  -5.854  1.00  0.00    -0.269 OA
ATOM      6  C   UNL     1      13.008  -0.378  -6.810  1.00  0.00     0.251 C 
ATOM      7  H   UNL     1      11.699  -1.402  -5.678  1.00  0.00     0.163 HD
BRANCH   6   8
ATOM      8  C   UNL     1      13.372   0.015  -8.188  1.00  0.00     0.039 A 
ATOM      9  C   UNL     1      12.382   0.424  -9.082  1.00  0.00     0.014 A 
ATOM     10  C   UNL     1      14.698  -0.106  -8.608  1.00  0.00     0.014 A 
ATOM     11  C   UNL     1      12.681   0.520 -10.434  1.00  0.00     0.010 A 
ATOM     12  C   UNL     1      15.016   0.099  -9.955  1.00  0.00     0.010 A 
ATOM     13  C   UNL     1      14.001   0.360 -10.889  1.00  0.00    -0.014 A 
BRANCH  13  14
ATOM     14  C   UNL     1      14.278   0.486 -12.345  1.00  0.00     0.031 A 
ATOM     15  C   UNL     1      14.802  -0.679 -13.142  1.00  0.00     0.074 A 
ATOM     16  C   UNL     1      13.992   1.652 -12.956  1.00  0.00     0.049 A 
ATOM     17  N   UNL     1      15.053  -0.754 -14.425  1.00  0.00    -0.248 NA
ATOM     18  C   UNL     1      15.094  -1.916 -12.404  1.00  0.00     0.031 C 
ATOM     19  C   UNL     1      13.484   2.851 -12.282  1.00  0.00     0.029 A 
ATOM     20  N   UNL     1      14.050   2.016 -14.276  1.00  0.00    -0.354 N 
ATOM     21  C   UNL     1      15.559  -2.032 -14.645  1.00  0.00     0.074 A 
ATOM     22  C   UNL     1      15.606  -2.686 -13.354  1.00  0.00     0.031 C 
ATOM     23  C   UNL     1      13.212   3.790 -13.198  1.00  0.00     0.029 A 
ATOM     24  C   UNL     1      13.595   3.292 -14.514  1.00  0.00     0.049 A 
ATOM     25  H   UNL     1      14.385   1.421 -14.985  1.00  0.00     0.167 HD
ATOM     26  C   UNL     1      15.944  -2.603 -15.815  1.00  0.00     0.034 A 
ATOM     27  C   UNL     1      13.503   3.991 -15.661  1.00  0.00     0.034 A 
ATOM     28  C   UNL     1      15.869  -1.940 -17.097  1.00  0.00     0.049 A 
ATOM     29  C   UNL     1      13.940   3.335 -16.941  1.00  0.00     0.074 A 
ATOM     30  C   UNL     1      16.197  -2.437 -18.347  1.00  0.00     0.029 A 
ATOM     31  N   UNL     1      15.441  -0.632 -17.294  1.00  0.00    -0.354 N 
ATOM     32  N   UNL     1      14.409   2.123 -17.130  1.00  0.00    -0.248 NA
ATOM     33  C   UNL     1      13.832   4.141 -18.162  1.00  0.00     0.031 C 
ATOM     34  C   UNL     1      16.026  -1.415 -19.288  1.00  0.00     0.029 A 
ATOM     35  C   UNL     1      15.522  -0.299 -18.639  1.00  0.00     0.049 A 
ATOM     36  H   UNL     1      15.125  -0.030 -16.583  1.00  0.00     0.167 HD
ATOM     37  C   UNL     1      14.634   2.017 -18.498  1.00  0.00     0.074 A 
ATOM     38  C   UNL     1      14.228   3.278 -19.085  1.00  0.00     0.031 C 
ATOM     39  C   UNL     1      15.132   0.971 -19.206  1.00  0.00     0.034 A 
BRANCH  26  40
ATOM     40  C   UNL     1      16.528  -3.997 -15.752  1.00  0.00     0.023 A 
ATOM     41  C   UNL     1      15.772  -5.107 -15.338  1.00  0.00     0.031 A 
ATOM     42  C   UNL     1      17.876  -4.212 -16.093  1.00  0.00     0.131 A 
ATOM     43  C   UNL     1      16.384  -6.364 -15.208  1.00  0.00     0.055 A 
ATOM     44  C   UNL     1      18.460  -5.479 -16.034  1.00  0.00     0.041 A 
ATOM     45  F   UNL     1      18.656  -3.188 -16.477  1.00  0.00    -0.206 F 
ATOM     46  C   UNL     1      17.717  -6.562 -15.576  1.00  0.00     0.022 A 
BRANCH  43  47
ATOM     47  S   UNL     1      15.455  -7.707 -14.417  1.00  0.00     0.124 S 
ATOM     48  O   UNL     1      15.126  -7.117 -13.121  1.00  0.00    -0.237 OA
ATOM     49  O   UNL     1      14.337  -7.900 -15.333  1.00  0.00    -0.237 OA
ATOM     50  O   UNL     1      16.416  -8.807 -14.364  1.00  0.00    -0.744 OA
ENDBRANCH  43  47
ENDBRANCH  26  40
BRANCH  27  51
ATOM     51  C   UNL     1      12.998   5.391 -15.645  1.00  0.00     0.023 A 
ATOM     52  C   UNL     1      11.802   5.737 -16.294  1.00  0.00     0.031 A 
ATOM     53  C   UNL     1      13.715   6.410 -14.993  1.00  0.00     0.131 A 
ATOM     54  C   UNL     1      11.378   7.074 -16.307  1.00  0.00     0.055 A 
ATOM     55  C   UNL     1      13.262   7.729 -14.964  1.00  0.00     0.041 A 
ATOM     56  F   UNL     1      14.861   6.129 -14.352  1.00  0.00    -0.206 F 
ATOM     57  C   UNL     1      12.092   8.069 -15.635  1.00  0.00     0.022 A 
BRANCH  54  58
ATOM     58  S   UNL     1       9.911   7.509 -17.280  1.00  0.00     0.124 S 
ATOM     59  O   UNL     1      10.293   7.059 -18.613  1.00  0.00    -0.237 OA
ATOM     60  O   UNL     1       8.867   6.735 -16.615  1.00  0.00    -0.237 OA
ATOM     61  O   UNL     1       9.810   8.957 -17.114  1.00  0.00    -0.744 OA
ENDBRANCH  54  58
ENDBRANCH  27  51
BRANCH  39  62
ATOM     62  C   UNL     1      15.222   1.152 -20.701  1.00  0.00     0.023 A 
ATOM     63  C   UNL     1      16.109   2.077 -21.280  1.00  0.00     0.031 A 
ATOM     64  C   UNL     1      14.377   0.421 -21.554  1.00  0.00     0.131 A 
ATOM     65  C   UNL     1      16.084   2.296 -22.665  1.00  0.00     0.055 A 
ATOM     66  C   UNL     1      14.398   0.600 -22.937  1.00  0.00     0.041 A 
ATOM     67  F   UNL     1      13.509  -0.473 -21.054  1.00  0.00    -0.206 F 
ATOM     68  C   UNL     1      15.243   1.553 -23.499  1.00  0.00     0.022 A 
BRANCH  65  69
ATOM     69  S   UNL     1      17.086   3.643 -23.352  1.00  0.00     0.124 S 
ATOM     70  O   UNL     1      16.599   4.797 -22.604  1.00  0.00    -0.237 OA
ATOM     71  O   UNL     1      18.445   3.209 -23.041  1.00  0.00    -0.237 OA
ATOM     72  O   UNL     1      16.744   3.635 -24.773  1.00  0.00    -0.744 OA
ENDBRANCH  65  69
ENDBRANCH  39  62
ENDBRANCH  13  14
ENDBRANCH   6   8
ENDBRANCH   3   4
ENDBRANCH   2   3
ENDBRANCH   1   2
BRANCH   1  73
ATOM     73  C   UNL     1       8.863  -2.975  -5.793  1.00  0.00     0.116 C 
BRANCH  73  74
ATOM     74  N   UNL     1       7.821  -3.321  -6.755  1.00  0.00    -0.354 N 
ATOM     75  C   UNL     1       6.614  -3.958  -6.546  1.00  0.00     0.252 C 
ATOM     76  H   UNL     1       8.005  -3.063  -7.686  1.00  0.00     0.163 HD
ATOM     77  O   UNL     1       5.837  -4.097  -7.490  1.00  0.00    -0.272 OA
BRANCH  75  78
ATOM     78  C   UNL     1       6.287  -4.451  -5.125  1.00  0.00     0.242 C 
ATOM     79  O   UNL     1       4.907  -4.584  -4.745  1.00  0.00    -0.324 OA
ATOM     80  C   UNL     1       6.914  -5.829  -4.889  1.00  0.00     0.184 C 
ATOM     81  C   UNL     1       4.797  -4.609  -3.312  1.00  0.00     0.340 C 
ATOM     82  C   UNL     1       7.015  -6.000  -3.377  1.00  0.00     0.181 C 
ATOM     83  C   UNL     1       5.697  -5.700  -2.671  1.00  0.00     0.214 C 
BRANCH  80  84
ATOM     84  O   UNL     1       8.217  -6.011  -5.424  1.00  0.00    -0.387 OA
ATOM     85  H   UNL     1       8.829  -5.385  -5.006  1.00  0.00     0.211 HD
ENDBRANCH  80  84
BRANCH  81  86
ATOM     86  O   UNL     1       3.464  -4.789  -2.777  1.00  0.00    -0.454 OA
BRANCH  86  87
ATOM     87  C   UNL     1       2.495  -5.334  -3.595  1.00  0.00     0.214 A 
ATOM     88  C   UNL     1       2.166  -6.644  -3.601  1.00  0.00     0.181 A 
ATOM     89  C   UNL     1       1.596  -4.385  -4.321  1.00  0.00     0.239 A 
ATOM     90  O   UNL     1       1.138  -7.198  -4.333  1.00  0.00    -0.452 OA
ATOM     91  C   UNL     1       0.387  -4.969  -4.959  1.00  0.00     0.111 A 
ATOM     92  O   UNL     1       1.841  -3.184  -4.326  1.00  0.00    -0.285 OA
ATOM     93  C   UNL     1       0.238  -6.356  -4.929  1.00  0.00     0.146 A 
ATOM     94  C   UNL     1      -0.618  -4.200  -5.567  1.00  0.00     0.134 A 
ATOM     95  C   UNL     1      -0.877  -6.973  -5.503  1.00  0.00     0.094 A 
ATOM     96  C   UNL     1      -1.740  -4.811  -6.141  1.00  0.00     0.093 A 
ATOM     97  C   UNL     1      -1.858  -6.196  -6.102  1.00  0.00     0.123 A 
BRANCH  88  98
ATOM     98  C   UNL     1       2.928  -7.657  -2.850  1.00  0.00     0.029 A 
ATOM     99  C   UNL     1       3.692  -8.599  -3.565  1.00  0.00     0.062 A 
ATOM    100  C   UNL     1       3.027  -7.602  -1.447  1.00  0.00     0.062 A 
ATOM    101  C   UNL     1       4.622  -9.383  -2.890  1.00  0.00     0.162 A 
ATOM    102  C   UNL     1       3.961  -8.399  -0.794  1.00  0.00     0.162 A 
ATOM    103  C   UNL     1       4.784  -9.256  -1.516  1.00  0.00     0.200 A 
BRANCH 101 104
ATOM    104  O   UNL     1       5.439 -10.203  -3.611  1.00  0.00    -0.504 OA
ATOM    105  H   UNL     1       5.323 -10.283  -4.538  1.00  0.00     0.293 HD
ENDBRANCH 101 104
BRANCH 102 106
ATOM    106  O   UNL     1       4.145  -8.247   0.550  1.00  0.00    -0.504 OA
ATOM    107  H   UNL     1       4.772  -8.778   1.000  1.00  0.00     0.293 HD
ENDBRANCH 102 106
BRANCH 103 108
ATOM    108  O   UNL     1       5.824  -9.868  -0.870  1.00  0.00    -0.502 OA
ATOM    109  H   UNL     1       6.389 -10.449  -1.339  1.00  0.00     0.293 HD
ENDBRANCH 103 108
ENDBRANCH  88  98
BRANCH  94 110
ATOM    110  O   UNL     1      -0.543  -2.836  -5.585  1.00  0.00    -0.507 OA
ATOM    111  H   UNL     1      -1.221  -2.335  -5.994  1.00  0.00     0.293 HD
ENDBRANCH  94 110
BRANCH  97 112
ATOM    112  O   UNL     1      -2.937  -6.838  -6.632  1.00  0.00    -0.508 OA
ATOM    113  H   UNL     1      -2.992  -7.773  -6.593  1.00  0.00     0.293 HD
ENDBRANCH  97 112
ENDBRANCH  86  87
ENDBRANCH  81  86
BRANCH  82 114
ATOM    114  O   UNL     1       7.436  -7.353  -3.072  1.00  0.00    -0.387 OA
ATOM    115  H   UNL     1       6.774  -7.980  -3.402  1.00  0.00     0.211 HD
ENDBRANCH  82 114
BRANCH  83 116
ATOM    116  O   UNL     1       5.960  -5.417  -1.288  1.00  0.00    -0.384 OA
ATOM    117  H   UNL     1       6.495  -4.611  -1.219  1.00  0.00     0.211 HD
ENDBRANCH  83 116
ENDBRANCH  75  78
ENDBRANCH  73  74
ENDBRANCH   1  73
TORSDOF 25
