REMARK SMILES Cc1nc(Nc2ccc(F)cc2)nc(OCC(=O)NCCCCNC(=O)c2ccc(-c3c4nc(c(-c5cc(S(=O)(=O)[O-])ccc5F)c5ccc([nH]5)c(-c5cc(S(=O)(=O)[O-])ccc5F)c5nc(c(-c6cc(S(=O)(=O)[O-])ccc6F)c6ccc3[nH]6)C=C5)C=C4)cc2)c1CCO
REMARK SMILES IDX 20 1 19 2 17 3 18 4 16 6 15 7 14 8 1 9 2 10 3 11 90 12 4 13
REMARK SMILES IDX 13 14 91 15 92 16 93 17 5 19 6 21 7 22 12 23 8 24 11 25 9 26
REMARK SMILES IDX 10 27 21 28 22 29 23 30 24 31 25 32 26 34 27 35 28 36 89 37
REMARK SMILES IDX 29 38 88 39 30 40 31 41 32 42 82 43 33 44 87 45 81 46 83 47
REMARK SMILES IDX 34 48 86 49 80 50 79 51 35 53 67 54 47 55 66 56 48 57 51 58
REMARK SMILES IDX 65 59 84 60 49 61 50 62 64 64 85 65 52 66 36 67 37 68 45 69
REMARK SMILES IDX 38 70 44 71 46 72 43 73 39 74 40 75 41 76 42 77 68 78 69 79
REMARK SMILES IDX 77 80 70 81 76 82 78 83 75 84 71 85 72 86 73 87 74 88 53 89
REMARK SMILES IDX 54 90 62 91 55 92 61 93 63 94 60 95 56 96 57 97 58 98 59 99
REMARK H PARENT 19 5 93 18 5 20 24 33 83 52 51 63
REMARK Flexibility Score: inf
ROOT
ATOM      1  C   UNL     1       2.949  -3.135   2.809  1.00  0.00     0.116 C 
ENDROOT
BRANCH   1   2
ATOM      2  N   UNL     1       1.643  -3.741   2.680  1.00  0.00    -0.353 N 
ATOM      3  C   UNL     1       0.940  -4.010   1.550  1.00  0.00     0.258 C 
ATOM      4  O   UNL     1      -0.141  -4.591   1.668  1.00  0.00    -0.271 OA
ATOM      5  H   UNL     1       1.204  -3.992   3.525  1.00  0.00     0.163 HD
BRANCH   3   6
ATOM      6  C   UNL     1       1.531  -3.661   0.176  1.00  0.00     0.331 C 
BRANCH   6   7
ATOM      7  O   UNL     1       1.772  -2.331  -0.231  1.00  0.00    -0.467 OA
BRANCH   7   8
ATOM      8  C   UNL     1       0.853  -1.340  -0.087  1.00  0.00     0.222 A 
ATOM      9  C   UNL     1      -2.700  -0.090  -0.047  1.00  0.00     0.067 C 
ATOM     10  C   UNL     1      -1.208  -0.240   0.002  1.00  0.00     0.050 A 
ATOM     11  N   UNL     1      -0.573   0.929   0.202  1.00  0.00    -0.218 NA
ATOM     12  C   UNL     1      -0.527  -1.432  -0.239  1.00  0.00     0.038 A 
ATOM     13  C   UNL     1       0.757   0.955   0.164  1.00  0.00     0.230 A 
ATOM     14  N   UNL     1       1.491  -0.154   0.059  1.00  0.00    -0.177 NA
BRANCH  12  15
ATOM     15  C   UNL     1      -1.266  -2.641  -0.752  1.00  0.00     0.071 C 
BRANCH  15  16
ATOM     16  C   UNL     1      -1.117  -2.881  -2.258  1.00  0.00     0.161 C 
BRANCH  16  17
ATOM     17  O   UNL     1       0.225  -3.103  -2.667  1.00  0.00    -0.396 OA
ATOM     18  H   UNL     1       0.758  -2.316  -2.471  1.00  0.00     0.210 HD
ENDBRANCH  16  17
ENDBRANCH  15  16
ENDBRANCH  12  15
BRANCH  13  19
ATOM     19  N   UNL     1       1.410   2.187   0.075  1.00  0.00    -0.324 N 
ATOM     20  H   UNL     1       2.392   2.155   0.013  1.00  0.00     0.170 HD
BRANCH  19  21
ATOM     21  C   UNL     1       0.829   3.462   0.063  1.00  0.00     0.041 A 
ATOM     22  C   UNL     1      -0.143   3.828   1.008  1.00  0.00     0.029 A 
ATOM     23  C   UNL     1       1.105   4.354  -0.985  1.00  0.00     0.029 A 
ATOM     24  C   UNL     1      -0.814   5.049   0.921  1.00  0.00     0.041 A 
ATOM     25  C   UNL     1       0.419   5.569  -1.088  1.00  0.00     0.041 A 
ATOM     26  C   UNL     1      -0.534   5.904  -0.134  1.00  0.00     0.123 A 
ATOM     27  F   UNL     1      -1.203   7.060  -0.244  1.00  0.00    -0.207 F 
ENDBRANCH  19  21
ENDBRANCH  13  19
ENDBRANCH   7   8
ENDBRANCH   6   7
ENDBRANCH   3   6
ENDBRANCH   1   2
BRANCH   1  28
ATOM     28  C   UNL     1       2.881  -1.779   3.503  1.00  0.00     0.023 C 
BRANCH  28  29
ATOM     29  C   UNL     1       2.213  -1.783   4.882  1.00  0.00     0.023 C 
BRANCH  29  30
ATOM     30  C   UNL     1       2.665  -2.878   5.842  1.00  0.00     0.116 C 
BRANCH  30  31
ATOM     31  N   UNL     1       4.103  -2.901   6.052  1.00  0.00    -0.352 N 
ATOM     32  C   UNL     1       4.800  -3.058   7.225  1.00  0.00     0.251 C 
ATOM     33  H   UNL     1       4.652  -2.789   5.242  1.00  0.00     0.163 HD
ATOM     34  O   UNL     1       6.024  -2.958   7.225  1.00  0.00    -0.269 OA
BRANCH  32  35
ATOM     35  C   UNL     1       4.066  -3.302   8.484  1.00  0.00     0.039 A 
ATOM     36  C   UNL     1       4.360  -2.505   9.593  1.00  0.00     0.014 A 
ATOM     37  C   UNL     1       3.071  -4.281   8.561  1.00  0.00     0.014 A 
ATOM     38  C   UNL     1       3.607  -2.644  10.760  1.00  0.00     0.010 A 
ATOM     39  C   UNL     1       2.278  -4.371   9.703  1.00  0.00     0.010 A 
ATOM     40  C   UNL     1       2.535  -3.550  10.812  1.00  0.00    -0.014 A 
BRANCH  40  41
ATOM     41  C   UNL     1       1.670  -3.644  12.017  1.00  0.00     0.031 A 
ATOM     42  C   UNL     1       1.632  -4.915  12.820  1.00  0.00     0.074 A 
ATOM     43  C   UNL     1       0.888  -2.601  12.360  1.00  0.00     0.049 A 
ATOM     44  N   UNL     1       0.892  -5.212  13.857  1.00  0.00    -0.248 NA
ATOM     45  C   UNL     1       2.524  -6.002  12.388  1.00  0.00     0.031 C 
ATOM     46  C   UNL     1       0.817  -1.326  11.640  1.00  0.00     0.029 A 
ATOM     47  N   UNL     1       0.005  -2.442  13.399  1.00  0.00    -0.354 N 
ATOM     48  C   UNL     1       1.220  -6.520  14.194  1.00  0.00     0.074 A 
ATOM     49  C   UNL     1       2.189  -6.976  13.222  1.00  0.00     0.031 C 
ATOM     50  C   UNL     1      -0.036  -0.508  12.278  1.00  0.00     0.029 A 
ATOM     51  C   UNL     1      -0.608  -1.210  13.423  1.00  0.00     0.049 A 
ATOM     52  H   UNL     1      -0.174  -3.145  14.065  1.00  0.00     0.167 HD
ATOM     53  C   UNL     1       0.768  -7.263  15.232  1.00  0.00     0.034 A 
ATOM     54  C   UNL     1      -1.532  -0.705  14.263  1.00  0.00     0.034 A 
ATOM     55  C   UNL     1      -0.175  -6.788  16.212  1.00  0.00     0.049 A 
ATOM     56  C   UNL     1      -2.033  -1.558  15.399  1.00  0.00     0.074 A 
ATOM     57  C   UNL     1      -0.649  -7.444  17.334  1.00  0.00     0.029 A 
ATOM     58  N   UNL     1      -0.786  -5.542  16.189  1.00  0.00    -0.354 N 
ATOM     59  N   UNL     1      -1.701  -2.789  15.709  1.00  0.00    -0.248 NA
ATOM     60  C   UNL     1      -3.031  -0.958  16.294  1.00  0.00     0.031 C 
ATOM     61  C   UNL     1      -1.592  -6.621  17.956  1.00  0.00     0.029 A 
ATOM     62  C   UNL     1      -1.655  -5.423  17.262  1.00  0.00     0.049 A 
ATOM     63  H   UNL     1      -0.626  -4.846  15.512  1.00  0.00     0.167 HD
ATOM     64  C   UNL     1      -2.435  -3.103  16.848  1.00  0.00     0.074 A 
ATOM     65  C   UNL     1      -3.224  -1.933  17.173  1.00  0.00     0.031 C 
ATOM     66  C   UNL     1      -2.447  -4.255  17.564  1.00  0.00     0.034 A 
BRANCH  53  67
ATOM     67  C   UNL     1       1.278  -8.675  15.360  1.00  0.00     0.023 A 
ATOM     68  C   UNL     1       2.616  -8.947  15.688  1.00  0.00     0.031 A 
ATOM     69  C   UNL     1       0.403  -9.761  15.182  1.00  0.00     0.131 A 
ATOM     70  C   UNL     1       3.052 -10.276  15.791  1.00  0.00     0.055 A 
ATOM     71  C   UNL     1       0.829 -11.080  15.347  1.00  0.00     0.041 A 
ATOM     72  F   UNL     1      -0.881  -9.557  14.850  1.00  0.00    -0.206 F 
ATOM     73  C   UNL     1       2.162 -11.344  15.648  1.00  0.00     0.022 A 
BRANCH  70  74
ATOM     74  S   UNL     1       4.818 -10.595  16.046  1.00  0.00     0.124 S 
ATOM     75  O   UNL     1       5.390 -10.095  14.799  1.00  0.00    -0.237 OA
ATOM     76  O   UNL     1       5.113  -9.814  17.242  1.00  0.00    -0.237 OA
ATOM     77  O   UNL     1       4.883 -12.045  16.218  1.00  0.00    -0.744 OA
ENDBRANCH  70  74
ENDBRANCH  53  67
BRANCH  54  78
ATOM     78  C   UNL     1      -2.053   0.675  14.054  1.00  0.00     0.023 A 
ATOM     79  C   UNL     1      -1.738   1.710  14.947  1.00  0.00     0.031 A 
ATOM     80  C   UNL     1      -2.867   0.977  12.947  1.00  0.00     0.131 A 
ATOM     81  C   UNL     1      -2.252   2.999  14.729  1.00  0.00     0.055 A 
ATOM     82  C   UNL     1      -3.344   2.268  12.715  1.00  0.00     0.041 A 
ATOM     83  F   UNL     1      -3.187   0.022  12.060  1.00  0.00    -0.206 F 
ATOM     84  C   UNL     1      -3.041   3.287  13.613  1.00  0.00     0.022 A 
BRANCH  81  85
ATOM     85  S   UNL     1      -1.893   4.298  15.944  1.00  0.00     0.124 S 
ATOM     86  O   UNL     1      -2.576   3.791  17.129  1.00  0.00    -0.237 OA
ATOM     87  O   UNL     1      -0.435   4.282  15.986  1.00  0.00    -0.237 OA
ATOM     88  O   UNL     1      -2.483   5.494  15.346  1.00  0.00    -0.744 OA
ENDBRANCH  81  85
ENDBRANCH  54  78
BRANCH  66  89
ATOM     89  C   UNL     1      -3.320  -4.305  18.789  1.00  0.00     0.023 A 
ATOM     90  C   UNL     1      -4.718  -4.384  18.691  1.00  0.00     0.031 A 
ATOM     91  C   UNL     1      -2.737  -4.336  20.068  1.00  0.00     0.131 A 
ATOM     92  C   UNL     1      -5.493  -4.468  19.858  1.00  0.00     0.055 A 
ATOM     93  C   UNL     1      -3.509  -4.465  21.222  1.00  0.00     0.041 A 
ATOM     94  F   UNL     1      -1.403  -4.267  20.212  1.00  0.00    -0.206 F 
ATOM     95  C   UNL     1      -4.896  -4.527  21.121  1.00  0.00     0.022 A 
BRANCH  92  96
ATOM     96  S   UNL     1      -7.300  -4.474  19.708  1.00  0.00     0.124 S 
ATOM     97  O   UNL     1      -7.562  -3.144  19.168  1.00  0.00    -0.237 OA
ATOM     98  O   UNL     1      -7.538  -5.590  18.797  1.00  0.00    -0.237 OA
ATOM     99  O   UNL     1      -7.757  -4.689  21.080  1.00  0.00    -0.744 OA
ENDBRANCH  92  96
ENDBRANCH  66  89
ENDBRANCH  40  41
ENDBRANCH  32  35
ENDBRANCH  30  31
ENDBRANCH  29  30
ENDBRANCH  28  29
ENDBRANCH   1  28
TORSDOF 21
