REMARK SMILES COc1ccc(/C=C2/SC(=S)N(NS(=O)(=O)c3ccccc3)C2=O)c(C(=O)NCCCCNC(=O)c2ccc(-c3c4nc(c(-c5cc(S(=O)(=O)[O-])ccc5F)c5ccc([nH]5)c(-c5cc(S(=O)(=O)[O-])ccc5F)c5nc(c(-c6cc(S(=O)(=O)[O-])ccc6F)c6ccc3[nH]6)C=C5)C=C4)cc2)c1OC
REMARK SMILES IDX 30 1 29 2 28 3 26 4 27 5 25 7 3 8 4 9 99 10 5 11 6 12 2 13
REMARK SMILES IDX 1 14 100 15 101 16 7 17 8 18 9 19 23 20 10 21 12 22 24 23
REMARK SMILES IDX 11 24 13 25 14 27 15 28 16 29 17 30 18 31 22 32 19 33 21 34
REMARK SMILES IDX 20 35 31 36 32 37 33 38 34 39 35 41 36 42 37 43 98 44 38 45
REMARK SMILES IDX 97 46 39 47 40 48 41 49 91 50 42 51 96 52 90 53 92 54 43 55
REMARK SMILES IDX 95 56 89 57 88 58 44 60 76 61 56 62 75 63 57 64 60 65 74 66
REMARK SMILES IDX 93 67 58 68 59 69 73 71 94 72 61 73 45 74 46 75 54 76 47 77
REMARK SMILES IDX 53 78 55 79 52 80 48 81 49 82 50 83 51 84 77 85 78 86 86 87
REMARK SMILES IDX 79 88 85 89 87 90 84 91 80 92 81 93 82 94 83 95 62 96 63 97
REMARK SMILES IDX 71 98 64 99 70 100 72 101 69 102 65 103 66 104 67 105 68 106
REMARK H PARENT 28 6 13 26 33 40 92 59 60 70
REMARK Flexibility Score: inf
ROOT
ATOM      1  C   UNL     1       5.928   1.211   1.601  1.00  0.00     0.023 C 
ENDROOT
BRANCH   1   2
ATOM      2  C   UNL     1       4.868   0.193   1.987  1.00  0.00     0.116 C 
BRANCH   2   3
ATOM      3  N   UNL     1       4.946  -0.443   3.281  1.00  0.00    -0.352 N 
ATOM      4  C   UNL     1       3.923  -1.098   3.960  1.00  0.00     0.255 C 
ATOM      5  O   UNL     1       4.246  -1.893   4.842  1.00  0.00    -0.269 OA
ATOM      6  H   UNL     1       5.821  -0.411   3.733  1.00  0.00     0.163 HD
BRANCH   4   7
ATOM      7  C   UNL     1       2.469  -0.745   3.765  1.00  0.00     0.092 A 
ATOM      8  C   UNL     1       0.662   0.056   2.352  1.00  0.00     0.161 A 
ATOM      9  C   UNL     1      -0.056   0.416   3.501  1.00  0.00     0.051 A 
ATOM     10  C   UNL     1       1.888  -0.619   2.474  1.00  0.00     0.174 A 
ATOM     11  C   UNL     1       0.429   0.114   4.775  1.00  0.00     0.013 A 
ATOM     12  C   UNL     1       1.703  -0.441   4.928  1.00  0.00    -0.007 A 
BRANCH   8  13
ATOM     13  O   UNL     1       0.231   0.657   1.197  1.00  0.00    -0.493 OA
ATOM     14  C   UNL     1      -0.411  -0.192   0.255  1.00  0.00     0.278 C 
ENDBRANCH   8  13
BRANCH  10  15
ATOM     15  O   UNL     1       2.548  -1.278   1.468  1.00  0.00    -0.492 OA
ATOM     16  C   UNL     1       2.530  -0.786   0.135  1.00  0.00     0.278 C 
ENDBRANCH  10  15
BRANCH  12  17
ATOM     17  C   UNL     1       2.191  -0.688   6.305  1.00  0.00     0.030 C 
ATOM     18  C   UNL     1       2.832   0.204   7.074  1.00  0.00     0.082 C 
ATOM     19  S   UNL     1       3.784  -0.211   8.455  1.00  0.00    -0.053 SA
ATOM     20  C   UNL     1       3.078   1.623   6.724  1.00  0.00     0.281 C 
ATOM     21  C   UNL     1       4.875   1.148   8.171  1.00  0.00     0.164 C 
ATOM     22  N   UNL     1       4.328   1.974   7.206  1.00  0.00    -0.209 N 
ATOM     23  O   UNL     1       2.259   2.310   6.136  1.00  0.00    -0.267 OA
ATOM     24  S   UNL     1       6.322   1.366   8.971  1.00  0.00    -0.050 S 
BRANCH  22  25
ATOM     25  N   UNL     1       5.093   3.096   6.654  1.00  0.00    -0.114 NA
ATOM     26  H   UNL     1       5.455   2.784   5.754  1.00  0.00     0.168 HD
BRANCH  25  27
ATOM     27  S   UNL     1       4.375   4.601   6.383  1.00  0.00     0.257 S 
ATOM     28  O   UNL     1       3.452   4.836   7.474  1.00  0.00    -0.205 OA
ATOM     29  O   UNL     1       5.476   5.509   6.137  1.00  0.00    -0.205 OA
BRANCH  27  30
ATOM     30  C   UNL     1       3.465   4.496   4.867  1.00  0.00     0.084 A 
ATOM     31  C   UNL     1       2.373   5.359   4.712  1.00  0.00     0.022 A 
ATOM     32  C   UNL     1       3.706   3.484   3.935  1.00  0.00     0.022 A 
ATOM     33  C   UNL     1       1.484   5.174   3.654  1.00  0.00     0.001 A 
ATOM     34  C   UNL     1       2.800   3.301   2.889  1.00  0.00     0.001 A 
ATOM     35  C   UNL     1       1.686   4.129   2.757  1.00  0.00     0.000 A 
ENDBRANCH  27  30
ENDBRANCH  25  27
ENDBRANCH  22  25
ENDBRANCH  12  17
ENDBRANCH   4   7
ENDBRANCH   2   3
ENDBRANCH   1   2
BRANCH   1  36
ATOM     36  C   UNL     1       7.332   0.670   1.375  1.00  0.00     0.023 C 
BRANCH  36  37
ATOM     37  C   UNL     1       7.451  -0.606   0.548  1.00  0.00     0.116 C 
BRANCH  37  38
ATOM     38  N   UNL     1       6.957  -0.490  -0.818  1.00  0.00    -0.352 N 
ATOM     39  C   UNL     1       7.605  -0.739  -2.010  1.00  0.00     0.251 C 
ATOM     40  H   UNL     1       6.022  -0.191  -0.903  1.00  0.00     0.163 HD
ATOM     41  O   UNL     1       7.027  -0.527  -3.073  1.00  0.00    -0.269 OA
BRANCH  39  42
ATOM     42  C   UNL     1       9.011  -1.203  -2.001  1.00  0.00     0.039 A 
ATOM     43  C   UNL     1       9.948  -0.544  -2.801  1.00  0.00     0.014 A 
ATOM     44  C   UNL     1       9.419  -2.235  -1.155  1.00  0.00     0.014 A 
ATOM     45  C   UNL     1      11.307  -0.843  -2.664  1.00  0.00     0.010 A 
ATOM     46  C   UNL     1      10.777  -2.460  -0.947  1.00  0.00     0.010 A 
ATOM     47  C   UNL     1      11.740  -1.758  -1.690  1.00  0.00    -0.014 A 
BRANCH  47  48
ATOM     48  C   UNL     1      13.188  -1.985  -1.420  1.00  0.00     0.031 A 
ATOM     49  C   UNL     1      13.781  -3.359  -1.590  1.00  0.00     0.074 A 
ATOM     50  C   UNL     1      13.949  -0.977  -0.945  1.00  0.00     0.049 A 
ATOM     51  N   UNL     1      14.991  -3.778  -1.321  1.00  0.00    -0.248 NA
ATOM     52  C   UNL     1      12.884  -4.408  -2.099  1.00  0.00     0.031 C 
ATOM     53  C   UNL     1      13.483   0.389  -0.689  1.00  0.00     0.029 A 
ATOM     54  N   UNL     1      15.274  -0.942  -0.581  1.00  0.00    -0.354 N 
ATOM     55  C   UNL     1      14.993  -5.141  -1.603  1.00  0.00     0.074 A 
ATOM     56  C   UNL     1      13.648  -5.486  -2.008  1.00  0.00     0.031 C 
ATOM     57  C   UNL     1      14.510   1.131  -0.243  1.00  0.00     0.029 A 
ATOM     58  C   UNL     1      15.695   0.289  -0.127  1.00  0.00     0.049 A 
ATOM     59  H   UNL     1      15.868  -1.725  -0.639  1.00  0.00     0.167 HD
ATOM     60  C   UNL     1      16.026  -6.017  -1.551  1.00  0.00     0.034 A 
ATOM     61  C   UNL     1      16.895   0.690   0.342  1.00  0.00     0.034 A 
ATOM     62  C   UNL     1      17.369  -5.652  -1.172  1.00  0.00     0.049 A 
ATOM     63  C   UNL     1      18.023  -0.311   0.406  1.00  0.00     0.074 A 
ATOM     64  C   UNL     1      18.505  -6.443  -1.164  1.00  0.00     0.029 A 
ATOM     65  N   UNL     1      17.758  -4.397  -0.723  1.00  0.00    -0.354 N 
ATOM     66  N   UNL     1      18.024  -1.579   0.065  1.00  0.00    -0.248 NA
ATOM     67  C   UNL     1      19.315   0.176   0.909  1.00  0.00     0.031 C 
ATOM     68  C   UNL     1      19.560  -5.691  -0.638  1.00  0.00     0.029 A 
ATOM     69  C   UNL     1      19.106  -4.404  -0.398  1.00  0.00     0.049 A 
ATOM     70  H   UNL     1      17.163  -3.616  -0.646  1.00  0.00     0.167 HD
ATOM     71  C   UNL     1      19.326  -2.027   0.276  1.00  0.00     0.074 A 
ATOM     72  C   UNL     1      20.083  -0.891   0.758  1.00  0.00     0.031 C 
ATOM     73  C   UNL     1      19.850  -3.265   0.085  1.00  0.00     0.034 A 
BRANCH  60  74
ATOM     74  C   UNL     1      15.738  -7.462  -1.887  1.00  0.00     0.023 A 
ATOM     75  C   UNL     1      15.294  -7.854  -3.162  1.00  0.00     0.031 A 
ATOM     76  C   UNL     1      15.900  -8.462  -0.911  1.00  0.00     0.131 A 
ATOM     77  C   UNL     1      14.962  -9.195  -3.406  1.00  0.00     0.055 A 
ATOM     78  C   UNL     1      15.648  -9.807  -1.186  1.00  0.00     0.041 A 
ATOM     79  F   UNL     1      16.300  -8.147   0.331  1.00  0.00    -0.206 F 
ATOM     80  C   UNL     1      15.162 -10.179  -2.436  1.00  0.00     0.022 A 
BRANCH  77  81
ATOM     81  S   UNL     1      14.135  -9.612  -4.966  1.00  0.00     0.124 S 
ATOM     82  O   UNL     1      12.935  -8.781  -4.895  1.00  0.00    -0.237 OA
ATOM     83  O   UNL     1      15.125  -9.221  -5.963  1.00  0.00    -0.237 OA
ATOM     84  O   UNL     1      13.896 -11.050  -4.854  1.00  0.00    -0.744 OA
ENDBRANCH  77  81
ENDBRANCH  60  74
BRANCH  61  85
ATOM     85  C   UNL     1      17.108   2.096   0.801  1.00  0.00     0.023 A 
ATOM     86  C   UNL     1      18.044   2.928   0.166  1.00  0.00     0.031 A 
ATOM     87  C   UNL     1      16.433   2.606   1.925  1.00  0.00     0.131 A 
ATOM     88  C   UNL     1      18.326   4.198   0.694  1.00  0.00     0.055 A 
ATOM     89  C   UNL     1      16.671   3.894   2.409  1.00  0.00     0.041 A 
ATOM     90  F   UNL     1      15.526   1.856   2.571  1.00  0.00    -0.206 F 
ATOM     91  C   UNL     1      17.635   4.692   1.802  1.00  0.00     0.022 A 
BRANCH  88  92
ATOM     92  S   UNL     1      19.693   5.151  -0.023  1.00  0.00     0.124 S 
ATOM     93  O   UNL     1      20.809   4.223   0.123  1.00  0.00    -0.237 OA
ATOM     94  O   UNL     1      19.221   5.379  -1.385  1.00  0.00    -0.237 OA
ATOM     95  O   UNL     1      19.756   6.343   0.821  1.00  0.00    -0.744 OA
ENDBRANCH  88  92
ENDBRANCH  61  85
BRANCH  73  96
ATOM     96  C   UNL     1      21.328  -3.435   0.344  1.00  0.00     0.023 A 
ATOM     97  C   UNL     1      21.877  -3.306   1.632  1.00  0.00     0.031 A 
ATOM     98  C   UNL     1      22.202  -3.722  -0.721  1.00  0.00     0.131 A 
ATOM     99  C   UNL     1      23.265  -3.405   1.813  1.00  0.00     0.055 A 
ATOM    100  C   UNL     1      23.573  -3.886  -0.524  1.00  0.00     0.041 A 
ATOM    101  F   UNL     1      21.734  -3.854  -1.972  1.00  0.00    -0.206 F 
ATOM    102  C   UNL     1      24.114  -3.713   0.747  1.00  0.00     0.022 A 
BRANCH  99 103
ATOM    103  S   UNL     1      23.960  -3.030   3.446  1.00  0.00     0.124 S 
ATOM    104  O   UNL     1      23.500  -1.662   3.664  1.00  0.00    -0.237 OA
ATOM    105  O   UNL     1      23.346  -4.051   4.288  1.00  0.00    -0.237 OA
ATOM    106  O   UNL     1      25.401  -3.176   3.248  1.00  0.00    -0.744 OA
ENDBRANCH  99 103
ENDBRANCH  73  96
ENDBRANCH  47  48
ENDBRANCH  39  42
ENDBRANCH  37  38
ENDBRANCH  36  37
ENDBRANCH   1  36
TORSDOF 20
