REMARK SMILES Cc1ccc(-c2cc(Cl)cc3c2O[C@@H](C(F)(F)F)C(C(=O)NCCCCNC(=O)c2ccc(-c4c5nc(c(-c6cc(S(=O)(=O)[O-])ccc6F)c6ccc([nH]6)c(-c6cc(S(=O)(=O)[O-])ccc6F)c6nc(c(-c7cc(S(=O)(=O)[O-])ccc7F)c7ccc4[nH]7)C=C6)C=C5)cc2)=C3)cc1
REMARK SMILES IDX 25 1 24 2 23 3 22 4 20 5 21 6 19 8 6 9 7 10 12 11 8 12 11 13
REMARK SMILES IDX 13 14 9 15 10 16 93 17 14 18 5 19 1 20 2 21 3 22 95 23 4 24
REMARK SMILES IDX 94 25 15 26 16 27 17 28 18 29 26 30 27 31 28 32 29 34 30 35
REMARK SMILES IDX 31 36 92 37 32 38 91 39 33 40 34 41 35 42 85 43 36 44 90 45
REMARK SMILES IDX 84 46 86 47 37 48 89 49 83 50 82 51 38 53 70 54 50 55 69 56
REMARK SMILES IDX 51 57 54 58 68 59 87 60 52 61 53 62 67 64 88 65 55 66 39 67
REMARK SMILES IDX 40 68 48 69 41 70 47 71 49 72 46 73 42 74 43 75 44 76 45 77
REMARK SMILES IDX 71 78 72 79 80 80 73 81 79 82 81 83 78 84 74 85 75 86 76 87
REMARK SMILES IDX 77 88 56 89 57 90 65 91 58 92 64 93 66 94 63 95 59 96 60 97
REMARK SMILES IDX 61 98 62 99
REMARK H PARENT 22 7 27 33 86 52 54 63
REMARK Flexibility Score: inf
ROOT
ATOM      1  C   UNL     1      -2.364  -4.869   5.055  1.00  0.00     0.023 C 
ENDROOT
BRANCH   1   2
ATOM      2  C   UNL     1      -3.767  -4.256   5.017  1.00  0.00     0.023 C 
BRANCH   2   3
ATOM      3  C   UNL     1      -3.958  -2.820   5.541  1.00  0.00     0.116 C 
BRANCH   3   4
ATOM      4  N   UNL     1      -3.408  -1.770   4.689  1.00  0.00    -0.352 N 
ATOM      5  C   UNL     1      -3.940  -0.609   4.199  1.00  0.00     0.251 C 
ATOM      6  O   UNL     1      -3.143   0.313   3.994  1.00  0.00    -0.270 OA
ATOM      7  H   UNL     1      -2.475  -1.928   4.414  1.00  0.00     0.163 HD
BRANCH   5   8
ATOM      8  C   UNL     1      -5.402  -0.449   3.768  1.00  0.00     0.067 C 
ATOM      9  C   UNL     1      -3.886  -1.221   0.148  1.00  0.00     0.026 A 
ATOM     10  C   UNL     1      -4.377  -0.582  -1.006  1.00  0.00     0.033 A 
ATOM     11  C   UNL     1      -4.670  -1.040   1.286  1.00  0.00     0.135 A 
ATOM     12  C   UNL     1      -5.295   0.469  -0.888  1.00  0.00     0.042 A 
ATOM     13  C   UNL     1      -5.301   0.208   1.496  1.00  0.00     0.019 A 
ATOM     14  O   UNL     1      -4.985  -2.129   2.129  1.00  0.00    -0.475 OA
ATOM     15  Cl  UNL     1      -5.822   1.289  -2.308  1.00  0.00    -0.084 Cl
ATOM     16  C   UNL     1      -5.675   0.939   0.373  1.00  0.00     0.032 A 
ATOM     17  C   UNL     1      -5.584   0.606   2.922  1.00  0.00     0.025 C 
ATOM     18  C   UNL     1      -5.993  -1.676   3.094  1.00  0.00     0.314 C 
BRANCH   9  19
ATOM     19  C   UNL     1      -2.399  -1.110   0.291  1.00  0.00    -0.015 A 
ATOM     20  C   UNL     1       1.883  -0.383   0.170  1.00  0.00     0.044 C 
ATOM     21  C   UNL     1       0.407  -0.642   0.255  1.00  0.00    -0.051 A 
ATOM     22  C   UNL     1      -0.117  -1.940   0.146  1.00  0.00     0.004 A 
ATOM     23  C   UNL     1      -0.472   0.417   0.451  1.00  0.00     0.004 A 
ATOM     24  C   UNL     1      -1.508  -2.175   0.160  1.00  0.00     0.009 A 
ATOM     25  C   UNL     1      -1.846   0.182   0.476  1.00  0.00     0.009 A 
ENDBRANCH   9  19
BRANCH  18  26
ATOM     26  C   UNL     1      -6.818  -2.628   3.971  1.00  0.00     0.429 C 
ATOM     27  F   UNL     1      -8.080  -2.736   3.457  1.00  0.00    -0.167 F 
ATOM     28  F   UNL     1      -6.329  -3.876   4.034  1.00  0.00    -0.167 F 
ATOM     29  F   UNL     1      -6.989  -2.138   5.216  1.00  0.00    -0.167 F 
ENDBRANCH  18  26
ENDBRANCH   5   8
ENDBRANCH   3   4
ENDBRANCH   2   3
ENDBRANCH   1   2
BRANCH   1  30
ATOM     30  C   UNL     1      -1.604  -4.759   6.369  1.00  0.00     0.116 C 
BRANCH  30  31
ATOM     31  N   UNL     1      -1.765  -5.825   7.346  1.00  0.00    -0.352 N 
ATOM     32  C   UNL     1      -1.193  -5.919   8.615  1.00  0.00     0.251 C 
ATOM     33  H   UNL     1      -2.349  -6.572   7.079  1.00  0.00     0.163 HD
ATOM     34  O   UNL     1      -1.286  -6.936   9.281  1.00  0.00    -0.269 OA
BRANCH  32  35
ATOM     35  C   UNL     1      -0.567  -4.704   9.213  1.00  0.00     0.039 A 
ATOM     36  C   UNL     1      -0.985  -4.323  10.494  1.00  0.00     0.014 A 
ATOM     37  C   UNL     1       0.182  -3.824   8.440  1.00  0.00     0.014 A 
ATOM     38  C   UNL     1      -0.902  -2.984  10.871  1.00  0.00     0.010 A 
ATOM     39  C   UNL     1       0.147  -2.480   8.749  1.00  0.00     0.010 A 
ATOM     40  C   UNL     1      -0.452  -2.052   9.936  1.00  0.00    -0.014 A 
BRANCH  40  41
ATOM     41  C   UNL     1      -0.691  -0.619  10.054  1.00  0.00     0.031 A 
ATOM     42  C   UNL     1       0.413   0.305  10.367  1.00  0.00     0.074 A 
ATOM     43  C   UNL     1      -1.923  -0.120   9.813  1.00  0.00     0.049 A 
ATOM     44  N   UNL     1       0.270   1.409  11.018  1.00  0.00    -0.248 NA
ATOM     45  C   UNL     1       1.792   0.036   9.982  1.00  0.00     0.031 C 
ATOM     46  C   UNL     1      -2.305   1.283   9.677  1.00  0.00     0.029 A 
ATOM     47  N   UNL     1      -3.135  -0.806   9.872  1.00  0.00    -0.354 N 
ATOM     48  C   UNL     1       1.438   2.123  10.882  1.00  0.00     0.074 A 
ATOM     49  C   UNL     1       2.377   1.196  10.293  1.00  0.00     0.031 C 
ATOM     50  C   UNL     1      -3.618   1.399   9.930  1.00  0.00     0.029 A 
ATOM     51  C   UNL     1      -4.096   0.098  10.359  1.00  0.00     0.049 A 
ATOM     52  H   UNL     1      -3.289  -1.745   9.620  1.00  0.00     0.167 HD
ATOM     53  C   UNL     1       1.449   3.462  11.138  1.00  0.00     0.034 A 
ATOM     54  C   UNL     1      -4.757  -0.157  11.524  1.00  0.00     0.034 A 
ATOM     55  C   UNL     1       0.128   3.945  11.541  1.00  0.00     0.049 A 
ATOM     56  C   UNL     1      -4.493   0.874  12.601  1.00  0.00     0.074 A 
ATOM     57  C   UNL     1      -0.870   4.619  10.857  1.00  0.00     0.029 A 
ATOM     58  N   UNL     1      -0.445   3.495  12.726  1.00  0.00    -0.354 N 
ATOM     59  N   UNL     1      -3.528   1.752  12.562  1.00  0.00    -0.248 NA
ATOM     60  C   UNL     1      -5.292   0.985  13.816  1.00  0.00     0.031 C 
ATOM     61  C   UNL     1      -2.064   4.530  11.618  1.00  0.00     0.029 A 
ATOM     62  C   UNL     1      -1.786   3.829  12.779  1.00  0.00     0.049 A 
ATOM     63  H   UNL     1       0.038   3.007  13.431  1.00  0.00     0.167 HD
ATOM     64  C   UNL     1      -3.541   2.513  13.707  1.00  0.00     0.074 A 
ATOM     65  C   UNL     1      -4.686   2.007  14.445  1.00  0.00     0.031 C 
ATOM     66  C   UNL     1      -2.599   3.481  13.940  1.00  0.00     0.034 A 
BRANCH  53  67
ATOM     67  C   UNL     1       2.574   4.379  10.707  1.00  0.00     0.023 A 
ATOM     68  C   UNL     1       2.288   5.714  10.352  1.00  0.00     0.031 A 
ATOM     69  C   UNL     1       3.926   4.002  10.592  1.00  0.00     0.131 A 
ATOM     70  C   UNL     1       3.273   6.555   9.800  1.00  0.00     0.055 A 
ATOM     71  C   UNL     1       4.892   4.812   9.981  1.00  0.00     0.041 A 
ATOM     72  F   UNL     1       4.379   2.852  11.111  1.00  0.00    -0.206 F 
ATOM     73  C   UNL     1       4.564   6.093   9.565  1.00  0.00     0.022 A 
BRANCH  70  74
ATOM     74  S   UNL     1       2.845   8.274   9.411  1.00  0.00     0.124 S 
ATOM     75  O   UNL     1       1.758   8.116   8.451  1.00  0.00    -0.237 OA
ATOM     76  O   UNL     1       2.480   8.805  10.720  1.00  0.00    -0.237 OA
ATOM     77  O   UNL     1       4.086   8.814   8.854  1.00  0.00    -0.744 OA
ENDBRANCH  70  74
ENDBRANCH  53  67
BRANCH  54  78
ATOM     78  C   UNL     1      -5.009  -1.613  11.738  1.00  0.00     0.023 A 
ATOM     79  C   UNL     1      -5.769  -2.284  10.754  1.00  0.00     0.031 A 
ATOM     80  C   UNL     1      -4.211  -2.387  12.589  1.00  0.00     0.131 A 
ATOM     81  C   UNL     1      -5.588  -3.657  10.531  1.00  0.00     0.055 A 
ATOM     82  C   UNL     1      -4.087  -3.771  12.407  1.00  0.00     0.041 A 
ATOM     83  F   UNL     1      -3.438  -1.806  13.518  1.00  0.00    -0.206 F 
ATOM     84  C   UNL     1      -4.737  -4.404  11.346  1.00  0.00     0.022 A 
BRANCH  81  85
ATOM     85  S   UNL     1      -6.249  -4.397   9.005  1.00  0.00     0.124 S 
ATOM     86  O   UNL     1      -7.543  -4.902   9.448  1.00  0.00    -0.237 OA
ATOM     87  O   UNL     1      -6.286  -3.264   8.083  1.00  0.00    -0.237 OA
ATOM     88  O   UNL     1      -5.256  -5.410   8.657  1.00  0.00    -0.744 OA
ENDBRANCH  81  85
ENDBRANCH  54  78
BRANCH  66  89
ATOM     89  C   UNL     1      -2.392   4.264  15.229  1.00  0.00     0.023 A 
ATOM     90  C   UNL     1      -3.022   3.958  16.444  1.00  0.00     0.031 A 
ATOM     91  C   UNL     1      -1.476   5.349  15.287  1.00  0.00     0.131 A 
ATOM     92  C   UNL     1      -2.810   4.735  17.600  1.00  0.00     0.055 A 
ATOM     93  C   UNL     1      -1.209   6.072  16.454  1.00  0.00     0.041 A 
ATOM     94  F   UNL     1      -0.787   5.757  14.211  1.00  0.00    -0.206 F 
ATOM     95  C   UNL     1      -1.890   5.778  17.621  1.00  0.00     0.022 A 
BRANCH  92  96
ATOM     96  S   UNL     1      -3.817   4.384  19.066  1.00  0.00     0.124 S 
ATOM     97  O   UNL     1      -5.164   4.670  18.581  1.00  0.00    -0.237 OA
ATOM     98  O   UNL     1      -3.521   2.978  19.320  1.00  0.00    -0.237 OA
ATOM     99  O   UNL     1      -3.307   5.318  20.069  1.00  0.00    -0.744 OA
ENDBRANCH  92  96
ENDBRANCH  66  89
ENDBRANCH  40  41
ENDBRANCH  32  35
ENDBRANCH  30  31
ENDBRANCH   1  30
TORSDOF 16
