REMARK SMILES COc1cccc(-c2nn(-c3cc4c(cc3C(N)=O)OCO4)cc2C(=O)NCCCCNC(=O)c2ccc(-c3c4nc(c(-c5cc(S(=O)(=O)[O-])ccc5F)c5ccc([nH]5)c(-c5cc(S(=O)(=O)[O-])ccc5F)c5nc(c(-c6cc(S(=O)(=O)[O-])ccc6F)c6ccc3[nH]6)C=C5)C=C4)cc2)c1
REMARK SMILES IDX 30 1 29 2 28 3 27 4 25 5 26 6 24 8 8 9 9 10 10 11 23 12 7 13
REMARK SMILES IDX 3 14 4 15 98 16 5 17 6 18 2 19 1 20 11 21 12 22 16 23 13 24
REMARK SMILES IDX 15 25 14 26 22 27 20 28 21 29 17 30 18 31 19 32 31 35 32 36
REMARK SMILES IDX 33 37 34 39 35 40 36 41 97 42 37 43 96 44 38 45 39 46 40 47
REMARK SMILES IDX 90 48 41 49 95 50 89 51 91 52 42 53 94 54 88 55 87 56 43 58
REMARK SMILES IDX 75 59 55 60 74 61 56 62 59 63 73 64 92 65 57 66 58 67 72 69
REMARK SMILES IDX 93 70 60 71 44 72 45 73 53 74 46 75 52 76 54 77 51 78 47 79
REMARK SMILES IDX 48 80 49 81 50 82 76 83 77 84 85 85 78 86 84 87 86 88 83 89
REMARK SMILES IDX 79 90 80 91 81 92 82 93 61 94 62 95 70 96 63 97 69 98 71 99
REMARK SMILES IDX 68 100 64 101 65 102 66 103 67 104
REMARK H PARENT 27 7 18 33 18 34 32 38 91 57 59 68
REMARK Flexibility Score: inf
ROOT
ATOM      1  C   UNL     1       5.097  -2.653  -9.699  1.00  0.00     0.023 C 
ENDROOT
BRANCH   1   2
ATOM      2  C   UNL     1       5.751  -2.843  -8.320  1.00  0.00     0.023 C 
BRANCH   2   3
ATOM      3  C   UNL     1       5.496  -1.701  -7.332  1.00  0.00     0.116 C 
BRANCH   3   4
ATOM      4  N   UNL     1       4.128  -1.720  -6.851  1.00  0.00    -0.352 N 
ATOM      5  C   UNL     1       3.536  -2.211  -5.714  1.00  0.00     0.255 C 
ATOM      6  O   UNL     1       2.319  -2.042  -5.640  1.00  0.00    -0.269 OA
ATOM      7  H   UNL     1       3.492  -1.291  -7.468  1.00  0.00     0.163 HD
BRANCH   5   8
ATOM      8  C   UNL     1       4.292  -2.864  -4.651  1.00  0.00     0.086 A 
ATOM      9  C   UNL     1       3.849  -3.196  -3.318  1.00  0.00     0.106 A 
ATOM     10  N   UNL     1       4.861  -3.685  -2.565  1.00  0.00    -0.167 NA
ATOM     11  N   UNL     1       5.949  -3.479  -3.340  1.00  0.00    -0.239 N 
ATOM     12  C   UNL     1       5.589  -3.329  -4.657  1.00  0.00     0.129 A 
BRANCH   9  13
ATOM     13  C   UNL     1       2.490  -3.076  -2.782  1.00  0.00     0.007 A 
ATOM     14  C   UNL     1       0.899  -2.096  -1.238  1.00  0.00     0.119 A 
ATOM     15  C   UNL     1      -0.145  -2.765  -1.880  1.00  0.00     0.046 A 
ATOM     16  C   UNL     1       2.219  -2.262  -1.673  1.00  0.00     0.056 A 
ATOM     17  C   UNL     1       0.120  -3.587  -2.973  1.00  0.00     0.005 A 
ATOM     18  C   UNL     1       1.433  -3.748  -3.415  1.00  0.00     0.011 A 
BRANCH  14  19
ATOM     19  O   UNL     1       0.549  -1.349  -0.145  1.00  0.00    -0.497 OA
ATOM     20  C   UNL     1       1.073  -0.023  -0.178  1.00  0.00     0.278 C 
ENDBRANCH  14  19
ENDBRANCH   9  13
BRANCH  11  21
ATOM     21  C   UNL     1       7.283  -3.614  -2.881  1.00  0.00     0.081 A 
ATOM     22  C   UNL     1       7.603  -4.734  -2.093  1.00  0.00     0.079 A 
ATOM     23  C   UNL     1       8.296  -2.694  -3.295  1.00  0.00     0.069 A 
ATOM     24  C   UNL     1       8.938  -4.950  -1.816  1.00  0.00     0.167 A 
ATOM     25  C   UNL     1       9.644  -3.014  -3.066  1.00  0.00     0.066 A 
ATOM     26  C   UNL     1       9.925  -4.131  -2.316  1.00  0.00     0.166 A 
ATOM     27  O   UNL     1       9.456  -5.957  -1.060  1.00  0.00    -0.454 OA
ATOM     28  O   UNL     1      11.172  -4.524  -1.940  1.00  0.00    -0.454 OA
ATOM     29  C   UNL     1      10.838  -5.543  -0.979  1.00  0.00     0.468 C 
BRANCH  23  30
ATOM     30  C   UNL     1       7.970  -1.311  -3.784  1.00  0.00     0.251 C 
ATOM     31  N   UNL     1       8.938  -0.350  -3.715  1.00  0.00    -0.366 N 
ATOM     32  O   UNL     1       6.856  -0.977  -4.176  1.00  0.00    -0.269 OA
ATOM     33  H   UNL     1       9.843  -0.585  -3.405  1.00  0.00     0.159 HD
ATOM     34  H   UNL     1       8.732   0.576  -3.975  1.00  0.00     0.159 HD
ENDBRANCH  23  30
ENDBRANCH  11  21
ENDBRANCH   5   8
ENDBRANCH   3   4
ENDBRANCH   2   3
ENDBRANCH   1   2
BRANCH   1  35
ATOM     35  C   UNL     1       5.603  -1.442 -10.477  1.00  0.00     0.116 C 
BRANCH  35  36
ATOM     36  N   UNL     1       7.031  -1.521 -10.782  1.00  0.00    -0.352 N 
ATOM     37  C   UNL     1       7.816  -0.563 -11.395  1.00  0.00     0.251 C 
ATOM     38  H   UNL     1       7.486  -2.354 -10.520  1.00  0.00     0.163 HD
ATOM     39  O   UNL     1       8.853  -0.882 -11.966  1.00  0.00    -0.269 OA
BRANCH  37  40
ATOM     40  C   UNL     1       7.391   0.848 -11.330  1.00  0.00     0.039 A 
ATOM     41  C   UNL     1       7.493   1.701 -12.433  1.00  0.00     0.014 A 
ATOM     42  C   UNL     1       6.862   1.305 -10.123  1.00  0.00     0.014 A 
ATOM     43  C   UNL     1       6.983   2.995 -12.329  1.00  0.00     0.010 A 
ATOM     44  C   UNL     1       6.244   2.528 -10.064  1.00  0.00     0.010 A 
ATOM     45  C   UNL     1       6.343   3.398 -11.144  1.00  0.00    -0.014 A 
BRANCH  45  46
ATOM     46  C   UNL     1       5.608   4.659 -11.064  1.00  0.00     0.031 A 
ATOM     47  C   UNL     1       4.531   4.777 -12.086  1.00  0.00     0.074 A 
ATOM     48  C   UNL     1       5.715   5.511 -10.017  1.00  0.00     0.049 A 
ATOM     49  N   UNL     1       4.502   5.561 -13.111  1.00  0.00    -0.248 NA
ATOM     50  C   UNL     1       3.448   3.776 -12.086  1.00  0.00     0.031 C 
ATOM     51  C   UNL     1       6.523   5.353  -8.802  1.00  0.00     0.029 A 
ATOM     52  N   UNL     1       5.035   6.663  -9.760  1.00  0.00    -0.354 N 
ATOM     53  C   UNL     1       3.269   5.348 -13.720  1.00  0.00     0.074 A 
ATOM     54  C   UNL     1       2.795   4.093 -13.206  1.00  0.00     0.031 C 
ATOM     55  C   UNL     1       6.111   6.231  -7.858  1.00  0.00     0.029 A 
ATOM     56  C   UNL     1       5.123   7.122  -8.442  1.00  0.00     0.049 A 
ATOM     57  H   UNL     1       4.520   7.139 -10.451  1.00  0.00     0.167 HD
ATOM     58  C   UNL     1       2.629   6.362 -14.370  1.00  0.00     0.034 A 
ATOM     59  C   UNL     1       4.427   8.146  -7.865  1.00  0.00     0.034 A 
ATOM     60  C   UNL     1       3.546   7.455 -14.627  1.00  0.00     0.049 A 
ATOM     61  C   UNL     1       3.953   9.004  -8.980  1.00  0.00     0.074 A 
ATOM     62  C   UNL     1       4.748   7.571 -15.300  1.00  0.00     0.029 A 
ATOM     63  N   UNL     1       3.482   8.555 -13.798  1.00  0.00    -0.354 N 
ATOM     64  N   UNL     1       4.766   9.666  -9.759  1.00  0.00    -0.248 NA
ATOM     65  C   UNL     1       2.650   8.706  -9.556  1.00  0.00     0.031 C 
ATOM     66  C   UNL     1       5.548   8.412 -14.470  1.00  0.00     0.029 A 
ATOM     67  C   UNL     1       4.763   8.856 -13.404  1.00  0.00     0.049 A 
ATOM     68  H   UNL     1       2.665   9.037 -13.535  1.00  0.00     0.167 HD
ATOM     69  C   UNL     1       4.272   9.468 -11.040  1.00  0.00     0.074 A 
ATOM     70  C   UNL     1       2.918   8.944 -10.844  1.00  0.00     0.031 C 
ATOM     71  C   UNL     1       5.101   9.460 -12.127  1.00  0.00     0.034 A 
BRANCH  58  72
ATOM     72  C   UNL     1       1.125   6.561 -14.413  1.00  0.00     0.023 A 
ATOM     73  C   UNL     1       0.658   7.721 -15.063  1.00  0.00     0.031 A 
ATOM     74  C   UNL     1       0.167   5.878 -13.629  1.00  0.00     0.131 A 
ATOM     75  C   UNL     1      -0.631   8.223 -14.818  1.00  0.00     0.055 A 
ATOM     76  C   UNL     1      -1.138   6.347 -13.441  1.00  0.00     0.041 A 
ATOM     77  F   UNL     1       0.446   4.772 -12.932  1.00  0.00    -0.206 F 
ATOM     78  C   UNL     1      -1.533   7.546 -14.005  1.00  0.00     0.022 A 
BRANCH  75  79
ATOM     79  S   UNL     1      -1.032   9.880 -15.428  1.00  0.00     0.124 S 
ATOM     80  O   UNL     1       0.048  10.671 -14.849  1.00  0.00    -0.237 OA
ATOM     81  O   UNL     1      -0.987   9.684 -16.873  1.00  0.00    -0.237 OA
ATOM     82  O   UNL     1      -2.360  10.132 -14.873  1.00  0.00    -0.744 OA
ENDBRANCH  75  79
ENDBRANCH  58  72
BRANCH  59  83
ATOM     83  C   UNL     1       3.870   8.223  -6.476  1.00  0.00     0.023 A 
ATOM     84  C   UNL     1       3.465   9.430  -5.850  1.00  0.00     0.031 A 
ATOM     85  C   UNL     1       3.486   7.027  -5.828  1.00  0.00     0.131 A 
ATOM     86  C   UNL     1       2.718   9.399  -4.642  1.00  0.00     0.055 A 
ATOM     87  C   UNL     1       2.744   7.004  -4.643  1.00  0.00     0.041 A 
ATOM     88  F   UNL     1       3.747   5.829  -6.374  1.00  0.00    -0.206 F 
ATOM     89  C   UNL     1       2.348   8.190  -4.049  1.00  0.00     0.022 A 
BRANCH  86  90
ATOM     90  S   UNL     1       2.140  10.940  -3.840  1.00  0.00     0.124 S 
ATOM     91  O   UNL     1       3.391  11.563  -3.423  1.00  0.00    -0.237 OA
ATOM     92  O   UNL     1       1.410  11.601  -4.915  1.00  0.00    -0.237 OA
ATOM     93  O   UNL     1       1.301  10.461  -2.740  1.00  0.00    -0.744 OA
ENDBRANCH  86  90
ENDBRANCH  59  83
BRANCH  71  94
ATOM     94  C   UNL     1       6.530   9.947 -11.955  1.00  0.00     0.023 A 
ATOM     95  C   UNL     1       7.482   9.407 -11.056  1.00  0.00     0.031 A 
ATOM     96  C   UNL     1       6.971  10.939 -12.848  1.00  0.00     0.131 A 
ATOM     97  C   UNL     1       8.814   9.875 -11.075  1.00  0.00     0.055 A 
ATOM     98  C   UNL     1       8.292  11.379 -12.881  1.00  0.00     0.041 A 
ATOM     99  F   UNL     1       6.122  11.476 -13.740  1.00  0.00    -0.206 F 
ATOM    100  C   UNL     1       9.218  10.852 -11.990  1.00  0.00     0.022 A 
BRANCH  97 101
ATOM    101  S   UNL     1      10.052   9.241  -9.893  1.00  0.00     0.124 S 
ATOM    102  O   UNL     1       9.364   9.306  -8.609  1.00  0.00    -0.237 OA
ATOM    103  O   UNL     1      10.325   7.901 -10.405  1.00  0.00    -0.237 OA
ATOM    104  O   UNL     1      11.167  10.180 -10.032  1.00  0.00    -0.744 OA
ENDBRANCH  97 101
ENDBRANCH  71  94
ENDBRANCH  45  46
ENDBRANCH  37  40
ENDBRANCH  35  36
ENDBRANCH   1  35
TORSDOF 18
