REMARK SMILES O=C(NCCCCNC(=O)c1cc(NS(=O)(=O)c2ccc3c(c2)OCCCO3)ccc1N1CCSCC1)c1ccc(-c2c3nc(c(-c4cc(S(=O)(=O)[O-])ccc4F)c4ccc([nH]4)c(-c4cc(S(=O)(=O)[O-])ccc4F)c4nc(c(-c5cc(S(=O)(=O)[O-])ccc5F)c5ccc2[nH]5)C=C4)C=C3)cc1
REMARK SMILES IDX 7 1 6 2 5 3 4 4 3 5 1 6 2 7 38 9 39 10 100 11 40 12 99 13
REMARK SMILES IDX 41 14 42 15 43 16 93 17 44 18 98 19 92 20 94 21 45 22 97 23
REMARK SMILES IDX 91 24 90 25 46 27 78 28 58 29 77 30 59 31 62 32 76 33 95 34
REMARK SMILES IDX 60 35 61 36 75 38 96 39 63 40 47 41 48 42 56 43 49 44 55 45
REMARK SMILES IDX 57 46 54 47 50 48 51 49 52 50 53 51 79 52 80 53 88 54 81 55
REMARK SMILES IDX 87 56 89 57 86 58 82 59 83 60 84 61 85 62 64 63 65 64 73 65
REMARK SMILES IDX 66 66 72 67 74 68 71 69 67 70 68 71 69 72 70 73 8 74 9 75
REMARK SMILES IDX 10 77 11 78 12 79 31 80 13 81 30 82 29 83 32 84 33 85 37 86
REMARK SMILES IDX 34 87 36 88 35 89 14 90 15 92 16 93 17 94 18 95 19 96 23 97
REMARK SMILES IDX 20 98 22 99 21 100 24 101 25 102 28 104 27 105 26 106
REMARK H PARENT 3 8 94 26 62 37 8 76 14 91
REMARK Flexibility Score: 90.00
ROOT
ATOM      1  C   UNL     1       4.481   4.249   0.715  1.00  0.00     0.116 C 
ENDROOT
BRANCH   1   2
ATOM      2  C   UNL     1       4.309   3.822  -0.735  1.00  0.00     0.023 C 
BRANCH   2   3
ATOM      3  C   UNL     1       4.869   2.439  -1.076  1.00  0.00     0.023 C 
BRANCH   3   4
ATOM      4  C   UNL     1       4.545   1.330  -0.081  1.00  0.00     0.116 C 
BRANCH   4   5
ATOM      5  N   UNL     1       3.115   1.121   0.085  1.00  0.00    -0.352 N 
ATOM      6  O   UNL     1       1.140   0.054  -0.137  1.00  0.00    -0.269 OA
ATOM      7  C   UNL     1       2.365   0.006  -0.202  1.00  0.00     0.251 C 
ATOM      8  H   UNL     1       2.615   1.884   0.455  1.00  0.00     0.163 HD
BRANCH   7   9
ATOM      9  C   UNL     1       3.050  -1.236  -0.612  1.00  0.00     0.039 A 
ATOM     10  C   UNL     1       4.136  -1.713   0.126  1.00  0.00     0.014 A 
ATOM     11  C   UNL     1       2.623  -1.909  -1.760  1.00  0.00     0.014 A 
ATOM     12  C   UNL     1       4.885  -2.773  -0.365  1.00  0.00     0.010 A 
ATOM     13  C   UNL     1       3.323  -3.036  -2.199  1.00  0.00     0.010 A 
ATOM     14  C   UNL     1       4.474  -3.463  -1.518  1.00  0.00    -0.014 A 
BRANCH  14  15
ATOM     15  C   UNL     1       5.212  -4.684  -1.928  1.00  0.00     0.031 A 
ATOM     16  C   UNL     1       5.953  -4.752  -3.235  1.00  0.00     0.074 A 
ATOM     17  C   UNL     1       5.219  -5.733  -1.081  1.00  0.00     0.049 A 
ATOM     18  N   UNL     1       6.638  -5.746  -3.739  1.00  0.00    -0.248 NA
ATOM     19  C   UNL     1       5.918  -3.556  -4.090  1.00  0.00     0.031 C 
ATOM     20  C   UNL     1       4.526  -5.770   0.212  1.00  0.00     0.029 A 
ATOM     21  N   UNL     1       5.830  -6.956  -1.161  1.00  0.00    -0.354 N 
ATOM     22  C   UNL     1       7.099  -5.309  -4.976  1.00  0.00     0.074 A 
ATOM     23  C   UNL     1       6.599  -3.962  -5.155  1.00  0.00     0.031 C 
ATOM     24  C   UNL     1       4.787  -6.935   0.819  1.00  0.00     0.029 A 
ATOM     25  C   UNL     1       5.592  -7.761  -0.070  1.00  0.00     0.049 A 
ATOM     26  H   UNL     1       6.387  -7.232  -1.924  1.00  0.00     0.167 HD
ATOM     27  C   UNL     1       7.867  -5.977  -5.873  1.00  0.00     0.034 A 
ATOM     28  C   UNL     1       5.949  -9.036   0.174  1.00  0.00     0.034 A 
ATOM     29  C   UNL     1       8.363  -7.318  -5.665  1.00  0.00     0.049 A 
ATOM     30  C   UNL     1       6.767  -9.760  -0.860  1.00  0.00     0.074 A 
ATOM     31  C   UNL     1       9.194  -8.064  -6.484  1.00  0.00     0.029 A 
ATOM     32  N   UNL     1       8.066  -8.120  -4.570  1.00  0.00    -0.354 N 
ATOM     33  N   UNL     1       7.222  -9.316  -2.010  1.00  0.00    -0.248 NA
ATOM     34  C   UNL     1       7.121 -11.152  -0.566  1.00  0.00     0.031 C 
ATOM     35  C   UNL     1       9.337  -9.338  -5.923  1.00  0.00     0.029 A 
ATOM     36  C   UNL     1       8.662  -9.364  -4.714  1.00  0.00     0.049 A 
ATOM     37  H   UNL     1       7.513  -7.845  -3.803  1.00  0.00     0.167 HD
ATOM     38  C   UNL     1       7.930 -10.375  -2.567  1.00  0.00     0.074 A 
ATOM     39  C   UNL     1       7.868 -11.464  -1.613  1.00  0.00     0.031 C 
ATOM     40  C   UNL     1       8.571 -10.445  -3.762  1.00  0.00     0.034 A 
BRANCH  27  41
ATOM     41  C   UNL     1       8.183  -5.297  -7.183  1.00  0.00     0.023 A 
ATOM     42  C   UNL     1       9.011  -4.165  -7.259  1.00  0.00     0.031 A 
ATOM     43  C   UNL     1       7.673  -5.822  -8.386  1.00  0.00     0.131 A 
ATOM     44  C   UNL     1       9.275  -3.572  -8.505  1.00  0.00     0.055 A 
ATOM     45  C   UNL     1       7.989  -5.266  -9.627  1.00  0.00     0.041 A 
ATOM     46  F   UNL     1       6.861  -6.891  -8.373  1.00  0.00    -0.206 F 
ATOM     47  C   UNL     1       8.790  -4.130  -9.691  1.00  0.00     0.022 A 
BRANCH  44  48
ATOM     48  S   UNL     1      10.189  -2.006  -8.552  1.00  0.00     0.124 S 
ATOM     49  O   UNL     1       9.319  -1.131  -7.769  1.00  0.00    -0.237 OA
ATOM     50  O   UNL     1      11.460  -2.363  -7.933  1.00  0.00    -0.237 OA
ATOM     51  O   UNL     1      10.257  -1.690  -9.978  1.00  0.00    -0.744 OA
ENDBRANCH  44  48
ENDBRANCH  27  41
BRANCH  28  52
ATOM     52  C   UNL     1       5.490  -9.725   1.414  1.00  0.00     0.023 A 
ATOM     53  C   UNL     1       6.408 -10.222   2.350  1.00  0.00     0.031 A 
ATOM     54  C   UNL     1       4.120  -9.943   1.654  1.00  0.00     0.131 A 
ATOM     55  C   UNL     1       5.950 -10.959   3.453  1.00  0.00     0.055 A 
ATOM     56  C   UNL     1       3.667 -10.617   2.788  1.00  0.00     0.041 A 
ATOM     57  F   UNL     1       3.197  -9.489   0.791  1.00  0.00    -0.206 F 
ATOM     58  C   UNL     1       4.586 -11.146   3.687  1.00  0.00     0.022 A 
BRANCH  55  59
ATOM     59  S   UNL     1       7.173 -11.773   4.516  1.00  0.00     0.124 S 
ATOM     60  O   UNL     1       7.942 -12.546   3.548  1.00  0.00    -0.237 OA
ATOM     61  O   UNL     1       7.858 -10.633   5.116  1.00  0.00    -0.237 OA
ATOM     62  O   UNL     1       6.353 -12.560   5.434  1.00  0.00    -0.744 OA
ENDBRANCH  55  59
ENDBRANCH  28  52
BRANCH  40  63
ATOM     63  C   UNL     1       9.274 -11.742  -4.073  1.00  0.00     0.023 A 
ATOM     64  C   UNL     1       8.558 -12.934  -4.280  1.00  0.00     0.031 A 
ATOM     65  C   UNL     1      10.678 -11.793  -4.128  1.00  0.00     0.131 A 
ATOM     66  C   UNL     1       9.249 -14.140  -4.466  1.00  0.00     0.055 A 
ATOM     67  C   UNL     1      11.358 -12.985  -4.378  1.00  0.00     0.041 A 
ATOM     68  F   UNL     1      11.410 -10.685  -3.934  1.00  0.00    -0.206 F 
ATOM     69  C   UNL     1      10.645 -14.170  -4.534  1.00  0.00     0.022 A 
BRANCH  66  70
ATOM     70  S   UNL     1       8.302 -15.686  -4.519  1.00  0.00     0.124 S 
ATOM     71  O   UNL     1       7.639 -15.680  -3.219  1.00  0.00    -0.237 OA
ATOM     72  O   UNL     1       7.437 -15.483  -5.676  1.00  0.00    -0.237 OA
ATOM     73  O   UNL     1       9.330 -16.712  -4.687  1.00  0.00    -0.744 OA
ENDBRANCH  66  70
ENDBRANCH  40  63
ENDBRANCH  14  15
ENDBRANCH   7   9
ENDBRANCH   4   5
ENDBRANCH   3   4
ENDBRANCH   2   3
ENDBRANCH   1   2
BRANCH   1  74
ATOM     74  N   UNL     1       5.846   4.160   1.167  1.00  0.00    -0.352 N 
ATOM     75  C   UNL     1       6.408   4.819   2.217  1.00  0.00     0.253 C 
ATOM     76  H   UNL     1       6.437   3.557   0.661  1.00  0.00     0.163 HD
ATOM     77  O   UNL     1       7.495   4.456   2.660  1.00  0.00    -0.269 OA
BRANCH  75  78
ATOM     78  C   UNL     1       5.787   6.035   2.766  1.00  0.00     0.065 A 
ATOM     79  C   UNL     1       6.250   7.218   2.166  1.00  0.00     0.042 A 
ATOM     80  C   UNL     1       5.087   6.056   3.982  1.00  0.00     0.050 A 
ATOM     81  C   UNL     1       6.244   8.409   2.874  1.00  0.00     0.050 A 
ATOM     82  C   UNL     1       4.926   7.317   4.587  1.00  0.00     0.029 A 
ATOM     83  C   UNL     1       5.546   8.472   4.074  1.00  0.00     0.029 A 
BRANCH  80  84
ATOM     84  N   UNL     1       4.558   4.943   4.644  1.00  0.00    -0.369 N 
ATOM     85  C   UNL     1       5.481   3.828   4.942  1.00  0.00     0.127 C 
ATOM     86  C   UNL     1       3.193   4.559   4.243  1.00  0.00     0.127 C 
ATOM     87  C   UNL     1       4.986   2.988   6.122  1.00  0.00     0.091 C 
ATOM     88  C   UNL     1       2.473   3.752   5.327  1.00  0.00     0.091 C 
ATOM     89  S   UNL     1       3.361   2.228   5.785  1.00  0.00    -0.158 SA
ENDBRANCH  80  84
BRANCH  81  90
ATOM     90  N   UNL     1       7.067   9.488   2.415  1.00  0.00    -0.280 N 
ATOM     91  H   UNL     1       6.703  10.159   1.793  1.00  0.00     0.180 HD
BRANCH  90  92
ATOM     92  S   UNL     1       8.699   9.604   2.962  1.00  0.00     0.262 S 
ATOM     93  O   UNL     1       9.087  10.953   2.577  1.00  0.00    -0.201 OA
ATOM     94  O   UNL     1       8.790   9.171   4.332  1.00  0.00    -0.201 OA
BRANCH  92  95
ATOM     95  C   UNL     1       9.640   8.495   1.932  1.00  0.00     0.091 A 
ATOM     96  C   UNL     1       9.246   7.162   1.841  1.00  0.00     0.026 A 
ATOM     97  C   UNL     1      10.660   8.967   1.104  1.00  0.00     0.072 A 
ATOM     98  C   UNL     1       9.483   6.461   0.664  1.00  0.00     0.052 A 
ATOM     99  C   UNL     1      11.018   8.194   0.010  1.00  0.00     0.162 A 
ATOM    100  C   UNL     1      10.271   7.061  -0.301  1.00  0.00     0.161 A 
BRANCH  99 101
ATOM    101  O   UNL     1      12.135   8.460  -0.718  1.00  0.00    -0.490 OA
BRANCH 101 102
ATOM    102  C   UNL     1      11.923   9.114  -1.959  1.00  0.00     0.233 CG0
ATOM    103  G   UNL     1      10.865   8.585  -2.934  1.00  0.00     0.000 G0
ENDBRANCH 101 102
ENDBRANCH  99 101
BRANCH 100 104
ATOM    104  O   UNL     1      10.139   6.664  -1.606  1.00  0.00    -0.490 OA
BRANCH 104 105
ATOM    105  C   UNL     1       9.692   7.813  -2.354  1.00  0.00     0.233 C 
BRANCH 105 106
ATOM    106  C   UNL     1      10.865   8.585  -2.934  1.00  0.00     0.083 CG0
ATOM    107  G   UNL     1      11.923   9.114  -1.959  1.00  0.00     0.000 G0
ENDBRANCH 105 106
ENDBRANCH 104 105
ENDBRANCH 100 104
ENDBRANCH  92  95
ENDBRANCH  90  92
ENDBRANCH  81  90
ENDBRANCH  75  78
ENDBRANCH   1  74
TORSDOF 18
