REMARK SMILES O=C(NCCCCNC(=O)[C@@H]1C=C[C@@H]([NH+]2CC3(CCOCC3)C2)C1)c1ccc(-c2c3nc(c(-c4cc(S(=O)(=O)[O-])ccc4F)c4ccc([nH]4)c(-c4cc(S(=O)(=O)[O-])ccc4F)c4nc(c(-c5cc(S(=O)(=O)[O-])ccc5F)c5ccc2[nH]5)C=C4)C=C3)cc1
REMARK SMILES IDX 4 1 3 2 1 3 2 4 25 6 26 7 87 8 27 9 86 10 28 11 29 12 30 13
REMARK SMILES IDX 80 14 31 15 85 16 79 17 81 18 32 19 84 20 78 21 77 22 33 24
REMARK SMILES IDX 65 25 45 26 64 27 46 28 49 29 63 30 82 31 47 32 48 33 62 35
REMARK SMILES IDX 83 36 50 37 34 38 35 39 43 40 36 41 42 42 44 43 41 44 37 45
REMARK SMILES IDX 38 46 39 47 40 48 66 49 67 50 75 51 68 52 74 53 76 54 73 55
REMARK SMILES IDX 69 56 70 57 71 58 72 59 51 60 52 61 60 62 53 63 59 64 61 65
REMARK SMILES IDX 58 66 54 67 55 68 56 69 57 70 5 71 6 72 7 73 8 74 9 75 10 77
REMARK SMILES IDX 11 78 12 79 24 80 13 81 14 82 15 83 16 84 23 85 17 87 18 88
REMARK SMILES IDX 22 89 19 90 21 91 20 92
REMARK H PARENT 3 5 81 23 49 34 8 76 15 86
REMARK Flexibility Score: inf
ROOT
ATOM      1  C   UNL     1       5.165 -10.580  -6.027  1.00  0.00     0.116 C 
ENDROOT
BRANCH   1   2
ATOM      2  N   UNL     1       5.457 -11.900  -5.481  1.00  0.00    -0.352 N 
ATOM      3  O   UNL     1       5.727 -14.143  -5.528  1.00  0.00    -0.269 OA
ATOM      4  C   UNL     1       5.561 -13.103  -6.144  1.00  0.00     0.251 C 
ATOM      5  H   UNL     1       5.598 -11.936  -4.507  1.00  0.00     0.163 HD
BRANCH   4   6
ATOM      6  C   UNL     1       5.429 -13.105  -7.614  1.00  0.00     0.039 A 
ATOM      7  C   UNL     1       6.173 -12.207  -8.382  1.00  0.00     0.014 A 
ATOM      8  C   UNL     1       4.489 -13.947  -8.211  1.00  0.00     0.014 A 
ATOM      9  C   UNL     1       5.853 -12.029  -9.720  1.00  0.00     0.010 A 
ATOM     10  C   UNL     1       4.238 -13.832  -9.579  1.00  0.00     0.010 A 
ATOM     11  C   UNL     1       4.885 -12.841 -10.335  1.00  0.00    -0.014 A 
BRANCH  11  12
ATOM     12  C   UNL     1       4.593 -12.650 -11.778  1.00  0.00     0.031 A 
ATOM     13  C   UNL     1       3.236 -12.198 -12.243  1.00  0.00     0.074 A 
ATOM     14  C   UNL     1       5.585 -12.854 -12.665  1.00  0.00     0.049 A 
ATOM     15  N   UNL     1       2.812 -11.979 -13.462  1.00  0.00    -0.248 NA
ATOM     16  C   UNL     1       2.219 -11.978 -11.206  1.00  0.00     0.031 C 
ATOM     17  C   UNL     1       6.942 -13.288 -12.320  1.00  0.00     0.029 A 
ATOM     18  N   UNL     1       5.621 -12.701 -14.025  1.00  0.00    -0.354 N 
ATOM     19  C   UNL     1       1.473 -11.619 -13.344  1.00  0.00     0.074 A 
ATOM     20  C   UNL     1       1.151 -11.683 -11.933  1.00  0.00     0.031 C 
ATOM     21  C   UNL     1       7.691 -13.309 -13.430  1.00  0.00     0.029 A 
ATOM     22  C   UNL     1       6.853 -12.968 -14.572  1.00  0.00     0.049 A 
ATOM     23  H   UNL     1       4.841 -12.426 -14.558  1.00  0.00     0.167 HD
ATOM     24  C   UNL     1       0.602 -11.264 -14.323  1.00  0.00     0.034 A 
ATOM     25  C   UNL     1       7.261 -12.961 -15.855  1.00  0.00     0.034 A 
ATOM     26  C   UNL     1       0.952 -11.202 -15.724  1.00  0.00     0.049 A 
ATOM     27  C   UNL     1       6.269 -12.601 -16.923  1.00  0.00     0.074 A 
ATOM     28  C   UNL     1       0.162 -10.828 -16.798  1.00  0.00     0.029 A 
ATOM     29  N   UNL     1       2.197 -11.533 -16.250  1.00  0.00    -0.354 N 
ATOM     30  N   UNL     1       5.006 -12.263 -16.797  1.00  0.00    -0.248 NA
ATOM     31  C   UNL     1       6.757 -12.623 -18.305  1.00  0.00     0.031 C 
ATOM     32  C   UNL     1       0.905 -10.996 -17.973  1.00  0.00     0.029 A 
ATOM     33  C   UNL     1       2.185 -11.402 -17.632  1.00  0.00     0.049 A 
ATOM     34  H   UNL     1       2.975 -11.818 -15.718  1.00  0.00     0.167 HD
ATOM     35  C   UNL     1       4.552 -12.014 -18.087  1.00  0.00     0.074 A 
ATOM     36  C   UNL     1       5.683 -12.224 -18.971  1.00  0.00     0.031 C 
ATOM     37  C   UNL     1       3.314 -11.641 -18.503  1.00  0.00     0.034 A 
BRANCH  24  38
ATOM     38  C   UNL     1      -0.825 -10.976 -13.911  1.00  0.00     0.023 A 
ATOM     39  C   UNL     1      -1.152  -9.919 -13.042  1.00  0.00     0.031 A 
ATOM     40  C   UNL     1      -1.873 -11.801 -14.359  1.00  0.00     0.131 A 
ATOM     41  C   UNL     1      -2.470  -9.769 -12.581  1.00  0.00     0.055 A 
ATOM     42  C   UNL     1      -3.197 -11.594 -13.964  1.00  0.00     0.041 A 
ATOM     43  F   UNL     1      -1.626 -12.838 -15.174  1.00  0.00    -0.206 F 
ATOM     44  C   UNL     1      -3.500 -10.585 -13.055  1.00  0.00     0.022 A 
BRANCH  41  45
ATOM     45  S   UNL     1      -2.788  -8.604 -11.226  1.00  0.00     0.124 S 
ATOM     46  O   UNL     1      -1.851  -9.072 -10.206  1.00  0.00    -0.237 OA
ATOM     47  O   UNL     1      -2.476  -7.318 -11.837  1.00  0.00    -0.237 OA
ATOM     48  O   UNL     1      -4.198  -8.822 -10.909  1.00  0.00    -0.744 OA
ENDBRANCH  41  45
ENDBRANCH  24  38
BRANCH  25  49
ATOM     49  C   UNL     1       8.664 -13.327 -16.187  1.00  0.00     0.023 A 
ATOM     50  C   UNL     1       9.552 -12.380 -16.717  1.00  0.00     0.031 A 
ATOM     51  C   UNL     1       9.139 -14.633 -15.966  1.00  0.00     0.131 A 
ATOM     52  C   UNL     1      10.866 -12.758 -17.031  1.00  0.00     0.055 A 
ATOM     53  C   UNL     1      10.460 -14.991 -16.236  1.00  0.00     0.041 A 
ATOM     54  F   UNL     1       8.330 -15.572 -15.451  1.00  0.00    -0.206 F 
ATOM     55  C   UNL     1      11.330 -14.052 -16.780  1.00  0.00     0.022 A 
BRANCH  52  56
ATOM     56  S   UNL     1      11.953 -11.540 -17.819  1.00  0.00     0.124 S 
ATOM     57  O   UNL     1      11.225 -11.241 -19.047  1.00  0.00    -0.237 OA
ATOM     58  O   UNL     1      11.993 -10.477 -16.821  1.00  0.00    -0.237 OA
ATOM     59  O   UNL     1      13.207 -12.270 -17.999  1.00  0.00    -0.744 OA
ENDBRANCH  52  56
ENDBRANCH  25  49
BRANCH  37  60
ATOM     60  C   UNL     1       3.145 -11.404 -19.983  1.00  0.00     0.023 A 
ATOM     61  C   UNL     1       3.228 -12.455 -20.913  1.00  0.00     0.031 A 
ATOM     62  C   UNL     1       2.937 -10.102 -20.469  1.00  0.00     0.131 A 
ATOM     63  C   UNL     1       3.165 -12.177 -22.287  1.00  0.00     0.055 A 
ATOM     64  C   UNL     1       2.816  -9.839 -21.834  1.00  0.00     0.041 A 
ATOM     65  F   UNL     1       2.854  -9.062 -19.625  1.00  0.00    -0.206 F 
ATOM     66  C   UNL     1       2.945 -10.878 -22.753  1.00  0.00     0.022 A 
BRANCH  63  67
ATOM     67  S   UNL     1       3.480 -13.521 -23.463  1.00  0.00     0.124 S 
ATOM     68  O   UNL     1       4.817 -13.959 -23.073  1.00  0.00    -0.237 OA
ATOM     69  O   UNL     1       2.394 -14.451 -23.172  1.00  0.00    -0.237 OA
ATOM     70  O   UNL     1       3.399 -12.863 -24.766  1.00  0.00    -0.744 OA
ENDBRANCH  63  67
ENDBRANCH  37  60
ENDBRANCH  11  12
ENDBRANCH   4   6
ENDBRANCH   1   2
BRANCH   1  71
ATOM     71  C   UNL     1       4.072  -9.839  -5.270  1.00  0.00     0.023 C 
BRANCH  71  72
ATOM     72  C   UNL     1       4.308  -9.694  -3.772  1.00  0.00     0.023 C 
BRANCH  72  73
ATOM     73  C   UNL     1       5.696  -9.210  -3.380  1.00  0.00     0.116 C 
BRANCH  73  74
ATOM     74  N   UNL     1       5.982  -7.871  -3.841  1.00  0.00    -0.356 N 
ATOM     75  C   UNL     1       6.698  -6.881  -3.247  1.00  0.00     0.227 C 
ATOM     76  H   UNL     1       5.599  -7.640  -4.718  1.00  0.00     0.163 HD
ATOM     77  O   UNL     1       6.936  -5.872  -3.920  1.00  0.00    -0.274 OA
BRANCH  75  78
ATOM     78  C   UNL     1       7.106  -6.917  -1.772  1.00  0.00     0.107 C 
ATOM     79  C   UNL     1       7.710  -8.147  -1.175  1.00  0.00    -0.012 C 
ATOM     80  C   UNL     1       5.915  -6.620  -0.855  1.00  0.00     0.087 C 
ATOM     81  C   UNL     1       6.971  -8.632  -0.168  1.00  0.00     0.033 C 
ATOM     82  C   UNL     1       5.691  -7.864   0.031  1.00  0.00     0.208 C 
BRANCH  82  83
ATOM     83  N   UNL     1       5.348  -7.725   1.448  1.00  0.00    -0.328 N 
ATOM     84  C   UNL     1       4.068  -7.046   1.683  1.00  0.00     0.275 C 
ATOM     85  C   UNL     1       6.104  -6.695   2.156  1.00  0.00     0.275 C 
ATOM     86  H   UNL     1       5.457  -8.696   1.740  1.00  0.00     0.348 HD
ATOM     87  C   UNL     1       4.810  -5.850   2.345  1.00  0.00     0.073 C 
ATOM     88  C   UNL     1       4.585  -5.591   3.842  1.00  0.00     0.047 C 
ATOM     89  C   UNL     1       4.718  -4.538   1.552  1.00  0.00     0.047 C 
ATOM     90  C   UNL     1       3.338  -4.748   4.061  1.00  0.00     0.161 C 
ATOM     91  C   UNL     1       3.462  -3.768   1.930  1.00  0.00     0.161 C 
ATOM     92  O   UNL     1       3.434  -3.524   3.334  1.00  0.00    -0.381 OA
ENDBRANCH  82  83
ENDBRANCH  75  78
ENDBRANCH  73  74
ENDBRANCH  72  73
ENDBRANCH  71  72
ENDBRANCH   1  71
TORSDOF 15
