REMARK SMILES CC(C)(C(=O)NCCCCNC(=O)c1ccc(-c2c3nc(c(-c4cc(S(=O)(=O)[O-])ccc4F)c4ccc([nH]4)c(-c4cc(S(=O)(=O)[O-])ccc4F)c4nc(c(-c5cc(S(=O)(=O)[O-])ccc5F)c5ccc2[nH]5)C=C4)C=C3)cc1)c1ccc(NS(=O)(=O)c2c(F)cc(F)cc2F)cc1
REMARK SMILES IDX 8 1 7 2 6 3 4 4 5 5 2 7 1 8 3 9 77 10 78 11 95 12 79 13
REMARK SMILES IDX 94 14 80 15 81 16 82 18 83 19 84 20 85 21 86 22 92 23 87 24
REMARK SMILES IDX 88 25 91 26 93 27 89 28 90 29 9 30 10 31 11 32 12 33 13 35
REMARK SMILES IDX 14 36 15 37 76 38 16 39 75 40 17 41 18 42 19 43 69 44 20 45
REMARK SMILES IDX 74 46 68 47 70 48 21 49 73 50 67 51 66 52 22 54 54 55 34 56
REMARK SMILES IDX 53 57 35 58 38 59 52 60 71 61 36 62 37 63 51 65 72 66 39 67
REMARK SMILES IDX 23 68 24 69 32 70 25 71 31 72 33 73 30 74 26 75 27 76 28 77
REMARK SMILES IDX 29 78 55 79 56 80 64 81 57 82 63 83 65 84 62 85 58 86 59 87
REMARK SMILES IDX 60 88 61 89 40 90 41 91 49 92 42 93 48 94 50 95 47 96 43 97
REMARK SMILES IDX 44 98 45 99 46 100
REMARK H PARENT 6 6 81 17 11 34 70 53 38 64
REMARK Flexibility Score: inf
ROOT
ATOM      1  C   UNL     1      -1.225  -2.290  -1.424  1.00  0.00     0.023 C 
ENDROOT
BRANCH   1   2
ATOM      2  C   UNL     1      -0.896  -1.070  -2.281  1.00  0.00     0.116 C 
BRANCH   2   3
ATOM      3  N   UNL     1      -1.406   0.144  -1.685  1.00  0.00    -0.355 N 
ATOM      4  C   UNL     1      -0.807   1.191  -1.062  1.00  0.00     0.230 C 
ATOM      5  O   UNL     1      -1.587   2.055  -0.644  1.00  0.00    -0.274 OA
ATOM      6  H   UNL     1      -2.385   0.230  -1.744  1.00  0.00     0.163 HD
BRANCH   4   7
ATOM      7  C   UNL     1       0.742   1.336  -0.909  1.00  0.00     0.068 C 
ATOM      8  C   UNL     1       1.382   0.082  -0.264  1.00  0.00     0.026 C 
ATOM      9  C   UNL     1       1.372   1.542  -2.301  1.00  0.00     0.026 C 
BRANCH   7  10
ATOM     10  C   UNL     1       1.007   2.558   0.019  1.00  0.00    -0.033 A 
ATOM     11  C   UNL     1       0.843   2.409   1.403  1.00  0.00     0.007 A 
ATOM     12  C   UNL     1       1.252   3.859  -0.462  1.00  0.00     0.007 A 
ATOM     13  C   UNL     1       0.912   3.505   2.257  1.00  0.00     0.027 A 
ATOM     14  C   UNL     1       1.386   4.952   0.415  1.00  0.00     0.027 A 
ATOM     15  C   UNL     1       1.238   4.771   1.787  1.00  0.00     0.049 A 
BRANCH  15  16
ATOM     16  N   UNL     1       1.289   5.879   2.700  1.00  0.00    -0.279 N 
ATOM     17  H   UNL     1       0.590   6.572   2.679  1.00  0.00     0.180 HD
BRANCH  16  18
ATOM     18  S   UNL     1       2.574   5.986   3.823  1.00  0.00     0.267 S 
ATOM     19  O   UNL     1       3.768   6.275   3.050  1.00  0.00    -0.201 OA
ATOM     20  O   UNL     1       2.163   6.923   4.843  1.00  0.00    -0.201 OA
BRANCH  18  21
ATOM     21  C   UNL     1       2.727   4.404   4.562  1.00  0.00     0.159 A 
ATOM     22  C   UNL     1       3.721   3.523   4.151  1.00  0.00     0.149 A 
ATOM     23  C   UNL     1       1.783   3.983   5.497  1.00  0.00     0.149 A 
ATOM     24  F   UNL     1       4.660   3.878   3.267  1.00  0.00    -0.205 F 
ATOM     25  C   UNL     1       3.729   2.206   4.602  1.00  0.00     0.080 A 
ATOM     26  C   UNL     1       1.777   2.664   5.950  1.00  0.00     0.080 A 
ATOM     27  F   UNL     1       0.792   4.787   5.899  1.00  0.00    -0.205 F 
ATOM     28  C   UNL     1       2.743   1.783   5.483  1.00  0.00     0.129 A 
ATOM     29  F   UNL     1       2.709   0.501   5.866  1.00  0.00    -0.207 F 
ENDBRANCH  18  21
ENDBRANCH  16  18
ENDBRANCH  15  16
ENDBRANCH   7  10
ENDBRANCH   4   7
ENDBRANCH   2   3
ENDBRANCH   1   2
BRANCH   1  30
ATOM     30  C   UNL     1      -2.713  -2.646  -1.373  1.00  0.00     0.023 C 
BRANCH  30  31
ATOM     31  C   UNL     1      -3.396  -2.787  -2.730  1.00  0.00     0.116 C 
BRANCH  31  32
ATOM     32  N   UNL     1      -2.713  -3.717  -3.616  1.00  0.00    -0.352 N 
ATOM     33  C   UNL     1      -3.256  -4.648  -4.469  1.00  0.00     0.251 C 
ATOM     34  H   UNL     1      -1.729  -3.673  -3.603  1.00  0.00     0.163 HD
ATOM     35  O   UNL     1      -2.525  -5.441  -5.054  1.00  0.00    -0.269 OA
BRANCH  33  36
ATOM     36  C   UNL     1      -4.722  -4.706  -4.634  1.00  0.00     0.039 A 
ATOM     37  C   UNL     1      -5.367  -5.938  -4.510  1.00  0.00     0.014 A 
ATOM     38  C   UNL     1      -5.458  -3.540  -4.862  1.00  0.00     0.014 A 
ATOM     39  C   UNL     1      -6.761  -5.990  -4.543  1.00  0.00     0.010 A 
ATOM     40  C   UNL     1      -6.848  -3.585  -4.820  1.00  0.00     0.010 A 
ATOM     41  C   UNL     1      -7.514  -4.809  -4.657  1.00  0.00    -0.014 A 
BRANCH  41  42
ATOM     42  C   UNL     1      -8.999  -4.836  -4.609  1.00  0.00     0.031 A 
ATOM     43  C   UNL     1      -9.796  -4.395  -5.806  1.00  0.00     0.074 A 
ATOM     44  C   UNL     1      -9.624  -5.193  -3.470  1.00  0.00     0.049 A 
ATOM     45  N   UNL     1     -11.091  -4.266  -5.936  1.00  0.00    -0.248 NA
ATOM     46  C   UNL     1      -9.031  -4.020  -7.004  1.00  0.00     0.031 C 
ATOM     47  C   UNL     1      -8.955  -5.598  -2.230  1.00  0.00     0.029 A 
ATOM     48  N   UNL     1     -10.959  -5.265  -3.162  1.00  0.00    -0.354 N 
ATOM     49  C   UNL     1     -11.296  -3.786  -7.225  1.00  0.00     0.074 A 
ATOM     50  C   UNL     1      -9.987  -3.583  -7.809  1.00  0.00     0.031 C 
ATOM     51  C   UNL     1      -9.883  -5.896  -1.307  1.00  0.00     0.029 A 
ATOM     52  C   UNL     1     -11.209  -5.660  -1.867  1.00  0.00     0.049 A 
ATOM     53  H   UNL     1     -11.672  -5.054  -3.807  1.00  0.00     0.167 HD
ATOM     54  C   UNL     1     -12.468  -3.562  -7.871  1.00  0.00     0.034 A 
ATOM     55  C   UNL     1     -12.374  -5.800  -1.203  1.00  0.00     0.034 A 
ATOM     56  C   UNL     1     -13.764  -3.778  -7.274  1.00  0.00     0.049 A 
ATOM     57  C   UNL     1     -13.664  -5.520  -1.933  1.00  0.00     0.074 A 
ATOM     58  C   UNL     1     -15.013  -3.627  -7.849  1.00  0.00     0.029 A 
ATOM     59  N   UNL     1     -13.979  -4.184  -5.963  1.00  0.00    -0.354 N 
ATOM     60  N   UNL     1     -13.842  -5.114  -3.170  1.00  0.00    -0.248 NA
ATOM     61  C   UNL     1     -14.909  -5.729  -1.183  1.00  0.00     0.031 C 
ATOM     62  C   UNL     1     -15.981  -3.875  -6.870  1.00  0.00     0.029 A 
ATOM     63  C   UNL     1     -15.339  -4.261  -5.704  1.00  0.00     0.049 A 
ATOM     64  H   UNL     1     -13.268  -4.388  -5.312  1.00  0.00     0.167 HD
ATOM     65  C   UNL     1     -15.221  -5.050  -3.353  1.00  0.00     0.074 A 
ATOM     66  C   UNL     1     -15.824  -5.475  -2.106  1.00  0.00     0.031 C 
ATOM     67  C   UNL     1     -15.926  -4.678  -4.452  1.00  0.00     0.034 A 
BRANCH  54  68
ATOM     68  C   UNL     1     -12.390  -3.039  -9.286  1.00  0.00     0.023 A 
ATOM     69  C   UNL     1     -11.784  -3.782 -10.314  1.00  0.00     0.031 A 
ATOM     70  C   UNL     1     -12.902  -1.769  -9.608  1.00  0.00     0.131 A 
ATOM     71  C   UNL     1     -11.631  -3.220 -11.590  1.00  0.00     0.055 A 
ATOM     72  C   UNL     1     -12.825  -1.251 -10.902  1.00  0.00     0.041 A 
ATOM     73  F   UNL     1     -13.473  -1.003  -8.665  1.00  0.00    -0.206 F 
ATOM     74  C   UNL     1     -12.172  -1.970 -11.899  1.00  0.00     0.022 A 
BRANCH  71  75
ATOM     75  S   UNL     1     -10.586  -4.083 -12.795  1.00  0.00     0.124 S 
ATOM     76  O   UNL     1      -9.306  -4.134 -12.091  1.00  0.00    -0.237 OA
ATOM     77  O   UNL     1     -11.277  -5.356 -12.959  1.00  0.00    -0.237 OA
ATOM     78  O   UNL     1     -10.611  -3.203 -13.962  1.00  0.00    -0.744 OA
ENDBRANCH  71  75
ENDBRANCH  54  68
BRANCH  55  79
ATOM     79  C   UNL     1     -12.383  -6.212   0.230  1.00  0.00     0.023 A 
ATOM     80  C   UNL     1     -12.965  -7.425   0.633  1.00  0.00     0.031 A 
ATOM     81  C   UNL     1     -11.849  -5.375   1.227  1.00  0.00     0.131 A 
ATOM     82  C   UNL     1     -13.045  -7.744   1.998  1.00  0.00     0.055 A 
ATOM     83  C   UNL     1     -11.881  -5.723   2.579  1.00  0.00     0.041 A 
ATOM     84  F   UNL     1     -11.276  -4.207   0.897  1.00  0.00    -0.206 F 
ATOM     85  C   UNL     1     -12.495  -6.908   2.972  1.00  0.00     0.022 A 
BRANCH  82  86
ATOM     86  S   UNL     1     -13.963  -9.229   2.489  1.00  0.00     0.124 S 
ATOM     87  O   UNL     1     -15.278  -8.968   1.917  1.00  0.00    -0.237 OA
ATOM     88  O   UNL     1     -13.185 -10.288   1.855  1.00  0.00    -0.237 OA
ATOM     89  O   UNL     1     -13.899  -9.201   3.949  1.00  0.00    -0.744 OA
ENDBRANCH  82  86
ENDBRANCH  55  79
BRANCH  67  90
ATOM     90  C   UNL     1     -17.430  -4.763  -4.364  1.00  0.00     0.023 A 
ATOM     91  C   UNL     1     -18.172  -3.932  -3.507  1.00  0.00     0.031 A 
ATOM     92  C   UNL     1     -18.130  -5.700  -5.145  1.00  0.00     0.131 A 
ATOM     93  C   UNL     1     -19.563  -4.091  -3.409  1.00  0.00     0.055 A 
ATOM     94  C   UNL     1     -19.520  -5.811  -5.091  1.00  0.00     0.041 A 
ATOM     95  F   UNL     1     -17.473  -6.522  -5.979  1.00  0.00    -0.206 F 
ATOM     96  C   UNL     1     -20.243  -5.014  -4.209  1.00  0.00     0.022 A 
BRANCH  93  97
ATOM     97  S   UNL     1     -20.463  -3.142  -2.153  1.00  0.00     0.124 S 
ATOM     98  O   UNL     1     -19.802  -3.565  -0.922  1.00  0.00    -0.237 OA
ATOM     99  O   UNL     1     -20.217  -1.764  -2.567  1.00  0.00    -0.237 OA
ATOM    100  O   UNL     1     -21.844  -3.596  -2.304  1.00  0.00    -0.744 OA
ENDBRANCH  93  97
ENDBRANCH  67  90
ENDBRANCH  41  42
ENDBRANCH  33  36
ENDBRANCH  31  32
ENDBRANCH  30  31
ENDBRANCH   1  30
TORSDOF 18
