REMARK SMILES O=C(NCCCCNC(=O)[C@H]1Cc2ccc(Cl)cc2C[N@@H+]1Cc1ccc(Cl)cc1)c1ccc(-c2c3nc(c(-c4cc(S(=O)(=O)[O-])ccc4F)c4ccc([nH]4)c(-c4cc(S(=O)(=O)[O-])ccc4F)c4nc(c(-c5cc(S(=O)(=O)[O-])ccc5F)c5ccc2[nH]5)C=C4)C=C3)cc1
REMARK SMILES IDX 5 1 4 2 3 3 1 4 2 5 30 7 31 8 92 9 32 10 91 11 33 12 34 13
REMARK SMILES IDX 35 14 85 15 36 16 90 17 84 18 86 19 37 20 89 21 83 22 82 23
REMARK SMILES IDX 38 25 70 26 50 27 69 28 51 29 54 30 68 31 87 32 52 33 53 34
REMARK SMILES IDX 67 36 88 37 55 38 39 39 40 40 48 41 41 42 47 43 49 44 46 45
REMARK SMILES IDX 42 46 43 47 44 48 45 49 71 50 72 51 80 52 73 53 79 54 81 55
REMARK SMILES IDX 78 56 74 57 75 58 76 59 77 60 56 61 57 62 65 63 58 64 64 65
REMARK SMILES IDX 66 66 63 67 59 68 60 69 61 70 62 71 6 72 7 73 8 74 9 75
REMARK SMILES IDX 10 77 11 78 12 79 21 80 13 81 20 82 14 84 19 85 15 86 18 87
REMARK SMILES IDX 16 88 17 89 22 90 23 91 24 92 29 93 25 94 28 95 26 96 27 97
REMARK H PARENT 3 6 86 24 54 35 8 76 21 83
REMARK Flexibility Score: inf
ROOT
ATOM      1  C   UNL     1       4.888  -1.409  -1.992  1.00  0.00     0.023 C 
ENDROOT
BRANCH   1   2
ATOM      2  C   UNL     1       4.550  -0.261  -1.051  1.00  0.00     0.116 C 
BRANCH   2   3
ATOM      3  N   UNL     1       3.120  -0.009  -0.978  1.00  0.00    -0.352 N 
ATOM      4  O   UNL     1       1.093   0.123  -0.008  1.00  0.00    -0.269 OA
ATOM      5  C   UNL     1       2.318   0.091   0.128  1.00  0.00     0.251 C 
ATOM      6  H   UNL     1       2.665   0.106  -1.844  1.00  0.00     0.163 HD
BRANCH   5   7
ATOM      7  C   UNL     1       2.918   0.154   1.476  1.00  0.00     0.039 A 
ATOM      8  C   UNL     1       2.323  -0.560   2.518  1.00  0.00     0.014 A 
ATOM      9  C   UNL     1       4.049   0.940   1.719  1.00  0.00     0.014 A 
ATOM     10  C   UNL     1       2.869  -0.494   3.800  1.00  0.00     0.010 A 
ATOM     11  C   UNL     1       4.645   0.930   2.975  1.00  0.00     0.010 A 
ATOM     12  C   UNL     1       4.038   0.248   4.038  1.00  0.00    -0.014 A 
BRANCH  12  13
ATOM     13  C   UNL     1       4.591   0.394   5.408  1.00  0.00     0.031 A 
ATOM     14  C   UNL     1       4.632   1.756   6.050  1.00  0.00     0.074 A 
ATOM     15  C   UNL     1       5.079  -0.678   6.060  1.00  0.00     0.049 A 
ATOM     16  N   UNL     1       5.105   2.103   7.218  1.00  0.00    -0.248 NA
ATOM     17  C   UNL     1       4.098   2.882   5.264  1.00  0.00     0.031 C 
ATOM     18  C   UNL     1       5.128  -2.037   5.521  1.00  0.00     0.029 A 
ATOM     19  N   UNL     1       5.629  -0.795   7.313  1.00  0.00    -0.354 N 
ATOM     20  C   UNL     1       4.938   3.481   7.298  1.00  0.00     0.074 A 
ATOM     21  C   UNL     1       4.391   3.917   6.035  1.00  0.00     0.031 C 
ATOM     22  C   UNL     1       5.647  -2.856   6.448  1.00  0.00     0.029 A 
ATOM     23  C   UNL     1       6.013  -2.078   7.630  1.00  0.00     0.049 A 
ATOM     24  H   UNL     1       5.739  -0.033   7.926  1.00  0.00     0.167 HD
ATOM     25  C   UNL     1       5.182   4.302   8.346  1.00  0.00     0.034 A 
ATOM     26  C   UNL     1       6.594  -2.571   8.745  1.00  0.00     0.034 A 
ATOM     27  C   UNL     1       5.689   3.844   9.612  1.00  0.00     0.049 A 
ATOM     28  C   UNL     1       6.856  -1.639   9.902  1.00  0.00     0.074 A 
ATOM     29  C   UNL     1       5.912   4.585  10.758  1.00  0.00     0.029 A 
ATOM     30  N   UNL     1       6.045   2.535   9.905  1.00  0.00    -0.354 N 
ATOM     31  N   UNL     1       6.607  -0.353   9.997  1.00  0.00    -0.248 NA
ATOM     32  C   UNL     1       7.458  -2.219  11.110  1.00  0.00     0.031 C 
ATOM     33  C   UNL     1       6.472   3.743  11.717  1.00  0.00     0.029 A 
ATOM     34  C   UNL     1       6.515   2.455  11.205  1.00  0.00     0.049 A 
ATOM     35  H   UNL     1       5.975   1.777   9.281  1.00  0.00     0.167 HD
ATOM     36  C   UNL     1       6.996   0.022  11.281  1.00  0.00     0.074 A 
ATOM     37  C   UNL     1       7.471  -1.179  11.935  1.00  0.00     0.031 C 
ATOM     38  C   UNL     1       6.965   1.249  11.861  1.00  0.00     0.034 A 
BRANCH  25  39
ATOM     39  C   UNL     1       4.879   5.774   8.200  1.00  0.00     0.023 A 
ATOM     40  C   UNL     1       5.909   6.720   8.356  1.00  0.00     0.031 A 
ATOM     41  C   UNL     1       3.563   6.245   8.040  1.00  0.00     0.131 A 
ATOM     42  C   UNL     1       5.600   8.085   8.392  1.00  0.00     0.055 A 
ATOM     43  C   UNL     1       3.268   7.609   8.022  1.00  0.00     0.041 A 
ATOM     44  F   UNL     1       2.543   5.385   7.890  1.00  0.00    -0.206 F 
ATOM     45  C   UNL     1       4.288   8.535   8.215  1.00  0.00     0.022 A 
BRANCH  42  46
ATOM     46  S   UNL     1       6.875   9.325   8.749  1.00  0.00     0.124 S 
ATOM     47  O   UNL     1       6.811  10.171   7.559  1.00  0.00    -0.237 OA
ATOM     48  O   UNL     1       6.371   9.934   9.976  1.00  0.00    -0.237 OA
ATOM     49  O   UNL     1       8.098   8.542   8.887  1.00  0.00    -0.744 OA
ENDBRANCH  42  46
ENDBRANCH  25  39
BRANCH  26  50
ATOM     50  C   UNL     1       6.891  -4.033   8.821  1.00  0.00     0.023 A 
ATOM     51  C   UNL     1       7.772  -4.640   7.907  1.00  0.00     0.031 A 
ATOM     52  C   UNL     1       6.213  -4.861   9.732  1.00  0.00     0.131 A 
ATOM     53  C   UNL     1       7.891  -6.036   7.875  1.00  0.00     0.055 A 
ATOM     54  C   UNL     1       6.395  -6.245   9.748  1.00  0.00     0.041 A 
ATOM     55  F   UNL     1       5.350  -4.333  10.614  1.00  0.00    -0.206 F 
ATOM     56  C   UNL     1       7.224  -6.841   8.802  1.00  0.00     0.022 A 
BRANCH  53  57
ATOM     57  S   UNL     1       8.800  -6.859   6.537  1.00  0.00     0.124 S 
ATOM     58  O   UNL     1       9.819  -7.603   7.272  1.00  0.00    -0.237 OA
ATOM     59  O   UNL     1       7.752  -7.667   5.919  1.00  0.00    -0.237 OA
ATOM     60  O   UNL     1       9.291  -5.753   5.722  1.00  0.00    -0.744 OA
ENDBRANCH  53  57
ENDBRANCH  26  50
BRANCH  38  61
ATOM     61  C   UNL     1       7.441   1.397  13.288  1.00  0.00     0.023 A 
ATOM     62  C   UNL     1       6.557   1.879  14.274  1.00  0.00     0.031 A 
ATOM     63  C   UNL     1       8.794   1.237  13.632  1.00  0.00     0.131 A 
ATOM     64  C   UNL     1       7.046   2.237  15.536  1.00  0.00     0.055 A 
ATOM     65  C   UNL     1       9.266   1.540  14.910  1.00  0.00     0.041 A 
ATOM     66  F   UNL     1       9.681   0.797  12.725  1.00  0.00    -0.206 F 
ATOM     67  C   UNL     1       8.394   2.059  15.863  1.00  0.00     0.022 A 
BRANCH  64  68
ATOM     68  S   UNL     1       5.979   3.048  16.758  1.00  0.00     0.124 S 
ATOM     69  O   UNL     1       6.017   2.100  17.869  1.00  0.00    -0.237 OA
ATOM     70  O   UNL     1       6.679   4.308  16.990  1.00  0.00    -0.237 OA
ATOM     71  O   UNL     1       4.691   3.161  16.082  1.00  0.00    -0.744 OA
ENDBRANCH  64  68
ENDBRANCH  38  61
ENDBRANCH  12  13
ENDBRANCH   5   7
ENDBRANCH   2   3
ENDBRANCH   1   2
BRANCH   1  72
ATOM     72  C   UNL     1       4.401  -1.222  -3.428  1.00  0.00     0.023 C 
BRANCH  72  73
ATOM     73  C   UNL     1       4.873   0.068  -4.096  1.00  0.00     0.116 C 
BRANCH  73  74
ATOM     74  N   UNL     1       6.315   0.082  -4.260  1.00  0.00    -0.351 N 
ATOM     75  C   UNL     1       7.059   0.099  -5.405  1.00  0.00     0.278 C 
ATOM     76  H   UNL     1       6.833   0.079  -3.423  1.00  0.00     0.163 HD
ATOM     77  O   UNL     1       8.287   0.045  -5.290  1.00  0.00    -0.268 OA
BRANCH  75  78
ATOM     78  C   UNL     1       6.395   0.161  -6.795  1.00  0.00     0.279 C 
ATOM     79  C   UNL     1       5.744  -1.213  -7.065  1.00  0.00     0.111 C 
ATOM     80  N   UNL     1       5.465   1.318  -6.913  1.00  0.00    -0.317 N 
ATOM     81  C   UNL     1       4.696  -1.207  -8.145  1.00  0.00    -0.033 A 
ATOM     82  C   UNL     1       4.787   1.325  -8.213  1.00  0.00     0.300 C 
ATOM     83  H   UNL     1       4.765   1.183  -6.184  1.00  0.00     0.349 HD
ATOM     84  C   UNL     1       4.194  -2.421  -8.636  1.00  0.00     0.006 A 
ATOM     85  C   UNL     1       4.196   0.004  -8.639  1.00  0.00     0.011 A 
ATOM     86  C   UNL     1       3.231  -2.431  -9.645  1.00  0.00     0.021 A 
ATOM     87  C   UNL     1       3.228  -0.015  -9.657  1.00  0.00     0.030 A 
ATOM     88  C   UNL     1       2.756  -1.227 -10.155  1.00  0.00     0.041 A 
ATOM     89  Cl  UNL     1       1.601  -1.232 -11.431  1.00  0.00    -0.084 Cl
BRANCH  80  90
ATOM     90  C   UNL     1       6.091   2.632  -6.617  1.00  0.00     0.299 C 
BRANCH  90  91
ATOM     91  C   UNL     1       7.304   3.006  -7.453  1.00  0.00     0.006 A 
ATOM     92  C   UNL     1       7.163   3.475  -8.768  1.00  0.00     0.011 A 
ATOM     93  C   UNL     1       8.599   2.824  -6.944  1.00  0.00     0.011 A 
ATOM     94  C   UNL     1       8.278   3.635  -9.592  1.00  0.00     0.021 A 
ATOM     95  C   UNL     1       9.719   3.007  -7.759  1.00  0.00     0.021 A 
ATOM     96  C   UNL     1       9.551   3.383  -9.088  1.00  0.00     0.041 A 
ATOM     97  Cl  UNL     1      10.920   3.525 -10.121  1.00  0.00    -0.084 Cl
ENDBRANCH  90  91
ENDBRANCH  80  90
ENDBRANCH  75  78
ENDBRANCH  73  74
ENDBRANCH  72  73
ENDBRANCH   1  72
TORSDOF 16
