REMARK SMILES CC/C=C/C/C=C/C/C=C/C/C=C/CC/C=C/COCC(=O)NCCCCNC(=O)c1ccc(-c2c3nc(c(-c4cc(S(=O)(=O)[O-])ccc4F)c4ccc([nH]4)c(-c4cc(S(=O)(=O)[O-])ccc4F)c4nc(c(-c5cc(S(=O)(=O)[O-])ccc5F)c5ccc2[nH]5)C=C4)C=C3)cc1
REMARK SMILES IDX 18 1 17 2 16 3 15 4 14 5 13 6 12 7 11 8 10 9 9 10 8 11 7 12
REMARK SMILES IDX 6 13 5 14 4 15 3 16 2 17 1 18 19 19 20 20 21 21 22 22 23 23
REMARK SMILES IDX 24 25 25 26 26 27 27 28 28 29 29 30 30 32 31 33 32 34 93 35
REMARK SMILES IDX 33 36 92 37 34 38 35 39 36 40 86 41 37 42 91 43 85 44 87 45
REMARK SMILES IDX 38 46 90 47 84 48 83 49 39 51 71 52 51 53 70 54 52 55 55 56
REMARK SMILES IDX 69 57 88 58 53 59 54 60 68 62 89 63 56 64 40 65 41 66 49 67
REMARK SMILES IDX 42 68 48 69 50 70 47 71 43 72 44 73 45 74 46 75 72 76 73 77
REMARK SMILES IDX 81 78 74 79 80 80 82 81 79 82 75 83 76 84 77 85 78 86 57 87
REMARK SMILES IDX 58 88 66 89 59 90 65 91 67 92 64 93 60 94 61 95 62 96 63 97
REMARK H PARENT 23 24 28 31 87 50 55 61
REMARK Flexibility Score: inf
ROOT
ATOM      1  C   UNL     1      -7.975 -12.703   7.945  1.00  0.00     0.188 C 
ENDROOT
BRANCH   1   2
ATOM      2  C   UNL     1      -7.371 -12.633   6.577  1.00  0.00    -0.003 C 
ATOM      3  C   UNL     1      -6.573 -11.629   6.186  1.00  0.00    -0.029 C 
BRANCH   3   4
ATOM      4  C   UNL     1      -6.086 -11.427   4.778  1.00  0.00     0.031 C 
BRANCH   4   5
ATOM      5  C   UNL     1      -6.672 -10.160   4.133  1.00  0.00     0.031 C 
BRANCH   5   6
ATOM      6  C   UNL     1      -6.223  -8.894   4.810  1.00  0.00    -0.031 C 
ATOM      7  C   UNL     1      -5.413  -7.981   4.251  1.00  0.00    -0.027 C 
BRANCH   7   8
ATOM      8  C   UNL     1      -4.929  -6.750   4.963  1.00  0.00     0.054 C 
BRANCH   8   9
ATOM      9  C   UNL     1      -3.427  -6.727   5.000  1.00  0.00    -0.027 C 
ATOM     10  C   UNL     1      -2.677  -5.747   4.471  1.00  0.00    -0.027 C 
BRANCH  10  11
ATOM     11  C   UNL     1      -1.176  -5.742   4.471  1.00  0.00     0.054 C 
BRANCH  11  12
ATOM     12  C   UNL     1      -0.650  -5.696   3.064  1.00  0.00    -0.027 C 
ATOM     13  C   UNL     1       0.120  -4.708   2.580  1.00  0.00    -0.027 C 
BRANCH  13  14
ATOM     14  C   UNL     1       0.621  -4.646   1.166  1.00  0.00     0.054 C 
BRANCH  14  15
ATOM     15  C   UNL     1       0.147  -3.392   0.488  1.00  0.00    -0.027 C 
ATOM     16  C   UNL     1       0.963  -2.445  -0.002  1.00  0.00    -0.031 C 
BRANCH  16  17
ATOM     17  C   UNL     1       0.482  -1.186  -0.663  1.00  0.00     0.023 C 
ATOM     18  C   UNL     1       0.968   0.048   0.083  1.00  0.00     0.008 C 
ENDBRANCH  16  17
ENDBRANCH  14  15
ENDBRANCH  13  14
ENDBRANCH  11  12
ENDBRANCH  10  11
ENDBRANCH   8   9
ENDBRANCH   7   8
ENDBRANCH   5   6
ENDBRANCH   4   5
ENDBRANCH   3   4
ENDBRANCH   1   2
BRANCH   1  19
ATOM     19  O   UNL     1      -9.399 -12.643   7.852  1.00  0.00    -0.368 OA
BRANCH  19  20
ATOM     20  C   UNL     1      -9.893 -11.398   7.370  1.00  0.00     0.260 C 
BRANCH  20  21
ATOM     21  C   UNL     1      -9.528 -10.143   8.171  1.00  0.00     0.246 C 
ATOM     22  O   UNL     1      -8.875  -9.221   7.680  1.00  0.00    -0.272 OA
ATOM     23  N   UNL     1      -9.959 -10.041   9.464  1.00  0.00    -0.354 N 
ATOM     24  H   UNL     1      -9.745  -9.198   9.927  1.00  0.00     0.163 HD
BRANCH  23  25
ATOM     25  C   UNL     1     -10.694 -11.024  10.235  1.00  0.00     0.116 C 
BRANCH  25  26
ATOM     26  C   UNL     1      -9.829 -11.651  11.326  1.00  0.00     0.023 C 
BRANCH  26  27
ATOM     27  C   UNL     1      -9.328 -10.667  12.388  1.00  0.00     0.023 C 
BRANCH  27  28
ATOM     28  C   UNL     1     -10.410  -9.843  13.076  1.00  0.00     0.116 C 
BRANCH  28  29
ATOM     29  N   UNL     1     -11.391 -10.665  13.763  1.00  0.00    -0.352 N 
ATOM     30  C   UNL     1     -11.935 -10.504  15.014  1.00  0.00     0.251 C 
ATOM     31  H   UNL     1     -11.712 -11.448  13.261  1.00  0.00     0.163 HD
ATOM     32  O   UNL     1     -12.635 -11.401  15.483  1.00  0.00    -0.269 OA
BRANCH  30  33
ATOM     33  C   UNL     1     -11.659  -9.281  15.803  1.00  0.00     0.039 A 
ATOM     34  C   UNL     1     -11.428  -9.406  17.175  1.00  0.00     0.014 A 
ATOM     35  C   UNL     1     -11.646  -8.016  15.209  1.00  0.00     0.014 A 
ATOM     36  C   UNL     1     -11.148  -8.271  17.940  1.00  0.00     0.010 A 
ATOM     37  C   UNL     1     -11.282  -6.897  15.955  1.00  0.00     0.010 A 
ATOM     38  C   UNL     1     -11.049  -7.007  17.334  1.00  0.00    -0.014 A 
BRANCH  38  39
ATOM     39  C   UNL     1     -10.754  -5.793  18.142  1.00  0.00     0.031 A 
ATOM     40  C   UNL     1     -11.772  -4.686  18.240  1.00  0.00     0.074 A 
ATOM     41  C   UNL     1      -9.566  -5.675  18.769  1.00  0.00     0.049 A 
ATOM     42  N   UNL     1     -11.698  -3.545  18.879  1.00  0.00    -0.248 NA
ATOM     43  C   UNL     1     -13.026  -4.873  17.496  1.00  0.00     0.031 C 
ATOM     44  C   UNL     1      -8.482  -6.659  18.717  1.00  0.00     0.029 A 
ATOM     45  N   UNL     1      -9.071  -4.682  19.577  1.00  0.00    -0.354 N 
ATOM     46  C   UNL     1     -12.890  -2.880  18.607  1.00  0.00     0.074 A 
ATOM     47  C   UNL     1     -13.631  -3.711  17.684  1.00  0.00     0.031 C 
ATOM     48  C   UNL     1      -7.468  -6.238  19.490  1.00  0.00     0.029 A 
ATOM     49  C   UNL     1      -7.807  -4.937  20.059  1.00  0.00     0.049 A 
ATOM     50  H   UNL     1      -9.573  -3.863  19.791  1.00  0.00     0.167 HD
ATOM     51  C   UNL     1     -13.341  -1.701  19.106  1.00  0.00     0.034 A 
ATOM     52  C   UNL     1      -7.012  -4.205  20.864  1.00  0.00     0.034 A 
ATOM     53  C   UNL     1     -12.595  -0.888  20.035  1.00  0.00     0.049 A 
ATOM     54  C   UNL     1      -7.525  -2.885  21.386  1.00  0.00     0.074 A 
ATOM     55  C   UNL     1     -12.972   0.300  20.638  1.00  0.00     0.029 A 
ATOM     56  N   UNL     1     -11.313  -1.173  20.492  1.00  0.00    -0.354 N 
ATOM     57  N   UNL     1      -8.679  -2.298  21.164  1.00  0.00    -0.248 NA
ATOM     58  C   UNL     1      -6.633  -2.140  22.282  1.00  0.00     0.031 C 
ATOM     59  C   UNL     1     -11.894   0.769  21.398  1.00  0.00     0.029 A 
ATOM     60  C   UNL     1     -10.875  -0.168  21.343  1.00  0.00     0.049 A 
ATOM     61  H   UNL     1     -10.793  -1.972  20.248  1.00  0.00     0.167 HD
ATOM     62  C   UNL     1      -8.660  -1.128  21.921  1.00  0.00     0.074 A 
ATOM     63  C   UNL     1      -7.394  -1.113  22.624  1.00  0.00     0.031 C 
ATOM     64  C   UNL     1      -9.602  -0.155  22.026  1.00  0.00     0.034 A 
BRANCH  51  65
ATOM     65  C   UNL     1     -14.694  -1.219  18.633  1.00  0.00     0.023 A 
ATOM     66  C   UNL     1     -15.867  -1.959  18.870  1.00  0.00     0.031 A 
ATOM     67  C   UNL     1     -14.812  -0.020  17.909  1.00  0.00     0.131 A 
ATOM     68  C   UNL     1     -17.086  -1.539  18.318  1.00  0.00     0.055 A 
ATOM     69  C   UNL     1     -16.045   0.440  17.439  1.00  0.00     0.041 A 
ATOM     70  F   UNL     1     -13.728   0.721  17.630  1.00  0.00    -0.206 F 
ATOM     71  C   UNL     1     -17.189  -0.330  17.628  1.00  0.00     0.022 A 
BRANCH  68  72
ATOM     72  S   UNL     1     -18.500  -2.674  18.378  1.00  0.00     0.124 S 
ATOM     73  O   UNL     1     -17.972  -3.840  17.673  1.00  0.00    -0.237 OA
ATOM     74  O   UNL     1     -18.714  -2.837  19.811  1.00  0.00    -0.237 OA
ATOM     75  O   UNL     1     -19.552  -1.950  17.667  1.00  0.00    -0.744 OA
ENDBRANCH  68  72
ENDBRANCH  51  65
BRANCH  52  76
ATOM     76  C   UNL     1      -5.649  -4.689  21.233  1.00  0.00     0.023 A 
ATOM     77  C   UNL     1      -5.312  -4.960  22.569  1.00  0.00     0.031 A 
ATOM     78  C   UNL     1      -4.643  -4.830  20.260  1.00  0.00     0.131 A 
ATOM     79  C   UNL     1      -3.992  -5.301  22.904  1.00  0.00     0.055 A 
ATOM     80  C   UNL     1      -3.346  -5.229  20.590  1.00  0.00     0.041 A 
ATOM     81  F   UNL     1      -4.909  -4.586  18.967  1.00  0.00    -0.206 F 
ATOM     82  C   UNL     1      -3.010  -5.452  21.922  1.00  0.00     0.022 A 
BRANCH  79  83
ATOM     83  S   UNL     1      -3.550  -5.446  24.658  1.00  0.00     0.124 S 
ATOM     84  O   UNL     1      -3.911  -4.127  25.164  1.00  0.00    -0.237 OA
ATOM     85  O   UNL     1      -4.395  -6.553  25.092  1.00  0.00    -0.237 OA
ATOM     86  O   UNL     1      -2.118  -5.732  24.625  1.00  0.00    -0.744 OA
ENDBRANCH  79  83
ENDBRANCH  52  76
BRANCH  64  87
ATOM     87  C   UNL     1      -9.302   0.986  22.972  1.00  0.00     0.023 A 
ATOM     88  C   UNL     1      -8.219   1.857  22.761  1.00  0.00     0.031 A 
ATOM     89  C   UNL     1     -10.086   1.178  24.124  1.00  0.00     0.131 A 
ATOM     90  C   UNL     1      -7.899   2.823  23.727  1.00  0.00     0.055 A 
ATOM     91  C   UNL     1      -9.810   2.192  25.042  1.00  0.00     0.041 A 
ATOM     92  F   UNL     1     -11.133   0.377  24.381  1.00  0.00    -0.206 F 
ATOM     93  C   UNL     1      -8.699   3.009  24.857  1.00  0.00     0.022 A 
BRANCH  90  94
ATOM     94  S   UNL     1      -6.342   3.739  23.555  1.00  0.00     0.124 S 
ATOM     95  O   UNL     1      -5.363   2.659  23.477  1.00  0.00    -0.237 OA
ATOM     96  O   UNL     1      -6.558   4.492  22.325  1.00  0.00    -0.237 OA
ATOM     97  O   UNL     1      -6.282   4.544  24.773  1.00  0.00    -0.744 OA
ENDBRANCH  90  94
ENDBRANCH  64  87
ENDBRANCH  38  39
ENDBRANCH  30  33
ENDBRANCH  28  29
ENDBRANCH  27  28
ENDBRANCH  26  27
ENDBRANCH  25  26
ENDBRANCH  23  25
ENDBRANCH  20  21
ENDBRANCH  19  20
ENDBRANCH   1  19
TORSDOF 27
