REMARK SMILES [NH3+][C@H](C(=O)NCCCCNC(=O)c1ccc(-c2c3nc(c(-c4cc(S(=O)(=O)[O-])ccc4F)c4ccc([nH]4)c(-c4cc(S(=O)(=O)[O-])ccc4F)c4nc(c(-c5cc(S(=O)(=O)[O-])ccc5F)c5ccc2[nH]5)C=C4)C=C3)cc1)c1ccc(OCC(=O)N2CCCC2)cc1
REMARK SMILES IDX 7 1 6 2 5 3 3 4 4 5 2 7 1 8 76 12 77 13 90 14 78 15 89 16
REMARK SMILES IDX 79 17 80 18 81 19 82 20 83 21 84 22 85 23 88 24 86 25 87 26
REMARK SMILES IDX 8 27 9 28 10 29 11 30 12 32 13 33 14 34 75 35 15 36 74 37
REMARK SMILES IDX 16 38 17 39 18 40 68 41 19 42 73 43 67 44 69 45 20 46 72 47
REMARK SMILES IDX 66 48 65 49 21 51 53 52 33 53 52 54 34 55 37 56 51 57 70 58
REMARK SMILES IDX 35 59 36 60 50 62 71 63 38 64 22 65 23 66 31 67 24 68 30 69
REMARK SMILES IDX 32 70 29 71 25 72 26 73 27 74 28 75 54 76 55 77 63 78 56 79
REMARK SMILES IDX 62 80 64 81 61 82 57 83 58 84 59 85 60 86 39 87 40 88 48 89
REMARK SMILES IDX 41 90 47 91 49 92 46 93 42 94 43 95 44 96 45 97
REMARK H PARENT 5 6 1 9 1 10 1 11 10 31 69 50 37 61
REMARK Flexibility Score: inf
ROOT
ATOM      1  C   UNL     1      -1.858  -0.207   1.621  1.00  0.00     0.023 C 
ENDROOT
BRANCH   1   2
ATOM      2  C   UNL     1      -0.641   0.714   1.510  1.00  0.00     0.116 C 
BRANCH   2   3
ATOM      3  N   UNL     1       0.530  -0.005   1.037  1.00  0.00    -0.351 N 
ATOM      4  C   UNL     1       1.054  -0.113  -0.220  1.00  0.00     0.283 C 
ATOM      5  O   UNL     1       2.036  -0.854  -0.357  1.00  0.00    -0.268 OA
ATOM      6  H   UNL     1       1.025  -0.492   1.734  1.00  0.00     0.163 HD
BRANCH   4   7
ATOM      7  C   UNL     1       0.526   0.730  -1.426  1.00  0.00     0.302 C 
BRANCH   7   8
ATOM      8  N   UNL     1       1.238   0.321  -2.661  1.00  0.00    -0.343 N 
ATOM      9  H   UNL     1       0.894   0.871  -3.449  1.00  0.00     0.345 HD
ATOM     10  H   UNL     1       1.070  -0.669  -2.838  1.00  0.00     0.345 HD
ATOM     11  H   UNL     1       2.239   0.482  -2.545  1.00  0.00     0.345 HD
ENDBRANCH   7   8
BRANCH   7  12
ATOM     12  C   UNL     1      -0.972   0.664  -1.646  1.00  0.00     0.019 A 
ATOM     13  C   UNL     1      -1.720   1.851  -1.649  1.00  0.00     0.014 A 
ATOM     14  C   UNL     1      -1.649  -0.558  -1.756  1.00  0.00     0.014 A 
ATOM     15  C   UNL     1      -3.110   1.803  -1.598  1.00  0.00     0.047 A 
ATOM     16  C   UNL     1      -3.047  -0.602  -1.709  1.00  0.00     0.047 A 
ATOM     17  C   UNL     1      -3.776   0.578  -1.578  1.00  0.00     0.120 A 
BRANCH  17  18
ATOM     18  O   UNL     1      -5.125   0.685  -1.411  1.00  0.00    -0.484 OA
BRANCH  18  19
ATOM     19  C   UNL     1      -5.891  -0.503  -1.352  1.00  0.00     0.329 C 
BRANCH  19  20
ATOM     20  C   UNL     1      -6.068  -1.311  -2.646  1.00  0.00     0.260 C 
ATOM     21  O   UNL     1      -6.118  -2.544  -2.604  1.00  0.00    -0.271 OA
ATOM     22  N   UNL     1      -6.233  -0.625  -3.829  1.00  0.00    -0.340 N 
ATOM     23  C   UNL     1      -6.169   0.810  -4.041  1.00  0.00     0.119 C 
ATOM     24  C   UNL     1      -6.479  -1.332  -5.070  1.00  0.00     0.119 C 
ATOM     25  C   UNL     1      -6.871   1.015  -5.371  1.00  0.00     0.023 C 
ATOM     26  C   UNL     1      -6.519  -0.251  -6.142  1.00  0.00     0.023 C 
ENDBRANCH  19  20
ENDBRANCH  18  19
ENDBRANCH  17  18
ENDBRANCH   7  12
ENDBRANCH   4   7
ENDBRANCH   2   3
ENDBRANCH   1   2
BRANCH   1  27
ATOM     27  C   UNL     1      -1.919  -1.052   2.890  1.00  0.00     0.023 C 
BRANCH  27  28
ATOM     28  C   UNL     1      -2.095  -0.266   4.180  1.00  0.00     0.116 C 
BRANCH  28  29
ATOM     29  N   UNL     1      -3.315   0.530   4.218  1.00  0.00    -0.352 N 
ATOM     30  C   UNL     1      -4.163   0.738   5.282  1.00  0.00     0.251 C 
ATOM     31  H   UNL     1      -3.564   0.975   3.375  1.00  0.00     0.163 HD
ATOM     32  O   UNL     1      -5.203   1.373   5.135  1.00  0.00    -0.269 OA
BRANCH  30  33
ATOM     33  C   UNL     1      -3.825   0.137   6.589  1.00  0.00     0.039 A 
ATOM     34  C   UNL     1      -4.759  -0.692   7.214  1.00  0.00     0.014 A 
ATOM     35  C   UNL     1      -2.549   0.307   7.133  1.00  0.00     0.014 A 
ATOM     36  C   UNL     1      -4.377  -1.439   8.331  1.00  0.00     0.010 A 
ATOM     37  C   UNL     1      -2.151  -0.490   8.201  1.00  0.00     0.010 A 
ATOM     38  C   UNL     1      -3.052  -1.389   8.794  1.00  0.00    -0.014 A 
BRANCH  38  39
ATOM     39  C   UNL     1      -2.560  -2.301   9.859  1.00  0.00     0.031 A 
ATOM     40  C   UNL     1      -2.047  -1.732  11.153  1.00  0.00     0.074 A 
ATOM     41  C   UNL     1      -2.458  -3.622   9.607  1.00  0.00     0.049 A 
ATOM     42  N   UNL     1      -1.425  -2.335  12.131  1.00  0.00    -0.248 NA
ATOM     43  C   UNL     1      -2.229  -0.286  11.354  1.00  0.00     0.031 C 
ATOM     44  C   UNL     1      -2.876  -4.283   8.367  1.00  0.00     0.029 A 
ATOM     45  N   UNL     1      -1.941  -4.645  10.365  1.00  0.00    -0.354 N 
ATOM     46  C   UNL     1      -1.110  -1.341  13.050  1.00  0.00     0.074 A 
ATOM     47  C   UNL     1      -1.583  -0.090  12.495  1.00  0.00     0.031 C 
ATOM     48  C   UNL     1      -2.596  -5.594   8.449  1.00  0.00     0.029 A 
ATOM     49  C   UNL     1      -1.935  -5.863   9.722  1.00  0.00     0.049 A 
ATOM     50  H   UNL     1      -1.606  -4.519  11.282  1.00  0.00     0.167 HD
ATOM     51  C   UNL     1      -0.492  -1.465  14.249  1.00  0.00     0.034 A 
ATOM     52  C   UNL     1      -1.425  -7.053  10.098  1.00  0.00     0.034 A 
ATOM     53  C   UNL     1      -0.065  -2.724  14.805  1.00  0.00     0.049 A 
ATOM     54  C   UNL     1      -0.741  -7.160  11.438  1.00  0.00     0.074 A 
ATOM     55  C   UNL     1       0.455  -2.976  16.063  1.00  0.00     0.029 A 
ATOM     56  N   UNL     1      -0.096  -3.940  14.136  1.00  0.00    -0.354 N 
ATOM     57  N   UNL     1      -0.529  -6.222  12.332  1.00  0.00    -0.248 NA
ATOM     58  C   UNL     1      -0.228  -8.482  11.820  1.00  0.00     0.031 C 
ATOM     59  C   UNL     1       0.798  -4.331  16.131  1.00  0.00     0.029 A 
ATOM     60  C   UNL     1       0.436  -4.936  14.938  1.00  0.00     0.049 A 
ATOM     61  H   UNL     1      -0.445  -4.074  13.225  1.00  0.00     0.167 HD
ATOM     62  C   UNL     1       0.122  -6.849  13.390  1.00  0.00     0.074 A 
ATOM     63  C   UNL     1       0.254  -8.246  13.031  1.00  0.00     0.031 C 
ATOM     64  C   UNL     1       0.571  -6.321  14.556  1.00  0.00     0.034 A 
BRANCH  51  65
ATOM     65  C   UNL     1      -0.217  -0.207  15.030  1.00  0.00     0.023 A 
ATOM     66  C   UNL     1      -1.254   0.574  15.569  1.00  0.00     0.031 A 
ATOM     67  C   UNL     1       1.108   0.212  15.245  1.00  0.00     0.131 A 
ATOM     68  C   UNL     1      -0.950   1.763  16.249  1.00  0.00     0.055 A 
ATOM     69  C   UNL     1       1.405   1.361  15.981  1.00  0.00     0.041 A 
ATOM     70  F   UNL     1       2.135  -0.486  14.737  1.00  0.00    -0.206 F 
ATOM     71  C   UNL     1       0.372   2.149  16.479  1.00  0.00     0.022 A 
BRANCH  68  72
ATOM     72  S   UNL     1      -2.314   2.850  16.746  1.00  0.00     0.124 S 
ATOM     73  O   UNL     1      -2.898   3.198  15.453  1.00  0.00    -0.237 OA
ATOM     74  O   UNL     1      -3.118   1.981  17.596  1.00  0.00    -0.237 OA
ATOM     75  O   UNL     1      -1.642   3.950  17.435  1.00  0.00    -0.744 OA
ENDBRANCH  68  72
ENDBRANCH  51  65
BRANCH  52  76
ATOM     76  C   UNL     1      -1.492  -8.233   9.189  1.00  0.00     0.023 A 
ATOM     77  C   UNL     1      -2.222  -9.378   9.542  1.00  0.00     0.031 A 
ATOM     78  C   UNL     1      -0.770  -8.258   7.982  1.00  0.00     0.131 A 
ATOM     79  C   UNL     1      -2.172 -10.520   8.726  1.00  0.00     0.055 A 
ATOM     80  C   UNL     1      -0.766  -9.377   7.147  1.00  0.00     0.041 A 
ATOM     81  F   UNL     1      -0.058  -7.188   7.595  1.00  0.00    -0.206 F 
ATOM     82  C   UNL     1      -1.458 -10.523   7.526  1.00  0.00     0.022 A 
BRANCH  79  83
ATOM     83  S   UNL     1      -2.970 -12.040   9.312  1.00  0.00     0.124 S 
ATOM     84  O   UNL     1      -2.349 -12.218  10.620  1.00  0.00    -0.237 OA
ATOM     85  O   UNL     1      -4.378 -11.658   9.317  1.00  0.00    -0.237 OA
ATOM     86  O   UNL     1      -2.597 -13.030   8.305  1.00  0.00    -0.744 OA
ENDBRANCH  79  83
ENDBRANCH  52  76
BRANCH  64  87
ATOM     87  C   UNL     1       1.215  -7.269  15.533  1.00  0.00     0.023 A 
ATOM     88  C   UNL     1       2.473  -7.841  15.279  1.00  0.00     0.031 A 
ATOM     89  C   UNL     1       0.559  -7.606  16.730  1.00  0.00     0.131 A 
ATOM     90  C   UNL     1       3.020  -8.754  16.192  1.00  0.00     0.055 A 
ATOM     91  C   UNL     1       1.131  -8.475  17.659  1.00  0.00     0.041 A 
ATOM     92  F   UNL     1      -0.645  -7.087  17.018  1.00  0.00    -0.206 F 
ATOM     93  C   UNL     1       2.364  -9.062  17.388  1.00  0.00     0.022 A 
BRANCH  90  94
ATOM     94  S   UNL     1       4.577  -9.582  15.771  1.00  0.00     0.124 S 
ATOM     95  O   UNL     1       4.208 -10.329  14.573  1.00  0.00    -0.237 OA
ATOM     96  O   UNL     1       5.486  -8.458  15.567  1.00  0.00    -0.237 OA
ATOM     97  O   UNL     1       4.861 -10.400  16.949  1.00  0.00    -0.744 OA
ENDBRANCH  90  94
ENDBRANCH  64  87
ENDBRANCH  38  39
ENDBRANCH  30  33
ENDBRANCH  28  29
ENDBRANCH  27  28
ENDBRANCH   1  27
TORSDOF 19
