REMARK SMILES C[C@@H](C(=O)NCCCCNC(=O)c1ccc(-c2c3nc(c(-c4cc(S(=O)(=O)[O-])ccc4F)c4ccc([nH]4)c(-c4cc(S(=O)(=O)[O-])ccc4F)c4nc(c(-c5cc(S(=O)(=O)[O-])ccc5F)c5ccc2[nH]5)C=C4)C=C3)cc1)N1C(=O)/C(=C/c2nc3ccccc3[nH]2)SC1=S
REMARK SMILES IDX 8 1 7 2 6 3 5 4 3 5 4 6 2 8 1 9 76 10 77 11 91 12 78 13
REMARK SMILES IDX 79 14 90 15 92 16 80 17 81 18 82 19 89 20 83 21 88 22 84 24
REMARK SMILES IDX 87 25 85 26 86 27 9 28 10 29 11 30 12 32 13 33 14 34 75 35
REMARK SMILES IDX 15 36 74 37 16 38 17 39 18 40 68 41 19 42 73 43 67 44 69 45
REMARK SMILES IDX 20 46 72 47 66 48 65 49 21 51 53 52 33 53 52 54 34 55 37 56
REMARK SMILES IDX 51 57 70 58 35 59 36 60 50 62 71 63 38 64 22 65 23 66 31 67
REMARK SMILES IDX 24 68 30 69 32 70 29 71 25 72 26 73 27 74 28 75 54 76 55 77
REMARK SMILES IDX 63 78 56 79 62 80 64 81 61 82 57 83 58 84 59 85 60 86 39 87
REMARK SMILES IDX 40 88 48 89 41 90 47 91 49 92 46 93 42 94 43 95 44 96 45 97
REMARK H PARENT 5 7 89 23 10 31 69 50 37 61
REMARK Flexibility Score: inf
ROOT
ATOM      1  C   UNL     1       4.879   2.395   1.016  1.00  0.00     0.023 C 
ENDROOT
BRANCH   1   2
ATOM      2  C   UNL     1       4.114   1.133   0.611  1.00  0.00     0.023 C 
BRANCH   2   3
ATOM      3  C   UNL     1       3.404   0.412   1.754  1.00  0.00     0.116 C 
BRANCH   3   4
ATOM      4  N   UNL     1       2.370   1.221   2.361  1.00  0.00    -0.354 N 
ATOM      5  C   UNL     1       1.019   1.066   2.347  1.00  0.00     0.242 C 
ATOM      6  O   UNL     1       0.391   1.674   3.221  1.00  0.00    -0.273 OA
ATOM      7  H   UNL     1       2.694   2.004   2.861  1.00  0.00     0.163 HD
BRANCH   5   8
ATOM      8  C   UNL     1       0.313   0.097   1.366  1.00  0.00     0.178 C 
ATOM      9  C   UNL     1       0.718   0.116  -0.106  1.00  0.00     0.042 C 
BRANCH   8  10
ATOM     10  N   UNL     1      -1.151   0.269   1.490  1.00  0.00    -0.281 N 
ATOM     11  C   UNL     1      -1.933  -0.848   1.758  1.00  0.00     0.267 C 
ATOM     12  C   UNL     1      -1.834   1.450   1.242  1.00  0.00     0.149 C 
ATOM     13  O   UNL     1      -1.539  -1.991   1.930  1.00  0.00    -0.268 OA
ATOM     14  C   UNL     1      -3.373  -0.488   1.683  1.00  0.00     0.084 C 
ATOM     15  S   UNL     1      -3.525   1.226   1.624  1.00  0.00    -0.054 SA
ATOM     16  S   UNL     1      -1.289   2.912   0.644  1.00  0.00    -0.052 S 
ATOM     17  C   UNL     1      -4.351  -1.403   1.580  1.00  0.00     0.068 C 
BRANCH  17  18
ATOM     18  C   UNL     1      -5.670  -0.990   1.275  1.00  0.00     0.132 A 
ATOM     19  N   UNL     1      -6.061  -0.037   0.456  1.00  0.00    -0.229 NA
ATOM     20  N   UNL     1      -6.751  -1.536   1.926  1.00  0.00    -0.338 N 
ATOM     21  C   UNL     1      -7.365   0.207   0.764  1.00  0.00     0.089 A 
ATOM     22  C   UNL     1      -7.840  -0.733   1.670  1.00  0.00     0.066 A 
ATOM     23  H   UNL     1      -6.747  -2.353   2.475  1.00  0.00     0.168 HD
ATOM     24  C   UNL     1      -8.191   1.251   0.333  1.00  0.00     0.030 A 
ATOM     25  C   UNL     1      -9.147  -0.711   2.161  1.00  0.00     0.028 A 
ATOM     26  C   UNL     1      -9.491   1.319   0.839  1.00  0.00     0.002 A 
ATOM     27  C   UNL     1      -9.960   0.348   1.728  1.00  0.00     0.002 A 
ENDBRANCH  17  18
ENDBRANCH   8  10
ENDBRANCH   5   8
ENDBRANCH   3   4
ENDBRANCH   2   3
ENDBRANCH   1   2
BRANCH   1  28
ATOM     28  C   UNL     1       5.880   2.220   2.151  1.00  0.00     0.116 C 
BRANCH  28  29
ATOM     29  N   UNL     1       6.887   1.213   1.865  1.00  0.00    -0.352 N 
ATOM     30  C   UNL     1       8.244   1.258   2.077  1.00  0.00     0.251 C 
ATOM     31  H   UNL     1       6.550   0.380   1.462  1.00  0.00     0.163 HD
ATOM     32  O   UNL     1       8.952   0.362   1.624  1.00  0.00    -0.269 OA
BRANCH  30  33
ATOM     33  C   UNL     1       8.847   2.390   2.818  1.00  0.00     0.039 A 
ATOM     34  C   UNL     1      10.051   2.930   2.359  1.00  0.00     0.014 A 
ATOM     35  C   UNL     1       8.242   2.909   3.966  1.00  0.00     0.014 A 
ATOM     36  C   UNL     1      10.626   4.012   3.030  1.00  0.00     0.010 A 
ATOM     37  C   UNL     1       8.769   4.044   4.578  1.00  0.00     0.010 A 
ATOM     38  C   UNL     1       9.981   4.593   4.134  1.00  0.00    -0.014 A 
BRANCH  38  39
ATOM     39  C   UNL     1      10.591   5.734   4.868  1.00  0.00     0.031 A 
ATOM     40  C   UNL     1      10.995   5.568   6.311  1.00  0.00     0.074 A 
ATOM     41  C   UNL     1      10.753   6.922   4.253  1.00  0.00     0.049 A 
ATOM     42  N   UNL     1      11.521   6.440   7.131  1.00  0.00    -0.248 NA
ATOM     43  C   UNL     1      10.741   4.253   6.919  1.00  0.00     0.031 C 
ATOM     44  C   UNL     1      10.368   7.218   2.872  1.00  0.00     0.029 A 
ATOM     45  N   UNL     1      11.288   8.102   4.707  1.00  0.00    -0.354 N 
ATOM     46  C   UNL     1      11.643   5.787   8.354  1.00  0.00     0.074 A 
ATOM     47  C   UNL     1      11.068   4.471   8.182  1.00  0.00     0.031 C 
ATOM     48  C   UNL     1      10.720   8.480   2.578  1.00  0.00     0.029 A 
ATOM     49  C   UNL     1      11.313   9.100   3.760  1.00  0.00     0.049 A 
ATOM     50  H   UNL     1      11.623   8.222   5.625  1.00  0.00     0.167 HD
ATOM     51  C   UNL     1      12.208   6.231   9.505  1.00  0.00     0.034 A 
ATOM     52  C   UNL     1      11.763  10.368   3.836  1.00  0.00     0.034 A 
ATOM     53  C   UNL     1      12.791   7.543   9.652  1.00  0.00     0.049 A 
ATOM     54  C   UNL     1      12.369  10.848   5.132  1.00  0.00     0.074 A 
ATOM     55  C   UNL     1      13.438   8.080  10.751  1.00  0.00     0.029 A 
ATOM     56  N   UNL     1      12.789   8.530   8.674  1.00  0.00    -0.354 N 
ATOM     57  N   UNL     1      12.529  10.200   6.263  1.00  0.00    -0.248 NA
ATOM     58  C   UNL     1      12.872  12.227   5.152  1.00  0.00     0.031 C 
ATOM     59  C   UNL     1      13.753   9.414  10.467  1.00  0.00     0.029 A 
ATOM     60  C   UNL     1      13.393   9.682   9.156  1.00  0.00     0.049 A 
ATOM     61  H   UNL     1      12.413   8.427   7.770  1.00  0.00     0.167 HD
ATOM     62  C   UNL     1      13.197  11.079   7.113  1.00  0.00     0.074 A 
ATOM     63  C   UNL     1      13.415  12.296   6.358  1.00  0.00     0.031 C 
ATOM     64  C   UNL     1      13.604  10.893   8.396  1.00  0.00     0.034 A 
BRANCH  51  65
ATOM     65  C   UNL     1      12.184   5.300  10.697  1.00  0.00     0.023 A 
ATOM     66  C   UNL     1      12.806   4.038  10.669  1.00  0.00     0.031 A 
ATOM     67  C   UNL     1      11.490   5.659  11.866  1.00  0.00     0.131 A 
ATOM     68  C   UNL     1      12.642   3.150  11.743  1.00  0.00     0.055 A 
ATOM     69  C   UNL     1      11.413   4.808  12.971  1.00  0.00     0.041 A 
ATOM     70  F   UNL     1      10.855   6.839  11.950  1.00  0.00    -0.206 F 
ATOM     71  C   UNL     1      11.975   3.537  12.906  1.00  0.00     0.022 A 
BRANCH  68  72
ATOM     72  S   UNL     1      13.159   1.424  11.526  1.00  0.00     0.124 S 
ATOM     73  O   UNL     1      12.381   1.029  10.354  1.00  0.00    -0.237 OA
ATOM     74  O   UNL     1      14.598   1.548  11.325  1.00  0.00    -0.237 OA
ATOM     75  O   UNL     1      12.755   0.784  12.776  1.00  0.00    -0.744 OA
ENDBRANCH  68  72
ENDBRANCH  51  65
BRANCH  52  76
ATOM     76  C   UNL     1      11.682  11.275   2.654  1.00  0.00     0.023 A 
ATOM     77  C   UNL     1      12.845  11.777   2.048  1.00  0.00     0.031 A 
ATOM     78  C   UNL     1      10.441  11.692   2.141  1.00  0.00     0.131 A 
ATOM     79  C   UNL     1      12.745  12.707   1.002  1.00  0.00     0.055 A 
ATOM     80  C   UNL     1      10.347  12.572   1.061  1.00  0.00     0.041 A 
ATOM     81  F   UNL     1       9.297  11.240   2.679  1.00  0.00    -0.206 F 
ATOM     82  C   UNL     1      11.504  13.097   0.495  1.00  0.00     0.022 A 
BRANCH  79  83
ATOM     83  S   UNL     1      14.265  13.474   0.374  1.00  0.00     0.124 S 
ATOM     84  O   UNL     1      14.801  14.099   1.577  1.00  0.00    -0.237 OA
ATOM     85  O   UNL     1      14.999  12.320  -0.133  1.00  0.00    -0.237 OA
ATOM     86  O   UNL     1      13.780  14.400  -0.648  1.00  0.00    -0.744 OA
ENDBRANCH  79  83
ENDBRANCH  52  76
BRANCH  64  87
ATOM     87  C   UNL     1      14.393  12.012   9.037  1.00  0.00     0.023 A 
ATOM     88  C   UNL     1      13.841  13.284   9.268  1.00  0.00     0.031 A 
ATOM     89  C   UNL     1      15.738  11.803   9.399  1.00  0.00     0.131 A 
ATOM     90  C   UNL     1      14.648  14.316   9.770  1.00  0.00     0.055 A 
ATOM     91  C   UNL     1      16.513  12.813   9.969  1.00  0.00     0.041 A 
ATOM     92  F   UNL     1      16.323  10.611   9.199  1.00  0.00    -0.206 F 
ATOM     93  C   UNL     1      15.975  14.084  10.140  1.00  0.00     0.022 A 
BRANCH  90  94
ATOM     94  S   UNL     1      13.980  16.003   9.808  1.00  0.00     0.124 S 
ATOM     95  O   UNL     1      13.579  16.202   8.419  1.00  0.00    -0.237 OA
ATOM     96  O   UNL     1      12.893  15.885  10.774  1.00  0.00    -0.237 OA
ATOM     97  O   UNL     1      15.116  16.812  10.248  1.00  0.00    -0.744 OA
ENDBRANCH  90  94
ENDBRANCH  64  87
ENDBRANCH  38  39
ENDBRANCH  30  33
ENDBRANCH  28  29
ENDBRANCH   1  28
TORSDOF 16
