REMARK SMILES C=CC[N@@H+](CC(=O)NCCCCNC(=O)c1ccc(-c2c3nc(c(-c4cc(S(=O)(=O)[O-])ccc4F)c4ccc([nH]4)c(-c4cc(S(=O)(=O)[O-])ccc4F)c4nc(c(-c5cc(S(=O)(=O)[O-])ccc5F)c5ccc2[nH]5)C=C4)C=C3)cc1)C[C@H]1CNC(=O)O1
REMARK SMILES IDX 10 1 9 2 8 3 6 4 7 5 5 7 4 8 3 10 2 11 1 12 79 13 80 14
REMARK SMILES IDX 81 15 85 16 82 17 83 18 84 20 11 21 12 22 13 23 14 24 15 26
REMARK SMILES IDX 16 27 17 28 78 29 18 30 77 31 19 32 20 33 21 34 71 35 22 36
REMARK SMILES IDX 76 37 70 38 72 39 23 40 75 41 69 42 68 43 24 45 56 46 36 47
REMARK SMILES IDX 55 48 37 49 40 50 54 51 73 52 38 53 39 54 53 56 74 57 41 58
REMARK SMILES IDX 25 59 26 60 34 61 27 62 33 63 35 64 32 65 28 66 29 67 30 68
REMARK SMILES IDX 31 69 57 70 58 71 66 72 59 73 65 74 67 75 64 76 60 77 61 78
REMARK SMILES IDX 62 79 63 80 42 81 43 82 51 83 44 84 50 85 52 86 49 87 45 88
REMARK SMILES IDX 46 89 47 90 48 91
REMARK H PARENT 8 6 4 9 82 19 13 25 72 44 40 55
REMARK Flexibility Score: inf
ROOT
ATOM      1  C   UNL     1       1.898   0.732  -2.389  1.00  0.00     0.023 C 
ENDROOT
BRANCH   1   2
ATOM      2  C   UNL     1       1.708   1.661  -1.180  1.00  0.00     0.116 C 
BRANCH   2   3
ATOM      3  N   UNL     1       0.432   2.344  -1.127  1.00  0.00    -0.351 N 
ATOM      4  C   UNL     1      -0.618   2.219  -0.265  1.00  0.00     0.275 C 
ATOM      5  O   UNL     1      -1.293   3.243  -0.089  1.00  0.00    -0.269 OA
ATOM      6  H   UNL     1       0.299   3.014  -1.836  1.00  0.00     0.163 HD
BRANCH   4   7
ATOM      7  C   UNL     1      -0.970   0.956   0.538  1.00  0.00     0.363 C 
BRANCH   7   8
ATOM      8  N   UNL     1      -1.139  -0.348  -0.150  1.00  0.00    -0.321 N 
ATOM      9  H   UNL     1      -1.731  -0.905   0.467  1.00  0.00     0.348 HD
BRANCH   8  10
ATOM     10  C   UNL     1       0.085  -1.125  -0.190  1.00  0.00     0.290 C 
BRANCH  10  11
ATOM     11  C   UNL     1       0.011  -2.541  -0.670  1.00  0.00     0.025 C 
ATOM     12  C   UNL     1       0.521  -2.958  -1.840  1.00  0.00     0.010 C 
ENDBRANCH  10  11
ENDBRANCH   8  10
BRANCH   8  13
ATOM     13  C   UNL     1      -2.089  -0.415  -1.280  1.00  0.00     0.310 C 
BRANCH  13  14
ATOM     14  C   UNL     1      -1.860   0.528  -2.465  1.00  0.00     0.252 C 
ATOM     15  C   UNL     1      -2.422   0.131  -3.810  1.00  0.00     0.170 C 
ATOM     16  O   UNL     1      -2.471   1.812  -2.256  1.00  0.00    -0.438 OA
ATOM     17  N   UNL     1      -2.486   1.411  -4.439  1.00  0.00    -0.318 N 
ATOM     18  C   UNL     1      -2.566   2.393  -3.488  1.00  0.00     0.407 C 
ATOM     19  H   UNL     1      -2.475   1.565  -5.411  1.00  0.00     0.167 HD
ATOM     20  O   UNL     1      -2.707   3.580  -3.699  1.00  0.00    -0.225 OA
ENDBRANCH  13  14
ENDBRANCH   8  13
ENDBRANCH   7   8
ENDBRANCH   4   7
ENDBRANCH   2   3
ENDBRANCH   1   2
BRANCH   1  21
ATOM     21  C   UNL     1       2.154   1.389  -3.733  1.00  0.00     0.023 C 
BRANCH  21  22
ATOM     22  C   UNL     1       3.417   2.222  -3.789  1.00  0.00     0.116 C 
BRANCH  22  23
ATOM     23  N   UNL     1       4.599   1.509  -3.316  1.00  0.00    -0.352 N 
ATOM     24  C   UNL     1       5.844   1.415  -3.893  1.00  0.00     0.251 C 
ATOM     25  H   UNL     1       4.489   1.026  -2.465  1.00  0.00     0.163 HD
ATOM     26  O   UNL     1       6.684   0.656  -3.422  1.00  0.00    -0.269 OA
BRANCH  24  27
ATOM     27  C   UNL     1       6.126   2.206  -5.106  1.00  0.00     0.039 A 
ATOM     28  C   UNL     1       6.746   1.593  -6.194  1.00  0.00     0.014 A 
ATOM     29  C   UNL     1       5.688   3.529  -5.191  1.00  0.00     0.014 A 
ATOM     30  C   UNL     1       6.846   2.286  -7.401  1.00  0.00     0.010 A 
ATOM     31  C   UNL     1       5.669   4.164  -6.423  1.00  0.00     0.010 A 
ATOM     32  C   UNL     1       6.261   3.556  -7.539  1.00  0.00    -0.014 A 
BRANCH  32  33
ATOM     33  C   UNL     1       6.278   4.287  -8.831  1.00  0.00     0.031 A 
ATOM     34  C   UNL     1       6.935   5.639  -8.908  1.00  0.00     0.074 A 
ATOM     35  C   UNL     1       5.645   3.771  -9.903  1.00  0.00     0.049 A 
ATOM     36  N   UNL     1       6.984   6.480  -9.907  1.00  0.00    -0.248 NA
ATOM     37  C   UNL     1       7.585   6.129  -7.681  1.00  0.00     0.031 C 
ATOM     38  C   UNL     1       4.928   2.493  -9.931  1.00  0.00     0.029 A 
ATOM     39  N   UNL     1       5.497   4.259 -11.177  1.00  0.00    -0.354 N 
ATOM     40  C   UNL     1       7.652   7.600  -9.424  1.00  0.00     0.074 A 
ATOM     41  C   UNL     1       7.911   7.364  -8.022  1.00  0.00     0.031 C 
ATOM     42  C   UNL     1       4.454   2.281 -11.169  1.00  0.00     0.029 A 
ATOM     43  C   UNL     1       4.780   3.429 -12.009  1.00  0.00     0.049 A 
ATOM     44  H   UNL     1       5.869   5.122 -11.469  1.00  0.00     0.167 HD
ATOM     45  C   UNL     1       8.044   8.709 -10.097  1.00  0.00     0.034 A 
ATOM     46  C   UNL     1       4.418   3.583 -13.298  1.00  0.00     0.034 A 
ATOM     47  C   UNL     1       7.790   8.915 -11.501  1.00  0.00     0.049 A 
ATOM     48  C   UNL     1       4.843   4.836 -14.022  1.00  0.00     0.074 A 
ATOM     49  C   UNL     1       8.188   9.970 -12.302  1.00  0.00     0.029 A 
ATOM     50  N   UNL     1       7.062   8.053 -12.311  1.00  0.00    -0.354 N 
ATOM     51  N   UNL     1       5.526   5.862 -13.567  1.00  0.00    -0.248 NA
ATOM     52  C   UNL     1       4.458   4.948 -15.434  1.00  0.00     0.031 C 
ATOM     53  C   UNL     1       7.634   9.786 -13.572  1.00  0.00     0.029 A 
ATOM     54  C   UNL     1       6.970   8.570 -13.594  1.00  0.00     0.049 A 
ATOM     55  H   UNL     1       6.669   7.199 -12.017  1.00  0.00     0.167 HD
ATOM     56  C   UNL     1       5.683   6.724 -14.650  1.00  0.00     0.074 A 
ATOM     57  C   UNL     1       5.035   6.090 -15.779  1.00  0.00     0.031 C 
ATOM     58  C   UNL     1       6.312   7.926 -14.708  1.00  0.00     0.034 A 
BRANCH  45  59
ATOM     59  C   UNL     1       8.764   9.781  -9.312  1.00  0.00     0.023 A 
ATOM     60  C   UNL     1       9.984   9.528  -8.658  1.00  0.00     0.031 A 
ATOM     61  C   UNL     1       8.204  11.064  -9.179  1.00  0.00     0.131 A 
ATOM     62  C   UNL     1      10.556  10.508  -7.834  1.00  0.00     0.055 A 
ATOM     63  C   UNL     1       8.828  12.066  -8.433  1.00  0.00     0.041 A 
ATOM     64  F   UNL     1       7.030  11.361  -9.757  1.00  0.00    -0.206 F 
ATOM     65  C   UNL     1      10.002  11.786  -7.740  1.00  0.00     0.022 A 
BRANCH  62  66
ATOM     66  S   UNL     1      11.937  10.034  -6.759  1.00  0.00     0.124 S 
ATOM     67  O   UNL     1      11.345   8.949  -5.979  1.00  0.00    -0.237 OA
ATOM     68  O   UNL     1      12.964   9.644  -7.717  1.00  0.00    -0.237 OA
ATOM     69  O   UNL     1      12.218  11.253  -6.003  1.00  0.00    -0.744 OA
ENDBRANCH  62  66
ENDBRANCH  45  59
BRANCH  46  70
ATOM     70  C   UNL     1       3.610   2.535 -13.988  1.00  0.00     0.023 A 
ATOM     71  C   UNL     1       4.124   1.830 -15.087  1.00  0.00     0.031 A 
ATOM     72  C   UNL     1       2.294   2.249 -13.581  1.00  0.00     0.131 A 
ATOM     73  C   UNL     1       3.314   0.909 -15.771  1.00  0.00     0.055 A 
ATOM     74  C   UNL     1       1.512   1.290 -14.228  1.00  0.00     0.041 A 
ATOM     75  F   UNL     1       1.752   2.889 -12.532  1.00  0.00    -0.206 F 
ATOM     76  C   UNL     1       2.017   0.624 -15.339  1.00  0.00     0.022 A 
BRANCH  73  77
ATOM     77  S   UNL     1       3.949   0.155 -17.294  1.00  0.00     0.124 S 
ATOM     78  O   UNL     1       4.228   1.329 -18.112  1.00  0.00    -0.237 OA
ATOM     79  O   UNL     1       5.112  -0.579 -16.805  1.00  0.00    -0.237 OA
ATOM     80  O   UNL     1       2.837  -0.676 -17.750  1.00  0.00    -0.744 OA
ENDBRANCH  73  77
ENDBRANCH  46  70
BRANCH  58  81
ATOM     81  C   UNL     1       6.375   8.607 -16.054  1.00  0.00     0.023 A 
ATOM     82  C   UNL     1       5.222   9.076 -16.706  1.00  0.00     0.031 A 
ATOM     83  C   UNL     1       7.616   8.789 -16.692  1.00  0.00     0.131 A 
ATOM     84  C   UNL     1       5.327   9.652 -17.981  1.00  0.00     0.055 A 
ATOM     85  C   UNL     1       7.721   9.427 -17.928  1.00  0.00     0.041 A 
ATOM     86  F   UNL     1       8.750   8.356 -16.118  1.00  0.00    -0.206 F 
ATOM     87  C   UNL     1       6.571   9.850 -18.586  1.00  0.00     0.022 A 
BRANCH  84  88
ATOM     88  S   UNL     1       3.805  10.048 -18.885  1.00  0.00     0.124 S 
ATOM     89  O   UNL     1       3.141   8.750 -18.941  1.00  0.00    -0.237 OA
ATOM     90  O   UNL     1       3.181  11.047 -18.024  1.00  0.00    -0.237 OA
ATOM     91  O   UNL     1       4.290  10.552 -20.168  1.00  0.00    -0.744 OA
ENDBRANCH  84  88
ENDBRANCH  58  81
ENDBRANCH  32  33
ENDBRANCH  24  27
ENDBRANCH  22  23
ENDBRANCH  21  22
ENDBRANCH   1  21
TORSDOF 19
