REMARK SMILES O=C(NCCCCNC(=O)c1cccc(Nc2ccnc3ccc(Cl)cc23)c1)c1ccc(-c2c3nc(c(-c4cc(S(=O)(=O)[O-])ccc4F)c4ccc([nH]4)c(-c4cc(S(=O)(=O)[O-])ccc4F)c4nc(c(-c5cc(S(=O)(=O)[O-])ccc5F)c5ccc2[nH]5)C=C4)C=C3)cc1
REMARK SMILES IDX 5 1 4 2 3 3 1 4 2 5 29 7 30 8 91 9 31 10 90 11 32 12 33 13
REMARK SMILES IDX 34 14 84 15 35 16 89 17 83 18 85 19 36 20 88 21 82 22 81 23
REMARK SMILES IDX 37 25 69 26 49 27 68 28 50 29 53 30 67 31 86 32 51 33 52 34
REMARK SMILES IDX 66 36 87 37 54 38 38 39 39 40 47 41 40 42 46 43 48 44 45 45
REMARK SMILES IDX 41 46 42 47 43 48 44 49 70 50 71 51 79 52 72 53 78 54 80 55
REMARK SMILES IDX 77 56 73 57 74 58 75 59 76 60 55 61 56 62 64 63 57 64 63 65
REMARK SMILES IDX 65 66 62 67 58 68 59 69 60 70 61 71 6 72 7 73 8 74 9 75
REMARK SMILES IDX 10 77 11 78 12 79 28 80 13 81 15 82 14 83 16 84 17 86 18 87
REMARK SMILES IDX 27 88 19 89 21 90 26 91 20 92 22 93 24 94 23 95 25 96
REMARK H PARENT 3 6 85 24 53 35 8 76 16 85
REMARK Flexibility Score: inf
ROOT
ATOM      1  C   UNL     1       4.938  -1.432   2.179  1.00  0.00     0.023 C 
ENDROOT
BRANCH   1   2
ATOM      2  C   UNL     1       4.546  -1.151   0.731  1.00  0.00     0.116 C 
BRANCH   2   3
ATOM      3  N   UNL     1       3.107  -1.107   0.520  1.00  0.00    -0.352 N 
ATOM      4  O   UNL     1       1.104  -0.235  -0.012  1.00  0.00    -0.269 OA
ATOM      5  C   UNL     1       2.322  -0.115  -0.022  1.00  0.00     0.251 C 
ATOM      6  H   UNL     1       2.619  -1.912   0.809  1.00  0.00     0.163 HD
BRANCH   5   7
ATOM      7  C   UNL     1       2.946   1.103  -0.588  1.00  0.00     0.039 A 
ATOM      8  C   UNL     1       4.053   1.020  -1.437  1.00  0.00     0.014 A 
ATOM      9  C   UNL     1       2.404   2.350  -0.266  1.00  0.00     0.014 A 
ATOM     10  C   UNL     1       4.704   2.183  -1.842  1.00  0.00     0.010 A 
ATOM     11  C   UNL     1       3.011   3.515  -0.741  1.00  0.00     0.010 A 
ATOM     12  C   UNL     1       4.188   3.443  -1.505  1.00  0.00    -0.014 A 
BRANCH  12  13
ATOM     13  C   UNL     1       4.867   4.679  -1.977  1.00  0.00     0.031 A 
ATOM     14  C   UNL     1       5.465   5.650  -0.996  1.00  0.00     0.074 A 
ATOM     15  C   UNL     1       4.938   4.927  -3.299  1.00  0.00     0.049 A 
ATOM     16  N   UNL     1       6.031   6.809  -1.219  1.00  0.00    -0.248 NA
ATOM     17  C   UNL     1       5.408   5.271   0.422  1.00  0.00     0.031 C 
ATOM     18  C   UNL     1       4.405   4.053  -4.347  1.00  0.00     0.029 A 
ATOM     19  N   UNL     1       5.481   5.980  -3.990  1.00  0.00    -0.354 N 
ATOM     20  C   UNL     1       6.382   7.311   0.031  1.00  0.00     0.074 A 
ATOM     21  C   UNL     1       5.926   6.342   1.007  1.00  0.00     0.031 C 
ATOM     22  C   UNL     1       4.665   4.596  -5.545  1.00  0.00     0.029 A 
ATOM     23  C   UNL     1       5.314   5.888  -5.351  1.00  0.00     0.049 A 
ATOM     24  H   UNL     1       5.946   6.730  -3.552  1.00  0.00     0.167 HD
ATOM     25  C   UNL     1       7.029   8.466   0.331  1.00  0.00     0.034 A 
ATOM     26  C   UNL     1       5.611   6.760  -6.335  1.00  0.00     0.034 A 
ATOM     27  C   UNL     1       7.466   9.422  -0.661  1.00  0.00     0.049 A 
ATOM     28  C   UNL     1       6.263   8.068  -5.976  1.00  0.00     0.074 A 
ATOM     29  C   UNL     1       8.151  10.610  -0.471  1.00  0.00     0.029 A 
ATOM     30  N   UNL     1       7.246   9.310  -2.030  1.00  0.00    -0.354 N 
ATOM     31  N   UNL     1       6.596   8.525  -4.791  1.00  0.00    -0.248 NA
ATOM     32  C   UNL     1       6.584   8.973  -7.085  1.00  0.00     0.031 C 
ATOM     33  C   UNL     1       8.272  11.252  -1.708  1.00  0.00     0.029 A 
ATOM     34  C   UNL     1       7.749  10.424  -2.688  1.00  0.00     0.049 A 
ATOM     35  H   UNL     1       6.799   8.551  -2.468  1.00  0.00     0.167 HD
ATOM     36  C   UNL     1       7.197   9.760  -5.017  1.00  0.00     0.074 A 
ATOM     37  C   UNL     1       7.183   9.971  -6.451  1.00  0.00     0.031 C 
ATOM     38  C   UNL     1       7.722  10.633  -4.119  1.00  0.00     0.034 A 
BRANCH  25  39
ATOM     39  C   UNL     1       7.248   8.780   1.795  1.00  0.00     0.023 A 
ATOM     40  C   UNL     1       8.014   7.945   2.628  1.00  0.00     0.031 A 
ATOM     41  C   UNL     1       6.646   9.910   2.379  1.00  0.00     0.131 A 
ATOM     42  C   UNL     1       8.082   8.200   4.007  1.00  0.00     0.055 A 
ATOM     43  C   UNL     1       6.795  10.210   3.735  1.00  0.00     0.041 A 
ATOM     44  F   UNL     1       5.886  10.736   1.643  1.00  0.00    -0.206 F 
ATOM     45  C   UNL     1       7.500   9.341   4.562  1.00  0.00     0.022 A 
BRANCH  42  46
ATOM     46  S   UNL     1       8.787   6.924   5.087  1.00  0.00     0.124 S 
ATOM     47  O   UNL     1       7.971   5.761   4.744  1.00  0.00    -0.237 OA
ATOM     48  O   UNL     1      10.178   6.878   4.654  1.00  0.00    -0.237 OA
ATOM     49  O   UNL     1       8.567   7.452   6.432  1.00  0.00    -0.744 OA
ENDBRANCH  42  46
ENDBRANCH  25  39
BRANCH  26  50
ATOM     50  C   UNL     1       5.254   6.435  -7.744  1.00  0.00     0.023 A 
ATOM     51  C   UNL     1       6.243   6.241  -8.719  1.00  0.00     0.031 A 
ATOM     52  C   UNL     1       3.907   6.315  -8.135  1.00  0.00     0.131 A 
ATOM     53  C   UNL     1       5.872   5.967 -10.044  1.00  0.00     0.055 A 
ATOM     54  C   UNL     1       3.544   5.989  -9.442  1.00  0.00     0.041 A 
ATOM     55  F   UNL     1       2.922   6.486  -7.239  1.00  0.00    -0.206 F 
ATOM     56  C   UNL     1       4.530   5.823 -10.409  1.00  0.00     0.022 A 
BRANCH  53  57
ATOM     57  S   UNL     1       7.169   5.865 -11.306  1.00  0.00     0.124 S 
ATOM     58  O   UNL     1       7.774   7.189 -11.218  1.00  0.00    -0.237 OA
ATOM     59  O   UNL     1       7.981   4.755 -10.818  1.00  0.00    -0.237 OA
ATOM     60  O   UNL     1       6.427   5.598 -12.537  1.00  0.00    -0.744 OA
ENDBRANCH  53  57
ENDBRANCH  26  50
BRANCH  38  61
ATOM     61  C   UNL     1       8.386  11.873  -4.669  1.00  0.00     0.023 A 
ATOM     62  C   UNL     1       7.661  12.884  -5.323  1.00  0.00     0.031 A 
ATOM     63  C   UNL     1       9.776  12.041  -4.530  1.00  0.00     0.131 A 
ATOM     64  C   UNL     1       8.335  13.995  -5.854  1.00  0.00     0.055 A 
ATOM     65  C   UNL     1      10.432  13.177  -5.006  1.00  0.00     0.041 A 
ATOM     66  F   UNL     1      10.521  11.104  -3.921  1.00  0.00    -0.206 F 
ATOM     67  C   UNL     1       9.713  14.157  -5.682  1.00  0.00     0.022 A 
BRANCH  64  68
ATOM     68  S   UNL     1       7.403  15.190  -6.851  1.00  0.00     0.124 S 
ATOM     69  O   UNL     1       6.882  14.348  -7.924  1.00  0.00    -0.237 OA
ATOM     70  O   UNL     1       6.418  15.691  -5.899  1.00  0.00    -0.237 OA
ATOM     71  O   UNL     1       8.416  16.160  -7.262  1.00  0.00    -0.744 OA
ENDBRANCH  64  68
ENDBRANCH  38  61
ENDBRANCH  12  13
ENDBRANCH   5   7
ENDBRANCH   2   3
ENDBRANCH   1   2
BRANCH   1  72
ATOM     72  C   UNL     1       4.374  -2.713   2.792  1.00  0.00     0.023 C 
BRANCH  72  73
ATOM     73  C   UNL     1       4.540  -3.979   1.960  1.00  0.00     0.116 C 
BRANCH  73  74
ATOM     74  N   UNL     1       5.924  -4.352   1.738  1.00  0.00    -0.352 N 
ATOM     75  C   UNL     1       6.704  -5.323   2.307  1.00  0.00     0.251 C 
ATOM     76  H   UNL     1       6.385  -3.810   1.057  1.00  0.00     0.163 HD
ATOM     77  O   UNL     1       7.883  -5.416   1.968  1.00  0.00    -0.269 OA
BRANCH  75  78
ATOM     78  C   UNL     1       6.186  -6.252   3.337  1.00  0.00     0.041 A 
ATOM     79  C   UNL     1       7.022  -6.525   4.427  1.00  0.00     0.014 A 
ATOM     80  C   UNL     1       4.991  -6.967   3.185  1.00  0.00     0.039 A 
ATOM     81  C   UNL     1       6.649  -7.467   5.383  1.00  0.00     0.003 A 
ATOM     82  C   UNL     1       4.607  -7.915   4.146  1.00  0.00     0.039 A 
ATOM     83  C   UNL     1       5.448  -8.157   5.241  1.00  0.00     0.026 A 
BRANCH  82  84
ATOM     84  N   UNL     1       3.541  -8.819   3.889  1.00  0.00    -0.355 N 
ATOM     85  H   UNL     1       2.607  -8.549   4.044  1.00  0.00     0.167 HD
BRANCH  84  86
ATOM     86  C   UNL     1       3.848 -10.122   3.404  1.00  0.00     0.050 A 
ATOM     87  C   UNL     1       4.518 -10.225   2.182  1.00  0.00     0.047 A 
ATOM     88  C   UNL     1       3.521 -11.298   4.119  1.00  0.00     0.025 A 
ATOM     89  C   UNL     1       4.953 -11.462   1.771  1.00  0.00     0.114 A 
ATOM     90  C   UNL     1       3.962 -12.520   3.561  1.00  0.00     0.072 A 
ATOM     91  C   UNL     1       2.802 -11.321   5.339  1.00  0.00     0.033 A 
ATOM     92  N   UNL     1       4.685 -12.601   2.434  1.00  0.00    -0.256 NA
ATOM     93  C   UNL     1       3.631 -13.709   4.191  1.00  0.00     0.030 A 
ATOM     94  C   UNL     1       2.480 -12.536   5.945  1.00  0.00     0.041 A 
ATOM     95  C   UNL     1       2.877 -13.733   5.364  1.00  0.00     0.023 A 
ATOM     96  Cl  UNL     1       1.578 -12.564   7.409  1.00  0.00    -0.084 Cl
ENDBRANCH  84  86
ENDBRANCH  82  84
ENDBRANCH  75  78
ENDBRANCH  73  74
ENDBRANCH  72  73
ENDBRANCH   1  72
TORSDOF 16
