REMARK SMILES CC(C)N(c1cc2c(cc1Cl)C=C(C(=O)NCCCCNC(=O)c1ccc(-c3c4nc(c(-c5cc(S(=O)(=O)[O-])ccc5F)c5ccc([nH]5)c(-c5cc(S(=O)(=O)[O-])ccc5F)c5nc(c(-c6cc(S(=O)(=O)[O-])ccc6F)c6ccc3[nH]6)C=C5)C=C4)cc1)[C@@H](C(F)(F)F)O2)C(C)C
REMARK SMILES IDX 19 1 18 2 17 3 16 4 14 5 15 6 13 8 5 9 6 10 10 11 7 12 9 13
REMARK SMILES IDX 11 14 8 15 92 16 12 17 87 18 4 19 2 20 1 21 3 22 93 23 94 24
REMARK SMILES IDX 95 25 88 26 89 27 90 28 91 29 20 30 21 31 22 32 23 34 24 35
REMARK SMILES IDX 25 36 86 37 26 38 85 39 27 40 28 41 29 42 79 43 30 44 84 45
REMARK SMILES IDX 78 46 80 47 31 48 83 49 77 50 76 51 32 53 64 54 44 55 63 56
REMARK SMILES IDX 45 57 48 58 62 59 81 60 46 61 47 62 61 64 82 65 49 66 33 67
REMARK SMILES IDX 34 68 42 69 35 70 41 71 43 72 40 73 36 74 37 75 38 76 39 77
REMARK SMILES IDX 65 78 66 79 74 80 67 81 73 82 75 83 72 84 68 85 69 86 70 87
REMARK SMILES IDX 71 88 50 89 51 90 59 91 52 92 58 93 60 94 57 95 53 96 54 97
REMARK SMILES IDX 55 98 56 99
REMARK H PARENT 16 7 21 33 80 52 48 63
REMARK Flexibility Score: inf
ROOT
ATOM      1  C   UNL     1      -7.750   4.114  -7.706  1.00  0.00     0.023 C 
ENDROOT
BRANCH   1   2
ATOM      2  C   UNL     1      -7.082   3.450  -6.499  1.00  0.00     0.023 C 
BRANCH   2   3
ATOM      3  C   UNL     1      -7.453   1.983  -6.303  1.00  0.00     0.116 C 
BRANCH   3   4
ATOM      4  N   UNL     1      -6.632   1.099  -7.112  1.00  0.00    -0.352 N 
ATOM      5  C   UNL     1      -5.541   0.320  -6.925  1.00  0.00     0.251 C 
ATOM      6  O   UNL     1      -5.150  -0.292  -7.924  1.00  0.00    -0.270 OA
ATOM      7  H   UNL     1      -6.954   1.055  -8.041  1.00  0.00     0.163 HD
BRANCH   5   8
ATOM      8  C   UNL     1      -4.807   0.157  -5.635  1.00  0.00     0.067 C 
ATOM      9  C   UNL     1      -1.512  -1.200  -2.025  1.00  0.00     0.060 A 
ATOM     10  C   UNL     1      -2.486  -0.194  -2.164  1.00  0.00     0.074 A 
ATOM     11  C   UNL     1      -1.281  -2.023  -3.154  1.00  0.00     0.065 A 
ATOM     12  C   UNL     1      -3.212  -0.038  -3.345  1.00  0.00     0.130 A 
ATOM     13  C   UNL     1      -1.976  -1.826  -4.359  1.00  0.00     0.034 A 
ATOM     14  Cl  UNL     1      -0.204  -3.382  -3.115  1.00  0.00    -0.082 Cl
ATOM     15  C   UNL     1      -2.950  -0.835  -4.455  1.00  0.00     0.019 A 
ATOM     16  O   UNL     1      -4.166   0.942  -3.363  1.00  0.00    -0.475 OA
ATOM     17  C   UNL     1      -3.695  -0.603  -5.686  1.00  0.00     0.025 C 
ATOM     18  C   UNL     1      -5.248   0.735  -4.319  1.00  0.00     0.314 C 
BRANCH   9  19
ATOM     19  N   UNL     1      -0.845  -1.343  -0.790  1.00  0.00    -0.365 N 
BRANCH  19  20
ATOM     20  C   UNL     1       0.625  -1.182  -0.808  1.00  0.00     0.076 C 
ATOM     21  C   UNL     1       1.081   0.174  -0.273  1.00  0.00     0.030 C 
ATOM     22  C   UNL     1       1.364  -2.320  -0.109  1.00  0.00     0.030 C 
ENDBRANCH  19  20
BRANCH  19  23
ATOM     23  C   UNL     1      -1.705  -1.448   0.410  1.00  0.00     0.076 C 
ATOM     24  C   UNL     1      -1.504  -2.759   1.166  1.00  0.00     0.030 C 
ATOM     25  C   UNL     1      -1.602  -0.248   1.346  1.00  0.00     0.030 C 
ENDBRANCH  19  23
ENDBRANCH   9  19
BRANCH  18  26
ATOM     26  C   UNL     1      -6.372  -0.092  -3.661  1.00  0.00     0.429 C 
ATOM     27  F   UNL     1      -6.942   0.606  -2.646  1.00  0.00    -0.167 F 
ATOM     28  F   UNL     1      -7.368  -0.395  -4.527  1.00  0.00    -0.167 F 
ATOM     29  F   UNL     1      -5.931  -1.262  -3.146  1.00  0.00    -0.167 F 
ENDBRANCH  18  26
ENDBRANCH   5   8
ENDBRANCH   3   4
ENDBRANCH   2   3
ENDBRANCH   1   2
BRANCH   1  30
ATOM     30  C   UNL     1      -9.275   4.041  -7.735  1.00  0.00     0.116 C 
BRANCH  30  31
ATOM     31  N   UNL     1      -9.921   4.512  -6.517  1.00  0.00    -0.352 N 
ATOM     32  C   UNL     1     -11.193   5.030  -6.389  1.00  0.00     0.251 C 
ATOM     33  H   UNL     1      -9.389   4.454  -5.691  1.00  0.00     0.163 HD
ATOM     34  O   UNL     1     -11.592   5.451  -5.309  1.00  0.00    -0.269 OA
BRANCH  32  35
ATOM     35  C   UNL     1     -12.033   5.121  -7.600  1.00  0.00     0.039 A 
ATOM     36  C   UNL     1     -12.233   3.989  -8.392  1.00  0.00     0.014 A 
ATOM     37  C   UNL     1     -12.502   6.371  -8.008  1.00  0.00     0.014 A 
ATOM     38  C   UNL     1     -12.740   4.141  -9.676  1.00  0.00     0.010 A 
ATOM     39  C   UNL     1     -13.083   6.506  -9.271  1.00  0.00     0.010 A 
ATOM     40  C   UNL     1     -13.148   5.404 -10.138  1.00  0.00    -0.014 A 
BRANCH  40  41
ATOM     41  C   UNL     1     -13.612   5.550 -11.541  1.00  0.00     0.031 A 
ATOM     42  C   UNL     1     -12.815   6.351 -12.536  1.00  0.00     0.074 A 
ATOM     43  C   UNL     1     -14.723   4.899 -11.932  1.00  0.00     0.049 A 
ATOM     44  N   UNL     1     -13.050   6.551 -13.807  1.00  0.00    -0.248 NA
ATOM     45  C   UNL     1     -11.597   7.016 -12.043  1.00  0.00     0.031 C 
ATOM     46  C   UNL     1     -15.561   4.084 -11.053  1.00  0.00     0.029 A 
ATOM     47  N   UNL     1     -15.324   4.793 -13.160  1.00  0.00    -0.354 N 
ATOM     48  C   UNL     1     -12.027   7.375 -14.262  1.00  0.00     0.074 A 
ATOM     49  C   UNL     1     -11.181   7.662 -13.125  1.00  0.00     0.031 C 
ATOM     50  C   UNL     1     -16.533   3.515 -11.779  1.00  0.00     0.029 A 
ATOM     51  C   UNL     1     -16.432   3.979 -13.161  1.00  0.00     0.049 A 
ATOM     52  H   UNL     1     -14.993   5.256 -13.964  1.00  0.00     0.167 HD
ATOM     53  C   UNL     1     -11.807   7.836 -15.517  1.00  0.00     0.034 A 
ATOM     54  C   UNL     1     -17.279   3.647 -14.156  1.00  0.00     0.034 A 
ATOM     55  C   UNL     1     -12.645   7.519 -16.645  1.00  0.00     0.049 A 
ATOM     56  C   UNL     1     -17.026   4.191 -15.536  1.00  0.00     0.074 A 
ATOM     57  C   UNL     1     -12.491   7.919 -17.961  1.00  0.00     0.029 A 
ATOM     58  N   UNL     1     -13.781   6.725 -16.600  1.00  0.00    -0.354 N 
ATOM     59  N   UNL     1     -16.037   4.945 -15.954  1.00  0.00    -0.248 NA
ATOM     60  C   UNL     1     -18.000   3.848 -16.581  1.00  0.00     0.031 C 
ATOM     61  C   UNL     1     -13.558   7.407 -18.701  1.00  0.00     0.029 A 
ATOM     62  C   UNL     1     -14.351   6.641 -17.860  1.00  0.00     0.049 A 
ATOM     63  H   UNL     1     -14.132   6.286 -15.791  1.00  0.00     0.167 HD
ATOM     64  C   UNL     1     -16.265   5.161 -17.309  1.00  0.00     0.074 A 
ATOM     65  C   UNL     1     -17.469   4.430 -17.648  1.00  0.00     0.031 C 
ATOM     66  C   UNL     1     -15.548   5.905 -18.188  1.00  0.00     0.034 A 
BRANCH  53  67
ATOM     67  C   UNL     1     -10.614   8.723 -15.762  1.00  0.00     0.023 A 
ATOM     68  C   UNL     1     -10.800  10.063 -16.152  1.00  0.00     0.031 A 
ATOM     69  C   UNL     1      -9.304   8.214 -15.730  1.00  0.00     0.131 A 
ATOM     70  C   UNL     1      -9.694  10.840 -16.521  1.00  0.00     0.055 A 
ATOM     71  C   UNL     1      -8.203   9.002 -16.070  1.00  0.00     0.041 A 
ATOM     72  F   UNL     1      -9.076   6.943 -15.361  1.00  0.00    -0.206 F 
ATOM     73  C   UNL     1      -8.397  10.318 -16.478  1.00  0.00     0.022 A 
BRANCH  70  74
ATOM     74  S   UNL     1      -9.898  12.540 -17.120  1.00  0.00     0.124 S 
ATOM     75  O   UNL     1      -9.108  13.295 -16.150  1.00  0.00    -0.237 OA
ATOM     76  O   UNL     1      -9.328  12.461 -18.462  1.00  0.00    -0.237 OA
ATOM     77  O   UNL     1     -11.337  12.764 -17.058  1.00  0.00    -0.744 OA
ENDBRANCH  70  74
ENDBRANCH  53  67
BRANCH  54  78
ATOM     78  C   UNL     1     -18.408   2.718 -13.861  1.00  0.00     0.023 A 
ATOM     79  C   UNL     1     -19.394   3.059 -12.916  1.00  0.00     0.031 A 
ATOM     80  C   UNL     1     -18.443   1.430 -14.418  1.00  0.00     0.131 A 
ATOM     81  C   UNL     1     -20.319   2.095 -12.495  1.00  0.00     0.055 A 
ATOM     82  C   UNL     1     -19.413   0.496 -14.050  1.00  0.00     0.041 A 
ATOM     83  F   UNL     1     -17.517   1.056 -15.315  1.00  0.00    -0.206 F 
ATOM     84  C   UNL     1     -20.343   0.820 -13.067  1.00  0.00     0.022 A 
BRANCH  81  85
ATOM     85  S   UNL     1     -21.409   2.415 -11.080  1.00  0.00     0.124 S 
ATOM     86  O   UNL     1     -22.730   2.359 -11.697  1.00  0.00    -0.237 OA
ATOM     87  O   UNL     1     -21.079   1.304 -10.190  1.00  0.00    -0.237 OA
ATOM     88  O   UNL     1     -20.985   3.729 -10.609  1.00  0.00    -0.744 OA
ENDBRANCH  81  85
ENDBRANCH  54  78
BRANCH  66  89
ATOM     89  C   UNL     1     -16.034   5.996 -19.612  1.00  0.00     0.023 A 
ATOM     90  C   UNL     1     -15.258   5.465 -20.660  1.00  0.00     0.031 A 
ATOM     91  C   UNL     1     -17.183   6.736 -19.940  1.00  0.00     0.131 A 
ATOM     92  C   UNL     1     -15.623   5.713 -21.989  1.00  0.00     0.055 A 
ATOM     93  C   UNL     1     -17.563   6.947 -21.266  1.00  0.00     0.041 A 
ATOM     94  F   UNL     1     -17.948   7.269 -18.974  1.00  0.00    -0.206 F 
ATOM     95  C   UNL     1     -16.774   6.446 -22.297  1.00  0.00     0.022 A 
BRANCH  92  96
ATOM     96  S   UNL     1     -14.575   5.165 -23.365  1.00  0.00     0.124 S 
ATOM     97  O   UNL     1     -15.472   4.265 -24.086  1.00  0.00    -0.237 OA
ATOM     98  O   UNL     1     -14.276   6.423 -24.044  1.00  0.00    -0.237 OA
ATOM     99  O   UNL     1     -13.442   4.520 -22.710  1.00  0.00    -0.744 OA
ENDBRANCH  92  96
ENDBRANCH  66  89
ENDBRANCH  40  41
ENDBRANCH  32  35
ENDBRANCH  30  31
ENDBRANCH   1  30
TORSDOF 18
