REMARK SMILES C[C@@H](CCCO)Nc1ccc(Cl)cc1C(=O)NCCCCNC(=O)c1ccc(-c2c3nc(c(-c4cc(S(=O)(=O)[O-])ccc4F)c4ccc([nH]4)c(-c4cc(S(=O)(=O)[O-])ccc4F)c4nc(c(-c5cc(S(=O)(=O)[O-])ccc5F)c5ccc2[nH]5)C=C4)C=C3)cc1
REMARK SMILES IDX 18 1 17 2 15 3 16 4 14 6 8 7 9 8 10 9 13 10 11 11 12 12 7 13
REMARK SMILES IDX 2 15 1 16 3 17 4 18 5 19 6 20 19 22 20 23 21 24 22 25 23 26
REMARK SMILES IDX 24 28 25 29 26 30 87 31 27 32 86 33 28 34 29 35 30 36 80 37
REMARK SMILES IDX 31 38 85 39 79 40 81 41 32 42 84 43 78 44 77 45 33 47 65 48
REMARK SMILES IDX 45 49 64 50 46 51 49 52 63 53 82 54 47 55 48 56 62 58 83 59
REMARK SMILES IDX 50 60 34 61 35 62 43 63 36 64 42 65 44 66 41 67 37 68 38 69
REMARK SMILES IDX 39 70 40 71 66 72 67 73 75 74 68 75 74 76 76 77 73 78 69 79
REMARK SMILES IDX 70 80 71 81 72 82 51 83 52 84 60 85 53 86 59 87 61 88 58 89
REMARK SMILES IDX 54 90 55 91 56 92 57 93
REMARK H PARENT 17 5 7 14 6 21 22 27 81 46 49 57
REMARK Flexibility Score: inf
ROOT
ATOM      1  C   UNL     1      -2.432  -0.246  -0.946  1.00  0.00     0.116 C 
ENDROOT
BRANCH   1   2
ATOM      2  N   UNL     1      -2.981  -1.125   0.055  1.00  0.00    -0.352 N 
ATOM      3  C   UNL     1      -2.996  -1.145   1.421  1.00  0.00     0.253 C 
ATOM      4  O   UNL     1      -3.437  -2.200   1.900  1.00  0.00    -0.269 OA
ATOM      5  H   UNL     1      -3.458  -1.892  -0.338  1.00  0.00     0.163 HD
BRANCH   3   6
ATOM      6  C   UNL     1      -2.638  -0.049   2.392  1.00  0.00     0.064 A 
ATOM      7  C   UNL     1      -1.557   0.875   2.407  1.00  0.00     0.047 A 
ATOM      8  C   UNL     1      -1.364   1.635   3.588  1.00  0.00     0.028 A 
ATOM      9  C   UNL     1      -2.179   1.516   4.713  1.00  0.00     0.022 A 
ATOM     10  C   UNL     1      -3.471  -0.124   3.543  1.00  0.00     0.036 A 
ATOM     11  C   UNL     1      -3.239   0.634   4.684  1.00  0.00     0.041 A 
ATOM     12  Cl  UNL     1      -4.245   0.454   6.066  1.00  0.00    -0.084 Cl
BRANCH   7  13
ATOM     13  N   UNL     1      -0.640   1.049   1.385  1.00  0.00    -0.382 N 
ATOM     14  H   UNL     1      -0.972   0.929   0.467  1.00  0.00     0.160 HD
BRANCH  13  15
ATOM     15  C   UNL     1       0.774   1.393   1.535  1.00  0.00     0.076 C 
ATOM     16  C   UNL     1       1.649   0.341   0.853  1.00  0.00     0.031 C 
BRANCH  15  17
ATOM     17  C   UNL     1       1.076   2.825   1.052  1.00  0.00     0.027 C 
BRANCH  17  18
ATOM     18  C   UNL     1       0.955   3.151  -0.447  1.00  0.00     0.030 C 
BRANCH  18  19
ATOM     19  C   UNL     1      -0.449   3.384  -0.997  1.00  0.00     0.156 C 
BRANCH  19  20
ATOM     20  O   UNL     1      -1.211   4.232  -0.154  1.00  0.00    -0.396 OA
ATOM     21  H   UNL     1      -1.306   3.820   0.719  1.00  0.00     0.210 HD
ENDBRANCH  19  20
ENDBRANCH  18  19
ENDBRANCH  17  18
ENDBRANCH  15  17
ENDBRANCH  13  15
ENDBRANCH   7  13
ENDBRANCH   3   6
ENDBRANCH   1   2
BRANCH   1  22
ATOM     22  C   UNL     1      -0.964  -0.614  -1.179  1.00  0.00     0.023 C 
BRANCH  22  23
ATOM     23  C   UNL     1      -0.668  -1.391  -2.453  1.00  0.00     0.023 C 
BRANCH  23  24
ATOM     24  C   UNL     1      -0.626  -0.494  -3.682  1.00  0.00     0.116 C 
BRANCH  24  25
ATOM     25  N   UNL     1       0.446   0.499  -3.640  1.00  0.00    -0.352 N 
ATOM     26  C   UNL     1       1.102   1.091  -4.703  1.00  0.00     0.251 C 
ATOM     27  H   UNL     1       0.737   0.782  -2.743  1.00  0.00     0.163 HD
ATOM     28  O   UNL     1       2.009   1.873  -4.521  1.00  0.00    -0.269 OA
BRANCH  26  29
ATOM     29  C   UNL     1       0.701   0.662  -6.060  1.00  0.00     0.039 A 
ATOM     30  C   UNL     1       1.653   0.034  -6.867  1.00  0.00     0.014 A 
ATOM     31  C   UNL     1      -0.642   0.709  -6.432  1.00  0.00     0.014 A 
ATOM     32  C   UNL     1       1.231  -0.655  -8.005  1.00  0.00     0.010 A 
ATOM     33  C   UNL     1      -1.066  -0.044  -7.517  1.00  0.00     0.010 A 
ATOM     34  C   UNL     1      -0.138  -0.755  -8.297  1.00  0.00    -0.014 A 
BRANCH  34  35
ATOM     35  C   UNL     1      -0.651  -1.603  -9.402  1.00  0.00     0.031 A 
ATOM     36  C   UNL     1      -1.435  -0.959 -10.508  1.00  0.00     0.074 A 
ATOM     37  C   UNL     1      -0.524  -2.944  -9.344  1.00  0.00     0.049 A 
ATOM     38  N   UNL     1      -2.190  -1.509 -11.421  1.00  0.00    -0.248 NA
ATOM     39  C   UNL     1      -1.397   0.511 -10.556  1.00  0.00     0.031 C 
ATOM     40  C   UNL     1       0.197  -3.688  -8.308  1.00  0.00     0.029 A 
ATOM     41  N   UNL     1      -1.020  -3.925 -10.166  1.00  0.00    -0.354 N 
ATOM     42  C   UNL     1      -2.747  -0.452 -12.132  1.00  0.00     0.074 A 
ATOM     43  C   UNL     1      -2.281   0.768 -11.507  1.00  0.00     0.031 C 
ATOM     44  C   UNL     1       0.108  -5.003  -8.566  1.00  0.00     0.029 A 
ATOM     45  C   UNL     1      -0.724  -5.203  -9.747  1.00  0.00     0.049 A 
ATOM     46  H   UNL     1      -1.540  -3.733 -10.980  1.00  0.00     0.167 HD
ATOM     47  C   UNL     1      -3.559  -0.496 -13.217  1.00  0.00     0.034 A 
ATOM     48  C   UNL     1      -1.104  -6.396 -10.246  1.00  0.00     0.034 A 
ATOM     49  C   UNL     1      -3.989  -1.722 -13.840  1.00  0.00     0.049 A 
ATOM     50  C   UNL     1      -2.008  -6.422 -11.454  1.00  0.00     0.074 A 
ATOM     51  C   UNL     1      -4.808  -1.893 -14.943  1.00  0.00     0.029 A 
ATOM     52  N   UNL     1      -3.619  -2.993 -13.419  1.00  0.00    -0.354 N 
ATOM     53  N   UNL     1      -2.542  -5.415 -12.105  1.00  0.00    -0.248 NA
ATOM     54  C   UNL     1      -2.360  -7.743 -11.994  1.00  0.00     0.031 C 
ATOM     55  C   UNL     1      -4.957  -3.266 -15.170  1.00  0.00     0.029 A 
ATOM     56  C   UNL     1      -4.189  -3.950 -14.241  1.00  0.00     0.049 A 
ATOM     57  H   UNL     1      -3.037  -3.185 -12.649  1.00  0.00     0.167 HD
ATOM     58  C   UNL     1      -3.257  -5.981 -13.156  1.00  0.00     0.074 A 
ATOM     59  C   UNL     1      -3.090  -7.415 -13.051  1.00  0.00     0.031 C 
ATOM     60  C   UNL     1      -3.983  -5.372 -14.126  1.00  0.00     0.034 A 
BRANCH  47  61
ATOM     61  C   UNL     1      -4.038   0.822 -13.768  1.00  0.00     0.023 A 
ATOM     62  C   UNL     1      -3.138   1.763 -14.297  1.00  0.00     0.031 A 
ATOM     63  C   UNL     1      -5.398   1.171 -13.709  1.00  0.00     0.131 A 
ATOM     64  C   UNL     1      -3.592   3.038 -14.660  1.00  0.00     0.055 A 
ATOM     65  C   UNL     1      -5.858   2.412 -14.156  1.00  0.00     0.041 A 
ATOM     66  F   UNL     1      -6.301   0.322 -13.194  1.00  0.00    -0.206 F 
ATOM     67  C   UNL     1      -4.950   3.361 -14.618  1.00  0.00     0.022 A 
BRANCH  64  68
ATOM     68  S   UNL     1      -2.362   4.314 -15.040  1.00  0.00     0.124 S 
ATOM     69  O   UNL     1      -1.656   4.427 -13.765  1.00  0.00    -0.237 OA
ATOM     70  O   UNL     1      -1.609   3.714 -16.135  1.00  0.00    -0.237 OA
ATOM     71  O   UNL     1      -3.173   5.475 -15.401  1.00  0.00    -0.744 OA
ENDBRANCH  64  68
ENDBRANCH  47  61
BRANCH  48  72
ATOM     72  C   UNL     1      -0.656  -7.668  -9.610  1.00  0.00     0.023 A 
ATOM     73  C   UNL     1       0.180  -8.559 -10.302  1.00  0.00     0.031 A 
ATOM     74  C   UNL     1      -1.101  -8.041  -8.330  1.00  0.00     0.131 A 
ATOM     75  C   UNL     1       0.501  -9.802  -9.736  1.00  0.00     0.055 A 
ATOM     76  C   UNL     1      -0.736  -9.258  -7.748  1.00  0.00     0.041 A 
ATOM     77  F   UNL     1      -1.895  -7.223  -7.622  1.00  0.00    -0.206 F 
ATOM     78  C   UNL     1       0.057 -10.153  -8.459  1.00  0.00     0.022 A 
BRANCH  75  79
ATOM     79  S   UNL     1       1.428 -10.997 -10.737  1.00  0.00     0.124 S 
ATOM     80  O   UNL     1       0.593 -11.097 -11.929  1.00  0.00    -0.237 OA
ATOM     81  O   UNL     1       2.709 -10.319 -10.905  1.00  0.00    -0.237 OA
ATOM     82  O   UNL     1       1.462 -12.192  -9.896  1.00  0.00    -0.744 OA
ENDBRANCH  75  79
ENDBRANCH  48  72
BRANCH  60  83
ATOM     83  C   UNL     1      -4.574  -6.253 -15.193  1.00  0.00     0.023 A 
ATOM     84  C   UNL     1      -5.681  -7.079 -14.943  1.00  0.00     0.031 A 
ATOM     85  C   UNL     1      -4.020  -6.246 -16.485  1.00  0.00     0.131 A 
ATOM     86  C   UNL     1      -6.183  -7.895 -15.969  1.00  0.00     0.055 A 
ATOM     87  C   UNL     1      -4.548  -7.029 -17.511  1.00  0.00     0.041 A 
ATOM     88  F   UNL     1      -2.962  -5.470 -16.769  1.00  0.00    -0.206 F 
ATOM     89  C   UNL     1      -5.631  -7.864 -17.253  1.00  0.00     0.022 A 
BRANCH  86  90
ATOM     90  S   UNL     1      -7.549  -9.027 -15.595  1.00  0.00     0.124 S 
ATOM     91  O   UNL     1      -6.939  -9.927 -14.621  1.00  0.00    -0.237 OA
ATOM     92  O   UNL     1      -8.572  -8.125 -15.075  1.00  0.00    -0.237 OA
ATOM     93  O   UNL     1      -7.858  -9.631 -16.889  1.00  0.00    -0.744 OA
ENDBRANCH  86  90
ENDBRANCH  60  83
ENDBRANCH  34  35
ENDBRANCH  26  29
ENDBRANCH  24  25
ENDBRANCH  23  24
ENDBRANCH  22  23
ENDBRANCH   1  22
TORSDOF 20
