REMARK SMILES O=C(NCCCCNC(=O)[C@H]1CCN1C(=O)OCC1c2ccccc2-c2ccccc21)c1ccc(-c2c3nc(c(-c4cc(S(=O)(=O)[O-])ccc4F)c4ccc([nH]4)c(-c4cc(S(=O)(=O)[O-])ccc4F)c4nc(c(-c5cc(S(=O)(=O)[O-])ccc5F)c5ccc2[nH]5)C=C4)C=C3)cc1
REMARK SMILES IDX 6 1 5 2 4 3 3 4 1 5 2 6 32 8 33 9 94 10 34 11 93 12 35 13
REMARK SMILES IDX 36 14 37 15 87 16 38 17 92 18 86 19 88 20 39 21 91 22 85 23
REMARK SMILES IDX 84 24 40 26 72 27 52 28 71 29 53 30 56 31 70 32 89 33 54 34
REMARK SMILES IDX 55 35 69 37 90 38 57 39 41 40 42 41 50 42 43 43 49 44 51 45
REMARK SMILES IDX 48 46 44 47 45 48 46 49 47 50 73 51 74 52 82 53 75 54 81 55
REMARK SMILES IDX 83 56 80 57 76 58 77 59 78 60 79 61 58 62 59 63 67 64 60 65
REMARK SMILES IDX 66 66 68 67 65 68 61 69 62 70 63 71 64 72 7 73 8 74 9 75
REMARK SMILES IDX 10 77 11 78 12 79 14 80 13 81 15 82 16 83 17 84 18 85 19 86
REMARK SMILES IDX 20 87 31 88 21 89 25 90 26 91 30 92 22 93 24 94 27 95 29 96
REMARK SMILES IDX 23 97 28 98
REMARK H PARENT 3 7 88 25 56 36 8 76
REMARK Flexibility Score: inf
ROOT
ATOM      1  C   UNL     1       6.533   9.287  -3.404  1.00  0.00     0.023 C 
ENDROOT
BRANCH   1   2
ATOM      2  C   UNL     1       6.504   9.340  -4.932  1.00  0.00     0.023 C 
BRANCH   2   3
ATOM      3  C   UNL     1       5.225   9.902  -5.545  1.00  0.00     0.116 C 
BRANCH   3   4
ATOM      4  N   UNL     1       4.870  11.227  -5.056  1.00  0.00    -0.352 N 
ATOM      5  O   UNL     1       4.053  13.328  -5.208  1.00  0.00    -0.269 OA
ATOM      6  C   UNL     1       4.205  12.227  -5.727  1.00  0.00     0.251 C 
ATOM      7  H   UNL     1       5.138  11.432  -4.131  1.00  0.00     0.163 HD
BRANCH   6   8
ATOM      8  C   UNL     1       3.713  11.967  -7.096  1.00  0.00     0.039 A 
ATOM      9  C   UNL     1       2.961  10.823  -7.371  1.00  0.00     0.014 A 
ATOM     10  C   UNL     1       4.051  12.857  -8.120  1.00  0.00     0.014 A 
ATOM     11  C   UNL     1       2.661  10.499  -8.689  1.00  0.00     0.010 A 
ATOM     12  C   UNL     1       3.689  12.563  -9.437  1.00  0.00     0.010 A 
ATOM     13  C   UNL     1       3.022  11.364  -9.734  1.00  0.00    -0.014 A 
BRANCH  13  14
ATOM     14  C   UNL     1       2.662  11.006 -11.128  1.00  0.00     0.031 A 
ATOM     15  C   UNL     1       3.723  10.655 -12.134  1.00  0.00     0.074 A 
ATOM     16  C   UNL     1       1.359  10.966 -11.467  1.00  0.00     0.049 A 
ATOM     17  N   UNL     1       3.587  10.305 -13.387  1.00  0.00    -0.248 NA
ATOM     18  C   UNL     1       5.118  10.713 -11.674  1.00  0.00     0.031 C 
ATOM     19  C   UNL     1       0.248  11.292 -10.569  1.00  0.00     0.029 A 
ATOM     20  N   UNL     1       0.747  10.621 -12.642  1.00  0.00    -0.354 N 
ATOM     21  C   UNL     1       4.876  10.116 -13.874  1.00  0.00     0.074 A 
ATOM     22  C   UNL     1       5.781  10.418 -12.784  1.00  0.00     0.031 C 
ATOM     23  C   UNL     1      -0.910  11.094 -11.214  1.00  0.00     0.029 A 
ATOM     24  C   UNL     1      -0.625  10.683 -12.584  1.00  0.00     0.049 A 
ATOM     25  H   UNL     1       1.241  10.355 -13.451  1.00  0.00     0.167 HD
ATOM     26  C   UNL     1       5.264   9.722 -15.114  1.00  0.00     0.034 A 
ATOM     27  C   UNL     1      -1.552  10.450 -13.532  1.00  0.00     0.034 A 
ATOM     28  C   UNL     1       4.345   9.420 -16.186  1.00  0.00     0.049 A 
ATOM     29  C   UNL     1      -1.095  10.034 -14.902  1.00  0.00     0.074 A 
ATOM     30  C   UNL     1       4.626   8.985 -17.470  1.00  0.00     0.029 A 
ATOM     31  N   UNL     1       2.962   9.529 -16.102  1.00  0.00    -0.354 N 
ATOM     32  N   UNL     1       0.128   9.855 -15.343  1.00  0.00    -0.248 NA
ATOM     33  C   UNL     1      -2.143   9.788 -15.899  1.00  0.00     0.031 C 
ATOM     34  C   UNL     1       3.421   8.883 -18.176  1.00  0.00     0.029 A 
ATOM     35  C   UNL     1       2.380   9.196 -17.316  1.00  0.00     0.049 A 
ATOM     36  H   UNL     1       2.466   9.803 -15.296  1.00  0.00     0.167 HD
ATOM     37  C   UNL     1      -0.004   9.469 -16.672  1.00  0.00     0.074 A 
ATOM     38  C   UNL     1      -1.426   9.419 -16.950  1.00  0.00     0.031 C 
ATOM     39  C   UNL     1       0.961   9.183 -17.581  1.00  0.00     0.034 A 
BRANCH  26  40
ATOM     40  C   UNL     1       6.747   9.646 -15.385  1.00  0.00     0.023 A 
ATOM     41  C   UNL     1       7.572   8.706 -14.742  1.00  0.00     0.031 A 
ATOM     42  C   UNL     1       7.348  10.542 -16.286  1.00  0.00     0.131 A 
ATOM     43  C   UNL     1       8.958   8.725 -14.962  1.00  0.00     0.055 A 
ATOM     44  C   UNL     1       8.718  10.511 -16.553  1.00  0.00     0.041 A 
ATOM     45  F   UNL     1       6.614  11.474 -16.914  1.00  0.00    -0.206 F 
ATOM     46  C   UNL     1       9.534   9.607 -15.880  1.00  0.00     0.022 A 
BRANCH  43  47
ATOM     47  S   UNL     1      10.015   7.664 -13.938  1.00  0.00     0.124 S 
ATOM     48  O   UNL     1       9.683   8.125 -12.592  1.00  0.00    -0.237 OA
ATOM     49  O   UNL     1       9.553   6.326 -14.287  1.00  0.00    -0.237 OA
ATOM     50  O   UNL     1      11.367   7.994 -14.384  1.00  0.00    -0.744 OA
ENDBRANCH  43  47
ENDBRANCH  26  40
BRANCH  27  51
ATOM     51  C   UNL     1      -2.994  10.640 -13.222  1.00  0.00     0.023 A 
ATOM     52  C   UNL     1      -3.877   9.551 -13.180  1.00  0.00     0.031 A 
ATOM     53  C   UNL     1      -3.508  11.923 -12.963  1.00  0.00     0.131 A 
ATOM     54  C   UNL     1      -5.236   9.769 -12.909  1.00  0.00     0.055 A 
ATOM     55  C   UNL     1      -4.852  12.129 -12.652  1.00  0.00     0.041 A 
ATOM     56  F   UNL     1      -2.699  12.995 -12.982  1.00  0.00    -0.206 F 
ATOM     57  C   UNL     1      -5.727  11.048 -12.632  1.00  0.00     0.022 A 
BRANCH  54  58
ATOM     58  S   UNL     1      -6.371   8.355 -12.971  1.00  0.00     0.124 S 
ATOM     59  O   UNL     1      -6.180   7.879 -14.336  1.00  0.00    -0.237 OA
ATOM     60  O   UNL     1      -5.845   7.499 -11.913  1.00  0.00    -0.237 OA
ATOM     61  O   UNL     1      -7.675   8.954 -12.695  1.00  0.00    -0.744 OA
ENDBRANCH  54  58
ENDBRANCH  27  51
BRANCH  39  62
ATOM     62  C   UNL     1       0.489   8.775 -18.952  1.00  0.00     0.023 A 
ATOM     63  C   UNL     1      -0.113   9.700 -19.823  1.00  0.00     0.031 A 
ATOM     64  C   UNL     1       0.609   7.441 -19.375  1.00  0.00     0.131 A 
ATOM     65  C   UNL     1      -0.625   9.265 -21.054  1.00  0.00     0.055 A 
ATOM     66  C   UNL     1       0.142   7.024 -20.622  1.00  0.00     0.041 A 
ATOM     67  F   UNL     1       1.175   6.520 -18.579  1.00  0.00    -0.206 F 
ATOM     68  C   UNL     1      -0.491   7.935 -21.464  1.00  0.00     0.022 A 
BRANCH  65  69
ATOM     69  S   UNL     1      -1.547  10.444 -22.078  1.00  0.00     0.124 S 
ATOM     70  O   UNL     1      -2.640  10.828 -21.190  1.00  0.00    -0.237 OA
ATOM     71  O   UNL     1      -0.549  11.474 -22.344  1.00  0.00    -0.237 OA
ATOM     72  O   UNL     1      -1.943   9.651 -23.241  1.00  0.00    -0.744 OA
ENDBRANCH  65  69
ENDBRANCH  39  62
ENDBRANCH  13  14
ENDBRANCH   6   8
ENDBRANCH   3   4
ENDBRANCH   2   3
ENDBRANCH   1   2
BRANCH   1  73
ATOM     73  C   UNL     1       5.398   8.482  -2.776  1.00  0.00     0.116 C 
BRANCH  73  74
ATOM     74  N   UNL     1       5.673   7.061  -2.748  1.00  0.00    -0.354 N 
ATOM     75  C   UNL     1       6.074   6.218  -1.733  1.00  0.00     0.243 C 
ATOM     76  H   UNL     1       5.549   6.613  -3.615  1.00  0.00     0.163 HD
ATOM     77  O   UNL     1       6.157   5.020  -2.057  1.00  0.00    -0.273 OA
BRANCH  75  78
ATOM     78  C   UNL     1       6.423   6.689  -0.291  1.00  0.00     0.179 C 
ATOM     79  C   UNL     1       6.886   8.104   0.080  1.00  0.00     0.057 C 
ATOM     80  N   UNL     1       5.286   6.935   0.590  1.00  0.00    -0.296 N 
ATOM     81  C   UNL     1       5.503   8.361   0.705  1.00  0.00     0.126 C 
BRANCH  80  82
ATOM     82  C   UNL     1       4.609   6.157   1.482  1.00  0.00     0.410 C 
ATOM     83  O   UNL     1       3.640   6.556   2.105  1.00  0.00    -0.224 OA
BRANCH  82  84
ATOM     84  O   UNL     1       5.231   4.958   1.687  1.00  0.00    -0.448 OA
BRANCH  84  85
ATOM     85  C   UNL     1       4.726   4.217   2.813  1.00  0.00     0.248 C 
BRANCH  85  86
ATOM     86  C   UNL     1       5.501   4.481   4.128  1.00  0.00     0.088 C 
ATOM     87  C   UNL     1       5.629   5.949   4.529  1.00  0.00    -0.029 A 
ATOM     88  C   UNL     1       4.696   3.929   5.307  1.00  0.00    -0.029 A 
ATOM     89  C   UNL     1       6.427   6.932   3.965  1.00  0.00     0.005 A 
ATOM     90  C   UNL     1       4.819   6.228   5.649  1.00  0.00    -0.014 A 
ATOM     91  C   UNL     1       4.258   4.987   6.136  1.00  0.00    -0.014 A 
ATOM     92  C   UNL     1       4.373   2.611   5.593  1.00  0.00     0.005 A 
ATOM     93  C   UNL     1       6.331   8.232   4.466  1.00  0.00     0.000 A 
ATOM     94  C   UNL     1       4.712   7.520   6.138  1.00  0.00     0.009 A 
ATOM     95  C   UNL     1       3.472   4.734   7.248  1.00  0.00     0.009 A 
ATOM     96  C   UNL     1       3.589   2.357   6.720  1.00  0.00     0.000 A 
ATOM     97  C   UNL     1       5.463   8.529   5.527  1.00  0.00     0.001 A 
ATOM     98  C   UNL     1       3.136   3.408   7.536  1.00  0.00     0.001 A 
ENDBRANCH  85  86
ENDBRANCH  84  85
ENDBRANCH  82  84
ENDBRANCH  80  82
ENDBRANCH  75  78
ENDBRANCH  73  74
ENDBRANCH   1  73
TORSDOF 18
