REMARK SMILES CN1C(=O)/C(=C\c2cccc(Cl)c2)Sc2ccc(C(=O)NCCCCNC(=O)c3ccc(-c4c5nc(c(-c6cc(S(=O)(=O)[O-])ccc6F)c6ccc([nH]6)c(-c6cc(S(=O)(=O)[O-])ccc6F)c6nc(c(-c7cc(S(=O)(=O)[O-])ccc7F)c7ccc4[nH]7)C=C6)C=C5)cc3)cc21
REMARK SMILES IDX 24 1 23 2 22 3 21 4 19 5 20 6 18 8 1 9 2 10 3 11 93 12 4 13
REMARK SMILES IDX 5 14 15 15 92 16 6 17 14 18 16 19 17 20 7 21 8 22 13 23 9 24
REMARK SMILES IDX 11 25 10 26 12 27 25 28 26 29 27 30 28 32 29 33 30 34 91 35
REMARK SMILES IDX 31 36 90 37 32 38 33 39 34 40 84 41 35 42 89 43 83 44 85 45
REMARK SMILES IDX 36 46 88 47 82 48 81 49 37 51 69 52 49 53 68 54 50 55 53 56
REMARK SMILES IDX 67 57 86 58 51 59 52 60 66 62 87 63 54 64 38 65 39 66 47 67
REMARK SMILES IDX 40 68 46 69 48 70 45 71 41 72 42 73 43 74 44 75 70 76 71 77
REMARK SMILES IDX 79 78 72 79 78 80 80 81 77 82 73 83 74 84 75 85 76 86 55 87
REMARK SMILES IDX 56 88 64 89 57 90 63 91 65 92 62 93 58 94 59 95 60 96 61 97
REMARK H PARENT 21 7 26 31 85 50 53 61
REMARK Flexibility Score: inf
ROOT
ATOM      1  C   UNL     1      -3.870   1.543   7.853  1.00  0.00     0.023 C 
ENDROOT
BRANCH   1   2
ATOM      2  C   UNL     1      -2.920   2.251   6.884  1.00  0.00     0.023 C 
BRANCH   2   3
ATOM      3  C   UNL     1      -1.484   1.717   6.882  1.00  0.00     0.116 C 
BRANCH   3   4
ATOM      4  N   UNL     1      -1.367   0.515   6.082  1.00  0.00    -0.352 N 
ATOM      5  C   UNL     1      -1.040   0.302   4.769  1.00  0.00     0.251 C 
ATOM      6  O   UNL     1      -0.956  -0.870   4.396  1.00  0.00    -0.269 OA
ATOM      7  H   UNL     1      -1.562  -0.312   6.580  1.00  0.00     0.163 HD
BRANCH   5   8
ATOM      8  C   UNL     1      -0.770   1.385   3.772  1.00  0.00     0.041 A 
ATOM      9  C   UNL     1       0.662  -0.030   0.020  1.00  0.00     0.153 C 
ATOM     10  N   UNL     1       0.548   1.408   0.240  1.00  0.00    -0.310 N 
ATOM     11  C   UNL     1       0.803   2.233  -0.852  1.00  0.00     0.264 C 
ATOM     12  C   UNL     1       0.090   1.889   1.510  1.00  0.00     0.058 A 
ATOM     13  O   UNL     1       0.853   1.805  -2.006  1.00  0.00    -0.268 OA
ATOM     14  C   UNL     1       1.095   3.674  -0.568  1.00  0.00     0.078 C 
ATOM     15  C   UNL     1      -0.244   3.236   1.699  1.00  0.00     0.036 A 
ATOM     16  C   UNL     1      -0.139   0.994   2.575  1.00  0.00     0.041 A 
ATOM     17  C   UNL     1       2.113   4.329  -1.159  1.00  0.00     0.029 C 
ATOM     18  S   UNL     1       0.033   4.510   0.496  1.00  0.00    -0.082 SA
ATOM     19  C   UNL     1      -0.876   3.634   2.884  1.00  0.00     0.018 A 
ATOM     20  C   UNL     1      -1.164   2.713   3.892  1.00  0.00     0.015 A 
BRANCH  17  21
ATOM     21  C   UNL     1       3.035   3.745  -2.138  1.00  0.00    -0.023 A 
ATOM     22  C   UNL     1       2.648   3.665  -3.482  1.00  0.00     0.008 A 
ATOM     23  C   UNL     1       4.269   3.222  -1.740  1.00  0.00     0.028 A 
ATOM     24  C   UNL     1       3.470   3.041  -4.419  1.00  0.00     0.002 A 
ATOM     25  C   UNL     1       5.091   2.608  -2.686  1.00  0.00     0.041 A 
ATOM     26  C   UNL     1       4.695   2.509  -4.020  1.00  0.00     0.020 A 
ATOM     27  Cl  UNL     1       6.608   1.952  -2.202  1.00  0.00    -0.084 Cl
ENDBRANCH  17  21
ENDBRANCH   5   8
ENDBRANCH   3   4
ENDBRANCH   2   3
ENDBRANCH   1   2
BRANCH   1  28
ATOM     28  C   UNL     1      -3.491   1.660   9.323  1.00  0.00     0.116 C 
BRANCH  28  29
ATOM     29  N   UNL     1      -3.371   3.032   9.798  1.00  0.00    -0.352 N 
ATOM     30  C   UNL     1      -3.418   3.480  11.102  1.00  0.00     0.251 C 
ATOM     31  H   UNL     1      -3.242   3.720   9.106  1.00  0.00     0.163 HD
ATOM     32  O   UNL     1      -3.400   4.677  11.348  1.00  0.00    -0.269 OA
BRANCH  30  33
ATOM     33  C   UNL     1      -3.560   2.482  12.186  1.00  0.00     0.039 A 
ATOM     34  C   UNL     1      -2.735   1.359  12.218  1.00  0.00     0.014 A 
ATOM     35  C   UNL     1      -4.597   2.623  13.112  1.00  0.00     0.014 A 
ATOM     36  C   UNL     1      -3.071   0.289  13.036  1.00  0.00     0.010 A 
ATOM     37  C   UNL     1      -4.873   1.581  14.003  1.00  0.00     0.010 A 
ATOM     38  C   UNL     1      -4.156   0.378  13.925  1.00  0.00    -0.014 A 
BRANCH  38  39
ATOM     39  C   UNL     1      -4.518  -0.816  14.737  1.00  0.00     0.031 A 
ATOM     40  C   UNL     1      -5.831  -1.523  14.530  1.00  0.00     0.074 A 
ATOM     41  C   UNL     1      -3.609  -1.317  15.596  1.00  0.00     0.049 A 
ATOM     42  N   UNL     1      -6.254  -2.640  15.066  1.00  0.00    -0.248 NA
ATOM     43  C   UNL     1      -6.797  -0.902  13.610  1.00  0.00     0.031 C 
ATOM     44  C   UNL     1      -2.308  -0.710  15.877  1.00  0.00     0.029 A 
ATOM     45  N   UNL     1      -3.613  -2.462  16.354  1.00  0.00    -0.354 N 
ATOM     46  C   UNL     1      -7.535  -2.846  14.564  1.00  0.00     0.074 A 
ATOM     47  C   UNL     1      -7.836  -1.721  13.708  1.00  0.00     0.031 C 
ATOM     48  C   UNL     1      -1.609  -1.523  16.679  1.00  0.00     0.029 A 
ATOM     49  C   UNL     1      -2.432  -2.679  17.026  1.00  0.00     0.049 A 
ATOM     50  H   UNL     1      -4.386  -3.068  16.411  1.00  0.00     0.167 HD
ATOM     51  C   UNL     1      -8.374  -3.887  14.784  1.00  0.00     0.034 A 
ATOM     52  C   UNL     1      -2.046  -3.695  17.825  1.00  0.00     0.034 A 
ATOM     53  C   UNL     1      -8.052  -5.013  15.624  1.00  0.00     0.049 A 
ATOM     54  C   UNL     1      -2.992  -4.848  18.042  1.00  0.00     0.074 A 
ATOM     55  C   UNL     1      -8.835  -6.118  15.909  1.00  0.00     0.029 A 
ATOM     56  N   UNL     1      -6.853  -5.189  16.300  1.00  0.00    -0.354 N 
ATOM     57  N   UNL     1      -4.184  -5.041  17.529  1.00  0.00    -0.248 NA
ATOM     58  C   UNL     1      -2.543  -5.924  18.934  1.00  0.00     0.031 C 
ATOM     59  C   UNL     1      -8.130  -6.937  16.793  1.00  0.00     0.029 A 
ATOM     60  C   UNL     1      -6.880  -6.379  17.008  1.00  0.00     0.049 A 
ATOM     61  H   UNL     1      -6.095  -4.561  16.279  1.00  0.00     0.167 HD
ATOM     62  C   UNL     1      -4.618  -6.269  18.018  1.00  0.00     0.074 A 
ATOM     63  C   UNL     1      -3.548  -6.786  18.846  1.00  0.00     0.031 C 
ATOM     64  C   UNL     1      -5.798  -6.904  17.807  1.00  0.00     0.034 A 
BRANCH  51  65
ATOM     65  C   UNL     1      -9.722  -3.886  14.105  1.00  0.00     0.023 A 
ATOM     66  C   UNL     1     -10.900  -3.842  14.875  1.00  0.00     0.031 A 
ATOM     67  C   UNL     1      -9.843  -4.059  12.715  1.00  0.00     0.131 A 
ATOM     68  C   UNL     1     -12.145  -4.001  14.253  1.00  0.00     0.055 A 
ATOM     69  C   UNL     1     -11.088  -4.178  12.096  1.00  0.00     0.041 A 
ATOM     70  F   UNL     1      -8.749  -4.105  11.936  1.00  0.00    -0.206 F 
ATOM     71  C   UNL     1     -12.246  -4.163  12.868  1.00  0.00     0.022 A 
BRANCH  68  72
ATOM     72  S   UNL     1     -13.677  -4.069  15.222  1.00  0.00     0.124 S 
ATOM     73  O   UNL     1     -14.426  -2.939  14.676  1.00  0.00    -0.237 OA
ATOM     74  O   UNL     1     -14.199  -5.388  14.877  1.00  0.00    -0.237 OA
ATOM     75  O   UNL     1     -13.229  -3.909  16.601  1.00  0.00    -0.744 OA
ENDBRANCH  68  72
ENDBRANCH  51  65
BRANCH  52  76
ATOM     76  C   UNL     1      -0.670  -3.678  18.403  1.00  0.00     0.023 A 
ATOM     77  C   UNL     1      -0.257  -2.636  19.254  1.00  0.00     0.031 A 
ATOM     78  C   UNL     1       0.286  -4.631  18.014  1.00  0.00     0.131 A 
ATOM     79  C   UNL     1       1.090  -2.527  19.620  1.00  0.00     0.055 A 
ATOM     80  C   UNL     1       1.612  -4.562  18.445  1.00  0.00     0.041 A 
ATOM     81  F   UNL     1      -0.055  -5.635  17.191  1.00  0.00    -0.206 F 
ATOM     82  C   UNL     1       2.024  -3.494  19.235  1.00  0.00     0.022 A 
BRANCH  79  83
ATOM     83  S   UNL     1       1.702  -1.045  20.470  1.00  0.00     0.124 S 
ATOM     84  O   UNL     1       2.175  -1.595  21.735  1.00  0.00    -0.237 OA
ATOM     85  O   UNL     1       2.741  -0.582  19.553  1.00  0.00    -0.237 OA
ATOM     86  O   UNL     1       0.525  -0.186  20.553  1.00  0.00    -0.744 OA
ENDBRANCH  79  83
ENDBRANCH  52  76
BRANCH  64  87
ATOM     87  C   UNL     1      -6.023  -8.249  18.454  1.00  0.00     0.023 A 
ATOM     88  C   UNL     1      -6.219  -9.388  17.650  1.00  0.00     0.031 A 
ATOM     89  C   UNL     1      -6.198  -8.375  19.842  1.00  0.00     0.131 A 
ATOM     90  C   UNL     1      -6.614 -10.596  18.238  1.00  0.00     0.055 A 
ATOM     91  C   UNL     1      -6.550  -9.592  20.428  1.00  0.00     0.041 A 
ATOM     92  F   UNL     1      -6.036  -7.314  20.649  1.00  0.00    -0.206 F 
ATOM     93  C   UNL     1      -6.774 -10.706  19.623  1.00  0.00     0.022 A 
BRANCH  90  94
ATOM     94  S   UNL     1      -7.025 -12.042  17.221  1.00  0.00     0.124 S 
ATOM     95  O   UNL     1      -6.017 -13.008  17.651  1.00  0.00    -0.237 OA
ATOM     96  O   UNL     1      -8.392 -12.338  17.644  1.00  0.00    -0.237 OA
ATOM     97  O   UNL     1      -6.883 -11.562  15.851  1.00  0.00    -0.744 OA
ENDBRANCH  90  94
ENDBRANCH  64  87
ENDBRANCH  38  39
ENDBRANCH  30  33
ENDBRANCH  28  29
ENDBRANCH   1  28
TORSDOF 15
