REMARK SMILES CCOc1cc(N2CCOCC2)ccc1[C@H]([NH3+])C(=O)NCCCCNC(=O)c1ccc(-c2c3nc(c(-c4cc(S(=O)(=O)[O-])ccc4F)c4ccc([nH]4)c(-c4cc(S(=O)(=O)[O-])ccc4F)c4nc(c(-c5cc(S(=O)(=O)[O-])ccc5F)c5ccc2[nH]5)C=C4)C=C3)cc1
REMARK SMILES IDX 22 1 21 2 20 3 18 4 19 5 16 7 15 8 4 9 5 10 6 11 14 12 13 13
REMARK SMILES IDX 3 14 2 15 1 16 7 17 8 18 12 19 9 20 11 21 10 22 17 23 23 27
REMARK SMILES IDX 24 28 25 29 26 30 27 32 28 33 29 34 90 35 30 36 89 37 31 38
REMARK SMILES IDX 32 39 33 40 83 41 34 42 88 43 82 44 84 45 35 46 87 47 81 48
REMARK SMILES IDX 80 49 36 51 68 52 48 53 67 54 49 55 52 56 66 57 85 58 50 59
REMARK SMILES IDX 51 60 65 62 86 63 53 64 37 65 38 66 46 67 39 68 45 69 47 70
REMARK SMILES IDX 44 71 40 72 41 73 42 74 43 75 69 76 70 77 78 78 71 79 77 80
REMARK SMILES IDX 79 81 76 82 72 83 73 84 74 85 75 86 54 87 55 88 63 89 56 90
REMARK SMILES IDX 62 91 64 92 61 93 57 94 58 95 59 96 60 97
REMARK H PARENT 20 6 17 24 17 25 17 26 25 31 84 50 52 61
REMARK Flexibility Score: inf
ROOT
ATOM      1  C   UNL     1       6.463  -0.638   0.211  1.00  0.00     0.023 C 
ENDROOT
BRANCH   1   2
ATOM      2  C   UNL     1       5.363   0.366   0.560  1.00  0.00     0.116 C 
BRANCH   2   3
ATOM      3  N   UNL     1       4.465   0.558  -0.558  1.00  0.00    -0.351 N 
ATOM      4  C   UNL     1       3.120   0.465  -0.685  1.00  0.00     0.283 C 
ATOM      5  O   UNL     1       2.706   0.501  -1.856  1.00  0.00    -0.268 OA
ATOM      6  H   UNL     1       4.924   0.806  -1.393  1.00  0.00     0.163 HD
BRANCH   4   7
ATOM      7  C   UNL     1       2.088   0.290   0.455  1.00  0.00     0.306 C 
BRANCH   7   8
ATOM      8  C   UNL     1       2.490   0.513   1.900  1.00  0.00     0.061 A 
ATOM      9  C   UNL     1       2.692  -0.503   2.854  1.00  0.00     0.131 A 
ATOM     10  C   UNL     1       2.811  -0.193   4.219  1.00  0.00     0.072 A 
ATOM     11  C   UNL     1       2.734   1.135   4.657  1.00  0.00     0.040 A 
ATOM     12  C   UNL     1       2.582   1.845   2.338  1.00  0.00     0.016 A 
ATOM     13  C   UNL     1       2.696   2.146   3.695  1.00  0.00     0.027 A 
BRANCH   9  14
ATOM     14  O   UNL     1       2.585  -1.824   2.491  1.00  0.00    -0.493 OA
BRANCH  14  15
ATOM     15  C   UNL     1       3.845  -2.498   2.387  1.00  0.00     0.226 C 
ATOM     16  C   UNL     1       3.953  -3.081   0.985  1.00  0.00     0.049 C 
ENDBRANCH  14  15
ENDBRANCH   9  14
BRANCH  11  17
ATOM     17  N   UNL     1       2.530   1.441   5.982  1.00  0.00    -0.367 N 
ATOM     18  C   UNL     1       1.248   2.033   6.383  1.00  0.00     0.145 C 
ATOM     19  C   UNL     1       3.571   1.398   7.004  1.00  0.00     0.145 C 
ATOM     20  C   UNL     1       1.490   3.389   7.053  1.00  0.00     0.181 C 
ATOM     21  C   UNL     1       3.679   2.776   7.693  1.00  0.00     0.181 C 
ATOM     22  O   UNL     1       2.403   3.261   8.156  1.00  0.00    -0.378 OA
ENDBRANCH  11  17
ENDBRANCH   7   8
BRANCH   7  23
ATOM     23  N   UNL     1       1.272  -0.924   0.225  1.00  0.00    -0.343 N 
ATOM     24  H   UNL     1       1.859  -1.752   0.321  1.00  0.00     0.345 HD
ATOM     25  H   UNL     1       0.876  -0.895  -0.715  1.00  0.00     0.345 HD
ATOM     26  H   UNL     1       0.517  -0.962   0.910  1.00  0.00     0.345 HD
ENDBRANCH   7  23
ENDBRANCH   4   7
ENDBRANCH   2   3
ENDBRANCH   1   2
BRANCH   1  27
ATOM     27  C   UNL     1       7.578  -0.071  -0.665  1.00  0.00     0.023 C 
BRANCH  27  28
ATOM     28  C   UNL     1       8.429   0.994   0.015  1.00  0.00     0.116 C 
BRANCH  28  29
ATOM     29  N   UNL     1       9.175   0.483   1.153  1.00  0.00    -0.352 N 
ATOM     30  C   UNL     1      10.495   0.721   1.482  1.00  0.00     0.251 C 
ATOM     31  H   UNL     1       8.678  -0.106   1.766  1.00  0.00     0.163 HD
ATOM     32  O   UNL     1      11.024   0.119   2.407  1.00  0.00    -0.269 OA
BRANCH  30  33
ATOM     33  C   UNL     1      11.258   1.686   0.664  1.00  0.00     0.039 A 
ATOM     34  C   UNL     1      12.468   1.290   0.091  1.00  0.00     0.014 A 
ATOM     35  C   UNL     1      10.719   2.945   0.392  1.00  0.00     0.014 A 
ATOM     36  C   UNL     1      13.100   2.131  -0.830  1.00  0.00     0.010 A 
ATOM     37  C   UNL     1      11.305   3.742  -0.582  1.00  0.00     0.010 A 
ATOM     38  C   UNL     1      12.498   3.341  -1.207  1.00  0.00    -0.014 A 
BRANCH  38  39
ATOM     39  C   UNL     1      13.088   4.236  -2.237  1.00  0.00     0.031 A 
ATOM     40  C   UNL     1      13.482   5.633  -1.849  1.00  0.00     0.074 A 
ATOM     41  C   UNL     1      13.148   3.846  -3.525  1.00  0.00     0.049 A 
ATOM     42  N   UNL     1      13.791   6.652  -2.607  1.00  0.00    -0.248 NA
ATOM     43  C   UNL     1      13.475   5.929  -0.409  1.00  0.00     0.031 C 
ATOM     44  C   UNL     1      12.764   2.527  -4.030  1.00  0.00     0.029 A 
ATOM     45  N   UNL     1      13.524   4.536  -4.651  1.00  0.00    -0.354 N 
ATOM     46  C   UNL     1      13.982   7.721  -1.738  1.00  0.00     0.074 A 
ATOM     47  C   UNL     1      13.688   7.234  -0.406  1.00  0.00     0.031 C 
ATOM     48  C   UNL     1      12.919   2.506  -5.364  1.00  0.00     0.029 A 
ATOM     49  C   UNL     1      13.362   3.822  -5.815  1.00  0.00     0.049 A 
ATOM     50  H   UNL     1      13.876   5.455  -4.627  1.00  0.00     0.167 HD
ATOM     51  C   UNL     1      14.386   8.985  -2.022  1.00  0.00     0.034 A 
ATOM     52  C   UNL     1      13.520   4.194  -7.101  1.00  0.00     0.034 A 
ATOM     53  C   UNL     1      14.690   9.441  -3.356  1.00  0.00     0.049 A 
ATOM     54  C   UNL     1      13.958   5.604  -7.405  1.00  0.00     0.074 A 
ATOM     55  C   UNL     1      15.150  10.681  -3.762  1.00  0.00     0.029 A 
ATOM     56  N   UNL     1      14.562   8.670  -4.506  1.00  0.00    -0.354 N 
ATOM     57  N   UNL     1      14.159   6.601  -6.574  1.00  0.00    -0.248 NA
ATOM     58  C   UNL     1      14.198   5.938  -8.815  1.00  0.00     0.031 C 
ATOM     59  C   UNL     1      15.245  10.679  -5.158  1.00  0.00     0.029 A 
ATOM     60  C   UNL     1      14.914   9.414  -5.620  1.00  0.00     0.049 A 
ATOM     61  H   UNL     1      14.263   7.732  -4.525  1.00  0.00     0.167 HD
ATOM     62  C   UNL     1      14.582   7.670  -7.359  1.00  0.00     0.074 A 
ATOM     63  C   UNL     1      14.603   7.198  -8.728  1.00  0.00     0.031 C 
ATOM     64  C   UNL     1      14.932   8.925  -6.979  1.00  0.00     0.034 A 
BRANCH  51  65
ATOM     65  C   UNL     1      14.487   9.950  -0.865  1.00  0.00     0.023 A 
ATOM     66  C   UNL     1      15.347   9.708   0.221  1.00  0.00     0.031 A 
ATOM     67  C   UNL     1      13.661  11.086  -0.805  1.00  0.00     0.131 A 
ATOM     68  C   UNL     1      15.280  10.518   1.364  1.00  0.00     0.055 A 
ATOM     69  C   UNL     1      13.672  11.947   0.295  1.00  0.00     0.041 A 
ATOM     70  F   UNL     1      12.803  11.363  -1.800  1.00  0.00    -0.206 F 
ATOM     71  C   UNL     1      14.467  11.652   1.398  1.00  0.00     0.022 A 
BRANCH  68  72
ATOM     72  S   UNL     1      16.118   9.950   2.869  1.00  0.00     0.124 S 
ATOM     73  O   UNL     1      15.503   8.640   3.071  1.00  0.00    -0.237 OA
ATOM     74  O   UNL     1      17.519   9.942   2.466  1.00  0.00    -0.237 OA
ATOM     75  O   UNL     1      15.757  10.958   3.863  1.00  0.00    -0.744 OA
ENDBRANCH  68  72
ENDBRANCH  51  65
BRANCH  52  76
ATOM     76  C   UNL     1      13.234   3.226  -8.197  1.00  0.00     0.023 A 
ATOM     77  C   UNL     1      14.264   2.719  -9.004  1.00  0.00     0.031 A 
ATOM     78  C   UNL     1      11.920   2.796  -8.455  1.00  0.00     0.131 A 
ATOM     79  C   UNL     1      13.960   1.835 -10.051  1.00  0.00     0.055 A 
ATOM     80  C   UNL     1      11.628   1.883  -9.469  1.00  0.00     0.041 A 
ATOM     81  F   UNL     1      10.901   3.243  -7.704  1.00  0.00    -0.206 F 
ATOM     82  C   UNL     1      12.652   1.404 -10.281  1.00  0.00     0.022 A 
BRANCH  79  83
ATOM     83  S   UNL     1      15.300   1.289 -11.145  1.00  0.00     0.124 S 
ATOM     84  O   UNL     1      15.759   2.555 -11.706  1.00  0.00    -0.237 OA
ATOM     85  O   UNL     1      16.208   0.634 -10.210  1.00  0.00    -0.237 OA
ATOM     86  O   UNL     1      14.629   0.395 -12.086  1.00  0.00    -0.744 OA
ENDBRANCH  79  83
ENDBRANCH  52  76
BRANCH  64  87
ATOM     87  C   UNL     1      15.436   9.857  -8.049  1.00  0.00     0.023 A 
ATOM     88  C   UNL     1      14.582  10.416  -9.014  1.00  0.00     0.031 A 
ATOM     89  C   UNL     1      16.796  10.219  -8.073  1.00  0.00     0.131 A 
ATOM     90  C   UNL     1      15.103  11.290  -9.982  1.00  0.00     0.055 A 
ATOM     91  C   UNL     1      17.299  11.122  -9.009  1.00  0.00     0.041 A 
ATOM     92  F   UNL     1      17.652   9.712  -7.171  1.00  0.00    -0.206 F 
ATOM     93  C   UNL     1      16.452  11.658  -9.974  1.00  0.00     0.022 A 
BRANCH  90  94
ATOM     94  S   UNL     1      14.003  11.915 -11.281  1.00  0.00     0.124 S 
ATOM     95  O   UNL     1      13.623  10.688 -11.972  1.00  0.00    -0.237 OA
ATOM     96  O   UNL     1      12.948  12.568 -10.512  1.00  0.00    -0.237 OA
ATOM     97  O   UNL     1      14.857  12.820 -12.048  1.00  0.00    -0.744 OA
ENDBRANCH  90  94
ENDBRANCH  64  87
ENDBRANCH  38  39
ENDBRANCH  30  33
ENDBRANCH  28  29
ENDBRANCH  27  28
ENDBRANCH   1  27
TORSDOF 19
