REMARK SMILES CSc1ccc(/C=C2\C(C)=C(CC(=O)NCCCCNC(=O)c3ccc(-c4c5nc(c(-c6cc(S(=O)(=O)[O-])ccc6F)c6ccc([nH]6)c(-c6cc(S(=O)(=O)[O-])ccc6F)c6nc(c(-c7cc(S(=O)(=O)[O-])ccc7F)c7ccc4[nH]7)C=C6)C=C5)cc3)c3cc(F)ccc32)cc1
REMARK SMILES IDX 17 1 16 2 15 3 13 4 14 5 12 7 11 8 7 9 8 10 9 11 92 12 10 13
REMARK SMILES IDX 86 14 91 15 87 16 90 17 88 18 89 19 6 20 3 21 4 22 94 23
REMARK SMILES IDX 5 24 93 25 2 26 1 27 18 28 19 29 20 30 21 31 22 33 23 34
REMARK SMILES IDX 24 35 85 36 25 37 84 38 26 39 27 40 28 41 78 42 29 43 83 44
REMARK SMILES IDX 77 45 79 46 30 47 82 48 76 49 75 50 31 52 63 53 43 54 62 55
REMARK SMILES IDX 44 56 47 57 61 58 80 59 45 60 46 61 60 63 81 64 48 65 32 66
REMARK SMILES IDX 33 67 41 68 34 69 40 70 42 71 39 72 35 73 36 74 37 75 38 76
REMARK SMILES IDX 64 77 65 78 73 79 66 80 72 81 74 82 71 83 67 84 68 85 69 86
REMARK SMILES IDX 70 87 49 88 50 89 58 90 51 91 57 92 59 93 56 94 52 95 53 96
REMARK SMILES IDX 54 97 55 98
REMARK H PARENT 15 6 20 32 79 51 47 62
REMARK Flexibility Score: inf
ROOT
ATOM      1  C   UNL     1      -1.369  -1.614   8.309  1.00  0.00     0.023 C 
ENDROOT
BRANCH   1   2
ATOM      2  C   UNL     1      -0.444  -1.036   9.378  1.00  0.00     0.116 C 
BRANCH   2   3
ATOM      3  N   UNL     1       0.170  -2.080  10.171  1.00  0.00    -0.356 N 
ATOM      4  C   UNL     1       1.331  -2.750   9.904  1.00  0.00     0.224 C 
ATOM      5  O   UNL     1       1.670  -3.684  10.632  1.00  0.00    -0.275 OA
ATOM      6  H   UNL     1      -0.302  -2.336  10.997  1.00  0.00     0.163 HD
BRANCH   4   7
ATOM      7  C   UNL     1       2.173  -2.321   8.718  1.00  0.00     0.136 C 
BRANCH   7   8
ATOM      8  C   UNL     1       1.589  -2.881   7.437  1.00  0.00    -0.027 C 
ATOM      9  C   UNL     1       2.918  -0.744   5.093  1.00  0.00     0.017 C 
ATOM     10  C   UNL     1       2.481  -1.884   5.651  1.00  0.00    -0.014 C 
ATOM     11  C   UNL     1       1.221  -2.089   6.389  1.00  0.00    -0.039 C 
ATOM     12  C   UNL     1       3.122  -3.220   5.691  1.00  0.00    -0.010 A 
ATOM     13  C   UNL     1       0.152  -2.627   5.406  1.00  0.00     0.045 C 
ATOM     14  C   UNL     1       2.473  -3.862   6.771  1.00  0.00    -0.011 A 
ATOM     15  C   UNL     1       3.625  -3.963   4.636  1.00  0.00     0.012 A 
ATOM     16  C   UNL     1       2.298  -5.234   6.829  1.00  0.00     0.048 A 
ATOM     17  C   UNL     1       3.424  -5.352   4.670  1.00  0.00     0.040 A 
ATOM     18  C   UNL     1       2.762  -5.966   5.747  1.00  0.00     0.123 A 
ATOM     19  F   UNL     1       2.459  -7.269   5.669  1.00  0.00    -0.207 F 
BRANCH   9  20
ATOM     20  C   UNL     1       2.142   0.486   4.758  1.00  0.00    -0.025 A 
ATOM     21  C   UNL     1       0.911   1.968   2.754  1.00  0.00     0.007 A 
ATOM     22  C   UNL     1       0.139   1.153   3.569  1.00  0.00     0.015 A 
ATOM     23  C   UNL     1       2.216   2.277   3.134  1.00  0.00     0.015 A 
ATOM     24  C   UNL     1       0.751   0.462   4.609  1.00  0.00     0.009 A 
ATOM     25  C   UNL     1       2.835   1.533   4.142  1.00  0.00     0.009 A 
BRANCH  21  26
ATOM     26  S   UNL     1       0.356   2.318   1.098  1.00  0.00    -0.130 SA
ATOM     27  C   UNL     1       0.773   0.687   0.387  1.00  0.00     0.091 C 
ENDBRANCH  21  26
ENDBRANCH   9  20
ENDBRANCH   7   8
ENDBRANCH   4   7
ENDBRANCH   2   3
ENDBRANCH   1   2
BRANCH   1  28
ATOM     28  C   UNL     1      -2.679  -2.206   8.795  1.00  0.00     0.023 C 
BRANCH  28  29
ATOM     29  C   UNL     1      -3.458  -1.294   9.711  1.00  0.00     0.116 C 
BRANCH  29  30
ATOM     30  N   UNL     1      -3.643   0.041   9.165  1.00  0.00    -0.352 N 
ATOM     31  C   UNL     1      -4.700   0.898   9.382  1.00  0.00     0.251 C 
ATOM     32  H   UNL     1      -2.930   0.371   8.572  1.00  0.00     0.163 HD
ATOM     33  O   UNL     1      -4.786   1.947   8.780  1.00  0.00    -0.269 OA
BRANCH  31  34
ATOM     34  C   UNL     1      -5.744   0.457  10.330  1.00  0.00     0.039 A 
ATOM     35  C   UNL     1      -7.072   0.455   9.908  1.00  0.00     0.014 A 
ATOM     36  C   UNL     1      -5.383  -0.056  11.578  1.00  0.00     0.014 A 
ATOM     37  C   UNL     1      -8.042  -0.112  10.732  1.00  0.00     0.010 A 
ATOM     38  C   UNL     1      -6.329  -0.718  12.342  1.00  0.00     0.010 A 
ATOM     39  C   UNL     1      -7.672  -0.728  11.939  1.00  0.00    -0.014 A 
BRANCH  39  40
ATOM     40  C   UNL     1      -8.687  -1.341  12.827  1.00  0.00     0.031 A 
ATOM     41  C   UNL     1      -8.890  -0.784  14.208  1.00  0.00     0.074 A 
ATOM     42  C   UNL     1      -9.369  -2.426  12.416  1.00  0.00     0.049 A 
ATOM     43  N   UNL     1      -9.681  -1.199  15.162  1.00  0.00    -0.248 NA
ATOM     44  C   UNL     1      -8.053   0.367  14.579  1.00  0.00     0.031 C 
ATOM     45  C   UNL     1      -9.197  -3.095  11.124  1.00  0.00     0.029 A 
ATOM     46  N   UNL     1     -10.338  -3.162  13.045  1.00  0.00    -0.354 N 
ATOM     47  C   UNL     1      -9.423  -0.371  16.249  1.00  0.00     0.074 A 
ATOM     48  C   UNL     1      -8.336   0.501  15.863  1.00  0.00     0.031 C 
ATOM     49  C   UNL     1     -10.050  -4.129  11.049  1.00  0.00     0.029 A 
ATOM     50  C   UNL     1     -10.801  -4.218  12.297  1.00  0.00     0.049 A 
ATOM     51  H   UNL     1     -10.671  -2.955  13.948  1.00  0.00     0.167 HD
ATOM     52  C   UNL     1     -10.060  -0.317  17.445  1.00  0.00     0.034 A 
ATOM     53  C   UNL     1     -11.724  -5.154  12.590  1.00  0.00     0.034 A 
ATOM     54  C   UNL     1     -11.149  -1.195  17.798  1.00  0.00     0.049 A 
ATOM     55  C   UNL     1     -12.433  -5.078  13.916  1.00  0.00     0.074 A 
ATOM     56  C   UNL     1     -11.915  -1.202  18.949  1.00  0.00     0.029 A 
ATOM     57  N   UNL     1     -11.618  -2.235  17.002  1.00  0.00    -0.354 N 
ATOM     58  N   UNL     1     -12.237  -4.242  14.911  1.00  0.00    -0.248 NA
ATOM     59  C   UNL     1     -13.501  -6.056  14.150  1.00  0.00     0.031 C 
ATOM     60  C   UNL     1     -12.798  -2.287  18.879  1.00  0.00     0.029 A 
ATOM     61  C   UNL     1     -12.642  -2.909  17.650  1.00  0.00     0.049 A 
ATOM     62  H   UNL     1     -11.273  -2.460  16.108  1.00  0.00     0.167 HD
ATOM     63  C   UNL     1     -13.174  -4.579  15.882  1.00  0.00     0.074 A 
ATOM     64  C   UNL     1     -13.944  -5.684  15.343  1.00  0.00     0.031 C 
ATOM     65  C   UNL     1     -13.385  -4.024  17.104  1.00  0.00     0.034 A 
BRANCH  52  66
ATOM     66  C   UNL     1      -9.563   0.707  18.442  1.00  0.00     0.023 A 
ATOM     67  C   UNL     1      -9.539   2.082  18.138  1.00  0.00     0.031 A 
ATOM     68  C   UNL     1      -9.023   0.303  19.675  1.00  0.00     0.131 A 
ATOM     69  C   UNL     1      -8.881   2.979  18.992  1.00  0.00     0.055 A 
ATOM     70  C   UNL     1      -8.465   1.218  20.571  1.00  0.00     0.041 A 
ATOM     71  F   UNL     1      -8.996  -0.995  20.018  1.00  0.00    -0.206 F 
ATOM     72  C   UNL     1      -8.368   2.562  20.221  1.00  0.00     0.022 A 
BRANCH  69  73
ATOM     73  S   UNL     1      -8.524   4.650  18.377  1.00  0.00     0.124 S 
ATOM     74  O   UNL     1      -7.776   4.360  17.155  1.00  0.00    -0.237 OA
ATOM     75  O   UNL     1      -9.858   5.209  18.192  1.00  0.00    -0.237 OA
ATOM     76  O   UNL     1      -7.736   5.249  19.452  1.00  0.00    -0.744 OA
ENDBRANCH  69  73
ENDBRANCH  52  66
BRANCH  53  77
ATOM     77  C   UNL     1     -12.023  -6.233  11.607  1.00  0.00     0.023 A 
ATOM     78  C   UNL     1     -13.258  -6.296  10.944  1.00  0.00     0.031 A 
ATOM     79  C   UNL     1     -11.061  -7.215  11.308  1.00  0.00     0.131 A 
ATOM     80  C   UNL     1     -13.511  -7.336  10.035  1.00  0.00     0.055 A 
ATOM     81  C   UNL     1     -11.301  -8.222  10.372  1.00  0.00     0.041 A 
ATOM     82  F   UNL     1      -9.859  -7.190  11.905  1.00  0.00    -0.206 F 
ATOM     83  C   UNL     1     -12.536  -8.291   9.735  1.00  0.00     0.022 A 
BRANCH  80  84
ATOM     84  S   UNL     1     -15.153  -7.449   9.274  1.00  0.00     0.124 S 
ATOM     85  O   UNL     1     -16.011  -7.626  10.440  1.00  0.00    -0.237 OA
ATOM     86  O   UNL     1     -15.259  -6.165   8.588  1.00  0.00    -0.237 OA
ATOM     87  O   UNL     1     -15.043  -8.613   8.397  1.00  0.00    -0.744 OA
ENDBRANCH  80  84
ENDBRANCH  53  77
BRANCH  65  88
ATOM     88  C   UNL     1     -14.521  -4.588  17.923  1.00  0.00     0.023 A 
ATOM     89  C   UNL     1     -14.496  -5.902  18.421  1.00  0.00     0.031 A 
ATOM     90  C   UNL     1     -15.651  -3.798  18.200  1.00  0.00     0.131 A 
ATOM     91  C   UNL     1     -15.605  -6.407  19.116  1.00  0.00     0.055 A 
ATOM     92  C   UNL     1     -16.723  -4.284  18.949  1.00  0.00     0.041 A 
ATOM     93  F   UNL     1     -15.731  -2.536  17.747  1.00  0.00    -0.206 F 
ATOM     94  C   UNL     1     -16.710  -5.601  19.399  1.00  0.00     0.022 A 
BRANCH  91  95
ATOM     95  S   UNL     1     -15.630  -8.167  19.555  1.00  0.00     0.124 S 
ATOM     96  O   UNL     1     -15.465  -8.806  18.254  1.00  0.00    -0.237 OA
ATOM     97  O   UNL     1     -14.497  -8.277  20.468  1.00  0.00    -0.237 OA
ATOM     98  O   UNL     1     -16.943  -8.347  20.172  1.00  0.00    -0.744 OA
ENDBRANCH  91  95
ENDBRANCH  65  88
ENDBRANCH  39  40
ENDBRANCH  31  34
ENDBRANCH  29  30
ENDBRANCH  28  29
ENDBRANCH   1  28
TORSDOF 17
