REMARK SMILES N#Cc1cccnc1N1CC[NH+]([C@@H](C(=O)NCCCCNC(=O)c2ccc(-c3c4nc(c(-c5cc(S(=O)(=O)[O-])ccc5F)c5ccc([nH]5)c(-c5cc(S(=O)(=O)[O-])ccc5F)c5nc(c(-c6cc(S(=O)(=O)[O-])ccc6F)c6ccc3[nH]6)C=C5)C=C4)cc2)c2c[nH]c3cc(CO)ccc23)CC1
REMARK SMILES IDX 18 1 17 2 16 3 14 4 15 5 13 7 12 8 9 9 10 10 99 11 11 12
REMARK SMILES IDX 98 13 8 15 3 16 4 17 5 18 7 19 6 20 2 21 1 22 87 23 88 24
REMARK SMILES IDX 97 25 89 26 90 27 96 28 91 30 95 31 92 32 93 33 94 34 19 36
REMARK SMILES IDX 20 37 21 38 22 39 23 41 24 42 25 43 86 44 26 45 85 46 27 47
REMARK SMILES IDX 28 48 29 49 79 50 30 51 84 52 78 53 80 54 31 55 83 56 77 57
REMARK SMILES IDX 76 58 32 60 64 61 44 62 63 63 45 64 48 65 62 66 81 67 46 68
REMARK SMILES IDX 47 69 61 71 82 72 49 73 33 74 34 75 42 76 35 77 41 78 43 79
REMARK SMILES IDX 40 80 36 81 37 82 38 83 39 84 65 85 66 86 74 87 67 88 73 89
REMARK SMILES IDX 75 90 72 91 68 92 69 93 70 94 71 95 50 96 51 97 59 98 52 99
REMARK SMILES IDX 58 100 60 101 57 102 53 103 54 104 55 105 56 106
REMARK H PARENT 16 6 12 14 89 29 94 35 21 40 80 59 48 70
REMARK Flexibility Score: inf
ROOT
ATOM      1  C   UNL     1       2.144  -3.382   3.120  1.00  0.00     0.023 C 
ENDROOT
BRANCH   1   2
ATOM      2  C   UNL     1       1.357  -4.675   2.766  1.00  0.00     0.116 C 
BRANCH   2   3
ATOM      3  N   UNL     1       0.095  -4.498   2.050  1.00  0.00    -0.351 N 
ATOM      4  C   UNL     1      -0.401  -4.796   0.803  1.00  0.00     0.283 C 
ATOM      5  O   UNL     1      -1.612  -4.572   0.700  1.00  0.00    -0.268 OA
ATOM      6  H   UNL     1      -0.578  -4.047   2.609  1.00  0.00     0.163 HD
BRANCH   4   7
ATOM      7  C   UNL     1       0.448  -5.406  -0.352  1.00  0.00     0.307 C 
BRANCH   7   8
ATOM      8  N   UNL     1       1.434  -4.489  -1.067  1.00  0.00    -0.318 N 
ATOM      9  N   UNL     1       0.673  -1.609  -1.065  1.00  0.00    -0.344 N 
ATOM     10  C   UNL     1       0.012  -2.577  -1.948  1.00  0.00     0.179 C 
ATOM     11  C   UNL     1       1.337  -2.216   0.103  1.00  0.00     0.179 C 
ATOM     12  C   UNL     1       0.997  -3.716  -2.249  1.00  0.00     0.284 C 
ATOM     13  C   UNL     1       2.134  -3.507  -0.240  1.00  0.00     0.284 C 
ATOM     14  H   UNL     1       2.033  -5.257  -1.370  1.00  0.00     0.349 HD
BRANCH   9  15
ATOM     15  C   UNL     1      -0.104  -0.486  -0.739  1.00  0.00     0.146 A 
ATOM     16  C   UNL     1       0.489   0.732  -0.380  1.00  0.00     0.095 A 
ATOM     17  C   UNL     1      -0.321   1.793   0.038  1.00  0.00     0.025 A 
ATOM     18  C   UNL     1      -1.700   1.628   0.083  1.00  0.00     0.022 A 
ATOM     19  N   UNL     1      -1.454  -0.626  -0.733  1.00  0.00    -0.238 NA
ATOM     20  C   UNL     1      -2.216   0.411  -0.316  1.00  0.00     0.113 A 
BRANCH  16  21
ATOM     21  C   UNL     1       1.912   0.921  -0.458  1.00  0.00     0.103 C 
ATOM     22  N   UNL     1       3.054   1.068  -0.499  1.00  0.00    -0.192 NA
ENDBRANCH  16  21
ENDBRANCH   9  15
ENDBRANCH   7   8
BRANCH   7  23
ATOM     23  C   UNL     1      -0.348  -6.177  -1.443  1.00  0.00     0.044 A 
ATOM     24  C   UNL     1       0.154  -7.264  -2.152  1.00  0.00     0.094 A 
ATOM     25  C   UNL     1      -1.465  -5.741  -2.248  1.00  0.00     0.009 A 
ATOM     26  N   UNL     1      -0.079  -6.950  -3.476  1.00  0.00    -0.361 N 
ATOM     27  C   UNL     1      -1.025  -5.952  -3.558  1.00  0.00     0.046 A 
ATOM     28  C   UNL     1      -2.611  -4.945  -2.071  1.00  0.00     0.011 A 
ATOM     29  H   UNL     1       0.364  -7.376  -4.245  1.00  0.00     0.166 HD
ATOM     30  C   UNL     1      -1.414  -5.114  -4.618  1.00  0.00     0.032 A 
ATOM     31  C   UNL     1      -3.104  -4.197  -3.145  1.00  0.00     0.007 A 
ATOM     32  C   UNL     1      -2.408  -4.154  -4.357  1.00  0.00    -0.021 A 
BRANCH  32  33
ATOM     33  C   UNL     1      -2.694  -3.045  -5.340  1.00  0.00     0.191 C 
BRANCH  33  34
ATOM     34  O   UNL     1      -2.669  -1.760  -4.718  1.00  0.00    -0.392 OA
ATOM     35  H   UNL     1      -3.353  -1.719  -4.032  1.00  0.00     0.211 HD
ENDBRANCH  33  34
ENDBRANCH  32  33
ENDBRANCH   7  23
ENDBRANCH   4   7
ENDBRANCH   2   3
ENDBRANCH   1   2
BRANCH   1  36
ATOM     36  C   UNL     1       1.335  -2.101   3.357  1.00  0.00     0.023 C 
BRANCH  36  37
ATOM     37  C   UNL     1       1.364  -1.605   4.788  1.00  0.00     0.116 C 
BRANCH  37  38
ATOM     38  N   UNL     1       2.657  -1.059   5.166  1.00  0.00    -0.352 N 
ATOM     39  C   UNL     1       2.938   0.039   5.948  1.00  0.00     0.251 C 
ATOM     40  H   UNL     1       3.440  -1.540   4.814  1.00  0.00     0.163 HD
ATOM     41  O   UNL     1       4.099   0.428   6.044  1.00  0.00    -0.269 OA
BRANCH  39  42
ATOM     42  C   UNL     1       1.845   0.770   6.635  1.00  0.00     0.039 A 
ATOM     43  C   UNL     1       1.920   2.163   6.740  1.00  0.00     0.014 A 
ATOM     44  C   UNL     1       0.746   0.096   7.173  1.00  0.00     0.014 A 
ATOM     45  C   UNL     1       0.875   2.873   7.337  1.00  0.00     0.010 A 
ATOM     46  C   UNL     1      -0.342   0.809   7.663  1.00  0.00     0.010 A 
ATOM     47  C   UNL     1      -0.278   2.203   7.776  1.00  0.00    -0.014 A 
BRANCH  47  48
ATOM     48  C   UNL     1      -1.410   2.933   8.400  1.00  0.00     0.031 A 
ATOM     49  C   UNL     1      -1.794   2.639   9.827  1.00  0.00     0.074 A 
ATOM     50  C   UNL     1      -2.124   3.807   7.666  1.00  0.00     0.049 A 
ATOM     51  N   UNL     1      -2.771   3.132  10.543  1.00  0.00    -0.248 NA
ATOM     52  C   UNL     1      -0.995   1.621  10.525  1.00  0.00     0.031 C 
ATOM     53  C   UNL     1      -1.878   4.125   6.257  1.00  0.00     0.029 A 
ATOM     54  N   UNL     1      -3.197   4.591   7.999  1.00  0.00    -0.354 N 
ATOM     55  C   UNL     1      -2.717   2.467  11.765  1.00  0.00     0.074 A 
ATOM     56  C   UNL     1      -1.665   1.480  11.657  1.00  0.00     0.031 C 
ATOM     57  C   UNL     1      -2.742   5.074   5.864  1.00  0.00     0.029 A 
ATOM     58  C   UNL     1      -3.629   5.400   6.974  1.00  0.00     0.049 A 
ATOM     59  H   UNL     1      -3.620   4.577   8.889  1.00  0.00     0.167 HD
ATOM     60  C   UNL     1      -3.455   2.682  12.883  1.00  0.00     0.034 A 
ATOM     61  C   UNL     1      -4.625   6.307   6.941  1.00  0.00     0.034 A 
ATOM     62  C   UNL     1      -4.486   3.688  12.967  1.00  0.00     0.049 A 
ATOM     63  C   UNL     1      -5.435   6.532   8.191  1.00  0.00     0.074 A 
ATOM     64  C   UNL     1      -5.252   4.053  14.059  1.00  0.00     0.029 A 
ATOM     65  N   UNL     1      -4.902   4.486  11.907  1.00  0.00    -0.354 N 
ATOM     66  N   UNL     1      -5.328   5.947   9.362  1.00  0.00    -0.248 NA
ATOM     67  C   UNL     1      -6.490   7.548   8.116  1.00  0.00     0.031 C 
ATOM     68  C   UNL     1      -6.178   5.017  13.642  1.00  0.00     0.029 A 
ATOM     69  C   UNL     1      -5.939   5.314  12.309  1.00  0.00     0.049 A 
ATOM     70  H   UNL     1      -4.516   4.466  11.001  1.00  0.00     0.167 HD
ATOM     71  C   UNL     1      -6.290   6.543  10.173  1.00  0.00     0.074 A 
ATOM     72  C   UNL     1      -6.948   7.547   9.358  1.00  0.00     0.031 C 
ATOM     73  C   UNL     1      -6.601   6.289  11.471  1.00  0.00     0.034 A 
BRANCH  60  74
ATOM     74  C   UNL     1      -3.182   1.789  14.075  1.00  0.00     0.023 A 
ATOM     75  C   UNL     1      -1.912   1.724  14.678  1.00  0.00     0.031 A 
ATOM     76  C   UNL     1      -4.183   0.936  14.573  1.00  0.00     0.131 A 
ATOM     77  C   UNL     1      -1.646   0.754  15.657  1.00  0.00     0.055 A 
ATOM     78  C   UNL     1      -3.939   0.042  15.618  1.00  0.00     0.041 A 
ATOM     79  F   UNL     1      -5.411   0.933  14.031  1.00  0.00    -0.206 F 
ATOM     80  C   UNL     1      -2.658  -0.070  16.151  1.00  0.00     0.022 A 
BRANCH  77  81
ATOM     81  S   UNL     1       0.081   0.456  16.130  1.00  0.00     0.124 S 
ATOM     82  O   UNL     1       0.690   0.143  14.839  1.00  0.00    -0.237 OA
ATOM     83  O   UNL     1       0.468   1.727  16.729  1.00  0.00    -0.237 OA
ATOM     84  O   UNL     1      -0.007  -0.672  17.056  1.00  0.00    -0.744 OA
ENDBRANCH  77  81
ENDBRANCH  60  74
BRANCH  61  85
ATOM     85  C   UNL     1      -4.890   7.086   5.699  1.00  0.00     0.023 A 
ATOM     86  C   UNL     1      -4.668   8.471   5.658  1.00  0.00     0.031 A 
ATOM     87  C   UNL     1      -5.374   6.461   4.535  1.00  0.00     0.131 A 
ATOM     88  C   UNL     1      -4.959   9.194   4.491  1.00  0.00     0.055 A 
ATOM     89  C   UNL     1      -5.620   7.177   3.362  1.00  0.00     0.041 A 
ATOM     90  F   UNL     1      -5.591   5.136   4.516  1.00  0.00    -0.206 F 
ATOM     91  C   UNL     1      -5.421   8.554   3.338  1.00  0.00     0.022 A 
BRANCH  88  92
ATOM     92  S   UNL     1      -4.773  10.998   4.516  1.00  0.00     0.124 S 
ATOM     93  O   UNL     1      -5.702  11.378   5.573  1.00  0.00    -0.237 OA
ATOM     94  O   UNL     1      -3.354  11.151   4.822  1.00  0.00    -0.237 OA
ATOM     95  O   UNL     1      -5.163  11.398   3.166  1.00  0.00    -0.744 OA
ENDBRANCH  88  92
ENDBRANCH  61  85
BRANCH  73  96
ATOM     96  C   UNL     1      -7.690   7.136  12.083  1.00  0.00     0.023 A 
ATOM     97  C   UNL     1      -9.020   7.062  11.632  1.00  0.00     0.031 A 
ATOM     98  C   UNL     1      -7.388   8.050  13.107  1.00  0.00     0.131 A 
ATOM     99  C   UNL     1      -9.984   7.937  12.155  1.00  0.00     0.055 A 
ATOM    100  C   UNL     1      -8.367   8.869  13.672  1.00  0.00     0.041 A 
ATOM    101  F   UNL     1      -6.135   8.165  13.574  1.00  0.00    -0.206 F 
ATOM    102  C   UNL     1      -9.670   8.827  13.185  1.00  0.00     0.022 A 
BRANCH  99 103
ATOM    103  S   UNL     1     -11.626   7.977  11.387  1.00  0.00     0.124 S 
ATOM    104  O   UNL     1     -11.303   8.293   9.999  1.00  0.00    -0.237 OA
ATOM    105  O   UNL     1     -12.120   6.626  11.635  1.00  0.00    -0.237 OA
ATOM    106  O   UNL     1     -12.321   9.035  12.118  1.00  0.00    -0.744 OA
ENDBRANCH  99 103
ENDBRANCH  73  96
ENDBRANCH  47  48
ENDBRANCH  39  42
ENDBRANCH  37  38
ENDBRANCH  36  37
ENDBRANCH   1  36
TORSDOF 20
