REMARK SMILES C[NH+](C)CCc1nc(Nc2ccc(O)c(C(=O)NCCCCNC(=O)c3ccc(-c4c5nc(c(-c6cc(S(=O)(=O)[O-])ccc6F)c6ccc([nH]6)c(-c6cc(S(=O)(=O)[O-])ccc6F)c6nc(c(-c7cc(S(=O)(=O)[O-])ccc7F)c7ccc4[nH]7)C=C6)C=C5)cc3)c2)c2ccccc2n1
REMARK SMILES IDX 19 1 18 2 16 3 17 4 15 6 10 7 11 8 89 9 12 10 13 11 9 12
REMARK SMILES IDX 8 14 6 15 7 16 96 17 95 18 90 19 94 20 91 21 93 22 92 23
REMARK SMILES IDX 5 24 4 25 2 26 1 27 3 28 14 30 20 32 21 33 22 34 23 35 24 36
REMARK SMILES IDX 25 38 26 39 27 40 88 41 28 42 87 43 29 44 30 45 31 46 81 47
REMARK SMILES IDX 32 48 86 49 80 50 82 51 33 52 85 53 79 54 78 55 34 57 66 58
REMARK SMILES IDX 46 59 65 60 47 61 50 62 64 63 83 64 48 65 49 66 63 68 84 69
REMARK SMILES IDX 51 70 35 71 36 72 44 73 37 74 43 75 45 76 42 77 38 78 39 79
REMARK SMILES IDX 40 80 41 81 67 82 68 83 76 84 69 85 75 86 77 87 74 88 70 89
REMARK SMILES IDX 71 90 72 91 73 92 52 93 53 94 61 95 54 96 60 97 62 98 59 99
REMARK SMILES IDX 55 100 56 101 57 102 58 103
REMARK H PARENT 18 5 9 13 2 29 14 31 23 37 82 56 50 67
REMARK Flexibility Score: inf
ROOT
ATOM      1  C   UNL     1       1.413   5.652  -1.854  1.00  0.00     0.116 C 
ENDROOT
BRANCH   1   2
ATOM      2  N   UNL     1       1.102   4.774  -2.962  1.00  0.00    -0.352 N 
ATOM      3  C   UNL     1       1.518   3.513  -3.296  1.00  0.00     0.255 C 
ATOM      4  O   UNL     1       1.079   3.072  -4.365  1.00  0.00    -0.269 OA
ATOM      5  H   UNL     1       0.464   5.160  -3.603  1.00  0.00     0.163 HD
BRANCH   3   6
ATOM      6  C   UNL     1       2.370   2.602  -2.464  1.00  0.00     0.083 A 
ATOM      7  C   UNL     1       2.821   0.211  -2.036  1.00  0.00     0.041 A 
ATOM      8  C   UNL     1       3.760   0.567  -1.072  1.00  0.00     0.030 A 
ATOM      9  C   UNL     1       2.136   1.230  -2.712  1.00  0.00     0.043 A 
ATOM     10  C   UNL     1       4.041   1.908  -0.830  1.00  0.00     0.049 A 
ATOM     11  C   UNL     1       3.361   2.918  -1.527  1.00  0.00     0.128 A 
BRANCH   7  12
ATOM     12  N   UNL     1       2.462  -1.131  -2.252  1.00  0.00    -0.340 N 
ATOM     13  H   UNL     1       2.558  -1.479  -3.168  1.00  0.00     0.168 HD
BRANCH  12  14
ATOM     14  C   UNL     1       1.975  -2.025  -1.271  1.00  0.00     0.142 A 
ATOM     15  C   UNL     1       1.042  -2.321   0.811  1.00  0.00     0.137 A 
ATOM     16  N   UNL     1       1.664  -1.525  -0.060  1.00  0.00    -0.215 NA
ATOM     17  N   UNL     1       0.803  -3.626   0.595  1.00  0.00    -0.233 NA
ATOM     18  C   UNL     1       1.179  -4.140  -0.582  1.00  0.00     0.076 A 
ATOM     19  C   UNL     1       1.781  -3.377  -1.588  1.00  0.00     0.043 A 
ATOM     20  C   UNL     1       0.936  -5.487  -0.828  1.00  0.00     0.029 A 
ATOM     21  C   UNL     1       2.130  -3.990  -2.821  1.00  0.00     0.014 A 
ATOM     22  C   UNL     1       1.269  -6.090  -2.045  1.00  0.00     0.002 A 
ATOM     23  C   UNL     1       1.869  -5.338  -3.046  1.00  0.00     0.001 A 
BRANCH  15  24
ATOM     24  C   UNL     1       0.535  -1.749   2.109  1.00  0.00     0.138 C 
BRANCH  24  25
ATOM     25  C   UNL     1       0.735  -0.242   2.370  1.00  0.00     0.269 C 
BRANCH  25  26
ATOM     26  N   UNL     1      -0.171   0.763   1.783  1.00  0.00    -0.339 N 
ATOM     27  C   UNL     1       0.111   1.039   0.379  1.00  0.00     0.332 C 
ATOM     28  C   UNL     1      -1.587   0.485   1.979  1.00  0.00     0.332 C 
ATOM     29  H   UNL     1       0.033   1.609   2.315  1.00  0.00     0.347 HD
ENDBRANCH  25  26
ENDBRANCH  24  25
ENDBRANCH  15  24
ENDBRANCH  12  14
ENDBRANCH   7  12
BRANCH  11  30
ATOM     30  O   UNL     1       3.753   4.195  -1.271  1.00  0.00    -0.507 OA
ATOM     31  H   UNL     1       4.421   4.362  -0.635  1.00  0.00     0.293 HD
ENDBRANCH  11  30
ENDBRANCH   3   6
ENDBRANCH   1   2
BRANCH   1  32
ATOM     32  C   UNL     1       2.592   6.562  -2.209  1.00  0.00     0.023 C 
BRANCH  32  33
ATOM     33  C   UNL     1       2.223   7.808  -3.015  1.00  0.00     0.023 C 
BRANCH  33  34
ATOM     34  C   UNL     1       1.402   8.846  -2.258  1.00  0.00     0.116 C 
BRANCH  34  35
ATOM     35  N   UNL     1       2.054   9.329  -1.048  1.00  0.00    -0.352 N 
ATOM     36  C   UNL     1       2.056  10.597  -0.516  1.00  0.00     0.251 C 
ATOM     37  H   UNL     1       2.562   8.654  -0.542  1.00  0.00     0.163 HD
ATOM     38  O   UNL     1       2.740  10.851   0.467  1.00  0.00    -0.269 OA
BRANCH  36  39
ATOM     39  C   UNL     1       1.265  11.656  -1.178  1.00  0.00     0.039 A 
ATOM     40  C   UNL     1       1.895  12.858  -1.509  1.00  0.00     0.014 A 
ATOM     41  C   UNL     1      -0.069  11.434  -1.529  1.00  0.00     0.014 A 
ATOM     42  C   UNL     1       1.215  13.801  -2.281  1.00  0.00     0.010 A 
ATOM     43  C   UNL     1      -0.724  12.347  -2.350  1.00  0.00     0.010 A 
ATOM     44  C   UNL     1      -0.079  13.527  -2.753  1.00  0.00    -0.014 A 
BRANCH  44  45
ATOM     45  C   UNL     1      -0.759  14.433  -3.713  1.00  0.00     0.031 A 
ATOM     46  C   UNL     1      -2.018  15.148  -3.318  1.00  0.00     0.074 A 
ATOM     47  C   UNL     1      -0.286  14.531  -4.972  1.00  0.00     0.049 A 
ATOM     48  N   UNL     1      -2.812  15.888  -4.047  1.00  0.00    -0.248 NA
ATOM     49  C   UNL     1      -2.455  14.983  -1.924  1.00  0.00     0.031 C 
ATOM     50  C   UNL     1       0.906  13.849  -5.482  1.00  0.00     0.029 A 
ATOM     51  N   UNL     1      -0.759  15.225  -6.057  1.00  0.00    -0.354 N 
ATOM     52  C   UNL     1      -3.849  16.273  -3.205  1.00  0.00     0.074 A 
ATOM     53  C   UNL     1      -3.608  15.635  -1.927  1.00  0.00     0.031 C 
ATOM     54  C   UNL     1       1.077  14.170  -6.775  1.00  0.00     0.029 A 
ATOM     55  C   UNL     1      -0.016  15.038  -7.200  1.00  0.00     0.049 A 
ATOM     56  H   UNL     1      -1.555  15.803  -6.021  1.00  0.00     0.167 HD
ATOM     57  C   UNL     1      -4.893  17.097  -3.471  1.00  0.00     0.034 A 
ATOM     58  C   UNL     1      -0.206  15.493  -8.453  1.00  0.00     0.034 A 
ATOM     59  C   UNL     1      -5.113  17.726  -4.751  1.00  0.00     0.049 A 
ATOM     60  C   UNL     1      -1.401  16.364  -8.738  1.00  0.00     0.074 A 
ATOM     61  C   UNL     1      -6.092  18.637  -5.107  1.00  0.00     0.029 A 
ATOM     62  N   UNL     1      -4.353  17.496  -5.891  1.00  0.00    -0.354 N 
ATOM     63  N   UNL     1      -2.342  16.768  -7.915  1.00  0.00    -0.248 NA
ATOM     64  C   UNL     1      -1.561  16.839 -10.118  1.00  0.00     0.031 C 
ATOM     65  C   UNL     1      -5.966  18.905  -6.476  1.00  0.00     0.029 A 
ATOM     66  C   UNL     1      -4.867  18.213  -6.961  1.00  0.00     0.049 A 
ATOM     67  H   UNL     1      -3.564  16.909  -5.934  1.00  0.00     0.167 HD
ATOM     68  C   UNL     1      -3.197  17.559  -8.677  1.00  0.00     0.074 A 
ATOM     69  C   UNL     1      -2.651  17.587 -10.019  1.00  0.00     0.031 C 
ATOM     70  C   UNL     1      -4.328  18.207  -8.300  1.00  0.00     0.034 A 
BRANCH  57  71
ATOM     71  C   UNL     1      -5.885  17.337  -2.358  1.00  0.00     0.023 A 
ATOM     72  C   UNL     1      -5.508  17.966  -1.159  1.00  0.00     0.031 A 
ATOM     73  C   UNL     1      -7.216  16.902  -2.483  1.00  0.00     0.131 A 
ATOM     74  C   UNL     1      -6.426  18.071  -0.104  1.00  0.00     0.055 A 
ATOM     75  C   UNL     1      -8.148  17.081  -1.459  1.00  0.00     0.041 A 
ATOM     76  F   UNL     1      -7.630  16.278  -3.597  1.00  0.00    -0.206 F 
ATOM     77  C   UNL     1      -7.751  17.654  -0.254  1.00  0.00     0.022 A 
BRANCH  74  78
ATOM     78  S   UNL     1      -5.824  18.625   1.515  1.00  0.00     0.124 S 
ATOM     79  O   UNL     1      -4.789  17.634   1.800  1.00  0.00    -0.237 OA
ATOM     80  O   UNL     1      -5.355  19.976   1.231  1.00  0.00    -0.237 OA
ATOM     81  O   UNL     1      -7.008  18.541   2.368  1.00  0.00    -0.744 OA
ENDBRANCH  74  78
ENDBRANCH  57  71
BRANCH  58  82
ATOM     82  C   UNL     1       0.737  15.115  -9.543  1.00  0.00     0.023 A 
ATOM     83  C   UNL     1       1.549  16.078 -10.161  1.00  0.00     0.031 A 
ATOM     84  C   UNL     1       0.819  13.788 -10.001  1.00  0.00     0.131 A 
ATOM     85  C   UNL     1       2.383  15.709 -11.227  1.00  0.00     0.055 A 
ATOM     86  C   UNL     1       1.684  13.417 -11.032  1.00  0.00     0.041 A 
ATOM     87  F   UNL     1       0.067  12.828  -9.439  1.00  0.00    -0.206 F 
ATOM     88  C   UNL     1       2.465  14.383 -11.659  1.00  0.00     0.022 A 
BRANCH  85  89
ATOM     89  S   UNL     1       3.315  17.004 -12.089  1.00  0.00     0.124 S 
ATOM     90  O   UNL     1       2.246  17.877 -12.561  1.00  0.00    -0.237 OA
ATOM     91  O   UNL     1       4.154  17.536 -11.021  1.00  0.00    -0.237 OA
ATOM     92  O   UNL     1       4.030  16.271 -13.133  1.00  0.00    -0.744 OA
ENDBRANCH  85  89
ENDBRANCH  58  82
BRANCH  70  93
ATOM     93  C   UNL     1      -5.033  19.016  -9.359  1.00  0.00     0.023 A 
ATOM     94  C   UNL     1      -5.696  18.400 -10.435  1.00  0.00     0.031 A 
ATOM     95  C   UNL     1      -5.034  20.421  -9.294  1.00  0.00     0.131 A 
ATOM     96  C   UNL     1      -6.296  19.189 -11.428  1.00  0.00     0.055 A 
ATOM     97  C   UNL     1      -5.678  21.198 -10.257  1.00  0.00     0.041 A 
ATOM     98  F   UNL     1      -4.413  21.059  -8.290  1.00  0.00    -0.206 F 
ATOM     99  C   UNL     1      -6.305  20.583 -11.337  1.00  0.00     0.022 A 
BRANCH  96 100
ATOM    100  S   UNL     1      -7.010  18.369 -12.880  1.00  0.00     0.124 S 
ATOM    101  O   UNL     1      -5.842  17.720 -13.466  1.00  0.00    -0.237 OA
ATOM    102  O   UNL     1      -8.001  17.480 -12.283  1.00  0.00    -0.237 OA
ATOM    103  O   UNL     1      -7.563  19.474 -13.661  1.00  0.00    -0.744 OA
ENDBRANCH  96 100
ENDBRANCH  70  93
ENDBRANCH  44  45
ENDBRANCH  36  39
ENDBRANCH  34  35
ENDBRANCH  33  34
ENDBRANCH  32  33
ENDBRANCH   1  32
TORSDOF 20
