REMARK SMILES O=C(NCCCCNC(=O)[C@H]1CC2(CCN(C(=O)c3cc4ccccc4[nH]3)CC2)CN1C(=O)C1CC1)c1ccc(-c2c3nc(c(-c4cc(S(=O)(=O)[O-])ccc4F)c4ccc([nH]4)c(-c4cc(S(=O)(=O)[O-])ccc4F)c4nc(c(-c5cc(S(=O)(=O)[O-])ccc5F)c5ccc2[nH]5)C=C4)C=C3)cc1
REMARK SMILES IDX 5 1 4 2 3 3 1 4 2 5 37 7 38 8 99 9 39 10 98 11 40 12 41 13
REMARK SMILES IDX 42 14 92 15 43 16 97 17 91 18 93 19 44 20 96 21 90 22 89 23
REMARK SMILES IDX 45 25 77 26 57 27 76 28 58 29 61 30 75 31 94 32 59 33 60 34
REMARK SMILES IDX 74 36 95 37 62 38 46 39 47 40 55 41 48 42 54 43 56 44 53 45
REMARK SMILES IDX 49 46 50 47 51 48 52 49 78 50 79 51 87 52 80 53 86 54 88 55
REMARK SMILES IDX 85 56 81 57 82 58 83 59 84 60 63 61 64 62 72 63 65 64 71 65
REMARK SMILES IDX 73 66 70 67 66 68 67 69 68 70 69 71 6 72 7 73 8 74 9 75
REMARK SMILES IDX 10 77 11 78 12 79 31 80 13 81 30 82 14 83 29 84 15 85 28 86
REMARK SMILES IDX 16 87 17 88 18 89 32 90 33 91 34 92 35 93 36 94 19 95 20 96
REMARK SMILES IDX 27 97 21 98 26 99 22 101 25 102 23 103 24 104
REMARK H PARENT 3 6 93 24 61 35 8 76 27 100
REMARK Flexibility Score: inf
ROOT
ATOM      1  C   UNL     1       4.448 -10.159   2.832  1.00  0.00     0.023 C 
ENDROOT
BRANCH   1   2
ATOM      2  C   UNL     1       5.144  -9.857   1.506  1.00  0.00     0.116 C 
BRANCH   2   3
ATOM      3  N   UNL     1       6.428 -10.521   1.351  1.00  0.00    -0.352 N 
ATOM      4  O   UNL     1       7.966 -11.963   0.578  1.00  0.00    -0.269 OA
ATOM      5  C   UNL     1       6.832 -11.499   0.473  1.00  0.00     0.251 C 
ATOM      6  H   UNL     1       7.123 -10.220   1.980  1.00  0.00     0.163 HD
BRANCH   5   7
ATOM      7  C   UNL     1       5.915 -12.038  -0.558  1.00  0.00     0.039 A 
ATOM      8  C   UNL     1       5.170 -11.209  -1.402  1.00  0.00     0.014 A 
ATOM      9  C   UNL     1       5.820 -13.427  -0.693  1.00  0.00     0.014 A 
ATOM     10  C   UNL     1       4.221 -11.763  -2.267  1.00  0.00     0.010 A 
ATOM     11  C   UNL     1       4.910 -13.982  -1.597  1.00  0.00     0.010 A 
ATOM     12  C   UNL     1       4.064 -13.155  -2.354  1.00  0.00    -0.014 A 
BRANCH  12  13
ATOM     13  C   UNL     1       2.981 -13.755  -3.179  1.00  0.00     0.031 A 
ATOM     14  C   UNL     1       1.835 -14.465  -2.507  1.00  0.00     0.074 A 
ATOM     15  C   UNL     1       3.029 -13.690  -4.523  1.00  0.00     0.049 A 
ATOM     16  N   UNL     1       0.846 -15.138  -3.038  1.00  0.00    -0.248 NA
ATOM     17  C   UNL     1       1.812 -14.419  -1.038  1.00  0.00     0.031 C 
ATOM     18  C   UNL     1       4.077 -13.028  -5.298  1.00  0.00     0.029 A 
ATOM     19  N   UNL     1       2.183 -14.208  -5.473  1.00  0.00    -0.354 N 
ATOM     20  C   UNL     1       0.092 -15.614  -1.969  1.00  0.00     0.074 A 
ATOM     21  C   UNL     1       0.766 -15.182  -0.762  1.00  0.00     0.031 C 
ATOM     22  C   UNL     1       3.818 -13.189  -6.606  1.00  0.00     0.029 A 
ATOM     23  C   UNL     1       2.616 -14.005  -6.761  1.00  0.00     0.049 A 
ATOM     24  H   UNL     1       1.348 -14.680  -5.252  1.00  0.00     0.167 HD
ATOM     25  C   UNL     1      -1.059 -16.334  -1.991  1.00  0.00     0.034 A 
ATOM     26  C   UNL     1       2.126 -14.454  -7.934  1.00  0.00     0.034 A 
ATOM     27  C   UNL     1      -1.722 -16.759  -3.201  1.00  0.00     0.049 A 
ATOM     28  C   UNL     1       0.881 -15.301  -7.942  1.00  0.00     0.074 A 
ATOM     29  C   UNL     1      -2.912 -17.453  -3.337  1.00  0.00     0.029 A 
ATOM     30  N   UNL     1      -1.242 -16.544  -4.487  1.00  0.00    -0.354 N 
ATOM     31  N   UNL     1       0.169 -15.729  -6.925  1.00  0.00    -0.248 NA
ATOM     32  C   UNL     1       0.372 -15.721  -9.254  1.00  0.00     0.031 C 
ATOM     33  C   UNL     1      -3.119 -17.713  -4.697  1.00  0.00     0.029 A 
ATOM     34  C   UNL     1      -2.095 -17.120  -5.418  1.00  0.00     0.049 A 
ATOM     35  H   UNL     1      -0.417 -16.054  -4.707  1.00  0.00     0.167 HD
ATOM     36  C   UNL     1      -0.887 -16.448  -7.478  1.00  0.00     0.074 A 
ATOM     37  C   UNL     1      -0.718 -16.398  -8.916  1.00  0.00     0.031 C 
ATOM     38  C   UNL     1      -1.911 -17.078  -6.850  1.00  0.00     0.034 A 
BRANCH  25  39
ATOM     39  C   UNL     1      -1.641 -16.743  -0.658  1.00  0.00     0.023 A 
ATOM     40  C   UNL     1      -2.084 -15.793   0.279  1.00  0.00     0.031 A 
ATOM     41  C   UNL     1      -1.705 -18.100  -0.297  1.00  0.00     0.131 A 
ATOM     42  C   UNL     1      -2.485 -16.204   1.559  1.00  0.00     0.055 A 
ATOM     43  C   UNL     1      -2.185 -18.510   0.949  1.00  0.00     0.041 A 
ATOM     44  F   UNL     1      -1.278 -19.053  -1.141  1.00  0.00    -0.206 F 
ATOM     45  C   UNL     1      -2.560 -17.558   1.893  1.00  0.00     0.022 A 
BRANCH  42  46
ATOM     46  S   UNL     1      -2.735 -14.938   2.835  1.00  0.00     0.124 S 
ATOM     47  O   UNL     1      -1.465 -14.216   2.793  1.00  0.00    -0.237 OA
ATOM     48  O   UNL     1      -3.898 -14.214   2.336  1.00  0.00    -0.237 OA
ATOM     49  O   UNL     1      -2.956 -15.717   4.052  1.00  0.00    -0.744 OA
ENDBRANCH  42  46
ENDBRANCH  25  39
BRANCH  26  50
ATOM     50  C   UNL     1       2.851 -14.147  -9.196  1.00  0.00     0.023 A 
ATOM     51  C   UNL     1       2.322 -13.262 -10.146  1.00  0.00     0.031 A 
ATOM     52  C   UNL     1       4.101 -14.736  -9.459  1.00  0.00     0.131 A 
ATOM     53  C   UNL     1       3.034 -13.003 -11.327  1.00  0.00     0.055 A 
ATOM     54  C   UNL     1       4.823 -14.447 -10.617  1.00  0.00     0.041 A 
ATOM     55  F   UNL     1       4.651 -15.584  -8.574  1.00  0.00    -0.206 F 
ATOM     56  C   UNL     1       4.286 -13.579 -11.562  1.00  0.00     0.022 A 
BRANCH  53  57
ATOM     57  S   UNL     1       2.288 -11.917 -12.573  1.00  0.00     0.124 S 
ATOM     58  O   UNL     1       1.098 -12.671 -12.950  1.00  0.00    -0.237 OA
ATOM     59  O   UNL     1       2.059 -10.693 -11.813  1.00  0.00    -0.237 OA
ATOM     60  O   UNL     1       3.321 -11.822 -13.604  1.00  0.00    -0.744 OA
ENDBRANCH  53  57
ENDBRANCH  26  50
BRANCH  38  61
ATOM     61  C   UNL     1      -2.962 -17.721  -7.718  1.00  0.00     0.023 A 
ATOM     62  C   UNL     1      -2.709 -18.898  -8.444  1.00  0.00     0.031 A 
ATOM     63  C   UNL     1      -4.244 -17.149  -7.804  1.00  0.00     0.131 A 
ATOM     64  C   UNL     1      -3.717 -19.448  -9.253  1.00  0.00     0.055 A 
ATOM     65  C   UNL     1      -5.255 -17.724  -8.575  1.00  0.00     0.041 A 
ATOM     66  F   UNL     1      -4.536 -16.026  -7.130  1.00  0.00    -0.206 F 
ATOM     67  C   UNL     1      -4.992 -18.876  -9.311  1.00  0.00     0.022 A 
BRANCH  64  68
ATOM     68  S   UNL     1      -3.332 -20.900 -10.270  1.00  0.00     0.124 S 
ATOM     69  O   UNL     1      -2.299 -20.381 -11.159  1.00  0.00    -0.237 OA
ATOM     70  O   UNL     1      -2.889 -21.872  -9.275  1.00  0.00    -0.237 OA
ATOM     71  O   UNL     1      -4.606 -21.215 -10.915  1.00  0.00    -0.744 OA
ENDBRANCH  64  68
ENDBRANCH  38  61
ENDBRANCH  12  13
ENDBRANCH   5   7
ENDBRANCH   2   3
ENDBRANCH   1   2
BRANCH   1  72
ATOM     72  C   UNL     1       5.169  -9.733   4.118  1.00  0.00     0.023 C 
BRANCH  72  73
ATOM     73  C   UNL     1       5.790  -8.337   4.128  1.00  0.00     0.116 C 
BRANCH  73  74
ATOM     74  N   UNL     1       4.869  -7.282   3.769  1.00  0.00    -0.354 N 
ATOM     75  C   UNL     1       5.080  -5.942   3.672  1.00  0.00     0.242 C 
ATOM     76  H   UNL     1       3.953  -7.578   3.564  1.00  0.00     0.163 HD
ATOM     77  O   UNL     1       4.139  -5.258   3.249  1.00  0.00    -0.273 OA
BRANCH  75  78
ATOM     78  C   UNL     1       6.330  -5.228   4.240  1.00  0.00     0.175 C 
ATOM     79  C   UNL     1       5.934  -4.702   5.637  1.00  0.00     0.044 C 
ATOM     80  N   UNL     1       7.601  -5.911   4.445  1.00  0.00    -0.330 N 
ATOM     81  C   UNL     1       7.209  -4.734   6.500  1.00  0.00    -0.006 C 
ATOM     82  C   UNL     1       8.028  -5.848   5.834  1.00  0.00     0.127 C 
ATOM     83  C   UNL     1       6.889  -5.097   7.965  1.00  0.00     0.030 C 
ATOM     84  C   UNL     1       7.983  -3.393   6.475  1.00  0.00     0.030 C 
ATOM     85  C   UNL     1       6.165  -3.965   8.687  1.00  0.00     0.120 C 
ATOM     86  C   UNL     1       7.334  -2.288   7.316  1.00  0.00     0.120 C 
ATOM     87  N   UNL     1       6.972  -2.748   8.658  1.00  0.00    -0.337 N 
ATOM     88  C   UNL     1       7.118  -1.855   9.728  1.00  0.00     0.270 C 
ATOM     89  O   UNL     1       7.508  -0.703   9.546  1.00  0.00    -0.267 OA
BRANCH  80  90
ATOM     90  C   UNL     1       8.505  -6.343   3.486  1.00  0.00     0.226 C 
ATOM     91  O   UNL     1       9.657  -6.636   3.783  1.00  0.00    -0.275 OA
BRANCH  90  92
ATOM     92  C   UNL     1       8.085  -6.615   2.082  1.00  0.00     0.079 C 
ATOM     93  C   UNL     1       7.083  -5.915   1.210  1.00  0.00     0.014 C 
ATOM     94  C   UNL     1       8.544  -5.664   0.999  1.00  0.00     0.014 C 
ENDBRANCH  90  92
ENDBRANCH  80  90
BRANCH  88  95
ATOM     95  C   UNL     1       6.789  -2.314  11.065  1.00  0.00     0.105 A 
ATOM     96  C   UNL     1       6.105  -1.624  12.052  1.00  0.00     0.042 A 
ATOM     97  N   UNL     1       7.203  -3.496  11.640  1.00  0.00    -0.351 N 
ATOM     98  C   UNL     1       6.012  -2.451  13.204  1.00  0.00     0.000 A 
ATOM     99  C   UNL     1       6.700  -3.627  12.915  1.00  0.00     0.046 A 
ATOM    100  H   UNL     1       7.782  -4.158  11.197  1.00  0.00     0.167 HD
ATOM    101  C   UNL     1       5.407  -2.309  14.467  1.00  0.00     0.010 A 
ATOM    102  C   UNL     1       6.810  -4.681  13.830  1.00  0.00     0.026 A 
ATOM    103  C   UNL     1       5.501  -3.356  15.393  1.00  0.00     0.001 A 
ATOM    104  C   UNL     1       6.191  -4.524  15.075  1.00  0.00     0.002 A 
ENDBRANCH  88  95
ENDBRANCH  75  78
ENDBRANCH  73  74
ENDBRANCH  72  73
ENDBRANCH   1  72
TORSDOF 17
