REMARK SMILES Cc1ncc(CC(=O)N2CCc3c(c(C(=O)NCCCCNC(=O)c4ccc(-c5c6nc(c(-c7cc(S(=O)(=O)[O-])ccc7F)c7ccc([nH]7)c(-c7cc(S(=O)(=O)[O-])ccc7F)c7nc(c(-c8cc(S(=O)(=O)[O-])ccc8F)c8ccc5[nH]8)C=C7)C=C6)cc4)nn3CC3CC3)C2)c(=O)[nH]1
REMARK SMILES IDX 19 1 18 2 17 3 15 4 16 5 14 7 9 8 10 9 94 10 11 11 13 12
REMARK SMILES IDX 12 13 89 14 88 15 7 16 8 17 6 18 5 19 1 20 2 21 3 22 97 23
REMARK SMILES IDX 4 24 95 25 96 27 90 28 91 29 92 30 93 31 20 32 21 33 22 34
REMARK SMILES IDX 23 35 24 37 25 38 26 39 87 40 27 41 86 42 28 43 29 44 30 45
REMARK SMILES IDX 80 46 31 47 85 48 79 49 81 50 32 51 84 52 78 53 77 54 33 56
REMARK SMILES IDX 65 57 45 58 64 59 46 60 49 61 63 62 82 63 47 64 48 65 62 67
REMARK SMILES IDX 83 68 50 69 34 70 35 71 43 72 36 73 42 74 44 75 41 76 37 77
REMARK SMILES IDX 38 78 39 79 40 80 66 81 67 82 75 83 68 84 74 85 76 86 73 87
REMARK SMILES IDX 69 88 70 89 71 90 72 91 51 92 52 93 60 94 53 95 59 96 61 97
REMARK SMILES IDX 58 98 54 99 55 100 56 101 57 102
REMARK H PARENT 17 6 97 26 22 36 81 55 49 66
REMARK Flexibility Score: inf
ROOT
ATOM      1  C   UNL     1       1.237   6.525   9.088  1.00  0.00     0.023 C 
ENDROOT
BRANCH   1   2
ATOM      2  C   UNL     1       1.667   6.939   7.672  1.00  0.00     0.116 C 
BRANCH   2   3
ATOM      3  N   UNL     1       2.829   6.199   7.191  1.00  0.00    -0.351 N 
ATOM      4  C   UNL     1       2.961   5.212   6.230  1.00  0.00     0.272 C 
ATOM      5  O   UNL     1       4.091   4.754   6.046  1.00  0.00    -0.267 OA
ATOM      6  H   UNL     1       3.673   6.446   7.632  1.00  0.00     0.163 HD
BRANCH   4   7
ATOM      7  C   UNL     1       1.803   4.687   5.479  1.00  0.00     0.155 A 
ATOM      8  N   UNL     1       2.336   2.008   2.813  1.00  0.00    -0.338 N 
ATOM      9  C   UNL     1       1.054   1.353   3.114  1.00  0.00     0.126 C 
ATOM     10  C   UNL     1       2.917   2.801   3.929  1.00  0.00     0.159 C 
ATOM     11  C   UNL     1      -0.061   2.392   3.296  1.00  0.00     0.078 C 
ATOM     12  C   UNL     1       1.804   3.630   4.514  1.00  0.00     0.026 A 
ATOM     13  C   UNL     1       0.468   3.437   4.205  1.00  0.00     0.046 A 
ATOM     14  N   UNL     1      -0.233   4.384   4.872  1.00  0.00    -0.268 N 
ATOM     15  N   UNL     1       0.550   5.150   5.640  1.00  0.00    -0.167 NA
BRANCH   8  16
ATOM     16  C   UNL     1       3.042   1.919   1.626  1.00  0.00     0.227 C 
ATOM     17  O   UNL     1       4.275   1.990   1.625  1.00  0.00    -0.275 OA
BRANCH  16  18
ATOM     18  C   UNL     1       2.295   2.019   0.278  1.00  0.00     0.143 C 
BRANCH  18  19
ATOM     19  C   UNL     1       1.088   1.178   0.034  1.00  0.00     0.045 A 
ATOM     20  C   UNL     1      -2.347  -1.284  -0.099  1.00  0.00     0.087 C 
ATOM     21  C   UNL     1      -1.154  -0.375  -0.122  1.00  0.00     0.105 A 
ATOM     22  N   UNL     1      -1.299   0.908  -0.182  1.00  0.00    -0.243 NA
ATOM     23  N   UNL     1       0.062  -0.990  -0.051  1.00  0.00    -0.311 N 
ATOM     24  C   UNL     1      -0.154   1.660  -0.125  1.00  0.00     0.123 A 
ATOM     25  C   UNL     1       1.235  -0.292  -0.002  1.00  0.00     0.254 A 
ATOM     26  H   UNL     1       0.095  -1.974  -0.035  1.00  0.00     0.171 HD
ATOM     27  O   UNL     1       2.320  -0.854   0.051  1.00  0.00    -0.269 OA
ENDBRANCH  18  19
ENDBRANCH  16  18
ENDBRANCH   8  16
BRANCH  14  28
ATOM     28  C   UNL     1      -1.667   4.635   4.842  1.00  0.00     0.148 C 
BRANCH  28  29
ATOM     29  C   UNL     1      -2.417   4.158   6.059  1.00  0.00     0.011 C 
ATOM     30  C   UNL     1      -1.771   3.624   7.321  1.00  0.00     0.006 C 
ATOM     31  C   UNL     1      -2.382   4.994   7.317  1.00  0.00     0.006 C 
ENDBRANCH  28  29
ENDBRANCH  14  28
ENDBRANCH   4   7
ENDBRANCH   2   3
ENDBRANCH   1   2
BRANCH   1  32
ATOM     32  C   UNL     1       2.141   7.005  10.236  1.00  0.00     0.023 C 
BRANCH  32  33
ATOM     33  C   UNL     1       2.250   8.518  10.374  1.00  0.00     0.116 C 
BRANCH  33  34
ATOM     34  N   UNL     1       0.991   9.187  10.740  1.00  0.00    -0.352 N 
ATOM     35  C   UNL     1       0.764  10.556  10.912  1.00  0.00     0.251 C 
ATOM     36  H   UNL     1       0.213   8.599  10.880  1.00  0.00     0.163 HD
ATOM     37  O   UNL     1      -0.168  10.965  11.578  1.00  0.00    -0.269 OA
BRANCH  35  38
ATOM     38  C   UNL     1       1.686  11.488  10.230  1.00  0.00     0.039 A 
ATOM     39  C   UNL     1       2.170  12.678  10.783  1.00  0.00     0.014 A 
ATOM     40  C   UNL     1       2.129  11.057   8.993  1.00  0.00     0.014 A 
ATOM     41  C   UNL     1       3.152  13.382  10.078  1.00  0.00     0.010 A 
ATOM     42  C   UNL     1       3.304  11.539   8.516  1.00  0.00     0.010 A 
ATOM     43  C   UNL     1       3.712  12.790   8.937  1.00  0.00    -0.014 A 
BRANCH  43  44
ATOM     44  C   UNL     1       4.781  13.368   8.140  1.00  0.00     0.031 A 
ATOM     45  C   UNL     1       6.038  13.601   8.887  1.00  0.00     0.074 A 
ATOM     46  C   UNL     1       4.724  13.365   6.785  1.00  0.00     0.049 A 
ATOM     47  N   UNL     1       6.537  14.738   9.236  1.00  0.00    -0.248 NA
ATOM     48  C   UNL     1       6.731  12.446   9.483  1.00  0.00     0.031 C 
ATOM     49  C   UNL     1       3.666  12.849   5.901  1.00  0.00     0.029 A 
ATOM     50  N   UNL     1       5.687  13.705   5.894  1.00  0.00    -0.354 N 
ATOM     51  C   UNL     1       7.751  14.446   9.844  1.00  0.00     0.074 A 
ATOM     52  C   UNL     1       7.686  13.053  10.193  1.00  0.00     0.031 C 
ATOM     53  C   UNL     1       4.155  12.675   4.652  1.00  0.00     0.029 A 
ATOM     54  C   UNL     1       5.500  13.219   4.601  1.00  0.00     0.049 A 
ATOM     55  H   UNL     1       6.464  14.256   6.142  1.00  0.00     0.167 HD
ATOM     56  C   UNL     1       8.804  15.305   9.751  1.00  0.00     0.034 A 
ATOM     57  C   UNL     1       6.409  13.230   3.584  1.00  0.00     0.034 A 
ATOM     58  C   UNL     1       8.378  16.587   9.228  1.00  0.00     0.049 A 
ATOM     59  C   UNL     1       7.385  14.303   3.933  1.00  0.00     0.074 A 
ATOM     60  C   UNL     1       7.420  17.511   9.607  1.00  0.00     0.029 A 
ATOM     61  N   UNL     1       8.643  16.864   7.901  1.00  0.00    -0.354 N 
ATOM     62  N   UNL     1       7.044  15.564   4.022  1.00  0.00    -0.248 NA
ATOM     63  C   UNL     1       8.553  13.927   4.723  1.00  0.00     0.031 C 
ATOM     64  C   UNL     1       6.780  17.883   8.386  1.00  0.00     0.029 A 
ATOM     65  C   UNL     1       7.458  17.268   7.330  1.00  0.00     0.049 A 
ATOM     66  H   UNL     1       9.515  16.788   7.450  1.00  0.00     0.167 HD
ATOM     67  C   UNL     1       7.651  16.026   5.182  1.00  0.00     0.074 A 
ATOM     68  C   UNL     1       8.633  14.993   5.528  1.00  0.00     0.031 C 
ATOM     69  C   UNL     1       7.098  17.023   5.942  1.00  0.00     0.034 A 
BRANCH  56  70
ATOM     70  C   UNL     1      10.261  14.905   9.763  1.00  0.00     0.023 A 
ATOM     71  C   UNL     1      11.209  15.945   9.727  1.00  0.00     0.031 A 
ATOM     72  C   UNL     1      10.765  13.606   9.522  1.00  0.00     0.131 A 
ATOM     73  C   UNL     1      12.542  15.697   9.361  1.00  0.00     0.055 A 
ATOM     74  C   UNL     1      12.108  13.355   9.231  1.00  0.00     0.041 A 
ATOM     75  F   UNL     1       9.982  12.524   9.454  1.00  0.00    -0.206 F 
ATOM     76  C   UNL     1      13.000  14.406   9.114  1.00  0.00     0.022 A 
BRANCH  73  77
ATOM     77  S   UNL     1      13.616  17.116   9.030  1.00  0.00     0.124 S 
ATOM     78  O   UNL     1      12.825  17.864   8.058  1.00  0.00    -0.237 OA
ATOM     79  O   UNL     1      13.741  17.713  10.355  1.00  0.00    -0.237 OA
ATOM     80  O   UNL     1      14.833  16.503   8.504  1.00  0.00    -0.744 OA
ENDBRANCH  73  77
ENDBRANCH  56  70
BRANCH  57  81
ATOM     81  C   UNL     1       6.659  12.126   2.601  1.00  0.00     0.023 A 
ATOM     82  C   UNL     1       7.360  12.289   1.383  1.00  0.00     0.031 A 
ATOM     83  C   UNL     1       6.370  10.790   2.975  1.00  0.00     0.131 A 
ATOM     84  C   UNL     1       7.722  11.156   0.602  1.00  0.00     0.055 A 
ATOM     85  C   UNL     1       6.728   9.681   2.203  1.00  0.00     0.041 A 
ATOM     86  F   UNL     1       5.795  10.507   4.154  1.00  0.00    -0.206 F 
ATOM     87  C   UNL     1       7.412   9.859   1.014  1.00  0.00     0.022 A 
BRANCH  84  88
ATOM     88  S   UNL     1       8.676  11.341  -0.947  1.00  0.00     0.124 S 
ATOM     89  O   UNL     1       7.719  12.005  -1.825  1.00  0.00    -0.237 OA
ATOM     90  O   UNL     1       9.822  12.134  -0.519  1.00  0.00    -0.237 OA
ATOM     91  O   UNL     1       8.995   9.963  -1.323  1.00  0.00    -0.744 OA
ENDBRANCH  84  88
ENDBRANCH  57  81
BRANCH  69  92
ATOM     92  C   UNL     1       5.895  17.787   5.408  1.00  0.00     0.023 A 
ATOM     93  C   UNL     1       4.665  17.206   5.015  1.00  0.00     0.031 A 
ATOM     94  C   UNL     1       5.955  19.192   5.458  1.00  0.00     0.131 A 
ATOM     95  C   UNL     1       3.563  18.027   4.687  1.00  0.00     0.055 A 
ATOM     96  C   UNL     1       4.858  19.999   5.157  1.00  0.00     0.041 A 
ATOM     97  F   UNL     1       7.082  19.810   5.849  1.00  0.00    -0.206 F 
ATOM     98  C   UNL     1       3.658  19.419   4.766  1.00  0.00     0.022 A 
BRANCH  95  99
ATOM     99  S   UNL     1       1.981  17.302   4.136  1.00  0.00     0.124 S 
ATOM    100  O   UNL     1       2.385  16.337   3.120  1.00  0.00    -0.237 OA
ATOM    101  O   UNL     1       1.439  16.743   5.371  1.00  0.00    -0.237 OA
ATOM    102  O   UNL     1       1.241  18.455   3.618  1.00  0.00    -0.744 OA
ENDBRANCH  95  99
ENDBRANCH  69  92
ENDBRANCH  43  44
ENDBRANCH  35  38
ENDBRANCH  33  34
ENDBRANCH  32  33
ENDBRANCH   1  32
TORSDOF 19
