REMARK SMILES Cc1c[nH]c(C[N@@H+](C)[C@@H](C(=O)NCCCCNC(=O)c2ccc(-c3c4nc(c(-c5cc(S(=O)(=O)[O-])ccc5F)c5ccc([nH]5)c(-c5cc(S(=O)(=O)[O-])ccc5F)c5nc(c(-c6cc(S(=O)(=O)[O-])ccc6F)c6ccc3[nH]6)C=C5)C=C4)cc2)c2ccc(NC(=O)N3CCCC3)cc2)n1
REMARK SMILES IDX 14 1 13 2 12 3 10 4 11 5 9 7 7 8 8 9 6 11 5 12 1 13 2 14
REMARK SMILES IDX 3 15 97 16 4 17 83 19 84 20 96 21 85 22 95 23 86 24 87 25
REMARK SMILES IDX 88 26 89 28 90 29 91 30 94 31 92 32 93 33 15 34 16 35 17 36
REMARK SMILES IDX 18 37 19 39 20 40 21 41 82 42 22 43 81 44 23 45 24 46 25 47
REMARK SMILES IDX 75 48 26 49 80 50 74 51 76 52 27 53 79 54 73 55 72 56 28 58
REMARK SMILES IDX 60 59 40 60 59 61 41 62 44 63 58 64 77 65 42 66 43 67 57 69
REMARK SMILES IDX 78 70 45 71 29 72 30 73 38 74 31 75 37 76 39 77 36 78 32 79
REMARK SMILES IDX 33 80 34 81 35 82 61 83 62 84 70 85 63 86 69 87 71 88 68 89
REMARK SMILES IDX 64 90 65 91 66 92 67 93 46 94 47 95 55 96 48 97 54 98 56 99
REMARK SMILES IDX 53 100 49 101 50 102 51 103 52 104
REMARK H PARENT 12 6 7 10 4 18 87 27 17 38 76 57 44 68
REMARK Flexibility Score: inf
ROOT
ATOM      1  C   UNL     1      -5.857   3.606   1.339  1.00  0.00     0.023 C 
ENDROOT
BRANCH   1   2
ATOM      2  C   UNL     1      -5.212   3.069   2.618  1.00  0.00     0.116 C 
BRANCH   2   3
ATOM      3  N   UNL     1      -4.911   1.662   2.462  1.00  0.00    -0.351 N 
ATOM      4  C   UNL     1      -3.733   1.087   2.073  1.00  0.00     0.283 C 
ATOM      5  O   UNL     1      -3.803  -0.055   1.599  1.00  0.00    -0.268 OA
ATOM      6  H   UNL     1      -5.649   1.041   2.660  1.00  0.00     0.163 HD
BRANCH   4   7
ATOM      7  C   UNL     1      -2.378   1.851   2.256  1.00  0.00     0.305 C 
BRANCH   7   8
ATOM      8  N   UNL     1      -1.962   2.530   0.999  1.00  0.00    -0.317 N 
ATOM      9  C   UNL     1      -2.329   3.924   0.873  1.00  0.00     0.334 C 
ATOM     10  H   UNL     1      -0.955   2.528   1.162  1.00  0.00     0.349 HD
BRANCH   8  11
ATOM     11  C   UNL     1      -2.096   1.788  -0.262  1.00  0.00     0.339 C 
BRANCH  11  12
ATOM     12  C   UNL     1      -0.963   0.840  -0.502  1.00  0.00     0.161 A 
ATOM     13  C   UNL     1       2.456  -0.082  -0.773  1.00  0.00     0.068 C 
ATOM     14  C   UNL     1       0.979  -0.049  -0.759  1.00  0.00     0.056 A 
ATOM     15  C   UNL     1       0.080  -1.091  -0.796  1.00  0.00     0.107 A 
ATOM     16  N   UNL     1       0.314   1.147  -0.650  1.00  0.00    -0.233 NA
ATOM     17  N   UNL     1      -1.146  -0.517  -0.594  1.00  0.00    -0.344 N 
ATOM     18  H   UNL     1      -2.005  -0.993  -0.526  1.00  0.00     0.167 HD
ENDBRANCH  11  12
ENDBRANCH   8  11
ENDBRANCH   7   8
BRANCH   7  19
ATOM     19  C   UNL     1      -1.266   0.935   2.799  1.00  0.00     0.019 A 
ATOM     20  C   UNL     1      -1.546  -0.236   3.515  1.00  0.00     0.012 A 
ATOM     21  C   UNL     1       0.085   1.240   2.568  1.00  0.00     0.012 A 
ATOM     22  C   UNL     1      -0.548  -1.188   3.729  1.00  0.00     0.027 A 
ATOM     23  C   UNL     1       1.078   0.279   2.763  1.00  0.00     0.027 A 
ATOM     24  C   UNL     1       0.730  -0.991   3.213  1.00  0.00     0.042 A 
BRANCH  24  25
ATOM     25  N   UNL     1       1.680  -2.018   3.090  1.00  0.00    -0.308 N 
ATOM     26  C   UNL     1       1.541  -3.372   3.153  1.00  0.00     0.321 C 
ATOM     27  H   UNL     1       2.600  -1.708   2.931  1.00  0.00     0.171 HD
ATOM     28  O   UNL     1       2.525  -4.046   3.468  1.00  0.00    -0.248 OA
ATOM     29  N   UNL     1       0.344  -3.957   2.853  1.00  0.00    -0.325 N 
ATOM     30  C   UNL     1      -0.575  -3.604   1.785  1.00  0.00     0.121 C 
ATOM     31  C   UNL     1       0.011  -5.270   3.355  1.00  0.00     0.121 C 
ATOM     32  C   UNL     1      -1.886  -4.211   2.247  1.00  0.00     0.023 C 
ATOM     33  C   UNL     1      -1.461  -5.475   2.997  1.00  0.00     0.023 C 
ENDBRANCH  24  25
ENDBRANCH   7  19
ENDBRANCH   4   7
ENDBRANCH   2   3
ENDBRANCH   1   2
BRANCH   1  34
ATOM     34  C   UNL     1      -7.295   3.146   1.109  1.00  0.00     0.023 C 
BRANCH  34  35
ATOM     35  C   UNL     1      -8.275   3.546   2.200  1.00  0.00     0.116 C 
BRANCH  35  36
ATOM     36  N   UNL     1      -8.320   4.983   2.424  1.00  0.00    -0.352 N 
ATOM     37  C   UNL     1      -9.423   5.785   2.603  1.00  0.00     0.251 C 
ATOM     38  H   UNL     1      -7.449   5.441   2.450  1.00  0.00     0.163 HD
ATOM     39  O   UNL     1      -9.296   7.005   2.645  1.00  0.00    -0.269 OA
BRANCH  37  40
ATOM     40  C   UNL     1     -10.755   5.156   2.700  1.00  0.00     0.039 A 
ATOM     41  C   UNL     1     -11.796   5.643   1.907  1.00  0.00     0.014 A 
ATOM     42  C   UNL     1     -10.950   4.043   3.522  1.00  0.00     0.014 A 
ATOM     43  C   UNL     1     -13.016   4.965   1.884  1.00  0.00     0.010 A 
ATOM     44  C   UNL     1     -12.132   3.319   3.428  1.00  0.00     0.010 A 
ATOM     45  C   UNL     1     -13.179   3.775   2.612  1.00  0.00    -0.014 A 
BRANCH  45  46
ATOM     46  C   UNL     1     -14.442   2.995   2.552  1.00  0.00     0.031 A 
ATOM     47  C   UNL     1     -15.255   2.798   3.802  1.00  0.00     0.074 A 
ATOM     48  C   UNL     1     -14.811   2.405   1.398  1.00  0.00     0.049 A 
ATOM     49  N   UNL     1     -16.330   2.077   3.987  1.00  0.00    -0.248 NA
ATOM     50  C   UNL     1     -14.764   3.468   5.015  1.00  0.00     0.031 C 
ATOM     51  C   UNL     1     -14.074   2.481   0.134  1.00  0.00     0.029 A 
ATOM     52  N   UNL     1     -15.893   1.616   1.103  1.00  0.00    -0.354 N 
ATOM     53  C   UNL     1     -16.631   2.190   5.340  1.00  0.00     0.074 A 
ATOM     54  C   UNL     1     -15.581   2.986   5.937  1.00  0.00     0.031 C 
ATOM     55  C   UNL     1     -14.742   1.793  -0.806  1.00  0.00     0.029 A 
ATOM     56  C   UNL     1     -15.928   1.192  -0.206  1.00  0.00     0.049 A 
ATOM     57  H   UNL     1     -16.581   1.375   1.765  1.00  0.00     0.167 HD
ATOM     58  C   UNL     1     -17.701   1.701   6.016  1.00  0.00     0.034 A 
ATOM     59  C   UNL     1     -16.813   0.402  -0.845  1.00  0.00     0.034 A 
ATOM     60  C   UNL     1     -18.748   0.927   5.396  1.00  0.00     0.049 A 
ATOM     61  C   UNL     1     -17.992  -0.137  -0.076  1.00  0.00     0.074 A 
ATOM     62  C   UNL     1     -19.911   0.436   5.963  1.00  0.00     0.029 A 
ATOM     63  N   UNL     1     -18.757   0.527   4.064  1.00  0.00    -0.354 N 
ATOM     64  N   UNL     1     -18.295   0.025   1.192  1.00  0.00    -0.248 NA
ATOM     65  C   UNL     1     -18.952  -0.955  -0.827  1.00  0.00     0.031 C 
ATOM     66  C   UNL     1     -20.589  -0.314   4.994  1.00  0.00     0.029 A 
ATOM     67  C   UNL     1     -19.889  -0.230   3.801  1.00  0.00     0.049 A 
ATOM     68  H   UNL     1     -18.061   0.749   3.404  1.00  0.00     0.167 HD
ATOM     69  C   UNL     1     -19.498  -0.649   1.382  1.00  0.00     0.074 A 
ATOM     70  C   UNL     1     -19.869  -1.206   0.097  1.00  0.00     0.031 C 
ATOM     71  C   UNL     1     -20.234  -0.790   2.515  1.00  0.00     0.034 A 
BRANCH  58  72
ATOM     72  C   UNL     1     -17.763   1.975   7.501  1.00  0.00     0.023 A 
ATOM     73  C   UNL     1     -17.810   3.286   8.008  1.00  0.00     0.031 A 
ATOM     74  C   UNL     1     -17.714   0.917   8.426  1.00  0.00     0.131 A 
ATOM     75  C   UNL     1     -17.704   3.510   9.389  1.00  0.00     0.055 A 
ATOM     76  C   UNL     1     -17.706   1.143   9.804  1.00  0.00     0.041 A 
ATOM     77  F   UNL     1     -17.648  -0.356   8.006  1.00  0.00    -0.206 F 
ATOM     78  C   UNL     1     -17.679   2.446  10.293  1.00  0.00     0.022 A 
BRANCH  75  79
ATOM     79  S   UNL     1     -17.419   5.205   9.968  1.00  0.00     0.124 S 
ATOM     80  O   UNL     1     -16.188   5.553   9.262  1.00  0.00    -0.237 OA
ATOM     81  O   UNL     1     -18.626   5.896   9.528  1.00  0.00    -0.237 OA
ATOM     82  O   UNL     1     -17.277   5.053  11.415  1.00  0.00    -0.744 OA
ENDBRANCH  75  79
ENDBRANCH  58  72
BRANCH  59  83
ATOM     83  C   UNL     1     -16.628   0.077  -2.288  1.00  0.00     0.023 A 
ATOM     84  C   UNL     1     -17.531   0.546  -3.254  1.00  0.00     0.031 A 
ATOM     85  C   UNL     1     -15.558  -0.728  -2.718  1.00  0.00     0.131 A 
ATOM     86  C   UNL     1     -17.372   0.175  -4.599  1.00  0.00     0.055 A 
ATOM     87  C   UNL     1     -15.377  -1.055  -4.064  1.00  0.00     0.041 A 
ATOM     88  F   UNL     1     -14.660  -1.193  -1.835  1.00  0.00    -0.206 F 
ATOM     89  C   UNL     1     -16.294  -0.612  -5.011  1.00  0.00     0.022 A 
BRANCH  86  90
ATOM     90  S   UNL     1     -18.635   0.687  -5.796  1.00  0.00     0.124 S 
ATOM     91  O   UNL     1     -19.835   0.068  -5.245  1.00  0.00    -0.237 OA
ATOM     92  O   UNL     1     -18.563   2.142  -5.707  1.00  0.00    -0.237 OA
ATOM     93  O   UNL     1     -18.160   0.118  -7.055  1.00  0.00    -0.744 OA
ENDBRANCH  86  90
ENDBRANCH  59  83
BRANCH  71  94
ATOM     94  C   UNL     1     -21.534  -1.547   2.394  1.00  0.00     0.023 A 
ATOM     95  C   UNL     1     -21.564  -2.925   2.120  1.00  0.00     0.031 A 
ATOM     96  C   UNL     1     -22.759  -0.874   2.547  1.00  0.00     0.131 A 
ATOM     97  C   UNL     1     -22.796  -3.576   1.952  1.00  0.00     0.055 A 
ATOM     98  C   UNL     1     -23.980  -1.538   2.438  1.00  0.00     0.041 A 
ATOM     99  F   UNL     1     -22.787   0.443   2.808  1.00  0.00    -0.206 F 
ATOM    100  C   UNL     1     -24.004  -2.895   2.126  1.00  0.00     0.022 A 
BRANCH  97 101
ATOM    101  S   UNL     1     -22.799  -5.308   1.414  1.00  0.00     0.124 S 
ATOM    102  O   UNL     1     -22.081  -5.233   0.146  1.00  0.00    -0.237 OA
ATOM    103  O   UNL     1     -22.097  -5.975   2.506  1.00  0.00    -0.237 OA
ATOM    104  O   UNL     1     -24.221  -5.630   1.303  1.00  0.00    -0.744 OA
ENDBRANCH  97 101
ENDBRANCH  71  94
ENDBRANCH  45  46
ENDBRANCH  37  40
ENDBRANCH  35  36
ENDBRANCH  34  35
ENDBRANCH   1  34
TORSDOF 19
