REMARK SMILES CC[C@@H](C(=O)NCCCCNC(=O)c1ccc(-c2c3nc(c(-c4cc(S(=O)(=O)[O-])ccc4F)c4ccc([nH]4)c(-c4cc(S(=O)(=O)[O-])ccc4F)c4nc(c(-c5cc(S(=O)(=O)[O-])ccc5F)c5ccc2[nH]5)C=C4)C=C3)cc1)c1cc(Br)ccc1F
REMARK SMILES IDX 9 1 8 2 7 3 6 4 4 5 5 6 3 8 2 9 1 10 77 11 78 12 83 13 79 14
REMARK SMILES IDX 82 15 84 16 80 17 81 18 10 19 11 20 12 21 13 23 14 24 15 25
REMARK SMILES IDX 76 26 16 27 75 28 17 29 18 30 19 31 69 32 20 33 74 34 68 35
REMARK SMILES IDX 70 36 21 37 73 38 67 39 66 40 22 42 54 43 34 44 53 45 35 46
REMARK SMILES IDX 38 47 52 48 71 49 36 50 37 51 51 53 72 54 39 55 23 56 24 57
REMARK SMILES IDX 32 58 25 59 31 60 33 61 30 62 26 63 27 64 28 65 29 66 55 67
REMARK SMILES IDX 56 68 64 69 57 70 63 71 65 72 62 73 58 74 59 75 60 76 61 77
REMARK SMILES IDX 40 78 41 79 49 80 42 81 48 82 50 83 47 84 43 85 44 86 45 87
REMARK SMILES IDX 46 88
REMARK H PARENT 6 7 11 22 70 41 38 52
REMARK Flexibility Score: inf
ROOT
ATOM      1  C   UNL     1       0.570  -2.250   3.049  1.00  0.00     0.023 C 
ENDROOT
BRANCH   1   2
ATOM      2  C   UNL     1       1.041  -1.354   1.909  1.00  0.00     0.023 C 
BRANCH   2   3
ATOM      3  C   UNL     1       1.634  -2.093   0.704  1.00  0.00     0.116 C 
BRANCH   3   4
ATOM      4  N   UNL     1       0.560  -2.632  -0.107  1.00  0.00    -0.356 N 
ATOM      5  C   UNL     1      -0.046  -2.106  -1.212  1.00  0.00     0.227 C 
ATOM      6  O   UNL     1      -1.189  -2.498  -1.463  1.00  0.00    -0.274 OA
ATOM      7  H   UNL     1       0.216  -3.507   0.183  1.00  0.00     0.163 HD
BRANCH   5   8
ATOM      8  C   UNL     1       0.703  -1.122  -2.144  1.00  0.00     0.111 C 
BRANCH   8   9
ATOM      9  C   UNL     1       0.365   0.358  -1.839  1.00  0.00     0.015 C 
ATOM     10  C   UNL     1       0.701   0.926  -0.477  1.00  0.00     0.005 C 
ENDBRANCH   8   9
BRANCH   8  11
ATOM     11  C   UNL     1       0.363  -1.465  -3.617  1.00  0.00     0.001 A 
ATOM     12  C   UNL     1      -0.177  -0.527  -4.521  1.00  0.00     0.023 A 
ATOM     13  C   UNL     1       0.529  -2.778  -4.085  1.00  0.00     0.127 A 
ATOM     14  C   UNL     1      -0.579  -0.906  -5.805  1.00  0.00     0.018 A 
ATOM     15  C   UNL     1       0.113  -3.161  -5.363  1.00  0.00     0.041 A 
ATOM     16  F   UNL     1       1.083  -3.707  -3.293  1.00  0.00    -0.207 F 
ATOM     17  Br  UNL     1      -1.321   0.391  -6.965  1.00  0.00    -0.051 Br
ATOM     18  C   UNL     1      -0.453  -2.224  -6.225  1.00  0.00     0.019 A 
ENDBRANCH   8  11
ENDBRANCH   5   8
ENDBRANCH   3   4
ENDBRANCH   2   3
ENDBRANCH   1   2
BRANCH   1  19
ATOM     19  C   UNL     1       1.686  -2.955   3.795  1.00  0.00     0.116 C 
BRANCH  19  20
ATOM     20  N   UNL     1       2.633  -2.032   4.403  1.00  0.00    -0.352 N 
ATOM     21  C   UNL     1       3.183  -2.065   5.661  1.00  0.00     0.251 C 
ATOM     22  H   UNL     1       2.918  -1.280   3.834  1.00  0.00     0.163 HD
ATOM     23  O   UNL     1       3.859  -1.117   6.054  1.00  0.00    -0.269 OA
BRANCH  21  24
ATOM     24  C   UNL     1       2.924  -3.224   6.541  1.00  0.00     0.039 A 
ATOM     25  C   UNL     1       2.644  -3.004   7.891  1.00  0.00     0.014 A 
ATOM     26  C   UNL     1       2.932  -4.525   6.029  1.00  0.00     0.014 A 
ATOM     27  C   UNL     1       2.327  -4.086   8.714  1.00  0.00     0.010 A 
ATOM     28  C   UNL     1       2.507  -5.583   6.821  1.00  0.00     0.010 A 
ATOM     29  C   UNL     1       2.232  -5.381   8.180  1.00  0.00    -0.014 A 
BRANCH  29  30
ATOM     30  C   UNL     1       1.919  -6.549   9.041  1.00  0.00     0.031 A 
ATOM     31  C   UNL     1       2.935  -7.653   9.191  1.00  0.00     0.074 A 
ATOM     32  C   UNL     1       0.720  -6.636   9.649  1.00  0.00     0.049 A 
ATOM     33  N   UNL     1       2.850  -8.775   9.857  1.00  0.00    -0.248 NA
ATOM     34  C   UNL     1       4.199  -7.490   8.455  1.00  0.00     0.031 C 
ATOM     35  C   UNL     1      -0.364  -5.657   9.528  1.00  0.00     0.029 A 
ATOM     36  N   UNL     1       0.211  -7.590  10.492  1.00  0.00    -0.354 N 
ATOM     37  C   UNL     1       4.037  -9.455   9.604  1.00  0.00     0.074 A 
ATOM     38  C   UNL     1       4.784  -8.660   8.655  1.00  0.00     0.031 C 
ATOM     39  C   UNL     1      -1.391  -6.041  10.303  1.00  0.00     0.029 A 
ATOM     40  C   UNL     1      -1.057  -7.308  10.945  1.00  0.00     0.049 A 
ATOM     41  H   UNL     1       0.707  -8.400  10.749  1.00  0.00     0.167 HD
ATOM     42  C   UNL     1       4.484 -10.616  10.144  1.00  0.00     0.034 A 
ATOM     43  C   UNL     1      -1.853  -7.994  11.788  1.00  0.00     0.034 A 
ATOM     44  C   UNL     1       3.736 -11.379  11.111  1.00  0.00     0.049 A 
ATOM     45  C   UNL     1      -1.331  -9.276  12.387  1.00  0.00     0.074 A 
ATOM     46  C   UNL     1       4.104 -12.539  11.769  1.00  0.00     0.029 A 
ATOM     47  N   UNL     1       2.462 -11.054  11.562  1.00  0.00    -0.354 N 
ATOM     48  N   UNL     1      -0.179  -9.877  12.186  1.00  0.00    -0.248 NA
ATOM     49  C   UNL     1      -2.209  -9.961  13.343  1.00  0.00     0.031 C 
ATOM     50  C   UNL     1       3.031 -12.947  12.570  1.00  0.00     0.029 A 
ATOM     51  C   UNL     1       2.021 -12.003  12.471  1.00  0.00     0.049 A 
ATOM     52  H   UNL     1       1.948 -10.265  11.278  1.00  0.00     0.167 HD
ATOM     53  C   UNL     1      -0.186 -10.996  13.014  1.00  0.00     0.074 A 
ATOM     54  C   UNL     1      -1.444 -10.968  13.735  1.00  0.00     0.031 C 
ATOM     55  C   UNL     1       0.756 -11.963  13.167  1.00  0.00     0.034 A 
BRANCH  42  56
ATOM     56  C   UNL     1       5.832 -11.121   9.681  1.00  0.00     0.023 A 
ATOM     57  C   UNL     1       7.007 -10.373   9.876  1.00  0.00     0.031 A 
ATOM     58  C   UNL     1       5.940 -12.341   8.992  1.00  0.00     0.131 A 
ATOM     59  C   UNL     1       8.216 -10.802   9.308  1.00  0.00     0.055 A 
ATOM     60  C   UNL     1       7.165 -12.809   8.509  1.00  0.00     0.041 A 
ATOM     61  F   UNL     1       4.853 -13.092   8.755  1.00  0.00    -0.206 F 
ATOM     62  C   UNL     1       8.309 -12.029   8.649  1.00  0.00     0.022 A 
BRANCH  59  63
ATOM     63  S   UNL     1       9.624  -9.657   9.303  1.00  0.00     0.124 S 
ATOM     64  O   UNL     1       9.081  -8.527   8.551  1.00  0.00    -0.237 OA
ATOM     65  O   UNL     1       9.851  -9.429  10.725  1.00  0.00    -0.237 OA
ATOM     66  O   UNL     1      10.673 -10.407   8.615  1.00  0.00    -0.744 OA
ENDBRANCH  59  63
ENDBRANCH  42  56
BRANCH  43  67
ATOM     67  C   UNL     1      -3.213  -7.488  12.133  1.00  0.00     0.023 A 
ATOM     68  C   UNL     1      -3.531  -7.109  13.447  1.00  0.00     0.031 A 
ATOM     69  C   UNL     1      -4.230  -7.420  11.165  1.00  0.00     0.131 A 
ATOM     70  C   UNL     1      -4.844  -6.733  13.770  1.00  0.00     0.055 A 
ATOM     71  C   UNL     1      -5.521  -6.993  11.479  1.00  0.00     0.041 A 
ATOM     72  F   UNL     1      -3.978  -7.763   9.891  1.00  0.00    -0.206 F 
ATOM     73  C   UNL     1      -5.839  -6.661  12.793  1.00  0.00     0.022 A 
BRANCH  70  74
ATOM     74  S   UNL     1      -5.256  -6.424  15.510  1.00  0.00     0.124 S 
ATOM     75  O   UNL     1      -4.887  -7.690  16.133  1.00  0.00    -0.237 OA
ATOM     76  O   UNL     1      -4.405  -5.281  15.824  1.00  0.00    -0.237 OA
ATOM     77  O   UNL     1      -6.689  -6.139  15.475  1.00  0.00    -0.744 OA
ENDBRANCH  70  74
ENDBRANCH  43  67
BRANCH  55  78
ATOM     78  C   UNL     1       0.462 -13.042  14.181  1.00  0.00     0.023 A 
ATOM     79  C   UNL     1      -0.606 -13.940  14.012  1.00  0.00     0.031 A 
ATOM     80  C   UNL     1       1.238 -13.149  15.348  1.00  0.00     0.131 A 
ATOM     81  C   UNL     1      -0.918 -14.853  15.028  1.00  0.00     0.055 A 
ATOM     82  C   UNL     1       0.967 -14.108  16.325  1.00  0.00     0.041 A 
ATOM     83  F   UNL     1       2.270 -12.317  15.563  1.00  0.00    -0.206 F 
ATOM     84  C   UNL     1      -0.128 -14.955  16.176  1.00  0.00     0.022 A 
BRANCH  81  85
ATOM     85  S   UNL     1      -2.446 -15.821  14.886  1.00  0.00     0.124 S 
ATOM     86  O   UNL     1      -3.453 -14.776  14.735  1.00  0.00    -0.237 OA
ATOM     87  O   UNL     1      -2.190 -16.635  13.703  1.00  0.00    -0.237 OA
ATOM     88  O   UNL     1      -2.502 -16.559  16.146  1.00  0.00    -0.744 OA
ENDBRANCH  81  85
ENDBRANCH  55  78
ENDBRANCH  29  30
ENDBRANCH  21  24
ENDBRANCH  19  20
ENDBRANCH   1  19
TORSDOF 16
