REMARK SMILES [NH3+]CCOCC(=O)N1C[C@@H](C(=O)NCCCCNC(=O)c2ccc(-c3c4nc(c(-c5cc(S(=O)(=O)[O-])ccc5F)c5ccc([nH]5)c(-c5cc(S(=O)(=O)[O-])ccc5F)c5nc(c(-c6cc(S(=O)(=O)[O-])ccc6F)c6ccc3[nH]6)C=C5)C=C4)cc2)Oc2ccccc21
REMARK SMILES IDX 14 1 13 2 11 3 12 4 10 6 8 7 9 8 90 9 85 10 89 11 84 12
REMARK SMILES IDX 86 13 88 14 87 15 6 16 7 17 5 18 4 19 3 20 2 21 1 22 15 26
REMARK SMILES IDX 16 27 17 28 18 29 19 30 20 32 21 33 22 34 83 35 23 36 82 37
REMARK SMILES IDX 24 38 25 39 26 40 76 41 27 42 81 43 75 44 77 45 28 46 80 47
REMARK SMILES IDX 74 48 73 49 29 51 61 52 41 53 60 54 42 55 45 56 59 57 78 58
REMARK SMILES IDX 43 59 44 60 58 62 79 63 46 64 30 65 31 66 39 67 32 68 38 69
REMARK SMILES IDX 40 70 37 71 33 72 34 73 35 74 36 75 62 76 63 77 71 78 64 79
REMARK SMILES IDX 70 80 72 81 69 82 65 83 66 84 67 85 68 86 47 87 48 88 56 89
REMARK SMILES IDX 49 90 55 91 57 92 54 93 50 94 51 95 52 96 53 97
REMARK H PARENT 13 5 1 23 1 24 1 25 18 31 77 50 45 61
REMARK Flexibility Score: inf
ROOT
ATOM      1  C   UNL     1       6.826   3.492  -1.159  1.00  0.00     0.116 C 
ENDROOT
BRANCH   1   2
ATOM      2  N   UNL     1       5.915   3.593  -0.042  1.00  0.00    -0.353 N 
ATOM      3  C   UNL     1       4.667   4.145   0.008  1.00  0.00     0.262 C 
ATOM      4  O   UNL     1       4.035   3.995   1.064  1.00  0.00    -0.271 OA
ATOM      5  H   UNL     1       6.240   3.209   0.804  1.00  0.00     0.163 HD
BRANCH   3   6
ATOM      6  C   UNL     1       4.006   4.945  -1.167  1.00  0.00     0.281 C 
ATOM      7  N   UNL     1       2.950   3.031  -2.283  1.00  0.00    -0.303 N 
ATOM      8  C   UNL     1       2.682   4.269  -1.540  1.00  0.00     0.181 C 
ATOM      9  C   UNL     1       4.015   3.136  -3.233  1.00  0.00     0.086 A 
ATOM     10  C   UNL     1       4.758   4.331  -3.296  1.00  0.00     0.144 A 
ATOM     11  C   UNL     1       4.341   2.119  -4.135  1.00  0.00     0.030 A 
ATOM     12  O   UNL     1       4.678   5.332  -2.353  1.00  0.00    -0.477 OA
ATOM     13  C   UNL     1       5.746   4.526  -4.268  1.00  0.00     0.049 A 
ATOM     14  C   UNL     1       5.374   2.291  -5.067  1.00  0.00     0.002 A 
ATOM     15  C   UNL     1       6.067   3.496  -5.142  1.00  0.00     0.004 A 
BRANCH   7  16
ATOM     16  C   UNL     1       2.265   1.848  -2.021  1.00  0.00     0.253 C 
ATOM     17  O   UNL     1       2.760   0.724  -2.121  1.00  0.00    -0.272 OA
BRANCH  16  18
ATOM     18  C   UNL     1       0.765   1.989  -1.682  1.00  0.00     0.260 C 
BRANCH  18  19
ATOM     19  O   UNL     1       0.326   2.566  -0.472  1.00  0.00    -0.366 OA
BRANCH  19  20
ATOM     20  C   UNL     1       0.919   2.035   0.714  1.00  0.00     0.222 C 
BRANCH  20  21
ATOM     21  C   UNL     1       0.359   0.674   1.151  1.00  0.00     0.287 C 
BRANCH  21  22
ATOM     22  N   UNL     1       0.931  -0.478   0.458  1.00  0.00    -0.356 N 
ATOM     23  H   UNL     1       0.503  -1.334   0.810  1.00  0.00     0.344 HD
ATOM     24  H   UNL     1       1.937  -0.509   0.623  1.00  0.00     0.344 HD
ATOM     25  H   UNL     1       0.753  -0.396  -0.543  1.00  0.00     0.344 HD
ENDBRANCH  21  22
ENDBRANCH  20  21
ENDBRANCH  19  20
ENDBRANCH  18  19
ENDBRANCH  16  18
ENDBRANCH   7  16
ENDBRANCH   3   6
ENDBRANCH   1   2
BRANCH   1  26
ATOM     26  C   UNL     1       8.305   3.501  -0.802  1.00  0.00     0.023 C 
BRANCH  26  27
ATOM     27  C   UNL     1       8.845   2.270  -0.088  1.00  0.00     0.023 C 
BRANCH  27  28
ATOM     28  C   UNL     1       8.589   0.929  -0.769  1.00  0.00     0.116 C 
BRANCH  28  29
ATOM     29  N   UNL     1       9.096   0.854  -2.131  1.00  0.00    -0.352 N 
ATOM     30  C   UNL     1       9.980  -0.035  -2.706  1.00  0.00     0.251 C 
ATOM     31  H   UNL     1       8.753   1.548  -2.739  1.00  0.00     0.163 HD
ATOM     32  O   UNL     1      10.360   0.153  -3.854  1.00  0.00    -0.269 OA
BRANCH  30  33
ATOM     33  C   UNL     1      10.500  -1.185  -1.925  1.00  0.00     0.039 A 
ATOM     34  C   UNL     1      11.860  -1.494  -2.004  1.00  0.00     0.014 A 
ATOM     35  C   UNL     1       9.662  -1.948  -1.110  1.00  0.00     0.014 A 
ATOM     36  C   UNL     1      12.389  -2.507  -1.200  1.00  0.00     0.010 A 
ATOM     37  C   UNL     1      10.207  -2.888  -0.238  1.00  0.00     0.010 A 
ATOM     38  C   UNL     1      11.578  -3.181  -0.270  1.00  0.00    -0.014 A 
BRANCH  38  39
ATOM     39  C   UNL     1      12.158  -4.179   0.670  1.00  0.00     0.031 A 
ATOM     40  C   UNL     1      11.700  -5.614   0.643  1.00  0.00     0.074 A 
ATOM     41  C   UNL     1      13.071  -3.781   1.581  1.00  0.00     0.049 A 
ATOM     42  N   UNL     1      12.088  -6.621   1.384  1.00  0.00    -0.248 NA
ATOM     43  C   UNL     1      10.645  -5.956  -0.323  1.00  0.00     0.031 C 
ATOM     44  C   UNL     1      13.548  -2.406   1.753  1.00  0.00     0.029 A 
ATOM     45  N   UNL     1      13.764  -4.489   2.532  1.00  0.00    -0.354 N 
ATOM     46  C   UNL     1      11.323  -7.710   0.979  1.00  0.00     0.074 A 
ATOM     47  C   UNL     1      10.399  -7.221  -0.021  1.00  0.00     0.031 C 
ATOM     48  C   UNL     1      14.485  -2.380   2.714  1.00  0.00     0.029 A 
ATOM     49  C   UNL     1      14.646  -3.723   3.262  1.00  0.00     0.049 A 
ATOM     50  H   UNL     1      13.643  -5.455   2.678  1.00  0.00     0.167 HD
ATOM     51  C   UNL     1      11.402  -9.003   1.383  1.00  0.00     0.034 A 
ATOM     52  C   UNL     1      15.486  -4.061   4.260  1.00  0.00     0.034 A 
ATOM     53  C   UNL     1      12.336  -9.476   2.376  1.00  0.00     0.049 A 
ATOM     54  C   UNL     1      15.551  -5.503   4.696  1.00  0.00     0.074 A 
ATOM     55  C   UNL     1      12.544 -10.773   2.815  1.00  0.00     0.029 A 
ATOM     56  N   UNL     1      13.211  -8.672   3.095  1.00  0.00    -0.354 N 
ATOM     57  N   UNL     1      14.872  -6.534   4.248  1.00  0.00    -0.248 NA
ATOM     58  C   UNL     1      16.508  -5.829   5.760  1.00  0.00     0.031 C 
ATOM     59  C   UNL     1      13.485 -10.742   3.849  1.00  0.00     0.029 A 
ATOM     60  C   UNL     1      13.933  -9.439   3.998  1.00  0.00     0.049 A 
ATOM     61  H   UNL     1      13.305  -7.698   2.981  1.00  0.00     0.167 HD
ATOM     62  C   UNL     1      15.343  -7.635   4.958  1.00  0.00     0.074 A 
ATOM     63  C   UNL     1      16.381  -7.144   5.841  1.00  0.00     0.031 C 
ATOM     64  C   UNL     1      14.953  -8.935   4.889  1.00  0.00     0.034 A 
BRANCH  51  65
ATOM     65  C   UNL     1      10.437  -9.988   0.762  1.00  0.00     0.023 A 
ATOM     66  C   UNL     1      10.440 -10.258  -0.619  1.00  0.00     0.031 A 
ATOM     67  C   UNL     1       9.489 -10.656   1.557  1.00  0.00     0.131 A 
ATOM     68  C   UNL     1       9.470 -11.109  -1.171  1.00  0.00     0.055 A 
ATOM     69  C   UNL     1       8.582 -11.568   1.014  1.00  0.00     0.041 A 
ATOM     70  F   UNL     1       9.422 -10.426   2.878  1.00  0.00    -0.206 F 
ATOM     71  C   UNL     1       8.558 -11.788  -0.360  1.00  0.00     0.022 A 
BRANCH  68  72
ATOM     72  S   UNL     1       9.328 -11.206  -2.976  1.00  0.00     0.124 S 
ATOM     73  O   UNL     1       9.068  -9.811  -3.327  1.00  0.00    -0.237 OA
ATOM     74  O   UNL     1      10.630 -11.731  -3.369  1.00  0.00    -0.237 OA
ATOM     75  O   UNL     1       8.200 -12.112  -3.183  1.00  0.00    -0.744 OA
ENDBRANCH  68  72
ENDBRANCH  51  65
BRANCH  52  76
ATOM     76  C   UNL     1      16.335  -3.026   4.922  1.00  0.00     0.023 A 
ATOM     77  C   UNL     1      17.737  -3.086   4.859  1.00  0.00     0.031 A 
ATOM     78  C   UNL     1      15.756  -1.986   5.671  1.00  0.00     0.131 A 
ATOM     79  C   UNL     1      18.512  -2.160   5.576  1.00  0.00     0.055 A 
ATOM     80  C   UNL     1      16.530  -1.031   6.333  1.00  0.00     0.041 A 
ATOM     81  F   UNL     1      14.421  -1.878   5.763  1.00  0.00    -0.206 F 
ATOM     82  C   UNL     1      17.918  -1.124   6.300  1.00  0.00     0.022 A 
BRANCH  79  83
ATOM     83  S   UNL     1      20.311  -2.385   5.628  1.00  0.00     0.124 S 
ATOM     84  O   UNL     1      20.426  -3.731   6.179  1.00  0.00    -0.237 OA
ATOM     85  O   UNL     1      20.676  -2.234   4.223  1.00  0.00    -0.237 OA
ATOM     86  O   UNL     1      20.764  -1.309   6.507  1.00  0.00    -0.744 OA
ENDBRANCH  79  83
ENDBRANCH  52  76
BRANCH  64  87
ATOM     87  C   UNL     1      15.688  -9.916   5.772  1.00  0.00     0.023 A 
ATOM     88  C   UNL     1      15.631  -9.836   7.175  1.00  0.00     0.031 A 
ATOM     89  C   UNL     1      16.487 -10.924   5.203  1.00  0.00     0.131 A 
ATOM     90  C   UNL     1      16.418 -10.693   7.958  1.00  0.00     0.055 A 
ATOM     91  C   UNL     1      17.208 -11.824   5.989  1.00  0.00     0.041 A 
ATOM     92  F   UNL     1      16.584 -11.049   3.870  1.00  0.00    -0.206 F 
ATOM     93  C   UNL     1      17.192 -11.699   7.375  1.00  0.00     0.022 A 
BRANCH  90  94
ATOM     94  S   UNL     1      16.517 -10.391   9.745  1.00  0.00     0.124 S 
ATOM     95  O   UNL     1      16.977  -9.007   9.793  1.00  0.00    -0.237 OA
ATOM     96  O   UNL     1      15.143 -10.622  10.177  1.00  0.00    -0.237 OA
ATOM     97  O   UNL     1      17.487 -11.383  10.206  1.00  0.00    -0.744 OA
ENDBRANCH  90  94
ENDBRANCH  64  87
ENDBRANCH  38  39
ENDBRANCH  30  33
ENDBRANCH  28  29
ENDBRANCH  27  28
ENDBRANCH  26  27
ENDBRANCH   1  26
TORSDOF 20
