REMARK SMILES CCCCCCCCNC(=O)Oc1cccc(-c2ccc([C@@H](C)C(=O)NCCCCNC(=O)c3ccc(-c4c5nc(c(-c6cc(S(=O)(=O)[O-])ccc6F)c6ccc([nH]6)c(-c6cc(S(=O)(=O)[O-])ccc6F)c6nc(c(-c7cc(S(=O)(=O)[O-])ccc7F)c7ccc4[nH]7)C=C6)C=C5)cc3)cc2F)c1
REMARK SMILES IDX 18 1 19 2 20 3 21 4 97 5 98 6 99 7 17 8 13 9 14 10 100 11
REMARK SMILES IDX 15 12 16 13 12 14 10 15 9 16 11 18 8 19 7 20 6 21 5 22 4 23
REMARK SMILES IDX 3 24 2 25 1 26 22 27 23 28 24 29 25 30 26 31 27 33 28 34
REMARK SMILES IDX 29 35 30 36 31 37 32 38 33 40 34 41 35 42 96 43 36 44 95 45
REMARK SMILES IDX 37 46 38 47 39 48 89 49 40 50 94 51 88 52 90 53 41 54 93 55
REMARK SMILES IDX 87 56 86 57 42 59 74 60 54 61 73 62 55 63 58 64 72 65 91 66
REMARK SMILES IDX 56 67 57 68 71 70 92 71 59 72 43 73 44 74 52 75 45 76 51 77
REMARK SMILES IDX 53 78 50 79 46 80 47 81 48 82 49 83 75 84 76 85 84 86 77 87
REMARK SMILES IDX 83 88 85 89 82 90 78 91 79 92 80 93 81 94 60 95 61 96 69 97
REMARK SMILES IDX 62 98 68 99 70 100 67 101 63 102 64 103 65 104 66 105
REMARK H PARENT 9 17 26 32 31 39 90 58 58 69
REMARK Flexibility Score: inf
ROOT
ATOM      1  C   UNL     1      -6.168 -11.321   0.623  1.00  0.00     0.018 A 
ATOM      2  C   UNL     1      -7.210 -12.149   1.071  1.00  0.00     0.012 A 
ATOM      3  C   UNL     1      -8.219 -12.597   0.210  1.00  0.00     0.005 A 
ATOM      4  C   UNL     1      -8.278 -12.167  -1.117  1.00  0.00    -0.033 A 
ATOM      5  C   UNL     1      -7.225 -11.370  -1.587  1.00  0.00     0.044 A 
ATOM      6  C   UNL     1      -6.186 -10.981  -0.738  1.00  0.00     0.131 A 
ATOM      7  F   UNL     1      -5.190 -10.258  -1.275  1.00  0.00    -0.206 F 
ENDROOT
BRANCH   1   8
ATOM      8  C   UNL     1      -5.141 -10.823   1.565  1.00  0.00    -0.012 A 
ATOM      9  C   UNL     1      -3.649  -9.070   2.353  1.00  0.00     0.133 A 
ATOM     10  C   UNL     1      -3.221  -9.855   3.416  1.00  0.00     0.047 A 
ATOM     11  C   UNL     1      -4.591  -9.537   1.434  1.00  0.00     0.056 A 
ATOM     12  C   UNL     1      -3.755 -11.128   3.570  1.00  0.00     0.004 A 
ATOM     13  C   UNL     1      -4.695 -11.607   2.650  1.00  0.00     0.009 A 
BRANCH   9  14
ATOM     14  O   UNL     1      -2.989  -7.849   2.158  1.00  0.00    -0.410 OA
BRANCH  14  15
ATOM     15  C   UNL     1      -3.756  -6.707   1.991  1.00  0.00     0.412 C 
ATOM     16  N   UNL     1      -3.005  -5.621   1.638  1.00  0.00    -0.321 N 
ATOM     17  H   UNL     1      -3.479  -4.763   1.546  1.00  0.00     0.167 HD
ATOM     18  O   UNL     1      -4.967  -6.620   2.137  1.00  0.00    -0.224 OA
BRANCH  16  19
ATOM     19  C   UNL     1      -1.578  -5.610   1.385  1.00  0.00     0.119 C 
BRANCH  19  20
ATOM     20  C   UNL     1      -1.255  -5.122  -0.027  1.00  0.00     0.021 C 
BRANCH  20  21
ATOM     21  C   UNL     1      -1.661  -3.671  -0.308  1.00  0.00     0.002 C 
BRANCH  21  22
ATOM     22  C   UNL     1      -1.077  -2.635   0.658  1.00  0.00     0.000 C 
BRANCH  22  23
ATOM     23  C   UNL     1       0.454  -2.574   0.687  1.00  0.00    -0.000 C 
BRANCH  23  24
ATOM     24  C   UNL     1       1.108  -2.143  -0.629  1.00  0.00    -0.000 C 
BRANCH  24  25
ATOM     25  C   UNL     1       0.682  -0.766  -1.147  1.00  0.00    -0.003 C 
ATOM     26  C   UNL     1       1.006   0.367  -0.185  1.00  0.00     0.004 C 
ENDBRANCH  24  25
ENDBRANCH  23  24
ENDBRANCH  22  23
ENDBRANCH  21  22
ENDBRANCH  20  21
ENDBRANCH  19  20
ENDBRANCH  16  19
ENDBRANCH  14  15
ENDBRANCH   9  14
ENDBRANCH   1   8
BRANCH   4  27
ATOM     27  C   UNL     1      -9.445 -12.483  -2.039  1.00  0.00     0.105 C 
ATOM     28  C   UNL     1      -9.961 -13.921  -1.993  1.00  0.00     0.023 C 
BRANCH  27  29
ATOM     29  C   UNL     1     -10.554 -11.418  -2.015  1.00  0.00     0.227 C 
ATOM     30  O   UNL     1     -10.690 -10.657  -2.982  1.00  0.00    -0.274 OA
ATOM     31  N   UNL     1     -11.430 -11.257  -0.986  1.00  0.00    -0.356 N 
ATOM     32  H   UNL     1     -12.124 -10.578  -1.150  1.00  0.00     0.163 HD
BRANCH  31  33
ATOM     33  C   UNL     1     -11.526 -11.904   0.306  1.00  0.00     0.116 C 
BRANCH  33  34
ATOM     34  C   UNL     1     -10.855 -11.086   1.410  1.00  0.00     0.023 C 
BRANCH  34  35
ATOM     35  C   UNL     1     -11.753 -10.044   2.074  1.00  0.00     0.023 C 
BRANCH  35  36
ATOM     36  C   UNL     1     -12.982 -10.604   2.780  1.00  0.00     0.116 C 
BRANCH  36  37
ATOM     37  N   UNL     1     -12.677 -11.589   3.809  1.00  0.00    -0.352 N 
ATOM     38  C   UNL     1     -13.350 -11.815   4.989  1.00  0.00     0.251 C 
ATOM     39  H   UNL     1     -11.896 -12.164   3.640  1.00  0.00     0.163 HD
ATOM     40  O   UNL     1     -12.920 -12.626   5.803  1.00  0.00    -0.269 OA
BRANCH  38  41
ATOM     41  C   UNL     1     -14.567 -11.026   5.274  1.00  0.00     0.039 A 
ATOM     42  C   UNL     1     -14.658 -10.332   6.483  1.00  0.00     0.014 A 
ATOM     43  C   UNL     1     -15.568 -10.901   4.308  1.00  0.00     0.014 A 
ATOM     44  C   UNL     1     -15.717  -9.445   6.686  1.00  0.00     0.010 A 
ATOM     45  C   UNL     1     -16.571  -9.953   4.477  1.00  0.00     0.010 A 
ATOM     46  C   UNL     1     -16.655  -9.212   5.666  1.00  0.00    -0.014 A 
BRANCH  46  47
ATOM     47  C   UNL     1     -17.733  -8.201   5.821  1.00  0.00     0.031 A 
ATOM     48  C   UNL     1     -19.174  -8.633   5.782  1.00  0.00     0.074 A 
ATOM     49  C   UNL     1     -17.418  -6.894   5.925  1.00  0.00     0.049 A 
ATOM     50  N   UNL     1     -20.259  -7.903   5.814  1.00  0.00    -0.248 NA
ATOM     51  C   UNL     1     -19.425 -10.076   5.654  1.00  0.00     0.031 C 
ATOM     52  C   UNL     1     -16.058  -6.349   5.925  1.00  0.00     0.029 A 
ATOM     53  N   UNL     1     -18.217  -5.784   6.042  1.00  0.00    -0.354 N 
ATOM     54  C   UNL     1     -21.319  -8.796   5.695  1.00  0.00     0.074 A 
ATOM     55  C   UNL     1     -20.741 -10.111   5.518  1.00  0.00     0.031 C 
ATOM     56  C   UNL     1     -16.118  -5.015   6.068  1.00  0.00     0.029 A 
ATOM     57  C   UNL     1     -17.516  -4.602   6.121  1.00  0.00     0.049 A 
ATOM     58  H   UNL     1     -19.200  -5.829   6.068  1.00  0.00     0.167 HD
ATOM     59  C   UNL     1     -22.651  -8.546   5.758  1.00  0.00     0.034 A 
ATOM     60  C   UNL     1     -17.952  -3.329   6.214  1.00  0.00     0.034 A 
ATOM     61  C   UNL     1     -23.208  -7.230   5.950  1.00  0.00     0.049 A 
ATOM     62  C   UNL     1     -19.438  -3.073   6.259  1.00  0.00     0.074 A 
ATOM     63  C   UNL     1     -24.537  -6.867   6.083  1.00  0.00     0.029 A 
ATOM     64  N   UNL     1     -22.467  -6.057   6.030  1.00  0.00    -0.354 N 
ATOM     65  N   UNL     1     -20.428  -3.935   6.200  1.00  0.00    -0.248 NA
ATOM     66  C   UNL     1     -19.865  -1.675   6.395  1.00  0.00     0.031 C 
ATOM     67  C   UNL     1     -24.604  -5.473   6.173  1.00  0.00     0.029 A 
ATOM     68  C   UNL     1     -23.313  -4.968   6.179  1.00  0.00     0.049 A 
ATOM     69  H   UNL     1     -21.485  -6.006   5.986  1.00  0.00     0.167 HD
ATOM     70  C   UNL     1     -21.593  -3.183   6.326  1.00  0.00     0.074 A 
ATOM     71  C   UNL     1     -21.181  -1.803   6.479  1.00  0.00     0.031 C 
ATOM     72  C   UNL     1     -22.887  -3.595   6.321  1.00  0.00     0.034 A 
BRANCH  59  73
ATOM     73  C   UNL     1     -23.585  -9.722   5.595  1.00  0.00     0.023 A 
ATOM     74  C   UNL     1     -23.579 -10.801   6.498  1.00  0.00     0.031 A 
ATOM     75  C   UNL     1     -24.471  -9.785   4.505  1.00  0.00     0.131 A 
ATOM     76  C   UNL     1     -24.375 -11.928   6.250  1.00  0.00     0.055 A 
ATOM     77  C   UNL     1     -25.327 -10.872   4.313  1.00  0.00     0.041 A 
ATOM     78  F   UNL     1     -24.509  -8.797   3.597  1.00  0.00    -0.206 F 
ATOM     79  C   UNL     1     -25.270 -11.960   5.179  1.00  0.00     0.022 A 
BRANCH  76  80
ATOM     80  S   UNL     1     -24.110 -13.413   7.258  1.00  0.00     0.124 S 
ATOM     81  O   UNL     1     -22.701 -13.697   6.998  1.00  0.00    -0.237 OA
ATOM     82  O   UNL     1     -24.430 -12.944   8.601  1.00  0.00    -0.237 OA
ATOM     83  O   UNL     1     -25.048 -14.382   6.695  1.00  0.00    -0.744 OA
ENDBRANCH  76  80
ENDBRANCH  59  73
BRANCH  60  84
ATOM     84  C   UNL     1     -16.982  -2.196   6.266  1.00  0.00     0.023 A 
ATOM     85  C   UNL     1     -16.892  -1.373   7.399  1.00  0.00     0.031 A 
ATOM     86  C   UNL     1     -16.163  -1.891   5.164  1.00  0.00     0.131 A 
ATOM     87  C   UNL     1     -16.042  -0.256   7.389  1.00  0.00     0.055 A 
ATOM     88  C   UNL     1     -15.277  -0.812   5.179  1.00  0.00     0.041 A 
ATOM     89  F   UNL     1     -16.206  -2.647   4.056  1.00  0.00    -0.206 F 
ATOM     90  C   UNL     1     -15.223   0.022   6.292  1.00  0.00     0.022 A 
BRANCH  87  91
ATOM     91  S   UNL     1     -16.088   0.885   8.799  1.00  0.00     0.124 S 
ATOM     92  O   UNL     1     -17.492   1.281   8.813  1.00  0.00    -0.237 OA
ATOM     93  O   UNL     1     -15.651   0.028   9.896  1.00  0.00    -0.237 OA
ATOM     94  O   UNL     1     -15.146   1.935   8.418  1.00  0.00    -0.744 OA
ENDBRANCH  87  91
ENDBRANCH  60  84
BRANCH  72  95
ATOM     95  C   UNL     1     -23.945  -2.540   6.536  1.00  0.00     0.023 A 
ATOM     96  C   UNL     1     -24.180  -1.522   5.596  1.00  0.00     0.031 A 
ATOM     97  C   UNL     1     -24.724  -2.552   7.707  1.00  0.00     0.131 A 
ATOM     98  C   UNL     1     -25.130  -0.526   5.868  1.00  0.00     0.055 A 
ATOM     99  C   UNL     1     -25.711  -1.595   7.943  1.00  0.00     0.041 A 
ATOM    100  F   UNL     1     -24.540  -3.499   8.641  1.00  0.00    -0.206 F 
ATOM    101  C   UNL     1     -25.909  -0.567   7.027  1.00  0.00     0.022 A 
BRANCH  98 102
ATOM    102  S   UNL     1     -25.268   0.879   4.730  1.00  0.00     0.124 S 
ATOM    103  O   UNL     1     -23.916   1.427   4.759  1.00  0.00    -0.237 OA
ATOM    104  O   UNL     1     -25.669   0.234   3.484  1.00  0.00    -0.237 OA
ATOM    105  O   UNL     1     -26.292   1.721   5.348  1.00  0.00    -0.744 OA
ENDBRANCH  98 102
ENDBRANCH  72  95
ENDBRANCH  46  47
ENDBRANCH  38  41
ENDBRANCH  36  37
ENDBRANCH  35  36
ENDBRANCH  34  35
ENDBRANCH  33  34
ENDBRANCH  31  33
ENDBRANCH  27  29
ENDBRANCH   4  27
TORSDOF 25
