REMARK SMILES COc1ccc(OCc2nc(C)no2)c(/C=C/C(=O)NCCCCNC(=O)c2ccc(-c3c4nc(c(-c5cc(S(=O)(=O)[O-])ccc5F)c5ccc([nH]5)c(-c5cc(S(=O)(=O)[O-])ccc5F)c5nc(c(-c6cc(S(=O)(=O)[O-])ccc6F)c6ccc3[nH]6)C=C5)C=C4)cc2)c1
REMARK SMILES IDX 22 1 21 2 20 3 18 4 19 5 17 7 16 8 15 9 3 10 4 11 91 12 5 13
REMARK SMILES IDX 6 14 2 15 1 16 7 17 8 18 9 19 10 20 14 21 11 22 13 23 12 24
REMARK SMILES IDX 23 25 24 26 25 27 26 28 27 30 28 31 29 32 90 33 30 34 89 35
REMARK SMILES IDX 31 36 32 37 33 38 83 39 34 40 88 41 82 42 84 43 35 44 87 45
REMARK SMILES IDX 81 46 80 47 36 49 68 50 48 51 67 52 49 53 52 54 66 55 85 56
REMARK SMILES IDX 50 57 51 58 65 60 86 61 53 62 37 63 38 64 46 65 39 66 45 67
REMARK SMILES IDX 47 68 44 69 40 70 41 71 42 72 43 73 69 74 70 75 78 76 71 77
REMARK SMILES IDX 77 78 79 79 76 80 72 81 73 82 74 83 75 84 54 85 55 86 63 87
REMARK SMILES IDX 56 88 62 89 64 90 61 91 57 92 58 93 59 94 60 95
REMARK H PARENT 20 6 25 29 84 48 52 59
REMARK Flexibility Score: inf
ROOT
ATOM      1  C   UNL     1       7.277   1.944   1.644  1.00  0.00     0.023 C 
ENDROOT
BRANCH   1   2
ATOM      2  C   UNL     1       6.754   1.351   2.948  1.00  0.00     0.116 C 
BRANCH   2   3
ATOM      3  N   UNL     1       6.864   2.294   4.043  1.00  0.00    -0.353 N 
ATOM      4  C   UNL     1       6.073   3.360   4.340  1.00  0.00     0.244 C 
ATOM      5  O   UNL     1       6.397   4.168   5.206  1.00  0.00    -0.270 OA
ATOM      6  H   UNL     1       7.618   2.143   4.659  1.00  0.00     0.163 HD
BRANCH   4   7
ATOM      7  C   UNL     1       4.794   3.559   3.622  1.00  0.00     0.072 C 
ATOM      8  C   UNL     1       3.877   2.583   3.647  1.00  0.00     0.018 C 
BRANCH   8   9
ATOM      9  C   UNL     1       2.482   2.740   3.240  1.00  0.00     0.020 A 
ATOM     10  C   UNL     1       0.831   2.180   1.530  1.00  0.00     0.119 A 
ATOM     11  C   UNL     1      -0.140   2.861   2.254  1.00  0.00     0.050 A 
ATOM     12  C   UNL     1       2.143   2.154   2.002  1.00  0.00     0.058 A 
ATOM     13  C   UNL     1       0.183   3.432   3.485  1.00  0.00     0.051 A 
ATOM     14  C   UNL     1       1.479   3.344   4.017  1.00  0.00     0.127 A 
BRANCH  10  15
ATOM     15  O   UNL     1       0.412   1.602   0.364  1.00  0.00    -0.497 OA
ATOM     16  C   UNL     1       1.024   0.346   0.076  1.00  0.00     0.278 C 
ENDBRANCH  10  15
BRANCH  14  17
ATOM     17  O   UNL     1       1.532   3.852   5.287  1.00  0.00    -0.483 OA
BRANCH  17  18
ATOM     18  C   UNL     1       2.618   3.620   6.195  1.00  0.00     0.329 C 
BRANCH  18  19
ATOM     19  C   UNL     1       2.869   2.176   6.447  1.00  0.00     0.264 A 
ATOM     20  N   UNL     1       2.176   1.103   6.121  1.00  0.00    -0.193 NA
ATOM     21  O   UNL     1       4.104   1.877   6.955  1.00  0.00    -0.336 OA
ATOM     22  C   UNL     1       3.066   0.094   6.376  1.00  0.00     0.169 A 
ATOM     23  N   UNL     1       4.234   0.488   6.896  1.00  0.00    -0.063 NA
ATOM     24  C   UNL     1       2.798  -1.303   5.989  1.00  0.00     0.093 C 
ENDBRANCH  18  19
ENDBRANCH  17  18
ENDBRANCH  14  17
ENDBRANCH   8   9
ENDBRANCH   4   7
ENDBRANCH   2   3
ENDBRANCH   1   2
BRANCH   1  25
ATOM     25  C   UNL     1       8.803   1.962   1.539  1.00  0.00     0.023 C 
BRANCH  25  26
ATOM     26  C   UNL     1       9.476   0.603   1.698  1.00  0.00     0.116 C 
BRANCH  26  27
ATOM     27  N   UNL     1       8.912  -0.428   0.838  1.00  0.00    -0.352 N 
ATOM     28  C   UNL     1       9.546  -1.522   0.297  1.00  0.00     0.251 C 
ATOM     29  H   UNL     1       7.958  -0.330   0.617  1.00  0.00     0.163 HD
ATOM     30  O   UNL     1       8.957  -2.256  -0.484  1.00  0.00    -0.269 OA
BRANCH  28  31
ATOM     31  C   UNL     1      10.961  -1.756   0.644  1.00  0.00     0.039 A 
ATOM     32  C   UNL     1      11.898  -1.862  -0.385  1.00  0.00     0.014 A 
ATOM     33  C   UNL     1      11.360  -1.789   1.983  1.00  0.00     0.014 A 
ATOM     34  C   UNL     1      13.255  -1.932  -0.069  1.00  0.00     0.010 A 
ATOM     35  C   UNL     1      12.715  -1.791   2.293  1.00  0.00     0.010 A 
ATOM     36  C   UNL     1      13.674  -1.859   1.270  1.00  0.00    -0.014 A 
BRANCH  36  37
ATOM     37  C   UNL     1      15.114  -1.856   1.623  1.00  0.00     0.031 A 
ATOM     38  C   UNL     1      15.692  -2.997   2.410  1.00  0.00     0.074 A 
ATOM     39  C   UNL     1      15.876  -0.792   1.304  1.00  0.00     0.049 A 
ATOM     40  N   UNL     1      16.899  -3.147   2.890  1.00  0.00    -0.248 NA
ATOM     41  C   UNL     1      14.772  -4.098   2.732  1.00  0.00     0.031 C 
ATOM     42  C   UNL     1      15.406   0.402   0.596  1.00  0.00     0.029 A 
ATOM     43  N   UNL     1      17.200  -0.533   1.548  1.00  0.00    -0.354 N 
ATOM     44  C   UNL     1      16.882  -4.355   3.580  1.00  0.00     0.074 A 
ATOM     45  C   UNL     1      15.524  -4.853   3.517  1.00  0.00     0.031 C 
ATOM     46  C   UNL     1      16.429   1.260   0.457  1.00  0.00     0.029 A 
ATOM     47  C   UNL     1      17.615   0.696   1.092  1.00  0.00     0.049 A 
ATOM     48  H   UNL     1      17.797  -1.167   2.007  1.00  0.00     0.167 HD
ATOM     49  C   UNL     1      17.911  -5.002   4.183  1.00  0.00     0.034 A 
ATOM     50  C   UNL     1      18.814   1.304   1.187  1.00  0.00     0.034 A 
ATOM     51  C   UNL     1      19.257  -4.485   4.232  1.00  0.00     0.049 A 
ATOM     52  C   UNL     1      19.946   0.572   1.859  1.00  0.00     0.074 A 
ATOM     53  C   UNL     1      20.390  -5.070   4.771  1.00  0.00     0.029 A 
ATOM     54  N   UNL     1      19.652  -3.251   3.728  1.00  0.00    -0.354 N 
ATOM     55  N   UNL     1      19.934  -0.599   2.454  1.00  0.00    -0.248 NA
ATOM     56  C   UNL     1      21.256   1.235   1.857  1.00  0.00     0.031 C 
ATOM     57  C   UNL     1      21.453  -4.167   4.645  1.00  0.00     0.029 A 
ATOM     58  C   UNL     1      21.003  -3.046   3.965  1.00  0.00     0.049 A 
ATOM     59  H   UNL     1      19.058  -2.614   3.269  1.00  0.00     0.167 HD
ATOM     60  C   UNL     1      21.240  -0.822   2.879  1.00  0.00     0.074 A 
ATOM     61  C   UNL     1      22.014   0.328   2.457  1.00  0.00     0.031 C 
ATOM     62  C   UNL     1      21.754  -1.883   3.553  1.00  0.00     0.034 A 
BRANCH  49  63
ATOM     63  C   UNL     1      17.594  -6.320   4.850  1.00  0.00     0.023 A 
ATOM     64  C   UNL     1      17.085  -7.409   4.118  1.00  0.00     0.031 A 
ATOM     65  C   UNL     1      17.733  -6.475   6.240  1.00  0.00     0.131 A 
ATOM     66  C   UNL     1      16.636  -8.557   4.786  1.00  0.00     0.055 A 
ATOM     67  C   UNL     1      17.372  -7.658   6.889  1.00  0.00     0.041 A 
ATOM     68  F   UNL     1      18.195  -5.468   6.998  1.00  0.00    -0.206 F 
ATOM     69  C   UNL     1      16.799  -8.700   6.165  1.00  0.00     0.022 A 
BRANCH  66  70
ATOM     70  S   UNL     1      15.671  -9.776   3.851  1.00  0.00     0.124 S 
ATOM     71  O   UNL     1      14.564  -8.960   3.358  1.00  0.00    -0.237 OA
ATOM     72  O   UNL     1      16.626 -10.232   2.848  1.00  0.00    -0.237 OA
ATOM     73  O   UNL     1      15.302 -10.768   4.860  1.00  0.00    -0.744 OA
ENDBRANCH  66  70
ENDBRANCH  49  63
BRANCH  50  74
ATOM     74  C   UNL     1      19.001   2.677   0.642  1.00  0.00     0.023 A 
ATOM     75  C   UNL     1      19.819   2.912  -0.474  1.00  0.00     0.031 A 
ATOM     76  C   UNL     1      18.365   3.780   1.240  1.00  0.00     0.131 A 
ATOM     77  C   UNL     1      20.009   4.223  -0.936  1.00  0.00     0.055 A 
ATOM     78  C   UNL     1      18.524   5.077   0.751  1.00  0.00     0.041 A 
ATOM     79  F   UNL     1      17.562   3.606   2.302  1.00  0.00    -0.206 F 
ATOM     80  C   UNL     1      19.359   5.306  -0.339  1.00  0.00     0.022 A 
BRANCH  77  81
ATOM     81  S   UNL     1      21.167   4.504  -2.304  1.00  0.00     0.124 S 
ATOM     82  O   UNL     1      22.413   3.985  -1.751  1.00  0.00    -0.237 OA
ATOM     83  O   UNL     1      20.565   3.718  -3.376  1.00  0.00    -0.237 OA
ATOM     84  O   UNL     1      21.123   5.952  -2.496  1.00  0.00    -0.744 OA
ENDBRANCH  77  81
ENDBRANCH  50  74
BRANCH  62  85
ATOM     85  C   UNL     1      23.235  -1.853   3.841  1.00  0.00     0.023 A 
ATOM     86  C   UNL     1      23.793  -0.932   4.744  1.00  0.00     0.031 A 
ATOM     87  C   UNL     1      24.098  -2.755   3.194  1.00  0.00     0.131 A 
ATOM     88  C   UNL     1      25.183  -0.898   4.936  1.00  0.00     0.055 A 
ATOM     89  C   UNL     1      25.473  -2.754   3.432  1.00  0.00     0.041 A 
ATOM     90  F   UNL     1      23.616  -3.654   2.321  1.00  0.00    -0.206 F 
ATOM     91  C   UNL     1      26.024  -1.814   4.298  1.00  0.00     0.022 A 
BRANCH  88  92
ATOM     92  S   UNL     1      25.888   0.415   5.970  1.00  0.00     0.124 S 
ATOM     93  O   UNL     1      25.441   1.619   5.277  1.00  0.00    -0.237 OA
ATOM     94  O   UNL     1      25.270   0.158   7.266  1.00  0.00    -0.237 OA
ATOM     95  O   UNL     1      27.327   0.163   5.909  1.00  0.00    -0.744 OA
ENDBRANCH  88  92
ENDBRANCH  62  85
ENDBRANCH  36  37
ENDBRANCH  28  31
ENDBRANCH  26  27
ENDBRANCH  25  26
ENDBRANCH   1  25
TORSDOF 19
