REMARK SMILES O=C(CC1(C(=O)NCCCCNC(=O)c2ccc(-c3c4nc(c(-c5cc(S(=O)(=O)[O-])ccc5F)c5ccc([nH]5)c(-c5cc(S(=O)(=O)[O-])ccc5F)c5nc(c(-c6cc(S(=O)(=O)[O-])ccc6F)c6ccc3[nH]6)C=C5)C=C4)cc2)CCCCC1)Nc1ccc(N2CCOC2=O)cc1
REMARK SMILES IDX 9 1 8 2 7 3 5 4 6 5 4 7 78 8 82 9 79 10 81 11 80 12 3 13
REMARK SMILES IDX 2 14 1 15 83 16 84 18 85 19 95 20 86 21 94 22 87 23 88 24
REMARK SMILES IDX 89 25 92 26 90 27 91 28 93 29 10 30 11 31 12 32 13 33 14 35
REMARK SMILES IDX 15 36 16 37 77 38 17 39 76 40 18 41 19 42 20 43 70 44 21 45
REMARK SMILES IDX 75 46 69 47 71 48 22 49 74 50 68 51 67 52 23 54 55 55 35 56
REMARK SMILES IDX 54 57 36 58 39 59 53 60 72 61 37 62 38 63 52 65 73 66 40 67
REMARK SMILES IDX 24 68 25 69 33 70 26 71 32 72 34 73 31 74 27 75 28 76 29 77
REMARK SMILES IDX 30 78 56 79 57 80 65 81 58 82 64 83 66 84 63 85 59 86 60 87
REMARK SMILES IDX 61 88 62 89 41 90 42 91 50 92 43 93 49 94 51 95 48 96 44 97
REMARK SMILES IDX 45 98 46 99 47 100
REMARK H PARENT 7 6 83 17 12 34 71 53 39 64
REMARK Flexibility Score: inf
ROOT
ATOM      1  C   UNL     1       4.722  -5.077  -2.361  1.00  0.00     0.023 C 
ENDROOT
BRANCH   1   2
ATOM      2  C   UNL     1       5.309  -3.719  -1.978  1.00  0.00     0.116 C 
BRANCH   2   3
ATOM      3  N   UNL     1       4.328  -2.666  -2.069  1.00  0.00    -0.356 N 
ATOM      4  C   UNL     1       3.507  -2.146  -1.126  1.00  0.00     0.226 C 
ATOM      5  O   UNL     1       2.380  -1.878  -1.554  1.00  0.00    -0.274 OA
ATOM      6  H   UNL     1       4.241  -2.259  -2.961  1.00  0.00     0.163 HD
BRANCH   4   7
ATOM      7  C   UNL     1       3.865  -1.898   0.371  1.00  0.00     0.058 C 
ATOM      8  C   UNL     1       5.341  -1.540   0.699  1.00  0.00     0.017 C 
ATOM      9  C   UNL     1       3.414  -3.128   1.201  1.00  0.00     0.017 C 
ATOM     10  C   UNL     1       6.353  -2.654   0.960  1.00  0.00     0.001 C 
ATOM     11  C   UNL     1       4.369  -4.309   1.220  1.00  0.00     0.001 C 
ATOM     12  C   UNL     1       5.799  -3.933   1.587  1.00  0.00     0.000 C 
BRANCH   7  13
ATOM     13  C   UNL     1       3.009  -0.656   0.907  1.00  0.00     0.117 C 
BRANCH  13  14
ATOM     14  C   UNL     1       2.183   0.278   0.021  1.00  0.00     0.225 C 
ATOM     15  O   UNL     1       1.038   0.571   0.371  1.00  0.00    -0.275 OA
ATOM     16  N   UNL     1       2.840   0.798  -1.078  1.00  0.00    -0.326 N 
ATOM     17  H   UNL     1       3.799   0.601  -1.179  1.00  0.00     0.169 HD
BRANCH  16  18
ATOM     18  C   UNL     1       2.217   1.593  -2.062  1.00  0.00     0.041 A 
ATOM     19  C   UNL     1       2.632   1.422  -3.386  1.00  0.00     0.028 A 
ATOM     20  C   UNL     1       1.183   2.487  -1.783  1.00  0.00     0.028 A 
ATOM     21  C   UNL     1       1.935   2.041  -4.428  1.00  0.00     0.028 A 
ATOM     22  C   UNL     1       0.549   3.181  -2.819  1.00  0.00     0.028 A 
ATOM     23  C   UNL     1       0.888   2.924  -4.149  1.00  0.00     0.047 A 
BRANCH  23  24
ATOM     24  N   UNL     1       0.134   3.491  -5.186  1.00  0.00    -0.274 N 
ATOM     25  C   UNL     1      -0.316   2.747  -6.319  1.00  0.00     0.171 C 
ATOM     26  C   UNL     1      -0.323   4.788  -5.249  1.00  0.00     0.414 C 
ATOM     27  C   UNL     1      -1.419   3.631  -6.851  1.00  0.00     0.257 C 
ATOM     28  O   UNL     1      -1.121   4.939  -6.354  1.00  0.00    -0.447 OA
ATOM     29  O   UNL     1      -0.062   5.716  -4.493  1.00  0.00    -0.224 OA
ENDBRANCH  23  24
ENDBRANCH  16  18
ENDBRANCH  13  14
ENDBRANCH   7  13
ENDBRANCH   4   7
ENDBRANCH   2   3
ENDBRANCH   1   2
BRANCH   1  30
ATOM     30  C   UNL     1       4.774  -5.385  -3.849  1.00  0.00     0.023 C 
BRANCH  30  31
ATOM     31  C   UNL     1       6.163  -5.288  -4.462  1.00  0.00     0.116 C 
BRANCH  31  32
ATOM     32  N   UNL     1       7.168  -6.091  -3.772  1.00  0.00    -0.352 N 
ATOM     33  C   UNL     1       8.158  -6.863  -4.338  1.00  0.00     0.251 C 
ATOM     34  H   UNL     1       7.134  -6.079  -2.788  1.00  0.00     0.163 HD
ATOM     35  O   UNL     1       8.873  -7.578  -3.648  1.00  0.00    -0.269 OA
BRANCH  33  36
ATOM     36  C   UNL     1       8.291  -6.830  -5.807  1.00  0.00     0.039 A 
ATOM     37  C   UNL     1       8.165  -8.016  -6.528  1.00  0.00     0.014 A 
ATOM     38  C   UNL     1       8.366  -5.595  -6.456  1.00  0.00     0.014 A 
ATOM     39  C   UNL     1       8.028  -7.953  -7.915  1.00  0.00     0.010 A 
ATOM     40  C   UNL     1       8.120  -5.532  -7.820  1.00  0.00     0.010 A 
ATOM     41  C   UNL     1       7.950  -6.709  -8.565  1.00  0.00    -0.014 A 
BRANCH  41  42
ATOM     42  C   UNL     1       7.705  -6.614 -10.027  1.00  0.00     0.031 A 
ATOM     43  C   UNL     1       8.729  -5.946 -10.905  1.00  0.00     0.074 A 
ATOM     44  C   UNL     1       6.547  -7.064 -10.550  1.00  0.00     0.049 A 
ATOM     45  N   UNL     1       8.677  -5.685 -12.185  1.00  0.00    -0.248 NA
ATOM     46  C   UNL     1       9.957  -5.475 -10.246  1.00  0.00     0.031 C 
ATOM     47  C   UNL     1       5.460  -7.689  -9.791  1.00  0.00     0.029 A 
ATOM     48  N   UNL     1       6.086  -7.065 -11.843  1.00  0.00    -0.354 N 
ATOM     49  C   UNL     1       9.857  -5.011 -12.480  1.00  0.00     0.074 A 
ATOM     50  C   UNL     1      10.562  -4.831 -11.231  1.00  0.00     0.031 C 
ATOM     51  C   UNL     1       4.480  -8.046 -10.637  1.00  0.00     0.029 A 
ATOM     52  C   UNL     1       4.838  -7.628 -11.988  1.00  0.00     0.049 A 
ATOM     53  H   UNL     1       6.600  -6.696 -12.597  1.00  0.00     0.167 HD
ATOM     54  C   UNL     1      10.325  -4.609 -13.686  1.00  0.00     0.034 A 
ATOM     55  C   UNL     1       4.065  -7.777 -13.084  1.00  0.00     0.034 A 
ATOM     56  C   UNL     1       9.613  -4.811 -14.923  1.00  0.00     0.049 A 
ATOM     57  C   UNL     1       4.590  -7.285 -14.411  1.00  0.00     0.074 A 
ATOM     58  C   UNL     1      10.014  -4.493 -16.208  1.00  0.00     0.029 A 
ATOM     59  N   UNL     1       8.348  -5.376 -15.029  1.00  0.00    -0.354 N 
ATOM     60  N   UNL     1       5.733  -6.697 -14.681  1.00  0.00    -0.248 NA
ATOM     61  C   UNL     1       3.725  -7.483 -15.581  1.00  0.00     0.031 C 
ATOM     62  C   UNL     1       8.961  -4.786 -17.079  1.00  0.00     0.029 A 
ATOM     63  C   UNL     1       7.938  -5.377 -16.353  1.00  0.00     0.049 A 
ATOM     64  H   UNL     1       7.819  -5.723 -14.275  1.00  0.00     0.167 HD
ATOM     65  C   UNL     1       5.737  -6.489 -16.058  1.00  0.00     0.074 A 
ATOM     66  C   UNL     1       4.490  -7.027 -16.561  1.00  0.00     0.031 C 
ATOM     67  C   UNL     1       6.687  -5.911 -16.838  1.00  0.00     0.034 A 
BRANCH  54  68
ATOM     68  C   UNL     1      11.654  -3.893 -13.713  1.00  0.00     0.023 A 
ATOM     69  C   UNL     1      12.837  -4.514 -13.273  1.00  0.00     0.031 A 
ATOM     70  C   UNL     1      11.738  -2.562 -14.155  1.00  0.00     0.131 A 
ATOM     71  C   UNL     1      14.030  -3.781 -13.206  1.00  0.00     0.055 A 
ATOM     72  C   UNL     1      12.948  -1.866 -14.174  1.00  0.00     0.041 A 
ATOM     73  F   UNL     1      10.639  -1.906 -14.562  1.00  0.00    -0.206 F 
ATOM     74  C   UNL     1      14.101  -2.470 -13.681  1.00  0.00     0.022 A 
BRANCH  71  75
ATOM     75  S   UNL     1      15.445  -4.512 -12.338  1.00  0.00     0.124 S 
ATOM     76  O   UNL     1      14.885  -4.748 -11.009  1.00  0.00    -0.237 OA
ATOM     77  O   UNL     1      15.724  -5.701 -13.134  1.00  0.00    -0.237 OA
ATOM     78  O   UNL     1      16.463  -3.465 -12.399  1.00  0.00    -0.744 OA
ENDBRANCH  71  75
ENDBRANCH  54  68
BRANCH  55  79
ATOM     79  C   UNL     1       2.715  -8.406 -12.984  1.00  0.00     0.023 A 
ATOM     80  C   UNL     1       2.417  -9.598 -13.664  1.00  0.00     0.031 A 
ATOM     81  C   UNL     1       1.683  -7.796 -12.248  1.00  0.00     0.131 A 
ATOM     82  C   UNL     1       1.111 -10.112 -13.640  1.00  0.00     0.055 A 
ATOM     83  C   UNL     1       0.401  -8.345 -12.175  1.00  0.00     0.041 A 
ATOM     84  F   UNL     1       1.909  -6.654 -11.577  1.00  0.00    -0.206 F 
ATOM     85  C   UNL     1       0.105  -9.503 -12.887  1.00  0.00     0.022 A 
BRANCH  82  86
ATOM     86  S   UNL     1       0.718 -11.534 -14.696  1.00  0.00     0.124 S 
ATOM     87  O   UNL     1       1.077 -11.030 -16.016  1.00  0.00    -0.237 OA
ATOM     88  O   UNL     1       1.586 -12.569 -14.144  1.00  0.00    -0.237 OA
ATOM     89  O   UNL     1      -0.712 -11.738 -14.472  1.00  0.00    -0.744 OA
ENDBRANCH  82  86
ENDBRANCH  55  79
BRANCH  67  90
ATOM     90  C   UNL     1       6.432  -5.877 -18.326  1.00  0.00     0.023 A 
ATOM     91  C   UNL     1       5.386  -5.122 -18.884  1.00  0.00     0.031 A 
ATOM     92  C   UNL     1       7.257  -6.609 -19.199  1.00  0.00     0.131 A 
ATOM     93  C   UNL     1       5.157  -5.162 -20.267  1.00  0.00     0.055 A 
ATOM     94  C   UNL     1       7.069  -6.588 -20.581  1.00  0.00     0.041 A 
ATOM     95  F   UNL     1       8.270  -7.351 -18.721  1.00  0.00    -0.206 F 
ATOM     96  C   UNL     1       6.005  -5.872 -21.121  1.00  0.00     0.022 A 
BRANCH  93  97
ATOM     97  S   UNL     1       3.676  -4.351 -20.927  1.00  0.00     0.124 S 
ATOM     98  O   UNL     1       2.609  -5.031 -20.200  1.00  0.00    -0.237 OA
ATOM     99  O   UNL     1       3.899  -2.954 -20.570  1.00  0.00    -0.237 OA
ATOM    100  O   UNL     1       3.735  -4.641 -22.358  1.00  0.00    -0.744 OA
ENDBRANCH  93  97
ENDBRANCH  67  90
ENDBRANCH  41  42
ENDBRANCH  33  36
ENDBRANCH  31  32
ENDBRANCH  30  31
ENDBRANCH   1  30
TORSDOF 18
