REMARK SMILES O=C(CCCc1nc(-c2ccc(Cl)c(Cl)c2)c(-c2ccccc2)o1)NCCCCNC(=O)c1ccc(-c2c3nc(c(-c4cc(S(=O)(=O)[O-])ccc4F)c4ccc([nH]4)c(-c4cc(S(=O)(=O)[O-])ccc4F)c4nc(c(-c5cc(S(=O)(=O)[O-])ccc5F)c5ccc2[nH]5)C=C4)C=C3)cc1
REMARK SMILES IDX 27 1 26 2 25 3 1 4 2 5 3 7 4 8 5 9 6 10 7 11 24 12 8 13
REMARK SMILES IDX 17 14 9 15 10 16 16 17 11 18 14 19 12 20 15 21 13 22 18 23
REMARK SMILES IDX 19 24 23 25 20 26 22 27 21 28 28 29 29 30 30 31 31 32 32 34
REMARK SMILES IDX 33 35 34 36 95 37 35 38 94 39 36 40 37 41 38 42 88 43 39 44
REMARK SMILES IDX 93 45 87 46 89 47 40 48 92 49 86 50 85 51 41 53 73 54 53 55
REMARK SMILES IDX 72 56 54 57 57 58 71 59 90 60 55 61 56 62 70 64 91 65 58 66
REMARK SMILES IDX 42 67 43 68 51 69 44 70 50 71 52 72 49 73 45 74 46 75 47 76
REMARK SMILES IDX 48 77 74 78 75 79 83 80 76 81 82 82 84 83 81 84 77 85 78 86
REMARK SMILES IDX 79 87 80 88 59 89 60 90 68 91 61 92 67 93 69 94 66 95 62 96
REMARK SMILES IDX 63 97 64 98 65 99
REMARK H PARENT 25 6 30 33 89 52 57 63
REMARK Flexibility Score: inf
ROOT
ATOM      1  C   UNL     1       2.407   0.790   3.552  1.00  0.00     0.023 C 
ENDROOT
BRANCH   1   2
ATOM      2  C   UNL     1       1.968   1.291   2.178  1.00  0.00     0.116 C 
BRANCH   2   3
ATOM      3  N   UNL     1       2.558   0.526   1.101  1.00  0.00    -0.356 N 
ATOM      4  O   UNL     1       0.808   0.807  -0.360  1.00  0.00    -0.275 OA
ATOM      5  C   UNL     1       1.926   0.369  -0.110  1.00  0.00     0.220 C 
ATOM      6  H   UNL     1       3.437   0.106   1.239  1.00  0.00     0.163 HD
BRANCH   5   7
ATOM      7  C   UNL     1       2.731  -0.402  -1.131  1.00  0.00     0.100 C 
BRANCH   7   8
ATOM      8  C   UNL     1       3.813   0.445  -1.815  1.00  0.00     0.020 C 
BRANCH   8   9
ATOM      9  C   UNL     1       5.024   0.855  -0.962  1.00  0.00     0.098 C 
BRANCH   9  10
ATOM     10  C   UNL     1       5.739  -0.302  -0.362  1.00  0.00     0.195 A 
ATOM     11  N   UNL     1       5.490  -1.587  -0.520  1.00  0.00    -0.213 NA
ATOM     12  O   UNL     1       6.763  -0.021   0.508  1.00  0.00    -0.440 OA
ATOM     13  C   UNL     1       6.390  -2.199   0.306  1.00  0.00     0.117 A 
ATOM     14  C   UNL     1       7.208  -1.259   0.896  1.00  0.00     0.162 A 
BRANCH  13  15
ATOM     15  C   UNL     1       6.463  -3.629   0.487  1.00  0.00     0.006 A 
ATOM     16  C   UNL     1       6.584  -4.462  -0.629  1.00  0.00     0.012 A 
ATOM     17  C   UNL     1       6.412  -4.190   1.770  1.00  0.00     0.032 A 
ATOM     18  C   UNL     1       6.681  -5.844  -0.463  1.00  0.00     0.023 A 
ATOM     19  C   UNL     1       6.494  -5.576   1.936  1.00  0.00     0.060 A 
ATOM     20  C   UNL     1       6.635  -6.404   0.818  1.00  0.00     0.059 A 
ATOM     21  Cl  UNL     1       6.402  -6.199   3.545  1.00  0.00    -0.083 Cl
ATOM     22  Cl  UNL     1       6.752  -8.123   0.946  1.00  0.00    -0.083 Cl
ENDBRANCH  13  15
BRANCH  14  23
ATOM     23  C   UNL     1       8.401  -1.339   1.712  1.00  0.00     0.020 A 
ATOM     24  C   UNL     1       8.496  -0.696   2.949  1.00  0.00     0.012 A 
ATOM     25  C   UNL     1       9.457  -2.157   1.275  1.00  0.00     0.012 A 
ATOM     26  C   UNL     1       9.622  -0.899   3.749  1.00  0.00     0.001 A 
ATOM     27  C   UNL     1      10.578  -2.355   2.071  1.00  0.00     0.001 A 
ATOM     28  C   UNL     1      10.652  -1.732   3.310  1.00  0.00     0.000 A 
ENDBRANCH  14  23
ENDBRANCH   9  10
ENDBRANCH   8   9
ENDBRANCH   7   8
ENDBRANCH   5   7
ENDBRANCH   2   3
ENDBRANCH   1   2
BRANCH   1  29
ATOM     29  C   UNL     1       3.905   0.918   3.846  1.00  0.00     0.023 C 
BRANCH  29  30
ATOM     30  C   UNL     1       4.469   2.334   3.771  1.00  0.00     0.116 C 
BRANCH  30  31
ATOM     31  N   UNL     1       3.880   3.224   4.759  1.00  0.00    -0.352 N 
ATOM     32  C   UNL     1       4.486   3.986   5.729  1.00  0.00     0.251 C 
ATOM     33  H   UNL     1       2.898   3.290   4.728  1.00  0.00     0.163 HD
ATOM     34  O   UNL     1       3.792   4.535   6.583  1.00  0.00    -0.269 OA
BRANCH  32  35
ATOM     35  C   UNL     1       5.961   4.122   5.771  1.00  0.00     0.039 A 
ATOM     36  C   UNL     1       6.609   4.051   7.008  1.00  0.00     0.014 A 
ATOM     37  C   UNL     1       6.707   4.329   4.608  1.00  0.00     0.014 A 
ATOM     38  C   UNL     1       8.004   4.115   7.068  1.00  0.00     0.010 A 
ATOM     39  C   UNL     1       8.101   4.314   4.661  1.00  0.00     0.010 A 
ATOM     40  C   UNL     1       8.767   4.203   5.891  1.00  0.00    -0.014 A 
BRANCH  40  41
ATOM     41  C   UNL     1      10.256   4.175   5.933  1.00  0.00     0.031 A 
ATOM     42  C   UNL     1      11.052   5.358   5.448  1.00  0.00     0.074 A 
ATOM     43  C   UNL     1      10.893   3.067   6.363  1.00  0.00     0.049 A 
ATOM     44  N   UNL     1      12.349   5.494   5.338  1.00  0.00    -0.248 NA
ATOM     45  C   UNL     1      10.287   6.534   5.008  1.00  0.00     0.031 C 
ATOM     46  C   UNL     1      10.237   1.849   6.844  1.00  0.00     0.029 A 
ATOM     47  N   UNL     1      12.233   2.780   6.468  1.00  0.00    -0.354 N 
ATOM     48  C   UNL     1      12.556   6.764   4.807  1.00  0.00     0.074 A 
ATOM     49  C   UNL     1      11.247   7.331   4.563  1.00  0.00     0.031 C 
ATOM     50  C   UNL     1      11.173   0.964   7.223  1.00  0.00     0.029 A 
ATOM     51  C   UNL     1      12.496   1.521   6.960  1.00  0.00     0.049 A 
ATOM     52  H   UNL     1      12.940   3.417   6.215  1.00  0.00     0.167 HD
ATOM     53  C   UNL     1      13.728   7.404   4.566  1.00  0.00     0.034 A 
ATOM     54  C   UNL     1      13.666   0.879   7.157  1.00  0.00     0.034 A 
ATOM     55  C   UNL     1      15.026   6.827   4.823  1.00  0.00     0.049 A 
ATOM     56  C   UNL     1      14.952   1.586   6.810  1.00  0.00     0.074 A 
ATOM     57  C   UNL     1      16.273   7.410   4.667  1.00  0.00     0.029 A 
ATOM     58  N   UNL     1      15.250   5.533   5.277  1.00  0.00    -0.354 N 
ATOM     59  N   UNL     1      15.128   2.800   6.343  1.00  0.00    -0.248 NA
ATOM     60  C   UNL     1      16.196   0.834   7.018  1.00  0.00     0.031 C 
ATOM     61  C   UNL     1      17.247   6.445   4.943  1.00  0.00     0.029 A 
ATOM     62  C   UNL     1      16.613   5.288   5.365  1.00  0.00     0.049 A 
ATOM     63  H   UNL     1      14.545   4.885   5.503  1.00  0.00     0.167 HD
ATOM     64  C   UNL     1      16.507   2.971   6.245  1.00  0.00     0.074 A 
ATOM     65  C   UNL     1      17.111   1.739   6.707  1.00  0.00     0.031 C 
ATOM     66  C   UNL     1      17.209   4.053   5.821  1.00  0.00     0.034 A 
BRANCH  53  67
ATOM     67  C   UNL     1      13.658   8.789   3.965  1.00  0.00     0.023 A 
ATOM     68  C   UNL     1      13.045   9.860   4.638  1.00  0.00     0.031 A 
ATOM     69  C   UNL     1      14.204   9.040   2.692  1.00  0.00     0.131 A 
ATOM     70  C   UNL     1      12.927  11.109   4.008  1.00  0.00     0.055 A 
ATOM     71  C   UNL     1      14.160  10.307   2.108  1.00  0.00     0.041 A 
ATOM     72  F   UNL     1      14.783   8.054   1.990  1.00  0.00    -0.206 F 
ATOM     73  C   UNL     1      13.504  11.348   2.759  1.00  0.00     0.022 A 
BRANCH  70  74
ATOM     74  S   UNL     1      11.876  12.371   4.779  1.00  0.00     0.124 S 
ATOM     75  O   UNL     1      10.593  11.677   4.858  1.00  0.00    -0.237 OA
ATOM     76  O   UNL     1      12.553  12.612   6.048  1.00  0.00    -0.237 OA
ATOM     77  O   UNL     1      11.918  13.479   3.827  1.00  0.00    -0.744 OA
ENDBRANCH  70  74
ENDBRANCH  53  67
BRANCH  54  78
ATOM     78  C   UNL     1      13.690  -0.525   7.665  1.00  0.00     0.023 A 
ATOM     79  C   UNL     1      14.310  -0.863   8.876  1.00  0.00     0.031 A 
ATOM     80  C   UNL     1      13.146  -1.568   6.899  1.00  0.00     0.131 A 
ATOM     81  C   UNL     1      14.411  -2.212   9.257  1.00  0.00     0.055 A 
ATOM     82  C   UNL     1      13.190  -2.901   7.308  1.00  0.00     0.041 A 
ATOM     83  F   UNL     1      12.556  -1.295   5.729  1.00  0.00    -0.206 F 
ATOM     84  C   UNL     1      13.840  -3.231   8.490  1.00  0.00     0.022 A 
BRANCH  81  85
ATOM     85  S   UNL     1      15.395  -2.627  10.722  1.00  0.00     0.124 S 
ATOM     86  O   UNL     1      16.696  -2.070  10.369  1.00  0.00    -0.237 OA
ATOM     87  O   UNL     1      14.665  -1.938  11.780  1.00  0.00    -0.237 OA
ATOM     88  O   UNL     1      15.332  -4.086  10.770  1.00  0.00    -0.744 OA
ENDBRANCH  81  85
ENDBRANCH  54  78
BRANCH  66  89
ATOM     89  C   UNL     1      18.715   3.971   5.899  1.00  0.00     0.023 A 
ATOM     90  C   UNL     1      19.455   3.068   5.117  1.00  0.00     0.031 A 
ATOM     91  C   UNL     1      19.419   4.804   6.788  1.00  0.00     0.131 A 
ATOM     92  C   UNL     1      20.846   2.977   5.281  1.00  0.00     0.055 A 
ATOM     93  C   UNL     1      20.809   4.759   6.896  1.00  0.00     0.041 A 
ATOM     94  F   UNL     1      18.765   5.682   7.566  1.00  0.00    -0.206 F 
ATOM     95  C   UNL     1      21.530   3.830   6.151  1.00  0.00     0.022 A 
BRANCH  92  96
ATOM     96  S   UNL     1      21.740   1.654   4.420  1.00  0.00     0.124 S 
ATOM     97  O   UNL     1      21.067   0.459   4.920  1.00  0.00    -0.237 OA
ATOM     98  O   UNL     1      21.503   1.979   3.018  1.00  0.00    -0.237 OA
ATOM     99  O   UNL     1      23.120   1.823   4.870  1.00  0.00    -0.744 OA
ENDBRANCH  92  96
ENDBRANCH  66  89
ENDBRANCH  40  41
ENDBRANCH  32  35
ENDBRANCH  30  31
ENDBRANCH  29  30
ENDBRANCH   1  29
TORSDOF 19
