REMARK SMILES CC[C@@](C)(NC(=O)[C@@H](C)NC(=O)c1ccco1)C(=O)NCCCCNC(=O)c1ccc(-c2c3nc(c(-c4cc(S(=O)(=O)[O-])ccc4F)c4ccc([nH]4)c(-c4cc(S(=O)(=O)[O-])ccc4F)c4nc(c(-c5cc(S(=O)(=O)[O-])ccc5F)c5ccc2[nH]5)C=C4)C=C3)cc1
REMARK SMILES IDX 22 1 21 2 20 3 18 4 19 5 3 7 4 8 2 9 1 10 5 11 6 12 7 14
REMARK SMILES IDX 8 15 9 16 10 17 11 18 12 20 13 21 14 22 17 23 15 24 16 25
REMARK SMILES IDX 23 26 24 27 25 28 26 29 27 31 28 32 29 33 90 34 30 35 89 36
REMARK SMILES IDX 31 37 32 38 33 39 83 40 34 41 88 42 82 43 84 44 35 45 87 46
REMARK SMILES IDX 81 47 80 48 36 50 68 51 48 52 67 53 49 54 52 55 66 56 85 57
REMARK SMILES IDX 50 58 51 59 65 61 86 62 53 63 37 64 38 65 46 66 39 67 45 68
REMARK SMILES IDX 47 69 44 70 40 71 41 72 42 73 43 74 69 75 70 76 78 77 71 78
REMARK SMILES IDX 77 79 79 80 76 81 72 82 73 83 74 84 75 85 54 86 55 87 63 88
REMARK SMILES IDX 56 89 62 90 64 91 61 92 57 93 58 94 59 95 60 96
REMARK H PARENT 20 6 5 13 10 19 25 30 84 49 52 60
REMARK Flexibility Score: inf
ROOT
ATOM      1  C   UNL     1       2.261   4.198   4.692  1.00  0.00     0.023 C 
ENDROOT
BRANCH   1   2
ATOM      2  C   UNL     1       1.942   4.149   3.197  1.00  0.00     0.116 C 
BRANCH   2   3
ATOM      3  N   UNL     1       2.729   3.220   2.393  1.00  0.00    -0.354 N 
ATOM      4  C   UNL     1       2.424   2.025   1.798  1.00  0.00     0.245 C 
ATOM      5  O   UNL     1       3.305   1.495   1.114  1.00  0.00    -0.272 OA
ATOM      6  H   UNL     1       3.660   3.509   2.251  1.00  0.00     0.163 HD
BRANCH   4   7
ATOM      7  C   UNL     1       1.079   1.308   2.037  1.00  0.00     0.116 C 
ATOM      8  C   UNL     1      -0.063   2.155   1.418  1.00  0.00     0.045 C 
BRANCH   7   9
ATOM      9  C   UNL     1       0.933  -0.110   1.411  1.00  0.00     0.035 C 
ATOM     10  C   UNL     1       1.091  -0.243  -0.101  1.00  0.00     0.007 C 
ENDBRANCH   7   9
BRANCH   7  11
ATOM     11  N   UNL     1       0.919   1.176   3.507  1.00  0.00    -0.340 N 
ATOM     12  C   UNL     1       1.641   0.583   4.500  1.00  0.00     0.243 C 
ATOM     13  H   UNL     1       0.105   1.618   3.842  1.00  0.00     0.164 HD
ATOM     14  O   UNL     1       0.957   0.300   5.499  1.00  0.00    -0.273 OA
BRANCH  12  15
ATOM     15  C   UNL     1       3.147   0.117   4.492  1.00  0.00     0.168 C 
ATOM     16  C   UNL     1       3.288  -1.335   4.054  1.00  0.00     0.041 C 
BRANCH  15  17
ATOM     17  N   UNL     1       4.192   0.884   3.822  1.00  0.00    -0.338 N 
ATOM     18  C   UNL     1       5.317   1.501   4.319  1.00  0.00     0.287 C 
ATOM     19  H   UNL     1       4.071   0.977   2.849  1.00  0.00     0.164 HD
ATOM     20  O   UNL     1       5.956   2.189   3.508  1.00  0.00    -0.266 OA
BRANCH  18  21
ATOM     21  C   UNL     1       5.683   1.408   5.716  1.00  0.00     0.191 A 
ATOM     22  C   UNL     1       5.834   0.355   6.602  1.00  0.00     0.056 A 
ATOM     23  O   UNL     1       6.027   2.573   6.359  1.00  0.00    -0.459 OA
ATOM     24  C   UNL     1       6.280   0.907   7.832  1.00  0.00     0.043 A 
ATOM     25  C   UNL     1       6.374   2.262   7.632  1.00  0.00     0.196 A 
ENDBRANCH  18  21
ENDBRANCH  15  17
ENDBRANCH  12  15
ENDBRANCH   7  11
ENDBRANCH   4   7
ENDBRANCH   2   3
ENDBRANCH   1   2
BRANCH   1  26
ATOM     26  C   UNL     1       3.703   4.482   5.070  1.00  0.00     0.023 C 
BRANCH  26  27
ATOM     27  C   UNL     1       4.366   5.677   4.414  1.00  0.00     0.116 C 
BRANCH  27  28
ATOM     28  N   UNL     1       4.049   6.912   5.101  1.00  0.00    -0.352 N 
ATOM     29  C   UNL     1       4.857   7.712   5.875  1.00  0.00     0.251 C 
ATOM     30  H   UNL     1       3.120   7.225   5.000  1.00  0.00     0.163 HD
ATOM     31  O   UNL     1       4.331   8.565   6.588  1.00  0.00    -0.269 OA
BRANCH  29  32
ATOM     32  C   UNL     1       6.337   7.553   5.876  1.00  0.00     0.039 A 
ATOM     33  C   UNL     1       7.037   7.804   7.061  1.00  0.00     0.014 A 
ATOM     34  C   UNL     1       7.052   7.228   4.720  1.00  0.00     0.014 A 
ATOM     35  C   UNL     1       8.433   7.707   7.088  1.00  0.00     0.010 A 
ATOM     36  C   UNL     1       8.432   7.029   4.774  1.00  0.00     0.010 A 
ATOM     37  C   UNL     1       9.146   7.301   5.949  1.00  0.00    -0.014 A 
BRANCH  37  38
ATOM     38  C   UNL     1      10.635   7.226   5.955  1.00  0.00     0.031 A 
ATOM     39  C   UNL     1      11.438   8.115   5.036  1.00  0.00     0.074 A 
ATOM     40  C   UNL     1      11.267   6.351   6.762  1.00  0.00     0.049 A 
ATOM     41  N   UNL     1      12.735   8.180   4.867  1.00  0.00    -0.248 NA
ATOM     42  C   UNL     1      10.680   9.036   4.175  1.00  0.00     0.031 C 
ATOM     43  C   UNL     1      10.606   5.413   7.672  1.00  0.00     0.029 A 
ATOM     44  N   UNL     1      12.605   6.106   6.952  1.00  0.00    -0.354 N 
ATOM     45  C   UNL     1      12.944   9.128   3.869  1.00  0.00     0.074 A 
ATOM     46  C   UNL     1      11.637   9.565   3.429  1.00  0.00     0.031 C 
ATOM     47  C   UNL     1      11.540   4.725   8.349  1.00  0.00     0.029 A 
ATOM     48  C   UNL     1      12.864   5.131   7.889  1.00  0.00     0.049 A 
ATOM     49  H   UNL     1      13.314   6.584   6.463  1.00  0.00     0.167 HD
ATOM     50  C   UNL     1      14.114   9.610   3.381  1.00  0.00     0.034 A 
ATOM     51  C   UNL     1      14.033   4.615   8.320  1.00  0.00     0.034 A 
ATOM     52  C   UNL     1      15.412   9.181   3.845  1.00  0.00     0.049 A 
ATOM     53  C   UNL     1      15.323   5.147   7.743  1.00  0.00     0.074 A 
ATOM     54  C   UNL     1      16.659   9.647   3.466  1.00  0.00     0.029 A 
ATOM     55  N   UNL     1      15.632   8.180   4.783  1.00  0.00    -0.354 N 
ATOM     56  N   UNL     1      15.501   6.083   6.839  1.00  0.00    -0.248 NA
ATOM     57  C   UNL     1      16.568   4.560   8.253  1.00  0.00     0.031 C 
ATOM     58  C   UNL     1      17.631   8.878   4.114  1.00  0.00     0.029 A 
ATOM     59  C   UNL     1      16.994   7.990   4.966  1.00  0.00     0.049 A 
ATOM     60  H   UNL     1      14.925   7.679   5.249  1.00  0.00     0.167 HD
ATOM     61  C   UNL     1      16.881   6.218   6.699  1.00  0.00     0.074 A 
ATOM     62  C   UNL     1      17.484   5.280   7.622  1.00  0.00     0.031 C 
ATOM     63  C   UNL     1      17.585   7.045   5.884  1.00  0.00     0.034 A 
BRANCH  50  64
ATOM     64  C   UNL     1      14.042  10.634   2.271  1.00  0.00     0.023 A 
ATOM     65  C   UNL     1      13.437  11.891   2.455  1.00  0.00     0.031 A 
ATOM     66  C   UNL     1      14.571  10.342   1.000  1.00  0.00     0.131 A 
ATOM     67  C   UNL     1      13.309  12.774   1.372  1.00  0.00     0.055 A 
ATOM     68  C   UNL     1      14.516  11.260  -0.051  1.00  0.00     0.041 A 
ATOM     69  F   UNL     1      15.143   9.153   0.754  1.00  0.00    -0.206 F 
ATOM     70  C   UNL     1      13.868  12.479   0.127  1.00  0.00     0.022 A 
BRANCH  67  71
ATOM     71  S   UNL     1      12.275  14.251   1.575  1.00  0.00     0.124 S 
ATOM     72  O   UNL     1      10.987  13.663   1.934  1.00  0.00    -0.237 OA
ATOM     73  O   UNL     1      12.964  14.976   2.635  1.00  0.00    -0.237 OA
ATOM     74  O   UNL     1      12.317  14.883   0.257  1.00  0.00    -0.744 OA
ENDBRANCH  67  71
ENDBRANCH  50  64
BRANCH  51  75
ATOM     75  C   UNL     1      14.053   3.530   9.345  1.00  0.00     0.023 A 
ATOM     76  C   UNL     1      14.650   3.729  10.600  1.00  0.00     0.031 A 
ATOM     77  C   UNL     1      13.521   2.258   9.065  1.00  0.00     0.131 A 
ATOM     78  C   UNL     1      14.747   2.663  11.508  1.00  0.00     0.055 A 
ATOM     79  C   UNL     1      13.567   1.217   9.994  1.00  0.00     0.041 A 
ATOM     80  F   UNL     1      12.939   2.011   7.881  1.00  0.00    -0.206 F 
ATOM     81  C   UNL     1      14.196   1.412  11.219  1.00  0.00     0.022 A 
BRANCH  78  82
ATOM     82  S   UNL     1      15.691   2.906  13.038  1.00  0.00     0.124 S 
ATOM     83  O   UNL     1      16.999   3.292  12.522  1.00  0.00    -0.237 OA
ATOM     84  O   UNL     1      14.926   3.956  13.702  1.00  0.00    -0.237 OA
ATOM     85  O   UNL     1      15.636   1.595  13.683  1.00  0.00    -0.744 OA
ENDBRANCH  78  82
ENDBRANCH  51  75
BRANCH  63  86
ATOM     86  C   UNL     1      19.090   7.004   5.996  1.00  0.00     0.023 A 
ATOM     87  C   UNL     1      19.833   5.868   5.631  1.00  0.00     0.031 A 
ATOM     88  C   UNL     1      19.791   8.121   6.487  1.00  0.00     0.131 A 
ATOM     89  C   UNL     1      21.224   5.852   5.816  1.00  0.00     0.055 A 
ATOM     90  C   UNL     1      21.181   8.123   6.607  1.00  0.00     0.041 A 
ATOM     91  F   UNL     1      19.134   9.233   6.854  1.00  0.00    -0.206 F 
ATOM     92  C   UNL     1      21.904   6.979   6.284  1.00  0.00     0.022 A 
BRANCH  89  93
ATOM     93  S   UNL     1      22.124   4.304   5.530  1.00  0.00     0.124 S 
ATOM     94  O   UNL     1      21.462   3.392   6.457  1.00  0.00    -0.237 OA
ATOM     95  O   UNL     1      21.883   4.058   4.112  1.00  0.00    -0.237 OA
ATOM     96  O   UNL     1      23.505   4.641   5.874  1.00  0.00    -0.744 OA
ENDBRANCH  89  93
ENDBRANCH  63  86
ENDBRANCH  37  38
ENDBRANCH  29  32
ENDBRANCH  27  28
ENDBRANCH  26  27
ENDBRANCH   1  26
TORSDOF 19
