REMARK SMILES CCOc1cc2c(cc1/C=C1/C(=O)N(c3cccc(C(=O)NCCCCNC(=O)c4ccc(-c5c6nc(c(-c7cc(S(=O)(=O)[O-])ccc7F)c7ccc([nH]7)c(-c7cc(S(=O)(=O)[O-])ccc7F)c7nc(c(-c8cc(S(=O)(=O)[O-])ccc8F)c8ccc5[nH]8)C=C7)C=C6)cc4)c3)C(=S)N=C1O)OCO2
REMARK SMILES IDX 24 1 23 2 22 3 20 4 21 5 19 7 15 8 16 9 93 10 17 11 18 12
REMARK SMILES IDX 14 13 10 14 11 15 12 16 97 17 13 18 96 19 94 20 95 21 9 22
REMARK SMILES IDX 4 23 5 24 6 25 8 26 7 27 101 28 99 29 100 30 3 31 2 32 1 33
REMARK SMILES IDX 98 34 25 36 26 37 27 38 28 39 29 41 30 42 31 43 92 44 32 45
REMARK SMILES IDX 91 46 33 47 34 48 35 49 85 50 36 51 90 52 84 53 86 54 37 55
REMARK SMILES IDX 89 56 83 57 82 58 38 60 70 61 50 62 69 63 51 64 54 65 68 66
REMARK SMILES IDX 87 67 52 68 53 69 67 71 88 72 55 73 39 74 40 75 48 76 41 77
REMARK SMILES IDX 47 78 49 79 46 80 42 81 43 82 44 83 45 84 71 85 72 86 80 87
REMARK SMILES IDX 73 88 79 89 81 90 78 91 74 92 75 93 76 94 77 95 56 96 57 97
REMARK SMILES IDX 65 98 58 99 64 100 66 101 63 102 59 103 60 104 61 105 62 106
REMARK H PARENT 22 6 98 35 27 40 86 59 54 70
REMARK Flexibility Score: inf
ROOT
ATOM      1  C   UNL     1       1.513  -0.465 -10.409  1.00  0.00     0.023 C 
ENDROOT
BRANCH   1   2
ATOM      2  C   UNL     1       0.620  -1.471  -9.697  1.00  0.00     0.116 C 
BRANCH   2   3
ATOM      3  N   UNL     1      -0.505  -1.966 -10.474  1.00  0.00    -0.352 N 
ATOM      4  C   UNL     1      -1.072  -3.223 -10.527  1.00  0.00     0.251 C 
ATOM      5  O   UNL     1      -2.039  -3.416 -11.261  1.00  0.00    -0.269 OA
ATOM      6  H   UNL     1      -0.931  -1.297 -11.057  1.00  0.00     0.163 HD
BRANCH   4   7
ATOM      7  C   UNL     1      -0.494  -4.371  -9.778  1.00  0.00     0.041 A 
ATOM      8  C   UNL     1       0.920  -5.224  -8.000  1.00  0.00     0.052 A 
ATOM      9  C   UNL     1       0.907  -6.483  -8.622  1.00  0.00     0.027 A 
ATOM     10  C   UNL     1       0.102  -4.218  -8.524  1.00  0.00     0.040 A 
ATOM     11  C   UNL     1       0.182  -6.692  -9.798  1.00  0.00     0.003 A 
ATOM     12  C   UNL     1      -0.487  -5.626 -10.396  1.00  0.00     0.014 A 
BRANCH   8  13
ATOM     13  N   UNL     1       1.848  -4.921  -6.932  1.00  0.00    -0.251 N 
ATOM     14  C   UNL     1       2.208  -2.728  -4.032  1.00  0.00     0.031 C 
ATOM     15  C   UNL     1       2.439  -3.774  -4.856  1.00  0.00     0.103 C 
ATOM     16  C   UNL     1       1.390  -4.139  -5.856  1.00  0.00     0.270 C 
ATOM     17  C   UNL     1       3.612  -4.636  -4.909  1.00  0.00     0.226 C 
ATOM     18  O   UNL     1       0.233  -3.752  -5.700  1.00  0.00    -0.268 OA
ATOM     19  N   UNL     1       3.967  -5.363  -5.897  1.00  0.00    -0.184 NA
ATOM     20  C   UNL     1       3.211  -5.295  -7.043  1.00  0.00     0.210 C 
ATOM     21  S   UNL     1       4.025  -5.600  -8.508  1.00  0.00    -0.038 S 
BRANCH  14  22
ATOM     22  C   UNL     1       3.077  -2.194  -2.961  1.00  0.00     0.021 A 
ATOM     23  C   UNL     1       2.548  -1.909  -1.675  1.00  0.00     0.130 A 
ATOM     24  C   UNL     1       3.383  -1.623  -0.590  1.00  0.00     0.097 A 
ATOM     25  C   UNL     1       4.731  -1.524  -0.832  1.00  0.00     0.169 A 
ATOM     26  C   UNL     1       4.447  -1.973  -3.181  1.00  0.00     0.062 A 
ATOM     27  C   UNL     1       5.246  -1.670  -2.096  1.00  0.00     0.166 A 
ATOM     28  O   UNL     1       5.691  -1.285   0.100  1.00  0.00    -0.453 OA
ATOM     29  O   UNL     1       6.600  -1.534  -2.120  1.00  0.00    -0.454 OA
ATOM     30  C   UNL     1       6.878  -1.361  -0.715  1.00  0.00     0.468 C 
BRANCH  23  31
ATOM     31  O   UNL     1       1.196  -1.977  -1.438  1.00  0.00    -0.493 OA
BRANCH  31  32
ATOM     32  C   UNL     1       0.595  -0.669  -1.487  1.00  0.00     0.226 C 
ATOM     33  C   UNL     1       0.547  -0.018  -0.112  1.00  0.00     0.049 C 
ENDBRANCH  31  32
ENDBRANCH  23  31
ENDBRANCH  14  22
BRANCH  17  34
ATOM     34  O   UNL     1       4.363  -4.726  -3.812  1.00  0.00    -0.493 OA
ATOM     35  H   UNL     1       4.150  -4.216  -3.055  1.00  0.00     0.295 HD
ENDBRANCH  17  34
ENDBRANCH   8  13
ENDBRANCH   4   7
ENDBRANCH   2   3
ENDBRANCH   1   2
BRANCH   1  36
ATOM     36  C   UNL     1       0.851   0.824 -10.879  1.00  0.00     0.023 C 
BRANCH  36  37
ATOM     37  C   UNL     1      -0.007   1.554  -9.851  1.00  0.00     0.116 C 
BRANCH  37  38
ATOM     38  N   UNL     1       0.711   1.925  -8.640  1.00  0.00    -0.352 N 
ATOM     39  C   UNL     1       0.952   3.168  -8.093  1.00  0.00     0.251 C 
ATOM     40  H   UNL     1       1.083   1.170  -8.130  1.00  0.00     0.163 HD
ATOM     41  O   UNL     1       1.652   3.265  -7.093  1.00  0.00    -0.269 OA
BRANCH  39  42
ATOM     42  C   UNL     1       0.409   4.380  -8.748  1.00  0.00     0.039 A 
ATOM     43  C   UNL     1       1.276   5.443  -9.019  1.00  0.00     0.014 A 
ATOM     44  C   UNL     1      -0.927   4.447  -9.144  1.00  0.00     0.014 A 
ATOM     45  C   UNL     1       0.834   6.513  -9.802  1.00  0.00     0.010 A 
ATOM     46  C   UNL     1      -1.344   5.473  -9.988  1.00  0.00     0.010 A 
ATOM     47  C   UNL     1      -0.458   6.500 -10.352  1.00  0.00    -0.014 A 
BRANCH  47  48
ATOM     48  C   UNL     1      -0.886   7.502 -11.363  1.00  0.00     0.031 A 
ATOM     49  C   UNL     1      -2.038   8.423 -11.079  1.00  0.00     0.074 A 
ATOM     50  C   UNL     1      -0.303   7.504 -12.580  1.00  0.00     0.049 A 
ATOM     51  N   UNL     1      -2.648   9.257 -11.881  1.00  0.00    -0.248 NA
ATOM     52  C   UNL     1      -2.595   8.374  -9.720  1.00  0.00     0.031 C 
ATOM     53  C   UNL     1       0.801   6.633 -12.991  1.00  0.00     0.029 A 
ATOM     54  N   UNL     1      -0.571   8.247 -13.703  1.00  0.00    -0.354 N 
ATOM     55  C   UNL     1      -3.670   9.826 -11.129  1.00  0.00     0.074 A 
ATOM     56  C   UNL     1      -3.628   9.196  -9.825  1.00  0.00     0.031 C 
ATOM     57  C   UNL     1       1.124   6.901 -14.265  1.00  0.00     0.029 A 
ATOM     58  C   UNL     1       0.217   7.920 -14.783  1.00  0.00     0.049 A 
ATOM     59  H   UNL     1      -1.262   8.947 -13.734  1.00  0.00     0.167 HD
ATOM     60  C   UNL     1      -4.547  10.797 -11.487  1.00  0.00     0.034 A 
ATOM     61  C   UNL     1       0.196   8.367 -16.054  1.00  0.00     0.034 A 
ATOM     62  C   UNL     1      -4.571  11.417 -12.790  1.00  0.00     0.049 A 
ATOM     63  C   UNL     1      -0.830   9.396 -16.449  1.00  0.00     0.074 A 
ATOM     64  C   UNL     1      -5.364  12.462 -13.235  1.00  0.00     0.029 A 
ATOM     65  N   UNL     1      -3.779  11.037 -13.866  1.00  0.00    -0.354 N 
ATOM     66  N   UNL     1      -1.757   9.961 -15.711  1.00  0.00    -0.248 NA
ATOM     67  C   UNL     1      -0.819   9.840 -17.849  1.00  0.00     0.031 C 
ATOM     68  C   UNL     1      -5.100  12.667 -14.594  1.00  0.00     0.029 A 
ATOM     69  C   UNL     1      -4.096  11.796 -14.984  1.00  0.00     0.049 A 
ATOM     70  H   UNL     1      -3.092  10.332 -13.840  1.00  0.00     0.167 HD
ATOM     71  C   UNL     1      -2.428  10.841 -16.555  1.00  0.00     0.074 A 
ATOM     72  C   UNL     1      -1.791  10.740 -17.853  1.00  0.00     0.031 C 
ATOM     73  C   UNL     1      -3.473  11.662 -16.280  1.00  0.00     0.034 A 
BRANCH  60  74
ATOM     74  C   UNL     1      -5.566  11.221 -10.457  1.00  0.00     0.023 A 
ATOM     75  C   UNL     1      -5.179  11.809  -9.239  1.00  0.00     0.031 A 
ATOM     76  C   UNL     1      -6.937  11.001 -10.674  1.00  0.00     0.131 A 
ATOM     77  C   UNL     1      -6.141  12.075  -8.253  1.00  0.00     0.055 A 
ATOM     78  C   UNL     1      -7.898  11.345  -9.721  1.00  0.00     0.041 A 
ATOM     79  F   UNL     1      -7.365  10.427 -11.810  1.00  0.00    -0.206 F 
ATOM     80  C   UNL     1      -7.500  11.869  -8.495  1.00  0.00     0.022 A 
BRANCH  77  81
ATOM     81  S   UNL     1      -5.571  12.547  -6.597  1.00  0.00     0.124 S 
ATOM     82  O   UNL     1      -4.721  11.412  -6.243  1.00  0.00    -0.237 OA
ATOM     83  O   UNL     1      -4.882  13.807  -6.848  1.00  0.00    -0.237 OA
ATOM     84  O   UNL     1      -6.808  12.652  -5.826  1.00  0.00    -0.744 OA
ENDBRANCH  77  81
ENDBRANCH  60  74
BRANCH  61  85
ATOM     85  C   UNL     1       1.153   7.824 -17.059  1.00  0.00     0.023 A 
ATOM     86  C   UNL     1       2.150   8.638 -17.617  1.00  0.00     0.031 A 
ATOM     87  C   UNL     1       1.067   6.489 -17.495  1.00  0.00     0.131 A 
ATOM     88  C   UNL     1       3.002   8.120 -18.605  1.00  0.00     0.055 A 
ATOM     89  C   UNL     1       1.945   5.966 -18.445  1.00  0.00     0.041 A 
ATOM     90  F   UNL     1       0.134   5.668 -16.987  1.00  0.00    -0.206 F 
ATOM     91  C   UNL     1       2.915   6.787 -19.013  1.00  0.00     0.022 A 
BRANCH  88  92
ATOM     92  S   UNL     1       4.195   9.236 -19.394  1.00  0.00     0.124 S 
ATOM     93  O   UNL     1       3.318  10.243 -19.980  1.00  0.00    -0.237 OA
ATOM     94  O   UNL     1       5.002   9.669 -18.258  1.00  0.00    -0.237 OA
ATOM     95  O   UNL     1       4.885   8.374 -20.352  1.00  0.00    -0.744 OA
ENDBRANCH  88  92
ENDBRANCH  61  85
BRANCH  73  96
ATOM     96  C   UNL     1      -3.975  12.527 -17.408  1.00  0.00     0.023 A 
ATOM     97  C   UNL     1      -4.657  11.977 -18.507  1.00  0.00     0.031 A 
ATOM     98  C   UNL     1      -3.764  13.916 -17.384  1.00  0.00     0.131 A 
ATOM     99  C   UNL     1      -5.070  12.809 -19.559  1.00  0.00     0.055 A 
ATOM    100  C   UNL     1      -4.221  14.746 -18.408  1.00  0.00     0.041 A 
ATOM    101  F   UNL     1      -3.114  14.491 -16.359  1.00  0.00    -0.206 F 
ATOM    102  C   UNL     1      -4.871  14.192 -19.508  1.00  0.00     0.022 A 
BRANCH  99 103
ATOM    103  S   UNL     1      -5.821  12.054 -21.027  1.00  0.00     0.124 S 
ATOM    104  O   UNL     1      -4.730  11.227 -21.533  1.00  0.00    -0.237 OA
ATOM    105  O   UNL     1      -6.958  11.335 -20.464  1.00  0.00    -0.237 OA
ATOM    106  O   UNL     1      -6.168  13.201 -21.864  1.00  0.00    -0.744 OA
ENDBRANCH  99 103
ENDBRANCH  73  96
ENDBRANCH  47  48
ENDBRANCH  39  42
ENDBRANCH  37  38
ENDBRANCH  36  37
ENDBRANCH   1  36
TORSDOF 19
