REMARK SMILES O=C(NCCCCNC(=O)[C@H]1CC2(CCN(S(=O)(=O)N3CCOCC3)CC2)C[NH2+]1)c1ccc(-c2c3nc(c(-c4cc(S(=O)(=O)[O-])ccc4F)c4ccc([nH]4)c(-c4cc(S(=O)(=O)[O-])ccc4F)c4nc(c(-c5cc(S(=O)(=O)[O-])ccc5F)c5ccc2[nH]5)C=C4)C=C3)cc1
REMARK SMILES IDX 5 1 4 2 3 3 1 4 2 5 30 7 31 8 92 9 32 10 91 11 33 12 34 13
REMARK SMILES IDX 35 14 85 15 36 16 90 17 84 18 86 19 37 20 89 21 83 22 82 23
REMARK SMILES IDX 38 25 70 26 50 27 69 28 51 29 54 30 68 31 87 32 52 33 53 34
REMARK SMILES IDX 67 36 88 37 55 38 39 39 40 40 48 41 41 42 47 43 49 44 46 45
REMARK SMILES IDX 42 46 43 47 44 48 45 49 71 50 72 51 80 52 73 53 79 54 81 55
REMARK SMILES IDX 78 56 74 57 75 58 76 59 77 60 56 61 57 62 65 63 58 64 64 65
REMARK SMILES IDX 66 66 63 67 59 68 60 69 61 70 62 71 6 72 7 73 8 74 9 75
REMARK SMILES IDX 10 77 11 78 12 79 29 80 13 81 28 82 14 85 27 86 15 87 26 88
REMARK SMILES IDX 16 89 17 90 18 91 19 92 20 93 21 94 25 95 22 96 24 97 23 98
REMARK H PARENT 3 6 86 24 54 35 8 76 29 83 29 84
REMARK Flexibility Score: inf
ROOT
ATOM      1  C   UNL     1       3.062   9.056  -2.894  1.00  0.00     0.023 C 
ENDROOT
BRANCH   1   2
ATOM      2  C   UNL     1       1.764   9.564  -2.286  1.00  0.00     0.116 C 
BRANCH   2   3
ATOM      3  N   UNL     1       1.816  10.974  -1.925  1.00  0.00    -0.352 N 
ATOM      4  O   UNL     1       1.107  13.121  -1.918  1.00  0.00    -0.269 OA
ATOM      5  C   UNL     1       0.869  11.944  -2.163  1.00  0.00     0.251 C 
ATOM      6  H   UNL     1       2.627  11.269  -1.452  1.00  0.00     0.163 HD
BRANCH   5   7
ATOM      7  C   UNL     1      -0.427  11.537  -2.746  1.00  0.00     0.039 A 
ATOM      8  C   UNL     1      -1.107  10.435  -2.223  1.00  0.00     0.014 A 
ATOM      9  C   UNL     1      -0.930  12.220  -3.855  1.00  0.00     0.014 A 
ATOM     10  C   UNL     1      -2.201   9.921  -2.902  1.00  0.00     0.010 A 
ATOM     11  C   UNL     1      -2.096  11.761  -4.474  1.00  0.00     0.010 A 
ATOM     12  C   UNL     1      -2.726  10.591  -4.018  1.00  0.00    -0.014 A 
BRANCH  12  13
ATOM     13  C   UNL     1      -3.981  10.089  -4.635  1.00  0.00     0.031 A 
ATOM     14  C   UNL     1      -4.015   9.602  -6.057  1.00  0.00     0.074 A 
ATOM     15  C   UNL     1      -5.094  10.054  -3.875  1.00  0.00     0.049 A 
ATOM     16  N   UNL     1      -5.030   9.148  -6.746  1.00  0.00    -0.248 NA
ATOM     17  C   UNL     1      -2.750   9.638  -6.806  1.00  0.00     0.031 C 
ATOM     18  C   UNL     1      -5.171  10.497  -2.479  1.00  0.00     0.029 A 
ATOM     19  N   UNL     1      -6.362   9.616  -4.151  1.00  0.00    -0.354 N 
ATOM     20  C   UNL     1      -4.536   8.856  -8.013  1.00  0.00     0.074 A 
ATOM     21  C   UNL     1      -3.134   9.220  -8.004  1.00  0.00     0.031 C 
ATOM     22  C   UNL     1      -6.403  10.263  -2.009  1.00  0.00     0.029 A 
ATOM     23  C   UNL     1      -7.229   9.742  -3.090  1.00  0.00     0.049 A 
ATOM     24  H   UNL     1      -6.628   9.247  -5.024  1.00  0.00     0.167 HD
ATOM     25  C   UNL     1      -5.195   8.330  -9.076  1.00  0.00     0.034 A 
ATOM     26  C   UNL     1      -8.550   9.501  -3.002  1.00  0.00     0.034 A 
ATOM     27  C   UNL     1      -6.597   7.981  -9.059  1.00  0.00     0.049 A 
ATOM     28  C   UNL     1      -9.268   8.981  -4.217  1.00  0.00     0.074 A 
ATOM     29  C   UNL     1      -7.357   7.418 -10.071  1.00  0.00     0.029 A 
ATOM     30  N   UNL     1      -7.457   8.171  -7.983  1.00  0.00    -0.354 N 
ATOM     31  N   UNL     1      -8.782   8.699  -5.404  1.00  0.00    -0.248 NA
ATOM     32  C   UNL     1     -10.709   8.745  -4.082  1.00  0.00     0.031 C 
ATOM     33  C   UNL     1      -8.685   7.347  -9.638  1.00  0.00     0.029 A 
ATOM     34  C   UNL     1      -8.743   7.774  -8.322  1.00  0.00     0.049 A 
ATOM     35  H   UNL     1      -7.192   8.536  -7.107  1.00  0.00     0.167 HD
ATOM     36  C   UNL     1      -9.857   8.223  -6.148  1.00  0.00     0.074 A 
ATOM     37  C   UNL     1     -11.008   8.239  -5.268  1.00  0.00     0.031 C 
ATOM     38  C   UNL     1      -9.887   7.807  -7.440  1.00  0.00     0.034 A 
BRANCH  25  39
ATOM     39  C   UNL     1      -4.421   8.147 -10.362  1.00  0.00     0.023 A 
ATOM     40  C   UNL     1      -3.327   7.269 -10.455  1.00  0.00     0.031 A 
ATOM     41  C   UNL     1      -4.784   8.865 -11.517  1.00  0.00     0.131 A 
ATOM     42  C   UNL     1      -2.598   7.180 -11.652  1.00  0.00     0.055 A 
ATOM     43  C   UNL     1      -4.106   8.710 -12.727  1.00  0.00     0.041 A 
ATOM     44  F   UNL     1      -5.806   9.735 -11.487  1.00  0.00    -0.206 F 
ATOM     45  C   UNL     1      -2.997   7.873 -12.796  1.00  0.00     0.022 A 
BRANCH  42  46
ATOM     46  S   UNL     1      -1.039   6.252 -11.651  1.00  0.00     0.124 S 
ATOM     47  O   UNL     1      -0.288   6.936 -10.601  1.00  0.00    -0.237 OA
ATOM     48  O   UNL     1      -1.479   4.896 -11.342  1.00  0.00    -0.237 OA
ATOM     49  O   UNL     1      -0.522   6.448 -13.004  1.00  0.00    -0.744 OA
ENDBRANCH  42  46
ENDBRANCH  25  39
BRANCH  26  50
ATOM     50  C   UNL     1      -9.283   9.790  -1.737  1.00  0.00     0.023 A 
ATOM     51  C   UNL     1      -9.934   8.771  -1.028  1.00  0.00     0.031 A 
ATOM     52  C   UNL     1      -9.373  11.103  -1.237  1.00  0.00     0.131 A 
ATOM     53  C   UNL     1     -10.690   9.087   0.112  1.00  0.00     0.055 A 
ATOM     54  C   UNL     1     -10.068  11.402  -0.065  1.00  0.00     0.041 A 
ATOM     55  F   UNL     1      -8.767  12.117  -1.875  1.00  0.00    -0.206 F 
ATOM     56  C   UNL     1     -10.746  10.392   0.608  1.00  0.00     0.022 A 
BRANCH  53  57
ATOM     57  S   UNL     1     -11.687   7.781   0.878  1.00  0.00     0.124 S 
ATOM     58  O   UNL     1     -12.517   7.348  -0.241  1.00  0.00    -0.237 OA
ATOM     59  O   UNL     1     -10.663   6.839   1.320  1.00  0.00    -0.237 OA
ATOM     60  O   UNL     1     -12.395   8.478   1.949  1.00  0.00    -0.744 OA
ENDBRANCH  53  57
ENDBRANCH  26  50
BRANCH  38  61
ATOM     61  C   UNL     1     -11.207   7.285  -7.957  1.00  0.00     0.023 A 
ATOM     62  C   UNL     1     -12.334   8.114  -8.089  1.00  0.00     0.031 A 
ATOM     63  C   UNL     1     -11.340   5.928  -8.303  1.00  0.00     0.131 A 
ATOM     64  C   UNL     1     -13.561   7.566  -8.494  1.00  0.00     0.055 A 
ATOM     65  C   UNL     1     -12.544   5.404  -8.774  1.00  0.00     0.041 A 
ATOM     66  F   UNL     1     -10.299   5.088  -8.191  1.00  0.00    -0.206 F 
ATOM     67  C   UNL     1     -13.668   6.221  -8.857  1.00  0.00     0.022 A 
BRANCH  64  68
ATOM     68  S   UNL     1     -15.042   8.611  -8.439  1.00  0.00     0.124 S 
ATOM     69  O   UNL     1     -15.082   9.006  -7.034  1.00  0.00    -0.237 OA
ATOM     70  O   UNL     1     -14.715   9.668  -9.389  1.00  0.00    -0.237 OA
ATOM     71  O   UNL     1     -16.113   7.710  -8.860  1.00  0.00    -0.744 OA
ENDBRANCH  64  68
ENDBRANCH  38  61
ENDBRANCH  12  13
ENDBRANCH   5   7
ENDBRANCH   2   3
ENDBRANCH   1   2
BRANCH   1  72
ATOM     72  C   UNL     1       4.274   9.156  -1.974  1.00  0.00     0.023 C 
BRANCH  72  73
ATOM     73  C   UNL     1       4.112   8.429  -0.640  1.00  0.00     0.116 C 
BRANCH  73  74
ATOM     74  N   UNL     1       4.051   6.991  -0.805  1.00  0.00    -0.351 N 
ATOM     75  C   UNL     1       4.945   6.030  -0.434  1.00  0.00     0.278 C 
ATOM     76  H   UNL     1       3.241   6.656  -1.253  1.00  0.00     0.163 HD
ATOM     77  O   UNL     1       4.644   4.851  -0.649  1.00  0.00    -0.268 OA
BRANCH  75  78
ATOM     78  C   UNL     1       6.298   6.369   0.207  1.00  0.00     0.273 C 
ATOM     79  C   UNL     1       7.263   7.142  -0.683  1.00  0.00     0.088 C 
ATOM     80  N   UNL     1       6.152   7.206   1.413  1.00  0.00    -0.336 N 
ATOM     81  C   UNL     1       8.050   8.069   0.276  1.00  0.00     0.028 C 
ATOM     82  C   UNL     1       7.489   7.728   1.669  1.00  0.00     0.268 C 
ATOM     83  H   UNL     1       5.827   6.647   2.201  1.00  0.00     0.346 HD
ATOM     84  H   UNL     1       5.467   7.951   1.284  1.00  0.00     0.346 HD
ATOM     85  C   UNL     1       7.786   9.550  -0.068  1.00  0.00     0.030 C 
ATOM     86  C   UNL     1       9.569   7.786   0.230  1.00  0.00     0.030 C 
ATOM     87  C   UNL     1       8.505   9.961  -1.339  1.00  0.00     0.104 C 
ATOM     88  C   UNL     1      10.249   8.307  -1.037  1.00  0.00     0.104 C 
ATOM     89  N   UNL     1       9.961   9.751  -1.243  1.00  0.00    -0.189 NA
BRANCH  89  90
ATOM     90  S   UNL     1      10.907  10.814  -0.325  1.00  0.00     0.282 S 
ATOM     91  O   UNL     1      10.395  10.862   1.020  1.00  0.00    -0.195 OA
ATOM     92  O   UNL     1      12.289  10.458  -0.573  1.00  0.00    -0.195 OA
BRANCH  90  93
ATOM     93  N   UNL     1      10.631  12.269  -1.063  1.00  0.00    -0.184 NA
ATOM     94  C   UNL     1      11.076  12.519  -2.440  1.00  0.00     0.132 C 
ATOM     95  C   UNL     1       9.713  13.293  -0.533  1.00  0.00     0.132 C 
ATOM     96  C   UNL     1       9.848  12.692  -3.331  1.00  0.00     0.177 C 
ATOM     97  C   UNL     1       8.583  13.613  -1.524  1.00  0.00     0.177 C 
ATOM     98  O   UNL     1       9.037  13.786  -2.874  1.00  0.00    -0.379 OA
ENDBRANCH  90  93
ENDBRANCH  89  90
ENDBRANCH  75  78
ENDBRANCH  73  74
ENDBRANCH  72  73
ENDBRANCH   1  72
TORSDOF 16
