REMARK SMILES Cc1ccc(/C=C2/SC(=O)N(CC(=O)NCCCCNC(=O)c3ccc(-c4c5nc(c(-c6cc(S(=O)(=O)[O-])ccc6F)c6ccc([nH]6)c(-c6cc(S(=O)(=O)[O-])ccc6F)c6nc(c(-c7cc(S(=O)(=O)[O-])ccc7F)c7ccc4[nH]7)C=C6)C=C5)cc3)C2=O)cc1
REMARK SMILES IDX 18 1 17 2 16 3 15 4 13 5 14 6 12 8 11 9 6 10 7 11 8 12 86 13
REMARK SMILES IDX 9 14 87 15 10 16 5 17 1 18 2 19 3 20 89 21 4 22 88 23 19 24
REMARK SMILES IDX 20 25 21 26 22 28 23 29 24 30 85 31 25 32 84 33 26 34 27 35
REMARK SMILES IDX 28 36 78 37 29 38 83 39 77 40 79 41 30 42 82 43 76 44 75 45
REMARK SMILES IDX 31 47 63 48 43 49 62 50 44 51 47 52 61 53 80 54 45 55 46 56
REMARK SMILES IDX 60 58 81 59 48 60 32 61 33 62 41 63 34 64 40 65 42 66 39 67
REMARK SMILES IDX 35 68 36 69 37 70 38 71 64 72 65 73 73 74 66 75 72 76 74 77
REMARK SMILES IDX 71 78 67 79 68 80 69 81 70 82 49 83 50 84 58 85 51 86 57 87
REMARK SMILES IDX 59 88 56 89 52 90 53 91 54 92 55 93
REMARK H PARENT 15 7 20 27 79 46 47 57
REMARK Flexibility Score: inf
ROOT
ATOM      1  C   UNL     1      -4.303   5.406  -0.637  1.00  0.00     0.023 C 
ENDROOT
BRANCH   1   2
ATOM      2  C   UNL     1      -4.963   4.327  -1.489  1.00  0.00     0.023 C 
BRANCH   2   3
ATOM      3  C   UNL     1      -4.872   4.532  -3.005  1.00  0.00     0.116 C 
BRANCH   3   4
ATOM      4  N   UNL     1      -3.503   4.451  -3.498  1.00  0.00    -0.355 N 
ATOM      5  C   UNL     1      -2.907   3.464  -4.229  1.00  0.00     0.240 C 
ATOM      6  O   UNL     1      -1.802   3.702  -4.725  1.00  0.00    -0.273 OA
ATOM      7  H   UNL     1      -2.927   5.217  -3.272  1.00  0.00     0.163 HD
BRANCH   5   8
ATOM      8  C   UNL     1      -3.633   2.145  -4.518  1.00  0.00     0.229 C 
BRANCH   8   9
ATOM      9  N   UNL     1      -4.060   1.487  -3.298  1.00  0.00    -0.259 N 
ATOM     10  C   UNL     1      -3.228   0.015  -0.081  1.00  0.00     0.029 C 
ATOM     11  C   UNL     1      -3.806   0.430  -1.219  1.00  0.00     0.083 C 
ATOM     12  S   UNL     1      -5.510   0.383  -1.495  1.00  0.00    -0.022 SA
ATOM     13  C   UNL     1      -3.124   0.986  -2.427  1.00  0.00     0.268 C 
ATOM     14  C   UNL     1      -5.340   1.075  -3.101  1.00  0.00     0.294 C 
ATOM     15  O   UNL     1      -1.924   0.954  -2.634  1.00  0.00    -0.268 OA
ATOM     16  O   UNL     1      -6.244   1.043  -3.936  1.00  0.00    -0.261 OA
BRANCH  10  17
ATOM     17  C   UNL     1      -1.779   0.011   0.131  1.00  0.00    -0.024 A 
ATOM     18  C   UNL     1       2.524  -0.047   0.084  1.00  0.00     0.044 C 
ATOM     19  C   UNL     1       1.028  -0.023   0.175  1.00  0.00    -0.051 A 
ATOM     20  C   UNL     1       0.306  -1.221   0.114  1.00  0.00     0.004 A 
ATOM     21  C   UNL     1       0.334   1.188   0.273  1.00  0.00     0.004 A 
ATOM     22  C   UNL     1      -1.090  -1.205   0.091  1.00  0.00     0.008 A 
ATOM     23  C   UNL     1      -1.063   1.205   0.261  1.00  0.00     0.008 A 
ENDBRANCH  10  17
ENDBRANCH   8   9
ENDBRANCH   5   8
ENDBRANCH   3   4
ENDBRANCH   2   3
ENDBRANCH   1   2
BRANCH   1  24
ATOM     24  C   UNL     1      -4.874   6.807  -0.797  1.00  0.00     0.116 C 
BRANCH  24  25
ATOM     25  N   UNL     1      -5.999   7.150   0.068  1.00  0.00    -0.352 N 
ATOM     26  C   UNL     1      -6.549   8.401   0.326  1.00  0.00     0.251 C 
ATOM     27  H   UNL     1      -6.426   6.393   0.531  1.00  0.00     0.163 HD
ATOM     28  O   UNL     1      -7.403   8.572   1.192  1.00  0.00    -0.269 OA
BRANCH  26  29
ATOM     29  C   UNL     1      -6.251   9.521  -0.606  1.00  0.00     0.039 A 
ATOM     30  C   UNL     1      -7.364  10.103  -1.233  1.00  0.00     0.014 A 
ATOM     31  C   UNL     1      -4.987   9.650  -1.161  1.00  0.00     0.014 A 
ATOM     32  C   UNL     1      -7.268  10.472  -2.566  1.00  0.00     0.010 A 
ATOM     33  C   UNL     1      -4.920   9.850  -2.516  1.00  0.00     0.010 A 
ATOM     34  C   UNL     1      -6.080  10.182  -3.222  1.00  0.00    -0.014 A 
BRANCH  34  35
ATOM     35  C   UNL     1      -5.916  10.203  -4.659  1.00  0.00     0.031 A 
ATOM     36  C   UNL     1      -5.292  11.394  -5.243  1.00  0.00     0.074 A 
ATOM     37  C   UNL     1      -6.171   9.078  -5.359  1.00  0.00     0.049 A 
ATOM     38  N   UNL     1      -5.346  11.716  -6.482  1.00  0.00    -0.248 NA
ATOM     39  C   UNL     1      -4.590  12.376  -4.420  1.00  0.00     0.031 C 
ATOM     40  C   UNL     1      -5.785   8.751  -6.726  1.00  0.00     0.029 A 
ATOM     41  N   UNL     1      -7.067   8.069  -5.005  1.00  0.00    -0.354 N 
ATOM     42  C   UNL     1      -4.429  12.725  -6.676  1.00  0.00     0.074 A 
ATOM     43  C   UNL     1      -4.100  13.190  -5.354  1.00  0.00     0.031 C 
ATOM     44  C   UNL     1      -6.623   7.809  -7.197  1.00  0.00     0.029 A 
ATOM     45  C   UNL     1      -7.670   7.631  -6.204  1.00  0.00     0.049 A 
ATOM     46  H   UNL     1      -7.244   7.730  -4.098  1.00  0.00     0.167 HD
ATOM     47  C   UNL     1      -3.942  12.915  -7.933  1.00  0.00     0.034 A 
ATOM     48  C   UNL     1      -9.001   7.883  -6.403  1.00  0.00     0.034 A 
ATOM     49  C   UNL     1      -4.677  12.077  -8.888  1.00  0.00     0.049 A 
ATOM     50  C   UNL     1      -9.254   8.897  -7.509  1.00  0.00     0.074 A 
ATOM     51  C   UNL     1      -4.432  10.853  -9.488  1.00  0.00     0.029 A 
ATOM     52  N   UNL     1      -6.025  12.324  -9.066  1.00  0.00    -0.354 N 
ATOM     53  N   UNL     1      -8.314   9.576  -8.113  1.00  0.00    -0.248 NA
ATOM     54  C   UNL     1     -10.587   9.264  -7.983  1.00  0.00     0.031 C 
ATOM     55  C   UNL     1      -5.687  10.328  -9.932  1.00  0.00     0.029 A 
ATOM     56  C   UNL     1      -6.676  11.252  -9.641  1.00  0.00     0.049 A 
ATOM     57  H   UNL     1      -6.468  13.165  -8.813  1.00  0.00     0.167 HD
ATOM     58  C   UNL     1      -8.870  10.455  -9.002  1.00  0.00     0.074 A 
ATOM     59  C   UNL     1     -10.303  10.237  -8.866  1.00  0.00     0.031 C 
ATOM     60  C   UNL     1      -8.126  11.307  -9.772  1.00  0.00     0.034 A 
BRANCH  47  61
ATOM     61  C   UNL     1      -2.663  13.637  -8.288  1.00  0.00     0.023 A 
ATOM     62  C   UNL     1      -2.121  13.400  -9.566  1.00  0.00     0.031 A 
ATOM     63  C   UNL     1      -1.892  14.482  -7.464  1.00  0.00     0.131 A 
ATOM     64  C   UNL     1      -0.870  13.912  -9.948  1.00  0.00     0.055 A 
ATOM     65  C   UNL     1      -0.636  14.982  -7.836  1.00  0.00     0.041 A 
ATOM     66  F   UNL     1      -2.306  14.905  -6.267  1.00  0.00    -0.206 F 
ATOM     67  C   UNL     1      -0.112  14.691  -9.082  1.00  0.00     0.022 A 
BRANCH  64  68
ATOM     68  S   UNL     1      -0.246  13.524 -11.601  1.00  0.00     0.124 S 
ATOM     69  O   UNL     1      -0.126  12.071 -11.548  1.00  0.00    -0.237 OA
ATOM     70  O   UNL     1      -1.298  14.057 -12.459  1.00  0.00    -0.237 OA
ATOM     71  O   UNL     1       1.024  14.248 -11.660  1.00  0.00    -0.744 OA
ENDBRANCH  64  68
ENDBRANCH  47  61
BRANCH  48  72
ATOM     72  C   UNL     1      -9.775   7.751  -5.122  1.00  0.00     0.023 A 
ATOM     73  C   UNL     1      -9.651   6.517  -4.438  1.00  0.00     0.031 A 
ATOM     74  C   UNL     1     -10.151   8.874  -4.374  1.00  0.00     0.131 A 
ATOM     75  C   UNL     1      -9.648   6.487  -3.034  1.00  0.00     0.055 A 
ATOM     76  C   UNL     1     -10.252   8.812  -2.977  1.00  0.00     0.041 A 
ATOM     77  F   UNL     1     -10.273  10.076  -4.955  1.00  0.00    -0.206 F 
ATOM     78  C   UNL     1      -9.932   7.635  -2.296  1.00  0.00     0.022 A 
BRANCH  75  79
ATOM     79  S   UNL     1      -8.936   5.033  -2.200  1.00  0.00     0.124 S 
ATOM     80  O   UNL     1     -10.100   4.173  -2.031  1.00  0.00    -0.237 OA
ATOM     81  O   UNL     1      -7.932   4.575  -3.158  1.00  0.00    -0.237 OA
ATOM     82  O   UNL     1      -8.361   5.574  -0.968  1.00  0.00    -0.744 OA
ENDBRANCH  75  79
ENDBRANCH  48  72
BRANCH  60  83
ATOM     83  C   UNL     1      -8.751  12.285 -10.729  1.00  0.00     0.023 A 
ATOM     84  C   UNL     1      -9.840  11.916 -11.525  1.00  0.00     0.031 A 
ATOM     85  C   UNL     1      -8.252  13.595 -10.915  1.00  0.00     0.131 A 
ATOM     86  C   UNL     1     -10.458  12.853 -12.366  1.00  0.00     0.055 A 
ATOM     87  C   UNL     1      -8.791  14.484 -11.846  1.00  0.00     0.041 A 
ATOM     88  F   UNL     1      -7.261  14.092 -10.161  1.00  0.00    -0.206 F 
ATOM     89  C   UNL     1      -9.920  14.123 -12.563  1.00  0.00     0.022 A 
BRANCH  86  90
ATOM     90  S   UNL     1     -12.064  12.422 -13.075  1.00  0.00     0.124 S 
ATOM     91  O   UNL     1     -11.783  11.168 -13.765  1.00  0.00    -0.237 OA
ATOM     92  O   UNL     1     -12.890  12.312 -11.874  1.00  0.00    -0.237 OA
ATOM     93  O   UNL     1     -12.375  13.557 -13.939  1.00  0.00    -0.744 OA
ENDBRANCH  86  90
ENDBRANCH  60  83
ENDBRANCH  34  35
ENDBRANCH  26  29
ENDBRANCH  24  25
ENDBRANCH   1  24
TORSDOF 16
