REMARK SMILES CC(C)Oc1ccc(-c2ccc(/C(=C\c3ccc(S(C)(=O)=O)cc3)C(=O)NCCCCNC(=O)c3ccc(-c4c5nc(c(-c6cc(S(=O)(=O)[O-])ccc6F)c6ccc([nH]6)c(-c6cc(S(=O)(=O)[O-])ccc6F)c6nc(c(-c7cc(S(=O)(=O)[O-])ccc7F)c7ccc4[nH]7)C=C6)C=C5)cc3)cc2)cc1
REMARK SMILES IDX 29 1 28 2 27 3 25 4 26 5 13 7 14 8 12 9 9 10 10 11 99 12
REMARK SMILES IDX 11 13 98 14 8 15 5 16 6 17 101 18 7 19 100 20 4 21 2 22 1 23
REMARK SMILES IDX 3 24 15 25 16 26 24 27 17 28 23 29 18 30 19 31 20 32 21 33
REMARK SMILES IDX 22 34 30 35 31 36 32 37 33 38 34 40 35 41 36 42 97 43 37 44
REMARK SMILES IDX 96 45 38 46 39 47 40 48 90 49 41 50 95 51 89 52 91 53 42 54
REMARK SMILES IDX 94 55 88 56 87 57 43 59 75 60 55 61 74 62 56 63 59 64 73 65
REMARK SMILES IDX 92 66 57 67 58 68 72 70 93 71 60 72 44 73 45 74 53 75 46 76
REMARK SMILES IDX 52 77 54 78 51 79 47 80 48 81 49 82 50 83 76 84 77 85 85 86
REMARK SMILES IDX 78 87 84 88 86 89 83 90 79 91 80 92 81 93 82 94 61 95 62 96
REMARK SMILES IDX 70 97 63 98 69 99 71 100 68 101 64 102 65 103 66 104 67 105
REMARK H PARENT 27 6 32 39 91 58 59 69
REMARK Flexibility Score: inf
ROOT
ATOM      1  C   UNL     1      -8.623   6.847   8.292  1.00  0.00     0.023 C 
ENDROOT
BRANCH   1   2
ATOM      2  C   UNL     1      -9.244   5.975   7.196  1.00  0.00     0.116 C 
BRANCH   2   3
ATOM      3  N   UNL     1      -8.555   6.177   5.937  1.00  0.00    -0.352 N 
ATOM      4  C   UNL     1      -7.564   5.528   5.269  1.00  0.00     0.251 C 
ATOM      5  O   UNL     1      -7.265   6.044   4.189  1.00  0.00    -0.269 OA
ATOM      6  H   UNL     1      -8.880   6.970   5.452  1.00  0.00     0.163 HD
BRANCH   4   7
ATOM      7  C   UNL     1      -6.901   4.234   5.741  1.00  0.00     0.047 C 
ATOM      8  C   UNL     1      -6.873   3.955   7.067  1.00  0.00     0.022 C 
BRANCH   7   9
ATOM      9  C   UNL     1      -6.143   3.385   4.749  1.00  0.00    -0.013 A 
ATOM     10  C   UNL     1      -4.335   1.838   3.119  1.00  0.00    -0.018 A 
ATOM     11  C   UNL     1      -5.139   1.246   4.101  1.00  0.00     0.009 A 
ATOM     12  C   UNL     1      -4.525   3.208   2.907  1.00  0.00     0.009 A 
ATOM     13  C   UNL     1      -6.063   1.990   4.850  1.00  0.00     0.009 A 
ATOM     14  C   UNL     1      -5.381   3.966   3.724  1.00  0.00     0.009 A 
BRANCH  10  15
ATOM     15  C   UNL     1      -3.337   1.055   2.353  1.00  0.00    -0.018 A 
ATOM     16  C   UNL     1      -1.436  -0.447   0.867  1.00  0.00     0.119 A 
ATOM     17  C   UNL     1      -2.598  -1.047   1.341  1.00  0.00     0.047 A 
ATOM     18  C   UNL     1      -1.221   0.901   1.118  1.00  0.00     0.047 A 
ATOM     19  C   UNL     1      -3.533  -0.308   2.073  1.00  0.00     0.012 A 
ATOM     20  C   UNL     1      -2.152   1.637   1.867  1.00  0.00     0.012 A 
BRANCH  16  21
ATOM     21  O   UNL     1      -0.654  -1.220   0.062  1.00  0.00    -0.491 OA
BRANCH  21  22
ATOM     22  C   UNL     1       0.754  -1.319   0.313  1.00  0.00     0.167 C 
ATOM     23  C   UNL     1       1.550  -0.124  -0.201  1.00  0.00     0.052 C 
ATOM     24  C   UNL     1       1.105  -1.704   1.748  1.00  0.00     0.052 C 
ENDBRANCH  21  22
ENDBRANCH  16  21
ENDBRANCH  10  15
ENDBRANCH   7   9
BRANCH   8  25
ATOM     25  C   UNL     1      -6.443   2.732   7.762  1.00  0.00    -0.025 A 
ATOM     26  C   UNL     1      -7.438   1.851   8.223  1.00  0.00     0.009 A 
ATOM     27  C   UNL     1      -5.096   2.392   7.908  1.00  0.00     0.009 A 
ATOM     28  C   UNL     1      -7.091   0.619   8.778  1.00  0.00     0.021 A 
ATOM     29  C   UNL     1      -4.743   1.157   8.461  1.00  0.00     0.021 A 
ATOM     30  C   UNL     1      -5.742   0.278   8.890  1.00  0.00     0.067 A 
BRANCH  30  31
ATOM     31  S   UNL     1      -5.309  -1.332   9.507  1.00  0.00     0.175 S 
ATOM     32  C   UNL     1      -5.554  -1.187  11.256  1.00  0.00     0.163 C 
ATOM     33  O   UNL     1      -6.284  -2.270   8.988  1.00  0.00    -0.224 OA
ATOM     34  O   UNL     1      -3.890  -1.531   9.272  1.00  0.00    -0.224 OA
ENDBRANCH  30  31
ENDBRANCH   8  25
ENDBRANCH   4   7
ENDBRANCH   2   3
ENDBRANCH   1   2
BRANCH   1  35
ATOM     35  C   UNL     1      -9.007   8.328   8.211  1.00  0.00     0.023 C 
BRANCH  35  36
ATOM     36  C   UNL     1     -10.504   8.609   8.269  1.00  0.00     0.116 C 
BRANCH  36  37
ATOM     37  N   UNL     1     -11.153   7.991   9.417  1.00  0.00    -0.352 N 
ATOM     38  C   UNL     1     -12.160   8.494  10.204  1.00  0.00     0.251 C 
ATOM     39  H   UNL     1     -10.827   7.095   9.660  1.00  0.00     0.163 HD
ATOM     40  O   UNL     1     -12.505   7.897  11.218  1.00  0.00    -0.269 OA
BRANCH  38  41
ATOM     41  C   UNL     1     -12.781   9.780   9.831  1.00  0.00     0.039 A 
ATOM     42  C   UNL     1     -12.855  10.794  10.787  1.00  0.00     0.014 A 
ATOM     43  C   UNL     1     -13.215  10.001   8.521  1.00  0.00     0.014 A 
ATOM     44  C   UNL     1     -13.287  12.063  10.404  1.00  0.00     0.010 A 
ATOM     45  C   UNL     1     -13.575  11.285   8.126  1.00  0.00     0.010 A 
ATOM     46  C   UNL     1     -13.599  12.332   9.060  1.00  0.00    -0.014 A 
BRANCH  46  47
ATOM     47  C   UNL     1     -13.904  13.713   8.607  1.00  0.00     0.031 A 
ATOM     48  C   UNL     1     -15.254  14.044   8.039  1.00  0.00     0.074 A 
ATOM     49  C   UNL     1     -12.934  14.649   8.650  1.00  0.00     0.049 A 
ATOM     50  N   UNL     1     -15.682  15.171   7.532  1.00  0.00    -0.248 NA
ATOM     51  C   UNL     1     -16.244  12.957   8.013  1.00  0.00     0.031 C 
ATOM     52  C   UNL     1     -11.571  14.430   9.143  1.00  0.00     0.029 A 
ATOM     53  N   UNL     1     -12.937  15.967   8.267  1.00  0.00    -0.354 N 
ATOM     54  C   UNL     1     -16.989  14.930   7.123  1.00  0.00     0.074 A 
ATOM     55  C   UNL     1     -17.259  13.532   7.385  1.00  0.00     0.031 C 
ATOM     56  C   UNL     1     -10.882  15.579   9.059  1.00  0.00     0.029 A 
ATOM     57  C   UNL     1     -11.729  16.601   8.455  1.00  0.00     0.049 A 
ATOM     58  H   UNL     1     -13.728  16.417   7.893  1.00  0.00     0.167 HD
ATOM     59  C   UNL     1     -17.886  15.802   6.599  1.00  0.00     0.034 A 
ATOM     60  C   UNL     1     -11.342  17.857   8.155  1.00  0.00     0.034 A 
ATOM     61  C   UNL     1     -17.595  17.193   6.345  1.00  0.00     0.049 A 
ATOM     62  C   UNL     1     -12.341  18.790   7.521  1.00  0.00     0.074 A 
ATOM     63  C   UNL     1     -18.446  18.177   5.873  1.00  0.00     0.029 A 
ATOM     64  N   UNL     1     -16.355  17.794   6.522  1.00  0.00    -0.354 N 
ATOM     65  N   UNL     1     -13.596  18.565   7.203  1.00  0.00    -0.248 NA
ATOM     66  C   UNL     1     -11.875  20.147   7.209  1.00  0.00     0.031 C 
ATOM     67  C   UNL     1     -17.703  19.347   5.686  1.00  0.00     0.029 A 
ATOM     68  C   UNL     1     -16.407  19.122   6.123  1.00  0.00     0.049 A 
ATOM     69  H   UNL     1     -15.556  17.344   6.879  1.00  0.00     0.167 HD
ATOM     70  C   UNL     1     -14.072  19.761   6.672  1.00  0.00     0.074 A 
ATOM     71  C   UNL     1     -12.979  20.708   6.739  1.00  0.00     0.031 C 
ATOM     72  C   UNL     1     -15.301  20.049   6.173  1.00  0.00     0.034 A 
BRANCH  59  73
ATOM     73  C   UNL     1     -19.251  15.267   6.239  1.00  0.00     0.023 A 
ATOM     74  C   UNL     1     -20.116  14.735   7.212  1.00  0.00     0.031 A 
ATOM     75  C   UNL     1     -19.691  15.274   4.904  1.00  0.00     0.131 A 
ATOM     76  C   UNL     1     -21.341  14.169   6.827  1.00  0.00     0.055 A 
ATOM     77  C   UNL     1     -20.947  14.787   4.538  1.00  0.00     0.041 A 
ATOM     78  F   UNL     1     -18.901  15.748   3.927  1.00  0.00    -0.206 F 
ATOM     79  C   UNL     1     -21.775  14.216   5.500  1.00  0.00     0.022 A 
BRANCH  76  80
ATOM     80  S   UNL     1     -22.292  13.242   8.062  1.00  0.00     0.124 S 
ATOM     81  O   UNL     1     -21.329  12.222   8.471  1.00  0.00    -0.237 OA
ATOM     82  O   UNL     1     -22.600  14.264   9.055  1.00  0.00    -0.237 OA
ATOM     83  O   UNL     1     -23.437  12.739   7.306  1.00  0.00    -0.744 OA
ENDBRANCH  76  80
ENDBRANCH  59  73
BRANCH  60  84
ATOM     84  C   UNL     1      -9.942  18.302   8.420  1.00  0.00     0.023 A 
ATOM     85  C   UNL     1      -9.673  19.349   9.315  1.00  0.00     0.031 A 
ATOM     86  C   UNL     1      -8.855  17.718   7.744  1.00  0.00     0.131 A 
ATOM     87  C   UNL     1      -8.357  19.813   9.474  1.00  0.00     0.055 A 
ATOM     88  C   UNL     1      -7.542  18.143   7.951  1.00  0.00     0.041 A 
ATOM     89  F   UNL     1      -9.055  16.713   6.877  1.00  0.00    -0.206 F 
ATOM     90  C   UNL     1      -7.289  19.207   8.811  1.00  0.00     0.022 A 
BRANCH  87  91
ATOM     91  S   UNL     1      -8.075  21.290  10.489  1.00  0.00     0.124 S 
ATOM     92  O   UNL     1      -8.917  22.275   9.819  1.00  0.00    -0.237 OA
ATOM     93  O   UNL     1      -8.528  20.846  11.803  1.00  0.00    -0.237 OA
ATOM     94  O   UNL     1      -6.636  21.514  10.370  1.00  0.00    -0.744 OA
ENDBRANCH  87  91
ENDBRANCH  60  84
BRANCH  72  95
ATOM     95  C   UNL     1     -15.527  21.459   5.680  1.00  0.00     0.023 A 
ATOM     96  C   UNL     1     -14.841  21.967   4.562  1.00  0.00     0.031 A 
ATOM     97  C   UNL     1     -16.431  22.308   6.343  1.00  0.00     0.131 A 
ATOM     98  C   UNL     1     -15.027  23.302   4.175  1.00  0.00     0.055 A 
ATOM     99  C   UNL     1     -16.663  23.615   5.911  1.00  0.00     0.041 A 
ATOM    100  F   UNL     1     -17.109  21.880   7.419  1.00  0.00    -0.206 F 
ATOM    101  C   UNL     1     -15.949  24.123   4.829  1.00  0.00     0.022 A 
BRANCH  98 102
ATOM    102  S   UNL     1     -13.976  23.982   2.864  1.00  0.00     0.124 S 
ATOM    103  O   UNL     1     -12.640  23.798   3.422  1.00  0.00    -0.237 OA
ATOM    104  O   UNL     1     -14.311  23.136   1.723  1.00  0.00    -0.237 OA
ATOM    105  O   UNL     1     -14.417  25.371   2.756  1.00  0.00    -0.744 OA
ENDBRANCH  98 102
ENDBRANCH  72  95
ENDBRANCH  46  47
ENDBRANCH  38  41
ENDBRANCH  36  37
ENDBRANCH  35  36
ENDBRANCH   1  35
TORSDOF 20
