REMARK SMILES CC(=O)Nc1ccc(/C(=C\c2ccc(S(C)(=O)=O)cc2)C(=O)NCCCCNC(=O)c2ccc(-c3c4nc(c(-c5cc(S(=O)(=O)[O-])ccc5F)c5ccc([nH]5)c(-c5cc(S(=O)(=O)[O-])ccc5F)c5nc(c(-c6cc(S(=O)(=O)[O-])ccc6F)c6ccc3[nH]6)C=C5)C=C4)cc2)cc1
REMARK SMILES IDX 26 1 25 2 24 3 23 4 21 5 22 6 9 8 10 9 8 10 5 11 6 12 95 13
REMARK SMILES IDX 7 14 94 15 4 16 1 17 2 18 3 19 11 21 12 22 20 23 13 24 19 25
REMARK SMILES IDX 14 26 15 27 16 28 17 29 18 30 27 31 28 32 29 33 30 35 31 36
REMARK SMILES IDX 32 37 93 38 33 39 92 40 34 41 35 42 36 43 86 44 37 45 91 46
REMARK SMILES IDX 85 47 87 48 38 49 90 50 84 51 83 52 39 54 71 55 51 56 70 57
REMARK SMILES IDX 52 58 55 59 69 60 88 61 53 62 54 63 68 65 89 66 56 67 40 68
REMARK SMILES IDX 41 69 49 70 42 71 48 72 50 73 47 74 43 75 44 76 45 77 46 78
REMARK SMILES IDX 72 79 73 80 81 81 74 82 80 83 82 84 79 85 75 86 76 87 77 88
REMARK SMILES IDX 78 89 57 90 58 91 66 92 59 93 65 94 67 95 64 96 60 97 61 98
REMARK SMILES IDX 62 99 63 100
REMARK H PARENT 23 7 4 20 28 34 87 53 55 64
REMARK Flexibility Score: inf
ROOT
ATOM      1  C   UNL     1       7.096  -4.691   7.456  1.00  0.00     0.023 C 
ENDROOT
BRANCH   1   2
ATOM      2  C   UNL     1       6.067  -3.586   7.723  1.00  0.00     0.023 C 
BRANCH   2   3
ATOM      3  C   UNL     1       6.530  -2.184   7.314  1.00  0.00     0.116 C 
BRANCH   3   4
ATOM      4  N   UNL     1       6.467  -2.028   5.875  1.00  0.00    -0.352 N 
ATOM      5  C   UNL     1       5.589  -1.485   4.993  1.00  0.00     0.251 C 
ATOM      6  O   UNL     1       5.973  -1.550   3.822  1.00  0.00    -0.269 OA
ATOM      7  H   UNL     1       7.255  -2.411   5.426  1.00  0.00     0.163 HD
BRANCH   5   8
ATOM      8  C   UNL     1       4.273  -0.791   5.361  1.00  0.00     0.047 C 
ATOM      9  C   UNL     1       3.695  -1.091   6.549  1.00  0.00     0.022 C 
BRANCH   8  10
ATOM     10  C   UNL     1       3.560   0.055   4.328  1.00  0.00    -0.013 A 
ATOM     11  C   UNL     1       1.880   1.280   2.356  1.00  0.00     0.041 A 
ATOM     12  C   UNL     1       1.887   1.730   3.678  1.00  0.00     0.027 A 
ATOM     13  C   UNL     1       2.819   0.329   1.998  1.00  0.00     0.027 A 
ATOM     14  C   UNL     1       2.740   1.151   4.637  1.00  0.00     0.011 A 
ATOM     15  C   UNL     1       3.612  -0.293   2.969  1.00  0.00     0.011 A 
BRANCH  11  16
ATOM     16  N   UNL     1       0.929   1.827   1.479  1.00  0.00    -0.326 N 
ATOM     17  C   UNL     1       0.870   0.111  -0.348  1.00  0.00     0.114 C 
ATOM     18  C   UNL     1       0.469   1.430   0.255  1.00  0.00     0.221 C 
ATOM     19  O   UNL     1      -0.328   2.163  -0.339  1.00  0.00    -0.275 OA
ATOM     20  H   UNL     1       0.513   2.656   1.810  1.00  0.00     0.169 HD
ENDBRANCH  11  16
ENDBRANCH   8  10
BRANCH   9  21
ATOM     21  C   UNL     1       2.539  -0.490   7.229  1.00  0.00    -0.025 A 
ATOM     22  C   UNL     1       2.792   0.371   8.311  1.00  0.00     0.009 A 
ATOM     23  C   UNL     1       1.223  -0.719   6.819  1.00  0.00     0.009 A 
ATOM     24  C   UNL     1       1.744   1.035   8.949  1.00  0.00     0.021 A 
ATOM     25  C   UNL     1       0.169  -0.052   7.451  1.00  0.00     0.021 A 
ATOM     26  C   UNL     1       0.436   0.822   8.510  1.00  0.00     0.067 A 
BRANCH  26  27
ATOM     27  S   UNL     1      -0.884   1.745   9.260  1.00  0.00     0.175 S 
ATOM     28  C   UNL     1      -1.143   0.927  10.811  1.00  0.00     0.163 C 
ATOM     29  O   UNL     1      -0.380   3.077   9.526  1.00  0.00    -0.224 OA
ATOM     30  O   UNL     1      -2.074   1.551   8.451  1.00  0.00    -0.224 OA
ENDBRANCH  26  27
ENDBRANCH   9  21
ENDBRANCH   5   8
ENDBRANCH   3   4
ENDBRANCH   2   3
ENDBRANCH   1   2
BRANCH   1  31
ATOM     31  C   UNL     1       8.445  -4.497   8.139  1.00  0.00     0.116 C 
BRANCH  31  32
ATOM     32  N   UNL     1       8.330  -4.278   9.573  1.00  0.00    -0.352 N 
ATOM     33  C   UNL     1       9.166  -4.710  10.574  1.00  0.00     0.251 C 
ATOM     34  H   UNL     1       7.550  -3.753   9.865  1.00  0.00     0.163 HD
ATOM     35  O   UNL     1       8.852  -4.549  11.749  1.00  0.00    -0.269 OA
BRANCH  33  36
ATOM     36  C   UNL     1      10.418  -5.403  10.211  1.00  0.00     0.039 A 
ATOM     37  C   UNL     1      10.706  -6.632  10.808  1.00  0.00     0.014 A 
ATOM     38  C   UNL     1      11.268  -4.868   9.241  1.00  0.00     0.014 A 
ATOM     39  C   UNL     1      11.812  -7.362  10.373  1.00  0.00     0.010 A 
ATOM     40  C   UNL     1      12.325  -5.631   8.757  1.00  0.00     0.010 A 
ATOM     41  C   UNL     1      12.604  -6.889   9.313  1.00  0.00    -0.014 A 
BRANCH  41  42
ATOM     42  C   UNL     1      13.713  -7.708   8.760  1.00  0.00     0.031 A 
ATOM     43  C   UNL     1      15.130  -7.211   8.835  1.00  0.00     0.074 A 
ATOM     44  C   UNL     1      13.431  -8.867   8.133  1.00  0.00     0.049 A 
ATOM     45  N   UNL     1      16.221  -7.749   8.356  1.00  0.00    -0.248 NA
ATOM     46  C   UNL     1      15.342  -5.922   9.511  1.00  0.00     0.031 C 
ATOM     47  C   UNL     1      12.088  -9.426   7.955  1.00  0.00     0.029 A 
ATOM     48  N   UNL     1      14.251  -9.781   7.519  1.00  0.00    -0.354 N 
ATOM     49  C   UNL     1      17.247  -6.862   8.661  1.00  0.00     0.074 A 
ATOM     50  C   UNL     1      16.635  -5.722   9.310  1.00  0.00     0.031 C 
ATOM     51  C   UNL     1      12.180 -10.595   7.303  1.00  0.00     0.029 A 
ATOM     52  C   UNL     1      13.577 -10.847   6.968  1.00  0.00     0.049 A 
ATOM     53  H   UNL     1      15.230  -9.683   7.476  1.00  0.00     0.167 HD
ATOM     54  C   UNL     1      18.578  -6.997   8.439  1.00  0.00     0.034 A 
ATOM     55  C   UNL     1      14.030 -11.899   6.256  1.00  0.00     0.034 A 
ATOM     56  C   UNL     1      19.168  -8.146   7.795  1.00  0.00     0.049 A 
ATOM     57  C   UNL     1      15.511 -12.013   5.995  1.00  0.00     0.074 A 
ATOM     58  C   UNL     1      20.507  -8.421   7.582  1.00  0.00     0.029 A 
ATOM     59  N   UNL     1      18.455  -9.204   7.243  1.00  0.00    -0.354 N 
ATOM     60  N   UNL     1      16.478 -11.200   6.354  1.00  0.00    -0.248 NA
ATOM     61  C   UNL     1      15.962 -13.190   5.242  1.00  0.00     0.031 C 
ATOM     62  C   UNL     1      20.600  -9.596   6.829  1.00  0.00     0.029 A 
ATOM     63  C   UNL     1      19.325 -10.108   6.649  1.00  0.00     0.049 A 
ATOM     64  H   UNL     1      17.475  -9.299   7.269  1.00  0.00     0.167 HD
ATOM     65  C   UNL     1      17.654 -11.782   5.891  1.00  0.00     0.074 A 
ATOM     66  C   UNL     1      17.276 -13.023   5.246  1.00  0.00     0.031 C 
ATOM     67  C   UNL     1      18.932 -11.333   5.991  1.00  0.00     0.034 A 
BRANCH  54  68
ATOM     68  C   UNL     1      19.477  -5.860   8.866  1.00  0.00     0.023 A 
ATOM     69  C   UNL     1      19.580  -5.461  10.211  1.00  0.00     0.031 A 
ATOM     70  C   UNL     1      20.223  -5.146   7.912  1.00  0.00     0.131 A 
ATOM     71  C   UNL     1      20.343  -4.333  10.552  1.00  0.00     0.055 A 
ATOM     72  C   UNL     1      21.051  -4.080   8.270  1.00  0.00     0.041 A 
ATOM     73  F   UNL     1      20.150  -5.463   6.610  1.00  0.00    -0.206 F 
ATOM     74  C   UNL     1      21.102  -3.657   9.595  1.00  0.00     0.022 A 
BRANCH  71  75
ATOM     75  S   UNL     1      20.202  -3.671  12.235  1.00  0.00     0.124 S 
ATOM     76  O   UNL     1      18.766  -3.416  12.332  1.00  0.00    -0.237 OA
ATOM     77  O   UNL     1      20.713  -4.767  13.049  1.00  0.00    -0.237 OA
ATOM     78  O   UNL     1      21.038  -2.473  12.202  1.00  0.00    -0.744 OA
ENDBRANCH  71  75
ENDBRANCH  54  68
BRANCH  55  79
ATOM     79  C   UNL     1      13.077 -12.913   5.720  1.00  0.00     0.023 A 
ATOM     80  C   UNL     1      13.122 -14.251   6.143  1.00  0.00     0.031 A 
ATOM     81  C   UNL     1      12.125 -12.565   4.744  1.00  0.00     0.131 A 
ATOM     82  C   UNL     1      12.265 -15.199   5.562  1.00  0.00     0.055 A 
ATOM     83  C   UNL     1      11.235 -13.499   4.211  1.00  0.00     0.041 A 
ATOM     84  F   UNL     1      12.035 -11.299   4.304  1.00  0.00    -0.206 F 
ATOM     85  C   UNL     1      11.311 -14.829   4.611  1.00  0.00     0.022 A 
BRANCH  82  86
ATOM     86  S   UNL     1      12.472 -16.946   6.005  1.00  0.00     0.124 S 
ATOM     87  O   UNL     1      13.860 -17.185   5.626  1.00  0.00    -0.237 OA
ATOM     88  O   UNL     1      12.190 -16.931   7.436  1.00  0.00    -0.237 OA
ATOM     89  O   UNL     1      11.474 -17.626   5.183  1.00  0.00    -0.744 OA
ENDBRANCH  82  86
ENDBRANCH  55  79
BRANCH  67  90
ATOM     90  C   UNL     1      20.017 -12.213   5.417  1.00  0.00     0.023 A 
ATOM     91  C   UNL     1      20.111 -12.468   4.037  1.00  0.00     0.031 A 
ATOM     92  C   UNL     1      20.968 -12.810   6.264  1.00  0.00     0.131 A 
ATOM     93  C   UNL     1      21.096 -13.342   3.553  1.00  0.00     0.055 A 
ATOM     94  C   UNL     1      21.988 -13.623   5.769  1.00  0.00     0.041 A 
ATOM     95  F   UNL     1      20.924 -12.607   7.591  1.00  0.00    -0.206 F 
ATOM     96  C   UNL     1      22.047 -13.904   4.407  1.00  0.00     0.022 A 
BRANCH  93  97
ATOM     97  S   UNL     1      21.056 -13.815   1.802  1.00  0.00     0.124 S 
ATOM     98  O   UNL     1      19.728 -14.408   1.680  1.00  0.00    -0.237 OA
ATOM     99  O   UNL     1      21.247 -12.535   1.128  1.00  0.00    -0.237 OA
ATOM    100  O   UNL     1      22.169 -14.754   1.675  1.00  0.00    -0.744 OA
ENDBRANCH  93  97
ENDBRANCH  67  90
ENDBRANCH  41  42
ENDBRANCH  33  36
ENDBRANCH  31  32
ENDBRANCH   1  31
TORSDOF 18
