REMARK SMILES COc1ccc2c(c1)c(CC(=O)NCCCCNC(=O)c1ccc(-c3c4nc(c(-c5cc(S(=O)(=O)[O-])ccc5F)c5ccc([nH]5)c(-c5cc(S(=O)(=O)[O-])ccc5F)c5nc(c(-c6cc(S(=O)(=O)[O-])ccc6F)c6ccc3[nH]6)C=C5)C=C4)cc1)c(C)n2Cc1ccc(Br)cc1
REMARK SMILES IDX 15 1 14 2 13 3 11 4 12 5 10 7 9 8 3 9 4 10 8 11 5 12 7 13
REMARK SMILES IDX 6 14 86 15 84 16 85 17 2 18 1 19 87 20 88 21 89 22 94 23
REMARK SMILES IDX 90 24 93 25 91 26 92 27 16 28 17 29 18 30 19 31 20 33 21 34
REMARK SMILES IDX 22 35 83 36 23 37 82 38 24 39 25 40 26 41 76 42 27 43 81 44
REMARK SMILES IDX 75 45 77 46 28 47 80 48 74 49 73 50 29 52 61 53 41 54 60 55
REMARK SMILES IDX 42 56 45 57 59 58 78 59 43 60 44 61 58 63 79 64 46 65 30 66
REMARK SMILES IDX 31 67 39 68 32 69 38 70 40 71 37 72 33 73 34 74 35 75 36 76
REMARK SMILES IDX 62 77 63 78 71 79 64 80 70 81 72 82 69 83 65 84 66 85 67 86
REMARK SMILES IDX 68 87 47 88 48 89 56 90 49 91 55 92 57 93 54 94 50 95 51 96
REMARK SMILES IDX 52 97 53 98
REMARK H PARENT 13 6 18 32 77 51 45 62
REMARK Flexibility Score: inf
ROOT
ATOM      1  C   UNL     1       0.951   6.971   3.229  1.00  0.00     0.023 C 
ENDROOT
BRANCH   1   2
ATOM      2  C   UNL     1      -0.410   6.824   3.909  1.00  0.00     0.116 C 
BRANCH   2   3
ATOM      3  N   UNL     1      -1.396   6.189   3.053  1.00  0.00    -0.356 N 
ATOM      4  C   UNL     1      -2.032   4.988   3.204  1.00  0.00     0.224 C 
ATOM      5  O   UNL     1      -2.881   4.670   2.366  1.00  0.00    -0.275 OA
ATOM      6  H   UNL     1      -1.643   6.697   2.247  1.00  0.00     0.163 HD
BRANCH   4   7
ATOM      7  C   UNL     1      -1.772   4.112   4.423  1.00  0.00     0.138 C 
BRANCH   7   8
ATOM      8  C   UNL     1      -0.346   3.676   4.549  1.00  0.00    -0.010 A 
ATOM      9  C   UNL     1       1.057   1.751   1.571  1.00  0.00     0.119 A 
ATOM     10  C   UNL     1       2.362   1.673   2.045  1.00  0.00     0.048 A 
ATOM     11  C   UNL     1       0.091   2.437   2.307  1.00  0.00     0.057 A 
ATOM     12  C   UNL     1       2.724   2.254   3.274  1.00  0.00     0.031 A 
ATOM     13  C   UNL     1       0.416   2.987   3.565  1.00  0.00     0.007 A 
ATOM     14  C   UNL     1       1.729   2.897   4.034  1.00  0.00     0.049 A 
ATOM     15  N   UNL     1       1.765   3.553   5.261  1.00  0.00    -0.340 N 
ATOM     16  C   UNL     1       0.464   3.807   5.670  1.00  0.00     0.020 A 
ATOM     17  C   UNL     1       0.051   4.215   7.041  1.00  0.00     0.065 C 
BRANCH   9  18
ATOM     18  O   UNL     1       0.623   1.251   0.373  1.00  0.00    -0.497 OA
ATOM     19  C   UNL     1       1.178  -0.004  -0.001  1.00  0.00     0.278 C 
ENDBRANCH   9  18
BRANCH  15  20
ATOM     20  C   UNL     1       2.982   3.817   6.039  1.00  0.00     0.157 C 
BRANCH  20  21
ATOM     21  C   UNL     1       3.430   5.269   6.026  1.00  0.00    -0.028 A 
ATOM     22  C   UNL     1       2.732   6.268   6.726  1.00  0.00     0.007 A 
ATOM     23  C   UNL     1       4.610   5.643   5.362  1.00  0.00     0.007 A 
ATOM     24  C   UNL     1       3.171   7.596   6.740  1.00  0.00     0.016 A 
ATOM     25  C   UNL     1       5.067   6.968   5.395  1.00  0.00     0.016 A 
ATOM     26  C   UNL     1       4.342   7.939   6.078  1.00  0.00     0.017 A 
ATOM     27  Br  UNL     1       4.964   9.721   6.138  1.00  0.00    -0.051 Br
ENDBRANCH  20  21
ENDBRANCH  15  20
ENDBRANCH   7   8
ENDBRANCH   4   7
ENDBRANCH   2   3
ENDBRANCH   1   2
BRANCH   1  28
ATOM     28  C   UNL     1       0.994   7.979   2.072  1.00  0.00     0.023 C 
BRANCH  28  29
ATOM     29  C   UNL     1       0.481   9.380   2.411  1.00  0.00     0.116 C 
BRANCH  29  30
ATOM     30  N   UNL     1       1.173  10.025   3.508  1.00  0.00    -0.352 N 
ATOM     31  C   UNL     1       2.134  10.999   3.575  1.00  0.00     0.251 C 
ATOM     32  H   UNL     1       0.893   9.693   4.392  1.00  0.00     0.163 HD
ATOM     33  O   UNL     1       2.210  11.605   4.647  1.00  0.00    -0.269 OA
BRANCH  31  34
ATOM     34  C   UNL     1       3.126  11.293   2.502  1.00  0.00     0.039 A 
ATOM     35  C   UNL     1       3.106  10.752   1.219  1.00  0.00     0.014 A 
ATOM     36  C   UNL     1       4.216  12.111   2.868  1.00  0.00     0.014 A 
ATOM     37  C   UNL     1       4.187  10.939   0.365  1.00  0.00     0.010 A 
ATOM     38  C   UNL     1       5.296  12.311   2.010  1.00  0.00     0.010 A 
ATOM     39  C   UNL     1       5.302  11.684   0.771  1.00  0.00    -0.014 A 
BRANCH  39  40
ATOM     40  C   UNL     1       6.377  11.859  -0.206  1.00  0.00     0.031 A 
ATOM     41  C   UNL     1       5.923  12.469  -1.486  1.00  0.00     0.074 A 
ATOM     42  C   UNL     1       7.675  11.550  -0.012  1.00  0.00     0.049 A 
ATOM     43  N   UNL     1       5.796  11.890  -2.636  1.00  0.00    -0.248 NA
ATOM     44  C   UNL     1       5.382  13.834  -1.435  1.00  0.00     0.031 C 
ATOM     45  C   UNL     1       8.351  11.209   1.241  1.00  0.00     0.029 A 
ATOM     46  N   UNL     1       8.695  11.548  -0.920  1.00  0.00    -0.354 N 
ATOM     47  C   UNL     1       5.337  12.874  -3.509  1.00  0.00     0.074 A 
ATOM     48  C   UNL     1       4.946  13.991  -2.686  1.00  0.00     0.031 C 
ATOM     49  C   UNL     1       9.692  11.255   1.054  1.00  0.00     0.029 A 
ATOM     50  C   UNL     1       9.962  11.461  -0.360  1.00  0.00     0.049 A 
ATOM     51  H   UNL     1       8.544  11.604  -1.891  1.00  0.00     0.167 HD
ATOM     52  C   UNL     1       5.503  12.773  -4.858  1.00  0.00     0.034 A 
ATOM     53  C   UNL     1      11.150  11.588  -1.003  1.00  0.00     0.034 A 
ATOM     54  C   UNL     1       5.855  11.434  -5.243  1.00  0.00     0.049 A 
ATOM     55  C   UNL     1      10.924  11.343  -2.443  1.00  0.00     0.074 A 
ATOM     56  C   UNL     1       5.220  10.211  -5.232  1.00  0.00     0.029 A 
ATOM     57  N   UNL     1       7.193  11.177  -5.400  1.00  0.00    -0.354 N 
ATOM     58  N   UNL     1      10.634  10.180  -2.951  1.00  0.00    -0.248 NA
ATOM     59  C   UNL     1      10.643  12.487  -3.295  1.00  0.00     0.031 C 
ATOM     60  C   UNL     1       6.246   9.261  -4.962  1.00  0.00     0.029 A 
ATOM     61  C   UNL     1       7.465   9.941  -4.879  1.00  0.00     0.049 A 
ATOM     62  H   UNL     1       7.849  11.781  -5.818  1.00  0.00     0.167 HD
ATOM     63  C   UNL     1       9.718  10.465  -3.950  1.00  0.00     0.074 A 
ATOM     64  C   UNL     1       9.875  11.893  -4.210  1.00  0.00     0.031 C 
ATOM     65  C   UNL     1       8.730   9.579  -4.267  1.00  0.00     0.034 A 
BRANCH  52  66
ATOM     66  C   UNL     1       5.710  13.959  -5.770  1.00  0.00     0.023 A 
ATOM     67  C   UNL     1       5.998  15.246  -5.280  1.00  0.00     0.031 A 
ATOM     68  C   UNL     1       5.859  13.786  -7.161  1.00  0.00     0.131 A 
ATOM     69  C   UNL     1       6.379  16.292  -6.128  1.00  0.00     0.055 A 
ATOM     70  C   UNL     1       6.311  14.812  -8.003  1.00  0.00     0.041 A 
ATOM     71  F   UNL     1       5.629  12.595  -7.738  1.00  0.00    -0.206 F 
ATOM     72  C   UNL     1       6.572  16.076  -7.488  1.00  0.00     0.022 A 
BRANCH  69  73
ATOM     73  S   UNL     1       6.645  17.957  -5.460  1.00  0.00     0.124 S 
ATOM     74  O   UNL     1       8.026  18.219  -5.840  1.00  0.00    -0.237 OA
ATOM     75  O   UNL     1       5.630  18.725  -6.176  1.00  0.00    -0.237 OA
ATOM     76  O   UNL     1       6.396  17.792  -4.028  1.00  0.00    -0.744 OA
ENDBRANCH  69  73
ENDBRANCH  52  66
BRANCH  53  77
ATOM     77  C   UNL     1      12.334  12.355  -0.548  1.00  0.00     0.023 A 
ATOM     78  C   UNL     1      12.146  13.488   0.264  1.00  0.00     0.031 A 
ATOM     79  C   UNL     1      13.581  12.211  -1.183  1.00  0.00     0.131 A 
ATOM     80  C   UNL     1      13.149  14.462   0.363  1.00  0.00     0.055 A 
ATOM     81  C   UNL     1      14.590  13.175  -1.064  1.00  0.00     0.041 A 
ATOM     82  F   UNL     1      13.813  11.173  -2.001  1.00  0.00    -0.206 F 
ATOM     83  C   UNL     1      14.368  14.318  -0.301  1.00  0.00     0.022 A 
BRANCH  80  84
ATOM     84  S   UNL     1      12.843  16.000   1.274  1.00  0.00     0.124 S 
ATOM     85  O   UNL     1      14.033  16.101   2.115  1.00  0.00    -0.237 OA
ATOM     86  O   UNL     1      12.755  16.973   0.190  1.00  0.00    -0.237 OA
ATOM     87  O   UNL     1      11.601  15.731   1.992  1.00  0.00    -0.744 OA
ENDBRANCH  80  84
ENDBRANCH  53  77
BRANCH  65  88
ATOM     88  C   UNL     1       8.844   8.158  -3.759  1.00  0.00     0.023 A 
ATOM     89  C   UNL     1       8.668   7.134  -4.707  1.00  0.00     0.031 A 
ATOM     90  C   UNL     1       8.909   7.783  -2.403  1.00  0.00     0.131 A 
ATOM     91  C   UNL     1       8.510   5.807  -4.298  1.00  0.00     0.055 A 
ATOM     92  C   UNL     1       8.829   6.444  -2.004  1.00  0.00     0.041 A 
ATOM     93  F   UNL     1       8.970   8.694  -1.423  1.00  0.00    -0.206 F 
ATOM     94  C   UNL     1       8.608   5.449  -2.952  1.00  0.00     0.022 A 
BRANCH  91  95
ATOM     95  S   UNL     1       8.006   4.543  -5.493  1.00  0.00     0.124 S 
ATOM     96  O   UNL     1       9.161   3.650  -5.504  1.00  0.00    -0.237 OA
ATOM     97  O   UNL     1       6.798   3.998  -4.876  1.00  0.00    -0.237 OA
ATOM     98  O   UNL     1       7.783   5.291  -6.727  1.00  0.00    -0.744 OA
ENDBRANCH  91  95
ENDBRANCH  65  88
ENDBRANCH  39  40
ENDBRANCH  31  34
ENDBRANCH  29  30
ENDBRANCH  28  29
ENDBRANCH   1  28
TORSDOF 18
