REMARK SMILES CS(=O)(=O)c1ccc(/C=C(/C(=O)NCCCCNC(=O)c2ccc(-c3c4nc(c(-c5cc(S(=O)(=O)[O-])ccc5F)c5ccc([nH]5)c(-c5cc(S(=O)(=O)[O-])ccc5F)c5nc(c(-c6cc(S(=O)(=O)[O-])ccc6F)c6ccc3[nH]6)C=C5)C=C4)cc2)c2cccc(-c3ccc(S(C)(=O)=O)cc3)c2)cc1
REMARK SMILES IDX 15 1 14 2 13 3 11 4 12 5 10 7 9 8 8 9 5 10 6 11 101 12 7 13
REMARK SMILES IDX 100 14 2 15 1 16 3 17 4 18 84 19 85 20 99 21 86 22 88 23
REMARK SMILES IDX 87 24 89 25 90 26 98 27 91 28 97 29 92 30 93 31 94 32 95 33
REMARK SMILES IDX 96 34 16 35 17 36 18 37 19 38 20 40 21 41 22 42 83 43 23 44
REMARK SMILES IDX 82 45 24 46 25 47 26 48 76 49 27 50 81 51 75 52 77 53 28 54
REMARK SMILES IDX 80 55 74 56 73 57 29 59 61 60 41 61 60 62 42 63 45 64 59 65
REMARK SMILES IDX 78 66 43 67 44 68 58 70 79 71 46 72 30 73 31 74 39 75 32 76
REMARK SMILES IDX 38 77 40 78 37 79 33 80 34 81 35 82 36 83 62 84 63 85 71 86
REMARK SMILES IDX 64 87 70 88 72 89 69 90 65 91 66 92 67 93 68 94 47 95 48 96
REMARK SMILES IDX 56 97 49 98 55 99 57 100 54 101 50 102 51 103 52 104 53 105
REMARK H PARENT 13 6 18 39 77 58 45 69
REMARK Flexibility Score: inf
ROOT
ATOM      1  C   UNL     1       2.109  -6.021   7.880  1.00  0.00     0.023 C 
ENDROOT
BRANCH   1   2
ATOM      2  C   UNL     1       2.988  -6.358   6.673  1.00  0.00     0.116 C 
BRANCH   2   3
ATOM      3  N   UNL     1       2.409  -7.453   5.920  1.00  0.00    -0.352 N 
ATOM      4  C   UNL     1       1.630  -7.523   4.808  1.00  0.00     0.251 C 
ATOM      5  O   UNL     1       1.282  -8.656   4.465  1.00  0.00    -0.269 OA
ATOM      6  H   UNL     1       2.628  -8.337   6.294  1.00  0.00     0.163 HD
BRANCH   4   7
ATOM      7  C   UNL     1       1.260  -6.323   3.960  1.00  0.00     0.047 C 
ATOM      8  C   UNL     1       1.056  -5.094   4.490  1.00  0.00     0.022 C 
BRANCH   8   9
ATOM      9  C   UNL     1       0.789  -3.806   3.810  1.00  0.00    -0.025 A 
ATOM     10  C   UNL     1       0.487  -1.335   2.514  1.00  0.00     0.067 A 
ATOM     11  C   UNL     1      -0.328  -2.411   2.158  1.00  0.00     0.021 A 
ATOM     12  C   UNL     1       1.409  -1.459   3.552  1.00  0.00     0.021 A 
ATOM     13  C   UNL     1      -0.186  -3.635   2.819  1.00  0.00     0.009 A 
ATOM     14  C   UNL     1       1.559  -2.694   4.192  1.00  0.00     0.009 A 
BRANCH  10  15
ATOM     15  S   UNL     1       0.301   0.216   1.665  1.00  0.00     0.175 S 
ATOM     16  C   UNL     1       1.150  -0.041   0.128  1.00  0.00     0.163 C 
ATOM     17  O   UNL     1       1.027   1.224   2.414  1.00  0.00    -0.224 OA
ATOM     18  O   UNL     1      -1.112   0.380   1.378  1.00  0.00    -0.224 OA
ENDBRANCH  10  15
ENDBRANCH   8   9
BRANCH   7  19
ATOM     19  C   UNL     1       0.962  -6.580   2.525  1.00  0.00    -0.012 A 
ATOM     20  C   UNL     1      -0.125  -7.403   2.188  1.00  0.00     0.009 A 
ATOM     21  C   UNL     1       1.656  -5.927   1.498  1.00  0.00     0.017 A 
ATOM     22  C   UNL     1      -0.523  -7.555   0.863  1.00  0.00     0.001 A 
ATOM     23  C   UNL     1       1.224  -6.014   0.162  1.00  0.00    -0.018 A 
ATOM     24  C   UNL     1       0.138  -6.852  -0.141  1.00  0.00     0.009 A 
BRANCH  23  25
ATOM     25  C   UNL     1       1.820  -5.148  -0.862  1.00  0.00    -0.018 A 
ATOM     26  C   UNL     1       1.016  -4.209  -1.536  1.00  0.00     0.010 A 
ATOM     27  C   UNL     1       3.196  -5.173  -1.134  1.00  0.00     0.010 A 
ATOM     28  C   UNL     1       1.573  -3.303  -2.437  1.00  0.00     0.021 A 
ATOM     29  C   UNL     1       3.763  -4.272  -2.040  1.00  0.00     0.021 A 
ATOM     30  C   UNL     1       2.946  -3.340  -2.682  1.00  0.00     0.067 A 
BRANCH  30  31
ATOM     31  S   UNL     1       3.653  -2.128  -3.767  1.00  0.00     0.175 S 
ATOM     32  C   UNL     1       3.054  -2.597  -5.369  1.00  0.00     0.163 C 
ATOM     33  O   UNL     1       3.054  -0.852  -3.410  1.00  0.00    -0.224 OA
ATOM     34  O   UNL     1       5.089  -2.304  -3.761  1.00  0.00    -0.224 OA
ENDBRANCH  30  31
ENDBRANCH  23  25
ENDBRANCH   7  19
ENDBRANCH   4   7
ENDBRANCH   2   3
ENDBRANCH   1   2
BRANCH   1  35
ATOM     35  C   UNL     1       2.163  -7.052   9.016  1.00  0.00     0.023 C 
BRANCH  35  36
ATOM     36  C   UNL     1       3.536  -7.252   9.655  1.00  0.00     0.116 C 
BRANCH  36  37
ATOM     37  N   UNL     1       4.117  -6.016  10.148  1.00  0.00    -0.352 N 
ATOM     38  C   UNL     1       4.960  -5.811  11.210  1.00  0.00     0.251 C 
ATOM     39  H   UNL     1       3.868  -5.206   9.646  1.00  0.00     0.163 HD
ATOM     40  O   UNL     1       5.246  -4.660  11.531  1.00  0.00    -0.269 OA
BRANCH  38  41
ATOM     41  C   UNL     1       5.483  -6.955  11.989  1.00  0.00     0.039 A 
ATOM     42  C   UNL     1       5.497  -6.855  13.383  1.00  0.00     0.014 A 
ATOM     43  C   UNL     1       5.967  -8.110  11.367  1.00  0.00     0.014 A 
ATOM     44  C   UNL     1       5.941  -7.932  14.152  1.00  0.00     0.010 A 
ATOM     45  C   UNL     1       6.354  -9.207  12.137  1.00  0.00     0.010 A 
ATOM     46  C   UNL     1       6.343  -9.129  13.537  1.00  0.00    -0.014 A 
BRANCH  46  47
ATOM     47  C   UNL     1       6.729 -10.303  14.361  1.00  0.00     0.031 A 
ATOM     48  C   UNL     1       8.144 -10.810  14.360  1.00  0.00     0.074 A 
ATOM     49  C   UNL     1       5.783 -10.934  15.085  1.00  0.00     0.049 A 
ATOM     50  N   UNL     1       8.666 -11.806  15.029  1.00  0.00    -0.248 NA
ATOM     51  C   UNL     1       9.089 -10.123  13.468  1.00  0.00     0.031 C 
ATOM     52  C   UNL     1       4.363 -10.575  15.112  1.00  0.00     0.029 A 
ATOM     53  N   UNL     1       5.870 -12.005  15.937  1.00  0.00    -0.354 N 
ATOM     54  C   UNL     1      10.000 -11.871  14.638  1.00  0.00     0.074 A 
ATOM     55  C   UNL     1      10.185 -10.851  13.626  1.00  0.00     0.031 C 
ATOM     56  C   UNL     1       3.720 -11.389  15.963  1.00  0.00     0.029 A 
ATOM     57  C   UNL     1       4.672 -12.344  16.521  1.00  0.00     0.049 A 
ATOM     58  H   UNL     1       6.710 -12.486  16.113  1.00  0.00     0.167 HD
ATOM     59  C   UNL     1      10.981 -12.688  15.096  1.00  0.00     0.034 A 
ATOM     60  C   UNL     1       4.376 -13.309  17.413  1.00  0.00     0.034 A 
ATOM     61  C   UNL     1      10.778 -13.697  16.110  1.00  0.00     0.049 A 
ATOM     62  C   UNL     1       5.487 -14.184  17.930  1.00  0.00     0.074 A 
ATOM     63  C   UNL     1      11.708 -14.548  16.683  1.00  0.00     0.029 A 
ATOM     64  N   UNL     1       9.555 -13.998  16.699  1.00  0.00    -0.354 N 
ATOM     65  N   UNL     1       6.758 -14.189  17.599  1.00  0.00    -0.248 NA
ATOM     66  C   UNL     1       5.126 -15.166  18.958  1.00  0.00     0.031 C 
ATOM     67  C   UNL     1      11.040 -15.397  17.574  1.00  0.00     0.029 A 
ATOM     68  C   UNL     1       9.704 -15.033  17.612  1.00  0.00     0.049 A 
ATOM     69  H   UNL     1       8.706 -13.541  16.498  1.00  0.00     0.167 HD
ATOM     70  C   UNL     1       7.352 -15.161  18.398  1.00  0.00     0.074 A 
ATOM     71  C   UNL     1       6.304 -15.697  19.244  1.00  0.00     0.031 C 
ATOM     72  C   UNL     1       8.645 -15.574  18.432  1.00  0.00     0.034 A 
BRANCH  59  73
ATOM     73  C   UNL     1      12.353 -12.533  14.482  1.00  0.00     0.023 A 
ATOM     74  C   UNL     1      13.085 -11.338  14.607  1.00  0.00     0.031 A 
ATOM     75  C   UNL     1      12.925 -13.577  13.734  1.00  0.00     0.131 A 
ATOM     76  C   UNL     1      14.305 -11.187  13.928  1.00  0.00     0.055 A 
ATOM     77  C   UNL     1      14.178 -13.450  13.129  1.00  0.00     0.041 A 
ATOM     78  F   UNL     1      12.268 -14.735  13.563  1.00  0.00    -0.206 F 
ATOM     79  C   UNL     1      14.868 -12.244  13.211  1.00  0.00     0.022 A 
BRANCH  76  80
ATOM     80  S   UNL     1      15.071  -9.544  13.878  1.00  0.00     0.124 S 
ATOM     81  O   UNL     1      14.025  -8.751  13.237  1.00  0.00    -0.237 OA
ATOM     82  O   UNL     1      15.312  -9.264  15.289  1.00  0.00    -0.237 OA
ATOM     83  O   UNL     1      16.271  -9.750  13.069  1.00  0.00    -0.744 OA
ENDBRANCH  76  80
ENDBRANCH  59  73
BRANCH  60  84
ATOM     84  C   UNL     1       2.977 -13.489  17.891  1.00  0.00     0.023 A 
ATOM     85  C   UNL     1       2.631 -13.230  19.226  1.00  0.00     0.031 A 
ATOM     86  C   UNL     1       1.973 -13.956  17.025  1.00  0.00     0.131 A 
ATOM     87  C   UNL     1       1.324 -13.485  19.671  1.00  0.00     0.055 A 
ATOM     88  C   UNL     1       0.663 -14.162  17.461  1.00  0.00     0.041 A 
ATOM     89  F   UNL     1       2.250 -14.205  15.736  1.00  0.00    -0.206 F 
ATOM     90  C   UNL     1       0.336 -13.939  18.795  1.00  0.00     0.022 A 
BRANCH  87  91
ATOM     91  S   UNL     1       0.953 -13.281  21.435  1.00  0.00     0.124 S 
ATOM     92  O   UNL     1       1.910 -14.195  22.049  1.00  0.00    -0.237 OA
ATOM     93  O   UNL     1       1.207 -11.858  21.634  1.00  0.00    -0.237 OA
ATOM     94  O   UNL     1      -0.448 -13.683  21.536  1.00  0.00    -0.744 OA
ENDBRANCH  87  91
ENDBRANCH  60  84
BRANCH  72  95
ATOM     95  C   UNL     1       8.986 -16.642  19.443  1.00  0.00     0.023 A 
ATOM     96  C   UNL     1       8.450 -17.939  19.354  1.00  0.00     0.031 A 
ATOM     97  C   UNL     1       9.812 -16.342  20.540  1.00  0.00     0.131 A 
ATOM     98  C   UNL     1       8.682 -18.864  20.383  1.00  0.00     0.055 A 
ATOM     99  C   UNL     1      10.093 -17.288  21.528  1.00  0.00     0.041 A 
ATOM    100  F   UNL     1      10.350 -15.120  20.678  1.00  0.00    -0.206 F 
ATOM    101  C   UNL     1       9.511 -18.551  21.463  1.00  0.00     0.022 A 
BRANCH  98 102
ATOM    102  S   UNL     1       7.780 -20.438  20.355  1.00  0.00     0.124 S 
ATOM    103  O   UNL     1       6.393 -19.993  20.261  1.00  0.00    -0.237 OA
ATOM    104  O   UNL     1       8.324 -21.086  19.166  1.00  0.00    -0.237 OA
ATOM    105  O   UNL     1       8.145 -21.064  21.625  1.00  0.00    -0.744 OA
ENDBRANCH  98 102
ENDBRANCH  72  95
ENDBRANCH  46  47
ENDBRANCH  38  41
ENDBRANCH  36  37
ENDBRANCH  35  36
ENDBRANCH   1  35
TORSDOF 19
