REMARK SMILES CCCc1cc2c(cc1Cl)C=C(C(=O)NCCCCNC(=O)c1ccc(-c3c4nc(c(-c5cc(S(=O)(=O)[O-])ccc5F)c5ccc([nH]5)c(-c5cc(S(=O)(=O)[O-])ccc5F)c5nc(c(-c6cc(S(=O)(=O)[O-])ccc6F)c6ccc3[nH]6)C=C5)C=C4)cc1)[C@H](C(F)(F)F)O2
REMARK SMILES IDX 18 1 17 2 16 3 15 4 13 5 14 6 12 8 4 9 5 10 9 11 6 12 8 13
REMARK SMILES IDX 10 14 7 15 91 16 11 17 86 18 3 19 2 20 1 21 87 22 88 23
REMARK SMILES IDX 89 24 90 25 19 26 20 27 21 28 22 30 23 31 24 32 85 33 25 34
REMARK SMILES IDX 84 35 26 36 27 37 28 38 78 39 29 40 83 41 77 42 79 43 30 44
REMARK SMILES IDX 82 45 76 46 75 47 31 49 63 50 43 51 62 52 44 53 47 54 61 55
REMARK SMILES IDX 80 56 45 57 46 58 60 60 81 61 48 62 32 63 33 64 41 65 34 66
REMARK SMILES IDX 40 67 42 68 39 69 35 70 36 71 37 72 38 73 64 74 65 75 73 76
REMARK SMILES IDX 66 77 72 78 74 79 71 80 67 81 68 82 69 83 70 84 49 85 50 86
REMARK SMILES IDX 58 87 51 88 57 89 59 90 56 91 52 92 53 93 54 94 55 95
REMARK H PARENT 15 7 20 29 79 48 47 59
REMARK Flexibility Score: inf
ROOT
ATOM      1  C   UNL     1      -1.441  -4.229  11.284  1.00  0.00     0.023 C 
ENDROOT
BRANCH   1   2
ATOM      2  C   UNL     1      -1.330  -4.260   9.762  1.00  0.00     0.023 C 
BRANCH   2   3
ATOM      3  C   UNL     1      -2.416  -3.487   9.017  1.00  0.00     0.116 C 
BRANCH   3   4
ATOM      4  N   UNL     1      -2.115  -2.070   8.919  1.00  0.00    -0.352 N 
ATOM      5  C   UNL     1      -1.607  -1.222   7.996  1.00  0.00     0.251 C 
ATOM      6  O   UNL     1      -1.546  -0.040   8.354  1.00  0.00    -0.270 OA
ATOM      7  H   UNL     1      -2.344  -1.597   9.752  1.00  0.00     0.163 HD
BRANCH   5   8
ATOM      8  C   UNL     1      -1.133  -1.594   6.629  1.00  0.00     0.067 C 
ATOM      9  C   UNL     1       0.870  -1.498   1.994  1.00  0.00    -0.026 A 
ATOM     10  C   UNL     1       0.019  -2.384   2.680  1.00  0.00     0.052 A 
ATOM     11  C   UNL     1       1.228  -0.296   2.630  1.00  0.00     0.045 A 
ATOM     12  C   UNL     1      -0.426  -2.085   3.965  1.00  0.00     0.128 A 
ATOM     13  C   UNL     1       0.724   0.024   3.897  1.00  0.00     0.032 A 
ATOM     14  Cl  UNL     1       2.328   0.831   1.918  1.00  0.00    -0.084 Cl
ATOM     15  C   UNL     1      -0.100  -0.875   4.572  1.00  0.00     0.019 A 
ATOM     16  O   UNL     1      -1.199  -3.022   4.594  1.00  0.00    -0.475 OA
ATOM     17  C   UNL     1      -0.634  -0.580   5.895  1.00  0.00     0.025 C 
ATOM     18  C   UNL     1      -1.128  -2.983   6.052  1.00  0.00     0.314 C 
BRANCH   9  19
ATOM     19  C   UNL     1       1.359  -1.900   0.621  1.00  0.00     0.037 C 
BRANCH  19  20
ATOM     20  C   UNL     1       0.424  -1.492  -0.523  1.00  0.00     0.001 C 
ATOM     21  C   UNL     1       0.495  -0.014  -0.876  1.00  0.00     0.004 C 
ENDBRANCH  19  20
ENDBRANCH   9  19
BRANCH  18  22
ATOM     22  C   UNL     1       0.051  -3.841   6.556  1.00  0.00     0.429 C 
ATOM     23  F   UNL     1       0.693  -3.283   7.608  1.00  0.00    -0.167 F 
ATOM     24  F   UNL     1      -0.388  -5.060   6.960  1.00  0.00    -0.167 F 
ATOM     25  F   UNL     1       0.991  -4.057   5.606  1.00  0.00    -0.167 F 
ENDBRANCH  18  22
ENDBRANCH   5   8
ENDBRANCH   3   4
ENDBRANCH   2   3
ENDBRANCH   1   2
BRANCH   1  26
ATOM     26  C   UNL     1      -2.754  -4.748  11.855  1.00  0.00     0.116 C 
BRANCH  26  27
ATOM     27  N   UNL     1      -3.138  -6.072  11.382  1.00  0.00    -0.352 N 
ATOM     28  C   UNL     1      -3.897  -7.016  12.041  1.00  0.00     0.251 C 
ATOM     29  H   UNL     1      -2.817  -6.322  10.485  1.00  0.00     0.163 HD
ATOM     30  O   UNL     1      -4.090  -8.120  11.542  1.00  0.00    -0.269 OA
BRANCH  28  31
ATOM     31  C   UNL     1      -4.416  -6.686  13.385  1.00  0.00     0.039 A 
ATOM     32  C   UNL     1      -5.069  -5.473  13.598  1.00  0.00     0.014 A 
ATOM     33  C   UNL     1      -4.136  -7.540  14.455  1.00  0.00     0.014 A 
ATOM     34  C   UNL     1      -5.254  -5.021  14.897  1.00  0.00     0.010 A 
ATOM     35  C   UNL     1      -4.420  -7.124  15.759  1.00  0.00     0.010 A 
ATOM     36  C   UNL     1      -4.923  -5.835  15.995  1.00  0.00    -0.014 A 
BRANCH  36  37
ATOM     37  C   UNL     1      -5.118  -5.299  17.368  1.00  0.00     0.031 A 
ATOM     38  C   UNL     1      -3.950  -5.073  18.292  1.00  0.00     0.074 A 
ATOM     39  C   UNL     1      -6.358  -4.932  17.745  1.00  0.00     0.049 A 
ATOM     40  N   UNL     1      -3.941  -4.531  19.483  1.00  0.00    -0.248 NA
ATOM     41  C   UNL     1      -2.625  -5.514  17.828  1.00  0.00     0.031 C 
ATOM     42  C   UNL     1      -7.559  -5.109  16.929  1.00  0.00     0.029 A 
ATOM     43  N   UNL     1      -6.813  -4.300  18.875  1.00  0.00    -0.354 N 
ATOM     44  C   UNL     1      -2.621  -4.583  19.919  1.00  0.00     0.074 A 
ATOM     45  C   UNL     1      -1.862  -5.239  18.878  1.00  0.00     0.031 C 
ATOM     46  C   UNL     1      -8.596  -4.525  17.543  1.00  0.00     0.029 A 
ATOM     47  C   UNL     1      -8.155  -4.002  18.833  1.00  0.00     0.049 A 
ATOM     48  H   UNL     1      -6.234  -4.081  19.641  1.00  0.00     0.167 HD
ATOM     49  C   UNL     1      -2.092  -4.113  21.075  1.00  0.00     0.034 A 
ATOM     50  C   UNL     1      -8.948  -3.381  19.729  1.00  0.00     0.034 A 
ATOM     51  C   UNL     1      -2.860  -3.439  22.093  1.00  0.00     0.049 A 
ATOM     52  C   UNL     1      -8.336  -2.872  21.005  1.00  0.00     0.074 A 
ATOM     53  C   UNL     1      -2.410  -2.905  23.289  1.00  0.00     0.029 A 
ATOM     54  N   UNL     1      -4.225  -3.197  22.038  1.00  0.00    -0.354 N 
ATOM     55  N   UNL     1      -7.080  -2.900  21.384  1.00  0.00    -0.248 NA
ATOM     56  C   UNL     1      -9.243  -2.251  21.979  1.00  0.00     0.031 C 
ATOM     57  C   UNL     1      -3.509  -2.389  23.979  1.00  0.00     0.029 A 
ATOM     58  C   UNL     1      -4.637  -2.543  23.189  1.00  0.00     0.049 A 
ATOM     59  H   UNL     1      -4.814  -3.452  21.292  1.00  0.00     0.167 HD
ATOM     60  C   UNL     1      -7.045  -2.301  22.639  1.00  0.00     0.074 A 
ATOM     61  C   UNL     1      -8.400  -1.881  22.935  1.00  0.00     0.031 C 
ATOM     62  C   UNL     1      -5.991  -2.131  23.477  1.00  0.00     0.034 A 
BRANCH  49  63
ATOM     63  C   UNL     1      -0.613  -4.289  21.319  1.00  0.00     0.023 A 
ATOM     64  C   UNL     1      -0.164  -5.082  22.393  1.00  0.00     0.031 A 
ATOM     65  C   UNL     1       0.344  -3.578  20.574  1.00  0.00     0.131 A 
ATOM     66  C   UNL     1       1.200  -5.120  22.709  1.00  0.00     0.055 A 
ATOM     67  C   UNL     1       1.706  -3.648  20.870  1.00  0.00     0.041 A 
ATOM     68  F   UNL     1      -0.033  -2.808  19.540  1.00  0.00    -0.206 F 
ATOM     69  C   UNL     1       2.138  -4.413  21.950  1.00  0.00     0.022 A 
BRANCH  66  70
ATOM     70  S   UNL     1       1.806  -6.039  24.151  1.00  0.00     0.124 S 
ATOM     71  O   UNL     1       2.738  -6.982  23.535  1.00  0.00    -0.237 OA
ATOM     72  O   UNL     1       2.424  -4.984  24.948  1.00  0.00    -0.237 OA
ATOM     73  O   UNL     1       0.603  -6.638  24.718  1.00  0.00    -0.744 OA
ENDBRANCH  66  70
ENDBRANCH  49  63
BRANCH  50  74
ATOM     74  C   UNL     1     -10.390  -3.177  19.400  1.00  0.00     0.023 A 
ATOM     75  C   UNL     1     -11.233  -4.275  19.148  1.00  0.00     0.031 A 
ATOM     76  C   UNL     1     -10.908  -1.887  19.204  1.00  0.00     0.131 A 
ATOM     77  C   UNL     1     -12.517  -4.064  18.629  1.00  0.00     0.055 A 
ATOM     78  C   UNL     1     -12.217  -1.679  18.764  1.00  0.00     0.041 A 
ATOM     79  F   UNL     1     -10.139  -0.809  19.418  1.00  0.00    -0.206 F 
ATOM     80  C   UNL     1     -13.021  -2.772  18.452  1.00  0.00     0.022 A 
BRANCH  77  81
ATOM     81  S   UNL     1     -13.506  -5.455  18.012  1.00  0.00     0.124 S 
ATOM     82  O   UNL     1     -14.665  -5.419  18.896  1.00  0.00    -0.237 OA
ATOM     83  O   UNL     1     -13.752  -5.055  16.628  1.00  0.00    -0.237 OA
ATOM     84  O   UNL     1     -12.621  -6.604  18.173  1.00  0.00    -0.744 OA
ENDBRANCH  77  81
ENDBRANCH  50  74
BRANCH  62  85
ATOM     85  C   UNL     1      -6.244  -1.482  24.816  1.00  0.00     0.023 A 
ATOM     86  C   UNL     1      -5.639  -0.252  25.134  1.00  0.00     0.031 A 
ATOM     87  C   UNL     1      -6.976  -2.144  25.817  1.00  0.00     0.131 A 
ATOM     88  C   UNL     1      -5.753   0.264  26.432  1.00  0.00     0.055 A 
ATOM     89  C   UNL     1      -7.122  -1.605  27.096  1.00  0.00     0.041 A 
ATOM     90  F   UNL     1      -7.562  -3.325  25.564  1.00  0.00    -0.206 F 
ATOM     91  C   UNL     1      -6.498  -0.402  27.411  1.00  0.00     0.022 A 
BRANCH  88  92
ATOM     92  S   UNL     1      -4.870   1.772  26.921  1.00  0.00     0.124 S 
ATOM     93  O   UNL     1      -5.974   2.679  27.227  1.00  0.00    -0.237 OA
ATOM     94  O   UNL     1      -4.098   1.317  28.074  1.00  0.00    -0.237 OA
ATOM     95  O   UNL     1      -4.087   2.120  25.741  1.00  0.00    -0.744 OA
ENDBRANCH  88  92
ENDBRANCH  62  85
ENDBRANCH  36  37
ENDBRANCH  28  31
ENDBRANCH  26  27
ENDBRANCH   1  26
TORSDOF 17
