REMARK SMILES Cc1ccc(C)c(OCc2ccc(C(=O)NCCCCNC(=O)c3ccc(-c4c5nc(c(-c6cc(S(=O)(=O)[O-])ccc6F)c6ccc([nH]6)c(-c6cc(S(=O)(=O)[O-])ccc6F)c6nc(c(-c7cc(S(=O)(=O)[O-])ccc7F)c7ccc4[nH]7)C=C6)C=C5)cc3)cc2)c1C
REMARK SMILES IDX 18 1 17 2 16 3 14 4 15 5 13 7 10 8 11 9 88 10 12 11 87 12
REMARK SMILES IDX 9 13 8 14 7 15 1 16 2 17 3 18 89 19 4 20 90 21 5 22 6 23
REMARK SMILES IDX 19 24 20 25 21 26 22 27 23 29 24 30 25 31 86 32 26 33 85 34
REMARK SMILES IDX 27 35 28 36 29 37 79 38 30 39 84 40 78 41 80 42 31 43 83 44
REMARK SMILES IDX 77 45 76 46 32 48 64 49 44 50 63 51 45 52 48 53 62 54 81 55
REMARK SMILES IDX 46 56 47 57 61 59 82 60 49 61 33 62 34 63 42 64 35 65 41 66
REMARK SMILES IDX 43 67 40 68 36 69 37 70 38 71 39 72 65 73 66 74 74 75 67 76
REMARK SMILES IDX 73 77 75 78 72 79 68 80 69 81 70 82 71 83 50 84 51 85 59 86
REMARK SMILES IDX 52 87 58 88 60 89 57 90 53 91 54 92 55 93 56 94
REMARK H PARENT 16 6 21 28 80 47 48 58
REMARK Flexibility Score: inf
ROOT
ATOM      1  C   UNL     1       4.528   3.635   6.788  1.00  0.00     0.023 C 
ENDROOT
BRANCH   1   2
ATOM      2  C   UNL     1       5.592   2.859   6.009  1.00  0.00     0.116 C 
BRANCH   2   3
ATOM      3  N   UNL     1       5.233   1.464   5.948  1.00  0.00    -0.352 N 
ATOM      4  C   UNL     1       4.334   0.787   5.170  1.00  0.00     0.251 C 
ATOM      5  O   UNL     1       4.162  -0.403   5.443  1.00  0.00    -0.269 OA
ATOM      6  H   UNL     1       5.726   0.894   6.582  1.00  0.00     0.163 HD
BRANCH   4   7
ATOM      7  C   UNL     1       3.617   1.375   3.993  1.00  0.00     0.039 A 
ATOM      8  C   UNL     1       2.476   2.162   1.495  1.00  0.00    -0.011 A 
ATOM      9  C   UNL     1       2.428   0.839   1.938  1.00  0.00     0.008 A 
ATOM     10  C   UNL     1       3.004   3.106   2.383  1.00  0.00     0.008 A 
ATOM     11  C   UNL     1       2.995   0.450   3.153  1.00  0.00     0.014 A 
ATOM     12  C   UNL     1       3.545   2.720   3.620  1.00  0.00     0.014 A 
BRANCH   8  13
ATOM     13  C   UNL     1       2.188   2.587   0.060  1.00  0.00     0.265 C 
BRANCH  13  14
ATOM     14  O   UNL     1       0.993   2.188  -0.613  1.00  0.00    -0.488 OA
BRANCH  14  15
ATOM     15  C   UNL     1       0.633   0.872  -0.684  1.00  0.00     0.125 A 
ATOM     16  C   UNL     1      -2.625  -1.003   0.099  1.00  0.00     0.045 C 
ATOM     17  C   UNL     1      -1.202  -0.690  -0.269  1.00  0.00    -0.044 A 
ATOM     18  C   UNL     1      -0.320  -1.745  -0.523  1.00  0.00     0.004 A 
ATOM     19  C   UNL     1      -0.729   0.634  -0.369  1.00  0.00    -0.006 A 
ATOM     20  C   UNL     1       0.995  -1.499  -0.919  1.00  0.00     0.007 A 
ATOM     21  C   UNL     1      -1.626   1.819  -0.094  1.00  0.00     0.049 C 
ATOM     22  C   UNL     1       1.483  -0.190  -1.046  1.00  0.00    -0.009 A 
ATOM     23  C   UNL     1       2.904  -0.016  -1.500  1.00  0.00     0.048 C 
ENDBRANCH  14  15
ENDBRANCH  13  14
ENDBRANCH   8  13
ENDBRANCH   4   7
ENDBRANCH   2   3
ENDBRANCH   1   2
BRANCH   1  24
ATOM     24  C   UNL     1       4.634   3.470   8.306  1.00  0.00     0.023 C 
BRANCH  24  25
ATOM     25  C   UNL     1       5.971   3.906   8.892  1.00  0.00     0.116 C 
BRANCH  25  26
ATOM     26  N   UNL     1       6.359   5.245   8.476  1.00  0.00    -0.352 N 
ATOM     27  C   UNL     1       7.189   6.126   9.117  1.00  0.00     0.251 C 
ATOM     28  H   UNL     1       5.976   5.557   7.624  1.00  0.00     0.163 HD
ATOM     29  O   UNL     1       7.311   7.272   8.695  1.00  0.00    -0.269 OA
BRANCH  27  30
ATOM     30  C   UNL     1       7.884   5.688  10.340  1.00  0.00     0.039 A 
ATOM     31  C   UNL     1       7.798   6.489  11.479  1.00  0.00     0.014 A 
ATOM     32  C   UNL     1       8.578   4.475  10.371  1.00  0.00     0.014 A 
ATOM     33  C   UNL     1       8.371   6.046  12.669  1.00  0.00     0.010 A 
ATOM     34  C   UNL     1       9.081   4.001  11.576  1.00  0.00     0.010 A 
ATOM     35  C   UNL     1       8.990   4.786  12.734  1.00  0.00    -0.014 A 
BRANCH  35  36
ATOM     36  C   UNL     1       9.559   4.293  14.012  1.00  0.00     0.031 A 
ATOM     37  C   UNL     1      11.040   4.078  14.143  1.00  0.00     0.074 A 
ATOM     38  C   UNL     1       8.731   4.014  15.037  1.00  0.00     0.049 A 
ATOM     39  N   UNL     1      11.727   3.662  15.175  1.00  0.00    -0.248 NA
ATOM     40  C   UNL     1      11.854   4.336  12.945  1.00  0.00     0.031 C 
ATOM     41  C   UNL     1       7.271   4.132  14.999  1.00  0.00     0.029 A 
ATOM     42  N   UNL     1       8.994   3.580  16.310  1.00  0.00    -0.354 N 
ATOM     43  C   UNL     1      13.050   3.606  14.752  1.00  0.00     0.074 A 
ATOM     44  C   UNL     1      13.057   3.958  13.348  1.00  0.00     0.031 C 
ATOM     45  C   UNL     1       6.773   3.817  16.205  1.00  0.00     0.029 A 
ATOM     46  C   UNL     1       7.869   3.438  17.090  1.00  0.00     0.049 A 
ATOM     47  H   UNL     1       9.903   3.387  16.636  1.00  0.00     0.167 HD
ATOM     48  C   UNL     1      14.159   3.315  15.476  1.00  0.00     0.034 A 
ATOM     49  C   UNL     1       7.740   3.050  18.373  1.00  0.00     0.034 A 
ATOM     50  C   UNL     1      14.128   2.973  16.877  1.00  0.00     0.049 A 
ATOM     51  C   UNL     1       8.987   2.726  19.156  1.00  0.00     0.074 A 
ATOM     52  C   UNL     1      15.189   2.710  17.725  1.00  0.00     0.029 A 
ATOM     53  N   UNL     1      12.972   2.838  17.637  1.00  0.00    -0.354 N 
ATOM     54  N   UNL     1      10.240   2.741  18.760  1.00  0.00    -0.248 NA
ATOM     55  C   UNL     1       8.803   2.351  20.563  1.00  0.00     0.031 C 
ATOM     56  C   UNL     1      14.673   2.349  18.975  1.00  0.00     0.029 A 
ATOM     57  C   UNL     1      13.292   2.466  18.933  1.00  0.00     0.049 A 
ATOM     58  H   UNL     1      12.057   2.986  17.302  1.00  0.00     0.167 HD
ATOM     59  C   UNL     1      10.995   2.406  19.881  1.00  0.00     0.074 A 
ATOM     60  C   UNL     1      10.057   2.219  20.969  1.00  0.00     0.031 C 
ATOM     61  C   UNL     1      12.341   2.267  20.002  1.00  0.00     0.034 A 
BRANCH  48  62
ATOM     62  C   UNL     1      15.486   3.336  14.752  1.00  0.00     0.023 A 
ATOM     63  C   UNL     1      15.985   4.509  14.157  1.00  0.00     0.031 A 
ATOM     64  C   UNL     1      16.248   2.162  14.624  1.00  0.00     0.131 A 
ATOM     65  C   UNL     1      17.163   4.465  13.396  1.00  0.00     0.055 A 
ATOM     66  C   UNL     1      17.465   2.144  13.938  1.00  0.00     0.041 A 
ATOM     67  F   UNL     1      15.815   1.005  15.150  1.00  0.00    -0.206 F 
ATOM     68  C   UNL     1      17.921   3.296  13.305  1.00  0.00     0.022 A 
BRANCH  65  69
ATOM     69  S   UNL     1      17.609   5.917  12.405  1.00  0.00     0.124 S 
ATOM     70  O   UNL     1      16.436   6.059  11.545  1.00  0.00    -0.237 OA
ATOM     71  O   UNL     1      17.786   6.950  13.419  1.00  0.00    -0.237 OA
ATOM     72  O   UNL     1      18.829   5.501  11.717  1.00  0.00    -0.744 OA
ENDBRANCH  65  69
ENDBRANCH  48  62
BRANCH  49  73
ATOM     73  C   UNL     1       6.392   2.951  19.003  1.00  0.00     0.023 A 
ATOM     74  C   UNL     1       6.032   3.778  20.079  1.00  0.00     0.031 A 
ATOM     75  C   UNL     1       5.456   2.000  18.561  1.00  0.00     0.131 A 
ATOM     76  C   UNL     1       4.791   3.604  20.710  1.00  0.00     0.055 A 
ATOM     77  C   UNL     1       4.200   1.867  19.158  1.00  0.00     0.041 A 
ATOM     78  F   UNL     1       5.745   1.189  17.531  1.00  0.00    -0.206 F 
ATOM     79  C   UNL     1       3.868   2.664  20.249  1.00  0.00     0.022 A 
BRANCH  76  80
ATOM     80  S   UNL     1       4.434   4.570  22.204  1.00  0.00     0.124 S 
ATOM     81  O   UNL     1       5.542   4.191  23.074  1.00  0.00    -0.237 OA
ATOM     82  O   UNL     1       4.457   5.936  21.694  1.00  0.00    -0.237 OA
ATOM     83  O   UNL     1       3.120   4.083  22.618  1.00  0.00    -0.744 OA
ENDBRANCH  76  80
ENDBRANCH  49  73
BRANCH  61  84
ATOM     84  C   UNL     1      12.868   1.930  21.377  1.00  0.00     0.023 A 
ATOM     85  C   UNL     1      12.572   0.707  22.003  1.00  0.00     0.031 A 
ATOM     86  C   UNL     1      13.654   2.860  22.080  1.00  0.00     0.131 A 
ATOM     87  C   UNL     1      12.998   0.475  23.319  1.00  0.00     0.055 A 
ATOM     88  C   UNL     1      14.134   2.595  23.363  1.00  0.00     0.041 A 
ATOM     89  F   UNL     1      13.967   4.045  21.532  1.00  0.00    -0.206 F 
ATOM     90  C   UNL     1      13.792   1.403  23.997  1.00  0.00     0.022 A 
BRANCH  87  91
ATOM     91  S   UNL     1      12.401  -1.008  24.176  1.00  0.00     0.124 S 
ATOM     92  O   UNL     1      10.953  -0.849  24.086  1.00  0.00    -0.237 OA
ATOM     93  O   UNL     1      12.975  -2.084  23.375  1.00  0.00    -0.237 OA
ATOM     94  O   UNL     1      12.957  -0.873  25.521  1.00  0.00    -0.744 OA
ENDBRANCH  87  91
ENDBRANCH  61  84
ENDBRANCH  35  36
ENDBRANCH  27  30
ENDBRANCH  25  26
ENDBRANCH  24  25
ENDBRANCH   1  24
TORSDOF 17
