REMARK SMILES CS(=O)(=O)N(Cc1ccc(Cl)cc1)c1ccc(C(=O)Nc2ccccc2C(=O)NCCCCNC(=O)c2ccc(-c3c4nc(c(-c5cc(S(=O)(=O)[O-])ccc5F)c5ccc([nH]5)c(-c5cc(S(=O)(=O)[O-])ccc5F)c5nc(c(-c6cc(S(=O)(=O)[O-])ccc6F)c6ccc3[nH]6)C=C5)C=C4)cc2)cc1
REMARK SMILES IDX 30 1 29 2 27 3 28 4 26 6 21 7 22 8 23 9 25 10 24 11 20 12
REMARK SMILES IDX 18 13 19 14 17 16 14 17 15 18 101 19 16 20 100 21 5 22 2 23
REMARK SMILES IDX 1 24 3 25 4 26 6 27 7 28 8 29 13 30 9 31 12 32 10 33 11 34
REMARK SMILES IDX 31 35 32 36 33 37 34 38 35 39 36 41 37 42 38 43 99 44 39 45
REMARK SMILES IDX 98 46 40 47 41 48 42 49 92 50 43 51 97 52 91 53 93 54 44 55
REMARK SMILES IDX 96 56 90 57 89 58 45 60 77 61 57 62 76 63 58 64 61 65 75 66
REMARK SMILES IDX 94 67 59 68 60 69 74 71 95 72 62 73 46 74 47 75 55 76 48 77
REMARK SMILES IDX 54 78 56 79 53 80 49 81 50 82 51 83 52 84 78 85 79 86 87 87
REMARK SMILES IDX 80 88 86 89 88 90 85 91 81 92 82 93 83 94 84 95 63 96 64 97
REMARK SMILES IDX 72 98 65 99 71 100 73 101 70 102 66 103 67 104 68 105 69 106
REMARK H PARENT 29 5 20 15 34 40 93 59 61 70
REMARK Flexibility Score: inf
ROOT
ATOM      1  C   UNL     1      -1.498   1.871  -9.368  1.00  0.00     0.116 C 
ENDROOT
BRANCH   1   2
ATOM      2  N   UNL     1      -1.528   2.352  -8.002  1.00  0.00    -0.352 N 
ATOM      3  C   UNL     1      -2.204   1.881  -6.901  1.00  0.00     0.253 C 
ATOM      4  O   UNL     1      -2.046   2.481  -5.836  1.00  0.00    -0.269 OA
ATOM      5  H   UNL     1      -0.973   3.147  -7.833  1.00  0.00     0.163 HD
BRANCH   3   6
ATOM      6  C   UNL     1      -3.183   0.752  -6.950  1.00  0.00     0.063 A 
ATOM      7  C   UNL     1      -3.079  -0.454  -7.670  1.00  0.00     0.054 A 
ATOM      8  C   UNL     1      -4.191  -1.314  -7.735  1.00  0.00     0.027 A 
ATOM      9  C   UNL     1      -5.330  -1.078  -6.969  1.00  0.00     0.002 A 
ATOM     10  C   UNL     1      -4.338   0.961  -6.165  1.00  0.00     0.016 A 
ATOM     11  C   UNL     1      -5.390   0.044  -6.155  1.00  0.00     0.001 A 
BRANCH   7  12
ATOM     12  N   UNL     1      -1.927  -0.980  -8.282  1.00  0.00    -0.321 N 
ATOM     13  C   UNL     1      -0.609  -0.935  -7.889  1.00  0.00     0.255 C 
ATOM     14  O   UNL     1       0.266  -1.276  -8.682  1.00  0.00    -0.269 OA
ATOM     15  H   UNL     1      -2.089  -1.459  -9.127  1.00  0.00     0.170 HD
BRANCH  13  16
ATOM     16  C   UNL     1      -0.232  -0.547  -6.515  1.00  0.00     0.040 A 
ATOM     17  C   UNL     1       0.584   0.200  -3.912  1.00  0.00     0.052 A 
ATOM     18  C   UNL     1       1.300   0.603  -5.052  1.00  0.00     0.028 A 
ATOM     19  C   UNL     1      -0.567  -0.572  -4.118  1.00  0.00     0.028 A 
ATOM     20  C   UNL     1       0.912   0.221  -6.338  1.00  0.00     0.016 A 
ATOM     21  C   UNL     1      -0.959  -0.966  -5.401  1.00  0.00     0.016 A 
BRANCH  17  22
ATOM     22  N   UNL     1       1.076   0.519  -2.573  1.00  0.00    -0.266 N 
BRANCH  22  23
ATOM     23  S   UNL     1       0.510  -0.384  -1.267  1.00  0.00     0.232 S 
ATOM     24  C   UNL     1       1.474   0.103   0.149  1.00  0.00     0.183 C 
ATOM     25  O   UNL     1       0.829  -1.775  -1.528  1.00  0.00    -0.207 OA
ATOM     26  O   UNL     1      -0.859   0.006  -0.990  1.00  0.00    -0.207 OA
ENDBRANCH  22  23
BRANCH  22  27
ATOM     27  C   UNL     1       1.767   1.812  -2.353  1.00  0.00     0.170 C 
BRANCH  27  28
ATOM     28  C   UNL     1       3.223   1.799  -2.803  1.00  0.00    -0.027 A 
ATOM     29  C   UNL     1       3.950   0.597  -2.917  1.00  0.00     0.007 A 
ATOM     30  C   UNL     1       3.834   2.994  -3.215  1.00  0.00     0.007 A 
ATOM     31  C   UNL     1       5.210   0.580  -3.518  1.00  0.00     0.021 A 
ATOM     32  C   UNL     1       5.103   2.976  -3.803  1.00  0.00     0.021 A 
ATOM     33  C   UNL     1       5.775   1.767  -3.971  1.00  0.00     0.041 A 
ATOM     34  Cl  UNL     1       7.296   1.735  -4.770  1.00  0.00    -0.084 Cl
ENDBRANCH  27  28
ENDBRANCH  22  27
ENDBRANCH  17  22
ENDBRANCH  13  16
ENDBRANCH   7  12
ENDBRANCH   3   6
ENDBRANCH   1   2
BRANCH   1  35
ATOM     35  C   UNL     1      -1.084   2.919 -10.397  1.00  0.00     0.023 C 
BRANCH  35  36
ATOM     36  C   UNL     1       0.302   3.546 -10.215  1.00  0.00     0.023 C 
BRANCH  36  37
ATOM     37  C   UNL     1       1.460   2.597  -9.908  1.00  0.00     0.116 C 
BRANCH  37  38
ATOM     38  N   UNL     1       1.691   1.589 -10.930  1.00  0.00    -0.352 N 
ATOM     39  C   UNL     1       2.759   1.408 -11.783  1.00  0.00     0.251 C 
ATOM     40  H   UNL     1       0.967   0.928 -11.028  1.00  0.00     0.163 HD
ATOM     41  O   UNL     1       2.699   0.560 -12.663  1.00  0.00    -0.269 OA
BRANCH  39  42
ATOM     42  C   UNL     1       3.959   2.270 -11.664  1.00  0.00     0.039 A 
ATOM     43  C   UNL     1       4.485   2.858 -12.818  1.00  0.00     0.014 A 
ATOM     44  C   UNL     1       4.556   2.511 -10.425  1.00  0.00     0.014 A 
ATOM     45  C   UNL     1       5.535   3.775 -12.712  1.00  0.00     0.010 A 
ATOM     46  C   UNL     1       5.546   3.486 -10.312  1.00  0.00     0.010 A 
ATOM     47  C   UNL     1       6.034   4.144 -11.452  1.00  0.00    -0.014 A 
BRANCH  47  48
ATOM     48  C   UNL     1       7.042   5.230 -11.303  1.00  0.00     0.031 A 
ATOM     49  C   UNL     1       8.393   4.939 -10.708  1.00  0.00     0.074 A 
ATOM     50  C   UNL     1       6.713   6.496 -11.633  1.00  0.00     0.049 A 
ATOM     51  N   UNL     1       9.364   5.766 -10.412  1.00  0.00    -0.248 NA
ATOM     52  C   UNL     1       8.673   3.537 -10.371  1.00  0.00     0.031 C 
ATOM     53  C   UNL     1       5.421   6.919 -12.180  1.00  0.00     0.029 A 
ATOM     54  N   UNL     1       7.432   7.663 -11.550  1.00  0.00    -0.354 N 
ATOM     55  C   UNL     1      10.366   4.986  -9.845  1.00  0.00     0.074 A 
ATOM     56  C   UNL     1       9.851   3.634  -9.774  1.00  0.00     0.031 C 
ATOM     57  C   UNL     1       5.452   8.241 -12.412  1.00  0.00     0.029 A 
ATOM     58  C   UNL     1       6.743   8.772 -11.987  1.00  0.00     0.049 A 
ATOM     59  H   UNL     1       8.354   7.703 -11.209  1.00  0.00     0.167 HD
ATOM     60  C   UNL     1      11.610   5.354  -9.444  1.00  0.00     0.034 A 
ATOM     61  C   UNL     1       7.105  10.069 -12.033  1.00  0.00     0.034 A 
ATOM     62  C   UNL     1      12.114   6.705  -9.525  1.00  0.00     0.049 A 
ATOM     63  C   UNL     1       8.477  10.464 -11.548  1.00  0.00     0.074 A 
ATOM     64  C   UNL     1      13.370   7.180  -9.187  1.00  0.00     0.029 A 
ATOM     65  N   UNL     1      11.384   7.801  -9.968  1.00  0.00    -0.354 N 
ATOM     66  N   UNL     1       9.427   9.706 -11.051  1.00  0.00    -0.248 NA
ATOM     67  C   UNL     1       8.826  11.887 -11.639  1.00  0.00     0.031 C 
ATOM     68  C   UNL     1      13.380   8.568  -9.367  1.00  0.00     0.029 A 
ATOM     69  C   UNL     1      12.154   8.953  -9.887  1.00  0.00     0.049 A 
ATOM     70  H   UNL     1      10.456   7.766 -10.294  1.00  0.00     0.167 HD
ATOM     71  C   UNL     1      10.499  10.559 -10.803  1.00  0.00     0.074 A 
ATOM     72  C   UNL     1      10.081  11.884 -11.213  1.00  0.00     0.031 C 
ATOM     73  C   UNL     1      11.722  10.271 -10.288  1.00  0.00     0.034 A 
BRANCH  60  74
ATOM     74  C   UNL     1      12.494   4.274  -8.865  1.00  0.00     0.023 A 
ATOM     75  C   UNL     1      12.884   3.158  -9.626  1.00  0.00     0.031 A 
ATOM     76  C   UNL     1      12.914   4.333  -7.524  1.00  0.00     0.131 A 
ATOM     77  C   UNL     1      13.585   2.105  -9.020  1.00  0.00     0.055 A 
ATOM     78  C   UNL     1      13.688   3.322  -6.951  1.00  0.00     0.041 A 
ATOM     79  F   UNL     1      12.561   5.365  -6.741  1.00  0.00    -0.206 F 
ATOM     80  C   UNL     1      14.012   2.190  -7.694  1.00  0.00     0.022 A 
BRANCH  77  81
ATOM     81  S   UNL     1      13.786   0.557  -9.944  1.00  0.00     0.124 S 
ATOM     82  O   UNL     1      12.397   0.195 -10.218  1.00  0.00    -0.237 OA
ATOM     83  O   UNL     1      14.576   0.977 -11.095  1.00  0.00    -0.237 OA
ATOM     84  O   UNL     1      14.475  -0.320  -8.999  1.00  0.00    -0.744 OA
ENDBRANCH  77  81
ENDBRANCH  60  74
BRANCH  61  85
ATOM     85  C   UNL     1       6.162  11.100 -12.554  1.00  0.00     0.023 A 
ATOM     86  C   UNL     1       6.450  11.807 -13.732  1.00  0.00     0.031 A 
ATOM     87  C   UNL     1       4.981  11.423 -11.863  1.00  0.00     0.131 A 
ATOM     88  C   UNL     1       5.593  12.833 -14.160  1.00  0.00     0.055 A 
ATOM     89  C   UNL     1       4.106  12.410 -12.320  1.00  0.00     0.041 A 
ATOM     90  F   UNL     1       4.656  10.774 -10.734  1.00  0.00    -0.206 F 
ATOM     91  C   UNL     1       4.417  13.131 -13.469  1.00  0.00     0.022 A 
BRANCH  88  92
ATOM     92  S   UNL     1       6.080  13.829 -15.596  1.00  0.00     0.124 S 
ATOM     93  O   UNL     1       7.357  14.380 -15.156  1.00  0.00    -0.237 OA
ATOM     94  O   UNL     1       6.144  12.825 -16.653  1.00  0.00    -0.237 OA
ATOM     95  O   UNL     1       4.992  14.796 -15.724  1.00  0.00    -0.744 OA
ENDBRANCH  88  92
ENDBRANCH  61  85
BRANCH  73  96
ATOM     96  C   UNL     1      12.709  11.410 -10.190  1.00  0.00     0.023 A 
ATOM     97  C   UNL     1      12.515  12.485  -9.305  1.00  0.00     0.031 A 
ATOM     98  C   UNL     1      13.852  11.423 -11.008  1.00  0.00     0.131 A 
ATOM     99  C   UNL     1      13.423  13.555  -9.297  1.00  0.00     0.055 A 
ATOM    100  C   UNL     1      14.782  12.463 -10.955  1.00  0.00     0.041 A 
ATOM    101  F   UNL     1      14.085  10.424 -11.874  1.00  0.00    -0.206 F 
ATOM    102  C   UNL     1      14.564  13.543 -10.105  1.00  0.00     0.022 A 
BRANCH  99 103
ATOM    103  S   UNL     1      13.049  15.009  -8.279  1.00  0.00     0.124 S 
ATOM    104  O   UNL     1      11.761  15.435  -8.819  1.00  0.00    -0.237 OA
ATOM    105  O   UNL     1      13.021  14.449  -6.932  1.00  0.00    -0.237 OA
ATOM    106  O   UNL     1      14.164  15.915  -8.549  1.00  0.00    -0.744 OA
ENDBRANCH  99 103
ENDBRANCH  73  96
ENDBRANCH  47  48
ENDBRANCH  39  42
ENDBRANCH  37  38
ENDBRANCH  36  37
ENDBRANCH  35  36
ENDBRANCH   1  35
TORSDOF 20
