REMARK SMILES CC1(C)[C@H](C(=O)Nc2ccccc2C(N)=O)[C@@H]1C(=O)NCCCCNC(=O)c1ccc(-c2c3nc(c(-c4cc(S(=O)(=O)[O-])ccc4F)c4ccc([nH]4)c(-c4cc(S(=O)(=O)[O-])ccc4F)c4nc(c(-c5cc(S(=O)(=O)[O-])ccc5F)c5ccc2[nH]5)C=C4)C=C3)cc1
REMARK SMILES IDX 22 1 21 2 20 3 18 4 19 5 17 7 1 8 2 9 3 10 4 11 5 12 6 13
REMARK SMILES IDX 7 14 8 16 9 17 13 18 10 19 12 20 11 21 14 22 15 23 16 24
REMARK SMILES IDX 23 27 24 28 25 29 26 30 27 32 28 33 29 34 90 35 30 36 89 37
REMARK SMILES IDX 31 38 32 39 33 40 83 41 34 42 88 43 82 44 84 45 35 46 87 47
REMARK SMILES IDX 81 48 80 49 36 51 68 52 48 53 67 54 49 55 52 56 66 57 85 58
REMARK SMILES IDX 50 59 51 60 65 62 86 63 53 64 37 65 38 66 46 67 39 68 45 69
REMARK SMILES IDX 47 70 44 71 40 72 41 73 42 74 43 75 69 76 70 77 78 78 71 79
REMARK SMILES IDX 77 80 79 81 76 82 72 83 73 84 74 85 75 86 54 87 55 88 63 89
REMARK SMILES IDX 56 90 62 91 64 92 61 93 57 94 58 95 59 96 60 97
REMARK H PARENT 20 6 7 15 15 25 15 26 25 31 84 50 52 61
REMARK Flexibility Score: inf
ROOT
ATOM      1  C   UNL     1      -5.532   0.800   0.579  1.00  0.00     0.023 C 
ENDROOT
BRANCH   1   2
ATOM      2  C   UNL     1      -4.072   0.866   0.151  1.00  0.00     0.116 C 
BRANCH   2   3
ATOM      3  N   UNL     1      -3.200   1.169   1.260  1.00  0.00    -0.356 N 
ATOM      4  C   UNL     1      -2.032   0.560   1.610  1.00  0.00     0.224 C 
ATOM      5  O   UNL     1      -1.556   0.793   2.716  1.00  0.00    -0.275 OA
ATOM      6  H   UNL     1      -3.486   1.912   1.839  1.00  0.00     0.163 HD
BRANCH   4   7
ATOM      7  C   UNL     1      -1.384  -0.428   0.694  1.00  0.00     0.098 C 
ATOM      8  C   UNL     1       0.940  -1.607   0.333  1.00  0.00     0.013 C 
ATOM      9  C   UNL     1       0.133  -0.320   0.459  1.00  0.00    -0.011 C 
ATOM     10  C   UNL     1       0.865   0.691   1.298  1.00  0.00     0.013 C 
ATOM     11  C   UNL     1      -0.831  -0.125  -0.693  1.00  0.00     0.098 C 
BRANCH  11  12
ATOM     12  C   UNL     1      -1.478   0.910  -1.539  1.00  0.00     0.228 C 
ATOM     13  O   UNL     1      -2.302   0.490  -2.358  1.00  0.00    -0.274 OA
ATOM     14  N   UNL     1      -1.398   2.265  -1.418  1.00  0.00    -0.325 N 
ATOM     15  H   UNL     1      -2.085   2.752  -1.928  1.00  0.00     0.169 HD
BRANCH  14  16
ATOM     16  C   UNL     1      -0.532   3.089  -0.713  1.00  0.00     0.053 A 
ATOM     17  C   UNL     1      -1.162   4.074   0.062  1.00  0.00     0.027 A 
ATOM     18  C   UNL     1       0.867   3.006  -0.751  1.00  0.00     0.063 A 
ATOM     19  C   UNL     1      -0.420   4.872   0.924  1.00  0.00     0.002 A 
ATOM     20  C   UNL     1       1.609   3.832   0.112  1.00  0.00     0.016 A 
ATOM     21  C   UNL     1       0.963   4.730   0.970  1.00  0.00     0.001 A 
BRANCH  18  22
ATOM     22  C   UNL     1       1.562   2.130  -1.742  1.00  0.00     0.250 C 
ATOM     23  N   UNL     1       2.796   1.642  -1.411  1.00  0.00    -0.366 N 
ATOM     24  O   UNL     1       1.072   1.834  -2.825  1.00  0.00    -0.269 OA
ATOM     25  H   UNL     1       3.200   1.873  -0.544  1.00  0.00     0.159 HD
ATOM     26  H   UNL     1       3.279   1.059  -2.041  1.00  0.00     0.159 HD
ENDBRANCH  18  22
ENDBRANCH  14  16
ENDBRANCH  11  12
ENDBRANCH   4   7
ENDBRANCH   2   3
ENDBRANCH   1   2
BRANCH   1  27
ATOM     27  C   UNL     1      -6.093   2.104   1.149  1.00  0.00     0.023 C 
BRANCH  27  28
ATOM     28  C   UNL     1      -5.857   3.347   0.299  1.00  0.00     0.116 C 
BRANCH  28  29
ATOM     29  N   UNL     1      -6.399   3.222  -1.043  1.00  0.00    -0.352 N 
ATOM     30  C   UNL     1      -7.355   3.982  -1.673  1.00  0.00     0.251 C 
ATOM     31  H   UNL     1      -6.027   2.485  -1.580  1.00  0.00     0.163 HD
ATOM     32  O   UNL     1      -7.826   3.601  -2.740  1.00  0.00    -0.269 OA
BRANCH  30  33
ATOM     33  C   UNL     1      -7.829   5.238  -1.052  1.00  0.00     0.039 A 
ATOM     34  C   UNL     1      -9.195   5.525  -1.063  1.00  0.00     0.014 A 
ATOM     35  C   UNL     1      -6.930   6.137  -0.470  1.00  0.00     0.014 A 
ATOM     36  C   UNL     1      -9.663   6.690  -0.451  1.00  0.00     0.010 A 
ATOM     37  C   UNL     1      -7.407   7.245   0.223  1.00  0.00     0.010 A 
ATOM     38  C   UNL     1      -8.776   7.549   0.219  1.00  0.00    -0.014 A 
BRANCH  38  39
ATOM     39  C   UNL     1      -9.259   8.802   0.860  1.00  0.00     0.031 A 
ATOM     40  C   UNL     1      -8.765  10.135   0.359  1.00  0.00     0.074 A 
ATOM     41  C   UNL     1     -10.113   8.744   1.901  1.00  0.00     0.049 A 
ATOM     42  N   UNL     1      -9.034  11.338   0.798  1.00  0.00    -0.248 NA
ATOM     43  C   UNL     1      -7.815  10.109  -0.765  1.00  0.00     0.031 C 
ATOM     44  C   UNL     1     -10.632   7.513   2.501  1.00  0.00     0.029 A 
ATOM     45  N   UNL     1     -10.700   9.743   2.638  1.00  0.00    -0.354 N 
ATOM     46  C   UNL     1      -8.280  12.206   0.014  1.00  0.00     0.074 A 
ATOM     47  C   UNL     1      -7.483  11.385  -0.870  1.00  0.00     0.031 C 
ATOM     48  C   UNL     1     -11.488   7.831   3.486  1.00  0.00     0.029 A 
ATOM     49  C   UNL     1     -11.546   9.283   3.621  1.00  0.00     0.049 A 
ATOM     50  H   UNL     1     -10.531  10.699   2.478  1.00  0.00     0.167 HD
ATOM     51  C   UNL     1      -8.277  13.562   0.006  1.00  0.00     0.034 A 
ATOM     52  C   UNL     1     -12.282   9.956   4.529  1.00  0.00     0.034 A 
ATOM     53  C   UNL     1      -9.091  14.366   0.885  1.00  0.00     0.049 A 
ATOM     54  C   UNL     1     -12.248  11.465   4.516  1.00  0.00     0.074 A 
ATOM     55  C   UNL     1      -9.197  15.745   0.940  1.00  0.00     0.029 A 
ATOM     56  N   UNL     1      -9.937  13.864   1.867  1.00  0.00    -0.354 N 
ATOM     57  N   UNL     1     -11.562  12.272   3.738  1.00  0.00    -0.248 NA
ATOM     58  C   UNL     1     -13.103  12.153   5.490  1.00  0.00     0.031 C 
ATOM     59  C   UNL     1     -10.046  16.077   2.002  1.00  0.00     0.029 A 
ATOM     60  C   UNL     1     -10.547  14.906   2.548  1.00  0.00     0.049 A 
ATOM     61  H   UNL     1     -10.082  12.908   2.052  1.00  0.00     0.167 HD
ATOM     62  C   UNL     1     -11.942  13.562   4.101  1.00  0.00     0.074 A 
ATOM     63  C   UNL     1     -12.924  13.422   5.156  1.00  0.00     0.031 C 
ATOM     64  C   UNL     1     -11.525  14.754   3.600  1.00  0.00     0.034 A 
BRANCH  51  65
ATOM     65  C   UNL     1      -7.347  14.250  -0.967  1.00  0.00     0.023 A 
ATOM     66  C   UNL     1      -7.465  14.072  -2.358  1.00  0.00     0.031 A 
ATOM     67  C   UNL     1      -6.304  15.069  -0.500  1.00  0.00     0.131 A 
ATOM     68  C   UNL     1      -6.511  14.629  -3.221  1.00  0.00     0.055 A 
ATOM     69  C   UNL     1      -5.412  15.698  -1.371  1.00  0.00     0.041 A 
ATOM     70  F   UNL     1      -6.121  15.260   0.817  1.00  0.00    -0.206 F 
ATOM     71  C   UNL     1      -5.502  15.466  -2.740  1.00  0.00     0.022 A 
BRANCH  68  72
ATOM     72  S   UNL     1      -6.509  14.111  -4.960  1.00  0.00     0.124 S 
ATOM     73  O   UNL     1      -6.336  12.665  -4.834  1.00  0.00    -0.237 OA
ATOM     74  O   UNL     1      -7.816  14.560  -5.425  1.00  0.00    -0.237 OA
ATOM     75  O   UNL     1      -5.365  14.820  -5.528  1.00  0.00    -0.744 OA
ENDBRANCH  68  72
ENDBRANCH  51  65
BRANCH  52  76
ATOM     76  C   UNL     1     -13.118   9.222   5.524  1.00  0.00     0.023 A 
ATOM     77  C   UNL     1     -14.515   9.361   5.543  1.00  0.00     0.031 A 
ATOM     78  C   UNL     1     -12.525   8.410   6.509  1.00  0.00     0.131 A 
ATOM     79  C   UNL     1     -15.267   8.749   6.559  1.00  0.00     0.055 A 
ATOM     80  C   UNL     1     -13.284   7.753   7.479  1.00  0.00     0.041 A 
ATOM     81  F   UNL     1     -11.194   8.238   6.537  1.00  0.00    -0.206 F 
ATOM     82  C   UNL     1     -14.663   7.934   7.518  1.00  0.00     0.022 A 
BRANCH  79  83
ATOM     83  S   UNL     1     -17.040   9.119   6.671  1.00  0.00     0.124 S 
ATOM     84  O   UNL     1     -17.031  10.571   6.805  1.00  0.00    -0.237 OA
ATOM     85  O   UNL     1     -17.540   8.593   5.405  1.00  0.00    -0.237 OA
ATOM     86  O   UNL     1     -17.466   8.384   7.861  1.00  0.00    -0.744 OA
ENDBRANCH  79  83
ENDBRANCH  52  76
BRANCH  64  87
ATOM     87  C   UNL     1     -12.189  16.000   4.142  1.00  0.00     0.023 A 
ATOM     88  C   UNL     1     -12.066  16.389   5.487  1.00  0.00     0.031 A 
ATOM     89  C   UNL     1     -12.979  16.799   3.294  1.00  0.00     0.131 A 
ATOM     90  C   UNL     1     -12.781  17.500   5.961  1.00  0.00     0.055 A 
ATOM     91  C   UNL     1     -13.626  17.946   3.754  1.00  0.00     0.041 A 
ATOM     92  F   UNL     1     -13.136  16.476   2.000  1.00  0.00    -0.206 F 
ATOM     93  C   UNL     1     -13.544  18.292   5.099  1.00  0.00     0.022 A 
BRANCH  90  94
ATOM     94  S   UNL     1     -12.804  17.822   7.746  1.00  0.00     0.124 S 
ATOM     95  O   UNL     1     -13.292  16.553   8.277  1.00  0.00    -0.237 OA
ATOM     96  O   UNL     1     -11.406  18.134   8.024  1.00  0.00    -0.237 OA
ATOM     97  O   UNL     1     -13.728  18.947   7.880  1.00  0.00    -0.744 OA
ENDBRANCH  90  94
ENDBRANCH  64  87
ENDBRANCH  38  39
ENDBRANCH  30  33
ENDBRANCH  28  29
ENDBRANCH  27  28
ENDBRANCH   1  27
TORSDOF 17
