REMARK SMILES Cc1cc(NCc2ccc(C(=O)NCCCCNC(=O)c3ccc(-c4c5nc(c(-c6cc(S(=O)(=O)[O-])ccc6F)c6ccc([nH]6)c(-c6cc(S(=O)(=O)[O-])ccc6F)c6nc(c(-c7cc(S(=O)(=O)[O-])ccc7F)c7ccc4[nH]7)C=C6)C=C5)cc3)o2)ccc1Br
REMARK SMILES IDX 15 1 14 2 13 3 11 4 12 5 10 7 7 8 8 9 84 10 9 11 6 12 5 13
REMARK SMILES IDX 4 15 1 16 2 17 3 18 87 19 86 20 88 21 85 22 16 23 17 24
REMARK SMILES IDX 18 25 19 26 20 28 21 29 22 30 83 31 23 32 82 33 24 34 25 35
REMARK SMILES IDX 26 36 76 37 27 38 81 39 75 40 77 41 28 42 80 43 74 44 73 45
REMARK SMILES IDX 29 47 61 48 41 49 60 50 42 51 45 52 59 53 78 54 43 55 44 56
REMARK SMILES IDX 58 58 79 59 46 60 30 61 31 62 39 63 32 64 38 65 40 66 37 67
REMARK SMILES IDX 33 68 34 69 35 70 36 71 62 72 63 73 71 74 64 75 70 76 72 77
REMARK SMILES IDX 69 78 65 79 66 80 67 81 68 82 47 83 48 84 56 85 49 86 55 87
REMARK SMILES IDX 57 88 54 89 50 90 51 91 52 92 53 93
REMARK H PARENT 13 6 5 14 18 27 77 46 45 57
REMARK Flexibility Score: inf
ROOT
ATOM      1  C   UNL     1       8.327   2.904   6.318  1.00  0.00     0.023 C 
ENDROOT
BRANCH   1   2
ATOM      2  C   UNL     1       9.100   2.441   5.084  1.00  0.00     0.116 C 
BRANCH   2   3
ATOM      3  N   UNL     1       8.740   1.089   4.719  1.00  0.00    -0.349 N 
ATOM      4  C   UNL     1       7.921   0.601   3.726  1.00  0.00     0.286 C 
ATOM      5  O   UNL     1       7.889  -0.628   3.623  1.00  0.00    -0.266 OA
ATOM      6  H   UNL     1       9.154   0.394   5.280  1.00  0.00     0.163 HD
BRANCH   4   7
ATOM      7  C   UNL     1       7.165   1.480   2.849  1.00  0.00     0.191 A 
ATOM      8  C   UNL     1       5.973   1.850   1.012  1.00  0.00     0.124 A 
ATOM      9  C   UNL     1       6.042   3.054   1.673  1.00  0.00     0.048 A 
ATOM     10  O   UNL     1       6.656   0.901   1.709  1.00  0.00    -0.454 OA
ATOM     11  C   UNL     1       6.776   2.810   2.862  1.00  0.00     0.056 A 
BRANCH   8  12
ATOM     12  C   UNL     1       5.346   1.407  -0.263  1.00  0.00     0.188 C 
BRANCH  12  13
ATOM     13  N   UNL     1       4.467   0.257  -0.137  1.00  0.00    -0.378 N 
ATOM     14  H   UNL     1       4.897  -0.629  -0.137  1.00  0.00     0.161 HD
BRANCH  13  15
ATOM     15  C   UNL     1       3.093   0.276  -0.018  1.00  0.00     0.035 A 
ATOM     16  C   UNL     1       0.356  -2.395   0.013  1.00  0.00     0.045 C 
ATOM     17  C   UNL     1       1.005  -1.040   0.018  1.00  0.00    -0.035 A 
ATOM     18  C   UNL     1       2.410  -0.952  -0.009  1.00  0.00     0.030 A 
ATOM     19  C   UNL     1       0.269   0.149   0.031  1.00  0.00     0.021 A 
ATOM     20  C   UNL     1       0.924   1.381   0.019  1.00  0.00     0.018 A 
ATOM     21  Br  UNL     1      -1.630   0.160   0.049  1.00  0.00    -0.051 Br
ATOM     22  C   UNL     1       2.323   1.439  -0.015  1.00  0.00     0.027 A 
ENDBRANCH  13  15
ENDBRANCH  12  13
ENDBRANCH   8  12
ENDBRANCH   4   7
ENDBRANCH   2   3
ENDBRANCH   1   2
BRANCH   1  23
ATOM     23  C   UNL     1       8.917   2.408   7.645  1.00  0.00     0.023 C 
BRANCH  23  24
ATOM     24  C   UNL     1      10.359   2.833   7.920  1.00  0.00     0.116 C 
BRANCH  24  25
ATOM     25  N   UNL     1      10.556   4.272   7.839  1.00  0.00    -0.352 N 
ATOM     26  C   UNL     1      11.366   5.080   8.600  1.00  0.00     0.251 C 
ATOM     27  H   UNL     1      10.035   4.731   7.142  1.00  0.00     0.163 HD
ATOM     28  O   UNL     1      11.294   6.298   8.469  1.00  0.00    -0.269 OA
BRANCH  26  29
ATOM     29  C   UNL     1      12.284   4.483   9.594  1.00  0.00     0.039 A 
ATOM     30  C   UNL     1      12.360   5.059  10.863  1.00  0.00     0.014 A 
ATOM     31  C   UNL     1      13.057   3.360   9.285  1.00  0.00     0.014 A 
ATOM     32  C   UNL     1      13.164   4.471  11.841  1.00  0.00     0.010 A 
ATOM     33  C   UNL     1      13.797   2.730  10.284  1.00  0.00     0.010 A 
ATOM     34  C   UNL     1      13.860   3.279  11.573  1.00  0.00    -0.014 A 
BRANCH  34  35
ATOM     35  C   UNL     1      14.639   2.603  12.644  1.00  0.00     0.031 A 
ATOM     36  C   UNL     1      16.131   2.446  12.524  1.00  0.00     0.074 A 
ATOM     37  C   UNL     1      13.990   2.106  13.716  1.00  0.00     0.049 A 
ATOM     38  N   UNL     1      16.974   1.900  13.362  1.00  0.00    -0.248 NA
ATOM     39  C   UNL     1      16.753   2.945  11.289  1.00  0.00     0.031 C 
ATOM     40  C   UNL     1      12.539   2.149  13.918  1.00  0.00     0.029 A 
ATOM     41  N   UNL     1      14.459   1.475  14.841  1.00  0.00    -0.354 N 
ATOM     42  C   UNL     1      18.224   1.988  12.758  1.00  0.00     0.074 A 
ATOM     43  C   UNL     1      18.014   2.576  11.452  1.00  0.00     0.031 C 
ATOM     44  C   UNL     1      12.244   1.612  15.112  1.00  0.00     0.029 A 
ATOM     45  C   UNL     1      13.473   1.143  15.742  1.00  0.00     0.049 A 
ATOM     46  H   UNL     1      15.412   1.279  14.990  1.00  0.00     0.167 HD
ATOM     47  C   UNL     1      19.436   1.638  13.257  1.00  0.00     0.034 A 
ATOM     48  C   UNL     1      13.549   0.529  16.939  1.00  0.00     0.034 A 
ATOM     49  C   UNL     1      19.625   1.052  14.563  1.00  0.00     0.049 A 
ATOM     50  C   UNL     1      14.905   0.128  17.462  1.00  0.00     0.074 A 
ATOM     51  C   UNL     1      20.810   0.705  15.188  1.00  0.00     0.029 A 
ATOM     52  N   UNL     1      18.602   0.715  15.442  1.00  0.00    -0.354 N 
ATOM     53  N   UNL     1      16.085   0.281  16.905  1.00  0.00    -0.248 NA
ATOM     54  C   UNL     1      14.940  -0.513  18.781  1.00  0.00     0.031 C 
ATOM     55  C   UNL     1      20.501   0.087  16.405  1.00  0.00     0.029 A 
ATOM     56  C   UNL     1      19.128   0.130  16.586  1.00  0.00     0.049 A 
ATOM     57  H   UNL     1      17.644   0.869  15.278  1.00  0.00     0.167 HD
ATOM     58  C   UNL     1      17.005  -0.220  17.823  1.00  0.00     0.074 A 
ATOM     59  C   UNL     1      16.242  -0.651  18.977  1.00  0.00     0.031 C 
ATOM     60  C   UNL     1      18.356  -0.316  17.723  1.00  0.00     0.034 A 
BRANCH  47  61
ATOM     61  C   UNL     1      20.643   1.856  12.374  1.00  0.00     0.023 A 
ATOM     62  C   UNL     1      21.020   3.139  11.938  1.00  0.00     0.031 A 
ATOM     63  C   UNL     1      21.421   0.765  11.946  1.00  0.00     0.131 A 
ATOM     64  C   UNL     1      22.091   3.292  11.045  1.00  0.00     0.055 A 
ATOM     65  C   UNL     1      22.540   0.933  11.127  1.00  0.00     0.041 A 
ATOM     66  F   UNL     1      21.101  -0.487  12.308  1.00  0.00    -0.206 F 
ATOM     67  C   UNL     1      22.872   2.201  10.659  1.00  0.00     0.022 A 
BRANCH  64  68
ATOM     68  S   UNL     1      22.357   4.915  10.279  1.00  0.00     0.124 S 
ATOM     69  O   UNL     1      21.073   5.143   9.620  1.00  0.00    -0.237 OA
ATOM     70  O   UNL     1      22.645   5.764  11.429  1.00  0.00    -0.237 OA
ATOM     71  O   UNL     1      23.481   4.687   9.373  1.00  0.00    -0.744 OA
ENDBRANCH  64  68
ENDBRANCH  47  61
BRANCH  48  72
ATOM     72  C   UNL     1      12.313   0.248  17.728  1.00  0.00     0.023 A 
ATOM     73  C   UNL     1      12.112   0.823  18.993  1.00  0.00     0.031 A 
ATOM     74  C   UNL     1      11.335  -0.641  17.248  1.00  0.00     0.131 A 
ATOM     75  C   UNL     1      10.992   0.462  19.758  1.00  0.00     0.055 A 
ATOM     76  C   UNL     1      10.191  -0.950  17.985  1.00  0.00     0.041 A 
ATOM     77  F   UNL     1      11.474  -1.219  16.044  1.00  0.00    -0.206 F 
ATOM     78  C   UNL     1      10.022  -0.409  19.256  1.00  0.00     0.022 A 
BRANCH  75  79
ATOM     79  S   UNL     1      10.870   1.070  21.463  1.00  0.00     0.124 S 
ATOM     80  O   UNL     1      12.109   0.569  22.045  1.00  0.00    -0.237 OA
ATOM     81  O   UNL     1      10.790   2.513  21.264  1.00  0.00    -0.237 OA
ATOM     82  O   UNL     1       9.647   0.443  21.960  1.00  0.00    -0.744 OA
ENDBRANCH  75  79
ENDBRANCH  48  72
BRANCH  60  83
ATOM     83  C   UNL     1      19.091  -0.878  18.919  1.00  0.00     0.023 A 
ATOM     84  C   UNL     1      18.888  -2.199  19.358  1.00  0.00     0.031 A 
ATOM     85  C   UNL     1      19.976  -0.069  19.654  1.00  0.00     0.131 A 
ATOM     86  C   UNL     1      19.495  -2.644  20.541  1.00  0.00     0.055 A 
ATOM     87  C   UNL     1      20.638  -0.543  20.787  1.00  0.00     0.041 A 
ATOM     88  F   UNL     1      20.207   1.202  19.286  1.00  0.00    -0.206 F 
ATOM     89  C   UNL     1      20.384  -1.831  21.248  1.00  0.00     0.022 A 
BRANCH  86  90
ATOM     90  S   UNL     1      19.000  -4.252  21.219  1.00  0.00     0.124 S 
ATOM     91  O   UNL     1      17.555  -4.093  21.350  1.00  0.00    -0.237 OA
ATOM     92  O   UNL     1      19.448  -5.178  20.184  1.00  0.00    -0.237 OA
ATOM     93  O   UNL     1      19.732  -4.332  22.482  1.00  0.00    -0.744 OA
ENDBRANCH  86  90
ENDBRANCH  60  83
ENDBRANCH  34  35
ENDBRANCH  26  29
ENDBRANCH  24  25
ENDBRANCH  23  24
ENDBRANCH   1  23
TORSDOF 17
