REMARK SMILES CC[C@@H](C)S(=O)(=O)c1cc(C(=O)NCCCCNC(=O)c2ccc(-c3c4nc(c(-c5cc(S(=O)(=O)[O-])ccc5F)c5ccc([nH]5)c(-c5cc(S(=O)(=O)[O-])ccc5F)c5nc(c(-c6cc(S(=O)(=O)[O-])ccc6F)c6ccc3[nH]6)C=C5)C=C4)cc2)c(C)cc1C
REMARK SMILES IDX 15 1 14 2 13 3 11 4 12 5 10 7 8 8 9 9 87 10 86 11 88 12
REMARK SMILES IDX 84 13 85 14 5 15 6 16 7 17 3 18 4 19 2 20 1 21 16 22 17 23
REMARK SMILES IDX 18 24 19 25 20 27 21 28 22 29 83 30 23 31 82 32 24 33 25 34
REMARK SMILES IDX 26 35 76 36 27 37 81 38 75 39 77 40 28 41 80 42 74 43 73 44
REMARK SMILES IDX 29 46 61 47 41 48 60 49 42 50 45 51 59 52 78 53 43 54 44 55
REMARK SMILES IDX 58 57 79 58 46 59 30 60 31 61 39 62 32 63 38 64 40 65 37 66
REMARK SMILES IDX 33 67 34 68 35 69 36 70 62 71 63 72 71 73 64 74 70 75 72 76
REMARK SMILES IDX 69 77 65 78 66 79 67 80 68 81 47 82 48 83 56 84 49 85 55 86
REMARK SMILES IDX 57 87 54 88 50 89 51 90 52 91 53 92
REMARK H PARENT 13 6 18 26 77 45 45 56
REMARK Flexibility Score: inf
ROOT
ATOM      1  C   UNL     1      -7.280   3.593   4.350  1.00  0.00     0.023 C 
ENDROOT
BRANCH   1   2
ATOM      2  C   UNL     1      -6.488   3.874   3.069  1.00  0.00     0.116 C 
BRANCH   2   3
ATOM      3  N   UNL     1      -5.269   4.567   3.399  1.00  0.00    -0.352 N 
ATOM      4  C   UNL     1      -3.992   4.188   3.699  1.00  0.00     0.251 C 
ATOM      5  O   UNL     1      -3.249   5.127   4.009  1.00  0.00    -0.269 OA
ATOM      6  H   UNL     1      -5.383   5.545   3.411  1.00  0.00     0.163 HD
BRANCH   4   7
ATOM      7  C   UNL     1      -3.385   2.807   3.625  1.00  0.00     0.044 A 
ATOM      8  C   UNL     1      -1.153   1.710   3.436  1.00  0.00     0.071 A 
ATOM      9  C   UNL     1      -1.980   2.853   3.423  1.00  0.00     0.034 A 
ATOM     10  C   UNL     1      -1.727   0.450   3.614  1.00  0.00    -0.032 A 
ATOM     11  C   UNL     1      -3.119   0.393   3.749  1.00  0.00     0.009 A 
ATOM     12  C   UNL     1      -1.034  -0.880   3.683  1.00  0.00     0.046 C 
ATOM     13  C   UNL     1      -3.947   1.536   3.834  1.00  0.00    -0.038 A 
ATOM     14  C   UNL     1      -5.341   1.210   4.265  1.00  0.00     0.045 C 
BRANCH   8  15
ATOM     15  S   UNL     1       0.615   1.997   3.345  1.00  0.00     0.181 S 
ATOM     16  O   UNL     1       1.281   0.999   4.167  1.00  0.00    -0.223 OA
ATOM     17  O   UNL     1       0.847   3.396   3.644  1.00  0.00    -0.223 OA
BRANCH  15  18
ATOM     18  C   UNL     1       1.075   1.723   1.622  1.00  0.00     0.110 C 
ATOM     19  C   UNL     1       0.519   2.826   0.724  1.00  0.00     0.025 C 
BRANCH  18  20
ATOM     20  C   UNL     1       0.693   0.319   1.141  1.00  0.00     0.016 C 
ATOM     21  C   UNL     1       1.244  -0.049  -0.227  1.00  0.00     0.005 C 
ENDBRANCH  18  20
ENDBRANCH  15  18
ENDBRANCH   8  15
ENDBRANCH   4   7
ENDBRANCH   2   3
ENDBRANCH   1   2
BRANCH   1  22
ATOM     22  C   UNL     1      -8.353   4.612   4.699  1.00  0.00     0.023 C 
BRANCH  22  23
ATOM     23  C   UNL     1      -9.500   4.668   3.709  1.00  0.00     0.116 C 
BRANCH  23  24
ATOM     24  N   UNL     1     -10.184   3.394   3.526  1.00  0.00    -0.352 N 
ATOM     25  C   UNL     1     -11.522   3.190   3.279  1.00  0.00     0.251 C 
ATOM     26  H   UNL     1      -9.624   2.587   3.586  1.00  0.00     0.163 HD
ATOM     27  O   UNL     1     -11.985   2.057   3.235  1.00  0.00    -0.269 OA
BRANCH  25  28
ATOM     28  C   UNL     1     -12.385   4.378   3.126  1.00  0.00     0.039 A 
ATOM     29  C   UNL     1     -13.512   4.507   3.937  1.00  0.00     0.014 A 
ATOM     30  C   UNL     1     -11.990   5.417   2.279  1.00  0.00     0.014 A 
ATOM     31  C   UNL     1     -14.200   5.720   3.957  1.00  0.00     0.010 A 
ATOM     32  C   UNL     1     -12.610   6.654   2.383  1.00  0.00     0.010 A 
ATOM     33  C   UNL     1     -13.726   6.818   3.218  1.00  0.00    -0.014 A 
BRANCH  33  34
ATOM     34  C   UNL     1     -14.394   8.143   3.286  1.00  0.00     0.031 A 
ATOM     35  C   UNL     1     -14.979   8.742   2.036  1.00  0.00     0.074 A 
ATOM     36  C   UNL     1     -14.419   8.826   4.448  1.00  0.00     0.049 A 
ATOM     37  N   UNL     1     -15.538   9.911   1.862  1.00  0.00    -0.248 NA
ATOM     38  C   UNL     1     -14.890   7.932   0.810  1.00  0.00     0.031 C 
ATOM     39  C   UNL     1     -13.841   8.366   5.714  1.00  0.00     0.029 A 
ATOM     40  N   UNL     1     -14.948  10.054   4.756  1.00  0.00    -0.354 N 
ATOM     41  C   UNL     1     -15.854   9.980   0.510  1.00  0.00     0.074 A 
ATOM     42  C   UNL     1     -15.353   8.771  -0.103  1.00  0.00     0.031 C 
ATOM     43  C   UNL     1     -14.081   9.281   6.666  1.00  0.00     0.029 A 
ATOM     44  C   UNL     1     -14.780  10.417   6.074  1.00  0.00     0.049 A 
ATOM     45  H   UNL     1     -15.406  10.623   4.096  1.00  0.00     0.167 HD
ATOM     46  C   UNL     1     -16.530  10.950  -0.154  1.00  0.00     0.034 A 
ATOM     47  C   UNL     1     -15.139  11.542   6.725  1.00  0.00     0.034 A 
ATOM     48  C   UNL     1     -17.035  12.143   0.478  1.00  0.00     0.049 A 
ATOM     49  C   UNL     1     -15.863  12.622   5.957  1.00  0.00     0.074 A 
ATOM     50  C   UNL     1     -17.777  13.166  -0.083  1.00  0.00     0.029 A 
ATOM     51  N   UNL     1     -16.843  12.477   1.813  1.00  0.00    -0.354 N 
ATOM     52  N   UNL     1     -16.204  12.647   4.689  1.00  0.00    -0.248 NA
ATOM     53  C   UNL     1     -16.259  13.818   6.710  1.00  0.00     0.031 C 
ATOM     54  C   UNL     1     -17.966  14.153   0.888  1.00  0.00     0.029 A 
ATOM     55  C   UNL     1     -17.423  13.707   2.083  1.00  0.00     0.049 A 
ATOM     56  H   UNL     1     -16.365  11.923   2.471  1.00  0.00     0.167 HD
ATOM     57  C   UNL     1     -16.889  13.846   4.504  1.00  0.00     0.074 A 
ATOM     58  C   UNL     1     -16.923  14.505   5.793  1.00  0.00     0.031 C 
ATOM     59  C   UNL     1     -17.445  14.354   3.374  1.00  0.00     0.034 A 
BRANCH  46  60
ATOM     60  C   UNL     1     -16.737  10.763  -1.638  1.00  0.00     0.023 A 
ATOM     61  C   UNL     1     -17.468   9.677  -2.152  1.00  0.00     0.031 A 
ATOM     62  C   UNL     1     -16.173  11.667  -2.555  1.00  0.00     0.131 A 
ATOM     63  C   UNL     1     -17.550   9.480  -3.538  1.00  0.00     0.055 A 
ATOM     64  C   UNL     1     -16.335  11.515  -3.934  1.00  0.00     0.041 A 
ATOM     65  F   UNL     1     -15.442  12.709  -2.127  1.00  0.00    -0.206 F 
ATOM     66  C   UNL     1     -17.014  10.407  -4.433  1.00  0.00     0.022 A 
BRANCH  63  67
ATOM     67  S   UNL     1     -18.234   7.915  -4.151  1.00  0.00     0.124 S 
ATOM     68  O   UNL     1     -17.339   6.940  -3.532  1.00  0.00    -0.237 OA
ATOM     69  O   UNL     1     -19.599   7.945  -3.638  1.00  0.00    -0.237 OA
ATOM     70  O   UNL     1     -18.109   8.031  -5.602  1.00  0.00    -0.744 OA
ENDBRANCH  63  67
ENDBRANCH  46  60
BRANCH  47  71
ATOM     71  C   UNL     1     -14.820  11.719   8.172  1.00  0.00     0.023 A 
ATOM     72  C   UNL     1     -15.841  11.863   9.127  1.00  0.00     0.031 A 
ATOM     73  C   UNL     1     -13.489  11.802   8.618  1.00  0.00     0.131 A 
ATOM     74  C   UNL     1     -15.516  12.138  10.465  1.00  0.00     0.055 A 
ATOM     75  C   UNL     1     -13.170  12.014   9.960  1.00  0.00     0.041 A 
ATOM     76  F   UNL     1     -12.473  11.670   7.750  1.00  0.00    -0.206 F 
ATOM     77  C   UNL     1     -14.187  12.200  10.891  1.00  0.00     0.022 A 
BRANCH  74  78
ATOM     78  S   UNL     1     -16.858  12.522  11.623  1.00  0.00     0.124 S 
ATOM     79  O   UNL     1     -17.497  13.658  10.970  1.00  0.00    -0.237 OA
ATOM     80  O   UNL     1     -17.616  11.275  11.630  1.00  0.00    -0.237 OA
ATOM     81  O   UNL     1     -16.156  12.830  12.867  1.00  0.00    -0.744 OA
ENDBRANCH  74  78
ENDBRANCH  47  71
BRANCH  59  82
ATOM     82  C   UNL     1     -18.187  15.662   3.498  1.00  0.00     0.023 A 
ATOM     83  C   UNL     1     -17.531  16.862   3.823  1.00  0.00     0.031 A 
ATOM     84  C   UNL     1     -19.577  15.705   3.287  1.00  0.00     0.131 A 
ATOM     85  C   UNL     1     -18.273  18.042   3.984  1.00  0.00     0.055 A 
ATOM     86  C   UNL     1     -20.300  16.895   3.380  1.00  0.00     0.041 A 
ATOM     87  F   UNL     1     -20.257  14.589   2.978  1.00  0.00    -0.206 F 
ATOM     88  C   UNL     1     -19.650  18.070   3.744  1.00  0.00     0.022 A 
BRANCH  85  89
ATOM     89  S   UNL     1     -17.432  19.521   4.610  1.00  0.00     0.124 S 
ATOM     90  O   UNL     1     -16.902  19.052   5.886  1.00  0.00    -0.237 OA
ATOM     91  O   UNL     1     -16.445  19.783   3.567  1.00  0.00    -0.237 OA
ATOM     92  O   UNL     1     -18.504  20.510   4.709  1.00  0.00    -0.744 OA
ENDBRANCH  85  89
ENDBRANCH  59  82
ENDBRANCH  33  34
ENDBRANCH  25  28
ENDBRANCH  23  24
ENDBRANCH  22  23
ENDBRANCH   1  22
TORSDOF 17
