REMARK SMILES CC(C)C[C@H](NC(=O)[C@H](Cc1ccccc1)NC(=O)CNC(=O)CNC(=O)OCc1ccccc1)C(=O)NCCCCNC(=O)c1ccc(-c2c3nc(c(-c4cc(S(=O)(=O)[O-])ccc4F)c4ccc([nH]4)c(-c4cc(S(=O)(=O)[O-])ccc4F)c4nc(c(-c5cc(S(=O)(=O)[O-])ccc5F)c5ccc2[nH]5)C=C4)C=C3)cc1
REMARK SMILES IDX 5 1 4 2 2 3 1 4 3 5 36 6 37 7 38 8 39 10 40 11 41 12 42 13
REMARK SMILES IDX 43 14 44 15 45 17 46 18 47 19 108 20 48 21 107 22 49 23
REMARK SMILES IDX 50 24 51 25 101 26 52 27 106 28 100 29 102 30 53 31 105 32
REMARK SMILES IDX 99 33 98 34 54 36 86 37 66 38 85 39 67 40 70 41 84 42 103 43
REMARK SMILES IDX 68 44 69 45 83 47 104 48 71 49 55 50 56 51 64 52 57 53 63 54
REMARK SMILES IDX 65 55 62 56 58 57 59 58 60 59 61 60 87 61 88 62 96 63 89 64
REMARK SMILES IDX 95 65 97 66 94 67 90 68 91 69 92 70 93 71 72 72 73 73 81 74
REMARK SMILES IDX 74 75 80 76 82 77 79 78 75 79 76 80 77 81 78 82 6 83 7 84
REMARK SMILES IDX 8 86 9 87 17 88 18 89 19 91 20 92 21 93 22 94 23 96 24 97
REMARK SMILES IDX 25 98 26 99 27 101 28 102 29 103 30 104 31 105 35 106 32 107
REMARK SMILES IDX 34 108 33 109 10 110 11 111 12 112 16 113 13 114 15 115
REMARK SMILES IDX 14 116
REMARK H PARENT 38 9 43 16 102 35 70 46 6 85 17 90 21 95 25 100
REMARK Flexibility Score: inf
ROOT
ATOM      1  C   UNL     1       1.424   3.758  -0.580  1.00  0.00     0.171 C 
ENDROOT
BRANCH   1   2
ATOM      2  C   UNL     1       2.532   3.006   0.314  1.00  0.00     0.038 C 
BRANCH   2   3
ATOM      3  C   UNL     1       3.646   3.580   1.322  1.00  0.00    -0.015 C 
ATOM      4  C   UNL     1       3.281   3.425   2.811  1.00  0.00     0.007 C 
ATOM      5  C   UNL     1       5.034   2.877   1.238  1.00  0.00     0.007 C 
ENDBRANCH   2   3
ENDBRANCH   1   2
BRANCH   1   6
ATOM      6  C   UNL     1       1.302   5.075  -1.520  1.00  0.00     0.242 C 
ATOM      7  O   UNL     1       0.497   5.929  -1.078  1.00  0.00    -0.273 OA
ATOM      8  N   UNL     1       1.669   5.375  -2.816  1.00  0.00    -0.354 N 
ATOM      9  H   UNL     1       1.222   6.202  -3.107  1.00  0.00     0.163 HD
BRANCH   8  10
ATOM     10  C   UNL     1       2.522   4.852  -3.913  1.00  0.00     0.116 C 
BRANCH  10  11
ATOM     11  C   UNL     1       2.783   5.689  -5.191  1.00  0.00     0.023 C 
BRANCH  11  12
ATOM     12  C   UNL     1       4.103   6.495  -5.315  1.00  0.00     0.023 C 
BRANCH  12  13
ATOM     13  C   UNL     1       5.450   5.881  -4.891  1.00  0.00     0.116 C 
BRANCH  13  14
ATOM     14  N   UNL     1       6.144   5.160  -5.936  1.00  0.00    -0.352 N 
ATOM     15  C   UNL     1       7.221   5.556  -6.698  1.00  0.00     0.251 C 
ATOM     16  H   UNL     1       5.798   4.259  -6.130  1.00  0.00     0.163 HD
ATOM     17  O   UNL     1       7.560   4.861  -7.655  1.00  0.00    -0.269 OA
BRANCH  15  18
ATOM     18  C   UNL     1       7.963   6.813  -6.409  1.00  0.00     0.039 A 
ATOM     19  C   UNL     1       8.190   7.707  -7.459  1.00  0.00     0.014 A 
ATOM     20  C   UNL     1       8.503   7.088  -5.147  1.00  0.00     0.014 A 
ATOM     21  C   UNL     1       8.909   8.890  -7.238  1.00  0.00     0.010 A 
ATOM     22  C   UNL     1       9.173   8.298  -4.915  1.00  0.00     0.010 A 
ATOM     23  C   UNL     1       9.389   9.215  -5.958  1.00  0.00    -0.014 A 
BRANCH  23  24
ATOM     24  C   UNL     1      10.125  10.495  -5.720  1.00  0.00     0.031 A 
ATOM     25  C   UNL     1      11.572  10.482  -5.292  1.00  0.00     0.074 A 
ATOM     26  C   UNL     1       9.490  11.677  -5.868  1.00  0.00     0.049 A 
ATOM     27  N   UNL     1      12.364  11.486  -5.004  1.00  0.00    -0.248 NA
ATOM     28  C   UNL     1      12.204   9.163  -5.145  1.00  0.00     0.031 C 
ATOM     29  C   UNL     1       8.086  11.835  -6.252  1.00  0.00     0.029 A 
ATOM     30  N   UNL     1       9.934  12.969  -5.713  1.00  0.00    -0.354 N 
ATOM     31  C   UNL     1      13.583  10.922  -4.639  1.00  0.00     0.074 A 
ATOM     32  C   UNL     1      13.400   9.486  -4.676  1.00  0.00     0.031 C 
ATOM     33  C   UNL     1       7.793  13.143  -6.328  1.00  0.00     0.029 A 
ATOM     34  C   UNL     1       8.969  13.923  -5.953  1.00  0.00     0.049 A 
ATOM     35  H   UNL     1      10.858  13.193  -5.455  1.00  0.00     0.167 HD
ATOM     36  C   UNL     1      14.752  11.538  -4.326  1.00  0.00     0.034 A 
ATOM     37  C   UNL     1       9.016  15.269  -5.869  1.00  0.00     0.034 A 
ATOM     38  C   UNL     1      14.924  12.972  -4.296  1.00  0.00     0.049 A 
ATOM     39  C   UNL     1      10.315  15.933  -5.478  1.00  0.00     0.074 A 
ATOM     40  C   UNL     1      16.074  13.697  -4.031  1.00  0.00     0.029 A 
ATOM     41  N   UNL     1      13.918  13.902  -4.530  1.00  0.00    -0.354 N 
ATOM     42  N   UNL     1      11.468  15.381  -5.178  1.00  0.00    -0.248 NA
ATOM     43  C   UNL     1      10.321  17.401  -5.426  1.00  0.00     0.031 C 
ATOM     44  C   UNL     1      15.747  15.057  -4.029  1.00  0.00     0.029 A 
ATOM     45  C   UNL     1      14.414  15.189  -4.381  1.00  0.00     0.049 A 
ATOM     46  H   UNL     1      12.989  13.679  -4.766  1.00  0.00     0.167 HD
ATOM     47  C   UNL     1      12.343  16.437  -4.934  1.00  0.00     0.074 A 
ATOM     48  C   UNL     1      11.589  17.656  -5.140  1.00  0.00     0.031 C 
ATOM     49  C   UNL     1      13.653  16.401  -4.578  1.00  0.00     0.034 A 
BRANCH  36  50
ATOM     50  C   UNL     1      15.930  10.659  -3.966  1.00  0.00     0.023 A 
ATOM     51  C   UNL     1      16.475   9.744  -4.883  1.00  0.00     0.031 A 
ATOM     52  C   UNL     1      16.505  10.721  -2.683  1.00  0.00     0.131 A 
ATOM     53  C   UNL     1      17.499   8.872  -4.482  1.00  0.00     0.055 A 
ATOM     54  C   UNL     1      17.584   9.912  -2.319  1.00  0.00     0.041 A 
ATOM     55  F   UNL     1      16.019  11.560  -1.755  1.00  0.00    -0.206 F 
ATOM     56  C   UNL     1      18.077   8.969  -3.215  1.00  0.00     0.022 A 
BRANCH  53  57
ATOM     57  S   UNL     1      17.954   7.507  -5.586  1.00  0.00     0.124 S 
ATOM     58  O   UNL     1      16.678   6.810  -5.734  1.00  0.00    -0.237 OA
ATOM     59  O   UNL     1      18.441   8.206  -6.769  1.00  0.00    -0.237 OA
ATOM     60  O   UNL     1      18.969   6.777  -4.829  1.00  0.00    -0.744 OA
ENDBRANCH  53  57
ENDBRANCH  36  50
BRANCH  37  61
ATOM     61  C   UNL     1       7.796  16.089  -6.138  1.00  0.00     0.023 A 
ATOM     62  C   UNL     1       7.755  17.011  -7.197  1.00  0.00     0.031 A 
ATOM     63  C   UNL     1       6.667  15.997  -5.304  1.00  0.00     0.131 A 
ATOM     64  C   UNL     1       6.632  17.838  -7.364  1.00  0.00     0.055 A 
ATOM     65  C   UNL     1       5.529  16.779  -5.511  1.00  0.00     0.041 A 
ATOM     66  F   UNL     1       6.650  15.133  -4.277  1.00  0.00    -0.206 F 
ATOM     67  C   UNL     1       5.513  17.716  -6.538  1.00  0.00     0.022 A 
BRANCH  64  68
ATOM     68  S   UNL     1       6.694  19.147  -8.619  1.00  0.00     0.124 S 
ATOM     69  O   UNL     1       7.865  19.907  -8.198  1.00  0.00    -0.237 OA
ATOM     70  O   UNL     1       6.836  18.378  -9.851  1.00  0.00    -0.237 OA
ATOM     71  O   UNL     1       5.413  19.832  -8.459  1.00  0.00    -0.744 OA
ENDBRANCH  64  68
ENDBRANCH  37  61
BRANCH  49  72
ATOM     72  C   UNL     1      14.366  17.726  -4.435  1.00  0.00     0.023 A 
ATOM     73  C   UNL     1      14.021  18.653  -3.435  1.00  0.00     0.031 A 
ATOM     74  C   UNL     1      15.405  18.068  -5.320  1.00  0.00     0.131 A 
ATOM     75  C   UNL     1      14.668  19.898  -3.382  1.00  0.00     0.055 A 
ATOM     76  C   UNL     1      16.090  19.279  -5.220  1.00  0.00     0.041 A 
ATOM     77  F   UNL     1      15.776  17.225  -6.297  1.00  0.00    -0.206 F 
ATOM     78  C   UNL     1      15.713  20.209  -4.255  1.00  0.00     0.022 A 
BRANCH  75  79
ATOM     79  S   UNL     1      14.055  21.148  -2.220  1.00  0.00     0.124 S 
ATOM     80  O   UNL     1      12.664  21.292  -2.635  1.00  0.00    -0.237 OA
ATOM     81  O   UNL     1      14.272  20.506  -0.927  1.00  0.00    -0.237 OA
ATOM     82  O   UNL     1      14.905  22.308  -2.485  1.00  0.00    -0.744 OA
ENDBRANCH  75  79
ENDBRANCH  49  72
ENDBRANCH  23  24
ENDBRANCH  15  18
ENDBRANCH  13  14
ENDBRANCH  12  13
ENDBRANCH  11  12
ENDBRANCH  10  11
ENDBRANCH   8  10
ENDBRANCH   1   6
BRANCH   1  83
ATOM     83  N   UNL     1       0.465   2.943  -1.389  1.00  0.00    -0.343 N 
ATOM     84  C   UNL     1      -0.085   1.732  -1.525  1.00  0.00     0.243 C 
ATOM     85  H   UNL     1       0.095   3.523  -2.093  1.00  0.00     0.164 HD
ATOM     86  O   UNL     1      -1.064   1.697  -2.279  1.00  0.00    -0.273 OA
BRANCH  84  87
ATOM     87  C   UNL     1       0.457   0.468  -0.870  1.00  0.00     0.175 C 
BRANCH  87  88
ATOM     88  N   UNL     1       0.194   0.531   0.566  1.00  0.00    -0.342 N 
ATOM     89  C   UNL     1       1.001   0.342   1.640  1.00  0.00     0.240 C 
ATOM     90  H   UNL     1      -0.738   0.751   0.795  1.00  0.00     0.164 HD
ATOM     91  O   UNL     1       0.507   0.587   2.747  1.00  0.00    -0.273 OA
BRANCH  89  92
ATOM     92  C   UNL     1       2.472  -0.140   1.544  1.00  0.00     0.216 C 
BRANCH  92  93
ATOM     93  N   UNL     1       3.151  -0.339   0.255  1.00  0.00    -0.346 N 
ATOM     94  C   UNL     1       4.524  -0.212   0.156  1.00  0.00     0.239 C 
ATOM     95  H   UNL     1       2.623  -0.563  -0.545  1.00  0.00     0.164 HD
ATOM     96  O   UNL     1       5.220  -0.861   0.942  1.00  0.00    -0.273 OA
BRANCH  94  97
ATOM     97  C   UNL     1       5.201   0.534  -1.079  1.00  0.00     0.219 C 
BRANCH  97  98
ATOM     98  N   UNL     1       4.470   1.484  -1.929  1.00  0.00    -0.312 N 
ATOM     99  C   UNL     1       4.255   2.829  -2.080  1.00  0.00     0.407 C 
ATOM    100  H   UNL     1       3.968   0.991  -2.618  1.00  0.00     0.167 HD
ATOM    101  O   UNL     1       3.098   2.950  -2.535  1.00  0.00    -0.225 OA
BRANCH  99 102
ATOM    102  O   UNL     1       5.085   3.885  -1.744  1.00  0.00    -0.445 OA
BRANCH 102 103
ATOM    103  C   UNL     1       4.685   5.292  -1.168  1.00  0.00     0.270 C 
BRANCH 103 104
ATOM    104  C   UNL     1       4.367   6.730  -1.742  1.00  0.00    -0.011 A 
ATOM    105  C   UNL     1       5.273   7.603  -2.341  1.00  0.00     0.007 A 
ATOM    106  C   UNL     1       3.132   7.362  -1.446  1.00  0.00     0.007 A 
ATOM    107  C   UNL     1       4.857   8.852  -2.893  1.00  0.00     0.000 A 
ATOM    108  C   UNL     1       2.657   8.528  -2.081  1.00  0.00     0.000 A 
ATOM    109  C   UNL     1       3.525   9.264  -2.854  1.00  0.00     0.000 A 
ENDBRANCH 103 104
ENDBRANCH 102 103
ENDBRANCH  99 102
ENDBRANCH  97  98
ENDBRANCH  94  97
ENDBRANCH  92  93
ENDBRANCH  89  92
ENDBRANCH  87  88
BRANCH  87 110
ATOM    110  C   UNL     1      -0.250  -0.757  -1.526  1.00  0.00     0.070 C 
BRANCH 110 111
ATOM    111  C   UNL     1       0.558  -2.027  -1.659  1.00  0.00    -0.045 A 
ATOM    112  C   UNL     1      -0.067  -3.270  -1.493  1.00  0.00     0.004 A 
ATOM    113  C   UNL     1       1.897  -2.008  -2.063  1.00  0.00     0.004 A 
ATOM    114  C   UNL     1       0.665  -4.453  -1.607  1.00  0.00     0.000 A 
ATOM    115  C   UNL     1       2.648  -3.182  -2.109  1.00  0.00     0.000 A 
ATOM    116  C   UNL     1       2.032  -4.406  -1.873  1.00  0.00     0.000 A 
ENDBRANCH 110 111
ENDBRANCH  87 110
ENDBRANCH  84  87
ENDBRANCH   1  83
TORSDOF 28
