REMARK SMILES Cc1ccc(-c2nn(-c3ccccc3)cc2[C@@H]2[NH2+][C@H](C(=O)NCCCCNC(=O)c3ccc(-c4c5nc(c(-c6cc(S(=O)(=O)[O-])ccc6F)c6ccc([nH]6)c(-c6cc(S(=O)(=O)[O-])ccc6F)c6nc(c(-c7cc(S(=O)(=O)[O-])ccc7F)c7ccc4[nH]7)C=C6)C=C5)cc3)CS2)cc1
REMARK SMILES IDX 25 1 24 2 23 3 22 4 20 5 21 6 19 8 17 9 18 10 94 11 93 14
REMARK SMILES IDX 16 15 6 16 7 17 8 18 15 19 5 20 1 21 2 22 3 23 96 24 4 25
REMARK SMILES IDX 95 26 9 27 10 28 14 29 11 30 13 31 12 32 26 33 27 34 28 35
REMARK SMILES IDX 29 37 30 38 31 39 92 40 32 41 91 42 33 43 34 44 35 45 85 46
REMARK SMILES IDX 36 47 90 48 84 49 86 50 37 51 89 52 83 53 82 54 38 56 70 57
REMARK SMILES IDX 50 58 69 59 51 60 54 61 68 62 87 63 52 64 53 65 67 67 88 68
REMARK SMILES IDX 55 69 39 70 40 71 48 72 41 73 47 74 49 75 46 76 42 77 43 78
REMARK SMILES IDX 44 79 45 80 71 81 72 82 80 83 73 84 79 85 81 86 78 87 74 88
REMARK SMILES IDX 75 89 76 90 77 91 56 92 57 93 65 94 58 95 64 96 66 97 63 98
REMARK SMILES IDX 59 99 60 100 61 101 62 102
REMARK H PARENT 22 7 18 12 18 13 27 36 86 55 54 66
REMARK Flexibility Score: inf
ROOT
ATOM      1  C   UNL     1      -3.930  -1.437  -3.435  1.00  0.00     0.023 C 
ENDROOT
BRANCH   1   2
ATOM      2  C   UNL     1      -4.093  -2.540  -2.278  1.00  0.00     0.023 C 
BRANCH   2   3
ATOM      3  C   UNL     1      -4.738  -2.365  -0.885  1.00  0.00     0.116 C 
BRANCH   3   4
ATOM      4  N   UNL     1      -5.510  -3.436  -0.265  1.00  0.00    -0.351 N 
ATOM      5  C   UNL     1      -5.997  -3.447   1.030  1.00  0.00     0.279 C 
ATOM      6  O   UNL     1      -7.090  -4.020   1.179  1.00  0.00    -0.268 OA
ATOM      7  H   UNL     1      -5.703  -4.226  -0.820  1.00  0.00     0.163 HD
BRANCH   5   8
ATOM      8  C   UNL     1      -5.264  -2.949   2.321  1.00  0.00     0.283 C 
ATOM      9  C   UNL     1      -3.878  -0.981   2.718  1.00  0.00     0.278 C 
ATOM     10  N   UNL     1      -3.902  -2.361   2.170  1.00  0.00    -0.320 N 
ATOM     11  S   UNL     1      -4.998  -1.041   4.133  1.00  0.00    -0.087 SA
ATOM     12  H   UNL     1      -3.229  -2.937   2.675  1.00  0.00     0.348 HD
ATOM     13  H   UNL     1      -3.660  -2.331   1.180  1.00  0.00     0.348 HD
ATOM     14  C   UNL     1      -6.162  -2.103   3.238  1.00  0.00     0.151 C 
BRANCH   9  15
ATOM     15  C   UNL     1      -4.315  -0.081   1.620  1.00  0.00     0.067 A 
ATOM     16  C   UNL     1      -3.591   0.216   0.425  1.00  0.00     0.103 A 
ATOM     17  N   UNL     1      -4.496   0.525  -0.540  1.00  0.00    -0.167 NA
ATOM     18  N   UNL     1      -5.720   0.609   0.088  1.00  0.00    -0.240 N 
ATOM     19  C   UNL     1      -5.531   0.563   1.450  1.00  0.00     0.126 A 
BRANCH  16  20
ATOM     20  C   UNL     1      -2.124  -0.006   0.192  1.00  0.00     0.003 A 
ATOM     21  C   UNL     1       2.229  -0.444  -0.073  1.00  0.00     0.044 C 
ATOM     22  C   UNL     1       0.738  -0.301  -0.002  1.00  0.00    -0.051 A 
ATOM     23  C   UNL     1      -0.103  -1.413  -0.011  1.00  0.00     0.004 A 
ATOM     24  C   UNL     1       0.147   0.952   0.114  1.00  0.00     0.004 A 
ATOM     25  C   UNL     1      -1.505  -1.265   0.096  1.00  0.00     0.011 A 
ATOM     26  C   UNL     1      -1.249   1.079   0.218  1.00  0.00     0.011 A 
ENDBRANCH  16  20
BRANCH  18  27
ATOM     27  C   UNL     1      -7.037   0.401  -0.528  1.00  0.00     0.065 A 
ATOM     28  C   UNL     1      -7.252  -0.307  -1.725  1.00  0.00     0.028 A 
ATOM     29  C   UNL     1      -8.194   0.772   0.156  1.00  0.00     0.028 A 
ATOM     30  C   UNL     1      -8.527  -0.578  -2.251  1.00  0.00     0.002 A 
ATOM     31  C   UNL     1      -9.478   0.531  -0.376  1.00  0.00     0.002 A 
ATOM     32  C   UNL     1      -9.648  -0.122  -1.589  1.00  0.00     0.000 A 
ENDBRANCH  18  27
ENDBRANCH   9  15
ENDBRANCH   5   8
ENDBRANCH   3   4
ENDBRANCH   2   3
ENDBRANCH   1   2
BRANCH   1  33
ATOM     33  C   UNL     1      -4.584  -0.030  -3.566  1.00  0.00     0.116 C 
BRANCH  33  34
ATOM     34  N   UNL     1      -3.859   1.089  -4.187  1.00  0.00    -0.352 N 
ATOM     35  C   UNL     1      -4.303   2.370  -4.563  1.00  0.00     0.251 C 
ATOM     36  H   UNL     1      -2.908   0.913  -4.369  1.00  0.00     0.163 HD
ATOM     37  O   UNL     1      -3.491   3.142  -5.081  1.00  0.00    -0.269 OA
BRANCH  35  38
ATOM     38  C   UNL     1      -5.703   2.887  -4.341  1.00  0.00     0.039 A 
ATOM     39  C   UNL     1      -5.979   4.276  -4.337  1.00  0.00     0.014 A 
ATOM     40  C   UNL     1      -6.766   2.049  -4.070  1.00  0.00     0.014 A 
ATOM     41  C   UNL     1      -7.199   4.783  -3.833  1.00  0.00     0.010 A 
ATOM     42  C   UNL     1      -7.943   2.537  -3.546  1.00  0.00     0.010 A 
ATOM     43  C   UNL     1      -8.128   3.890  -3.320  1.00  0.00    -0.014 A 
BRANCH  43  44
ATOM     44  C   UNL     1      -9.236   4.142  -2.398  1.00  0.00     0.031 A 
ATOM     45  C   UNL     1     -10.642   4.107  -2.847  1.00  0.00     0.074 A 
ATOM     46  C   UNL     1      -8.956   3.977  -1.085  1.00  0.00     0.049 A 
ATOM     47  N   UNL     1     -11.656   4.468  -2.140  1.00  0.00    -0.248 NA
ATOM     48  C   UNL     1     -11.017   3.630  -4.170  1.00  0.00     0.031 C 
ATOM     49  C   UNL     1      -9.871   3.678   0.018  1.00  0.00     0.029 A 
ATOM     50  N   UNL     1      -7.734   4.080  -0.447  1.00  0.00    -0.354 N 
ATOM     51  C   UNL     1     -12.803   4.023  -2.766  1.00  0.00     0.074 A 
ATOM     52  C   UNL     1     -12.350   3.590  -4.067  1.00  0.00     0.031 C 
ATOM     53  C   UNL     1      -9.219   3.819   1.190  1.00  0.00     0.029 A 
ATOM     54  C   UNL     1      -7.938   4.438   0.885  1.00  0.00     0.049 A 
ATOM     55  H   UNL     1      -6.857   3.925  -0.867  1.00  0.00     0.167 HD
ATOM     56  C   UNL     1     -13.971   3.963  -2.054  1.00  0.00     0.034 A 
ATOM     57  C   UNL     1      -7.619   5.711   1.284  1.00  0.00     0.034 A 
ATOM     58  C   UNL     1     -13.761   4.459  -0.683  1.00  0.00     0.049 A 
ATOM     59  C   UNL     1      -8.841   6.539   1.596  1.00  0.00     0.074 A 
ATOM     60  C   UNL     1     -13.612   3.812   0.533  1.00  0.00     0.029 A 
ATOM     61  N   UNL     1     -13.364   5.779  -0.475  1.00  0.00    -0.354 N 
ATOM     62  N   UNL     1     -10.044   6.246   1.181  1.00  0.00    -0.248 NA
ATOM     63  C   UNL     1      -8.803   7.743   2.412  1.00  0.00     0.031 C 
ATOM     64  C   UNL     1     -12.980   4.720   1.429  1.00  0.00     0.029 A 
ATOM     65  C   UNL     1     -12.801   5.933   0.780  1.00  0.00     0.049 A 
ATOM     66  H   UNL     1     -13.471   6.505  -1.132  1.00  0.00     0.167 HD
ATOM     67  C   UNL     1     -10.917   7.198   1.599  1.00  0.00     0.074 A 
ATOM     68  C   UNL     1     -10.099   8.095   2.404  1.00  0.00     0.031 C 
ATOM     69  C   UNL     1     -12.225   7.207   1.203  1.00  0.00     0.034 A 
BRANCH  56  70
ATOM     70  C   UNL     1     -15.255   3.242  -2.462  1.00  0.00     0.023 A 
ATOM     71  C   UNL     1     -16.228   2.964  -1.472  1.00  0.00     0.031 A 
ATOM     72  C   UNL     1     -15.588   2.776  -3.751  1.00  0.00     0.131 A 
ATOM     73  C   UNL     1     -17.390   2.213  -1.753  1.00  0.00     0.055 A 
ATOM     74  C   UNL     1     -16.730   2.007  -4.028  1.00  0.00     0.041 A 
ATOM     75  F   UNL     1     -14.861   3.070  -4.831  1.00  0.00    -0.206 F 
ATOM     76  C   UNL     1     -17.637   1.714  -3.026  1.00  0.00     0.022 A 
BRANCH  73  77
ATOM     77  S   UNL     1     -18.579   1.879  -0.422  1.00  0.00     0.124 S 
ATOM     78  O   UNL     1     -17.772   1.115   0.524  1.00  0.00    -0.237 OA
ATOM     79  O   UNL     1     -18.967   3.223  -0.008  1.00  0.00    -0.237 OA
ATOM     80  O   UNL     1     -19.631   1.114  -1.091  1.00  0.00    -0.744 OA
ENDBRANCH  73  77
ENDBRANCH  56  70
BRANCH  57  81
ATOM     81  C   UNL     1      -6.406   6.231   0.585  1.00  0.00     0.023 A 
ATOM     82  C   UNL     1      -5.195   5.590   0.889  1.00  0.00     0.031 A 
ATOM     83  C   UNL     1      -6.517   6.888  -0.654  1.00  0.00     0.131 A 
ATOM     84  C   UNL     1      -4.229   5.437  -0.110  1.00  0.00     0.055 A 
ATOM     85  C   UNL     1      -5.526   6.759  -1.632  1.00  0.00     0.041 A 
ATOM     86  F   UNL     1      -7.654   7.509  -0.998  1.00  0.00    -0.206 F 
ATOM     87  C   UNL     1      -4.408   5.972  -1.386  1.00  0.00     0.022 A 
BRANCH  84  88
ATOM     88  S   UNL     1      -2.870   4.298   0.155  1.00  0.00     0.124 S 
ATOM     89  O   UNL     1      -1.745   5.188   0.420  1.00  0.00    -0.237 OA
ATOM     90  O   UNL     1      -3.312   3.505   1.301  1.00  0.00    -0.237 OA
ATOM     91  O   UNL     1      -2.809   3.578  -1.114  1.00  0.00    -0.744 OA
ENDBRANCH  84  88
ENDBRANCH  57  81
BRANCH  69  92
ATOM     92  C   UNL     1     -13.059   8.450   1.296  1.00  0.00     0.023 A 
ATOM     93  C   UNL     1     -12.464   9.715   1.390  1.00  0.00     0.031 A 
ATOM     94  C   UNL     1     -14.465   8.429   1.247  1.00  0.00     0.131 A 
ATOM     95  C   UNL     1     -13.223  10.854   1.656  1.00  0.00     0.055 A 
ATOM     96  C   UNL     1     -15.231   9.592   1.371  1.00  0.00     0.041 A 
ATOM     97  F   UNL     1     -15.147   7.287   1.077  1.00  0.00    -0.206 F 
ATOM     98  C   UNL     1     -14.612  10.811   1.625  1.00  0.00     0.022 A 
BRANCH  95  99
ATOM     99  S   UNL     1     -12.336  12.328   2.215  1.00  0.00     0.124 S 
ATOM    100  O   UNL     1     -11.698  11.839   3.439  1.00  0.00    -0.237 OA
ATOM    101  O   UNL     1     -11.424  12.589   1.098  1.00  0.00    -0.237 OA
ATOM    102  O   UNL     1     -13.386  13.311   2.408  1.00  0.00    -0.744 OA
ENDBRANCH  95  99
ENDBRANCH  69  92
ENDBRANCH  43  44
ENDBRANCH  35  38
ENDBRANCH  33  34
ENDBRANCH   1  33
TORSDOF 17
