REMARK SMILES O=C(NCCCCNC(=O)[C@@H]1CCCN(C(=O)/C=C/c2c(F)cccc2Cl)C1)c1ccc(-c2c3nc(c(-c4cc(S(=O)(=O)[O-])ccc4F)c4ccc([nH]4)c(-c4cc(S(=O)(=O)[O-])ccc4F)c4nc(c(-c5cc(S(=O)(=O)[O-])ccc5F)c5ccc2[nH]5)C=C4)C=C3)cc1
REMARK SMILES IDX 5 1 4 2 3 3 1 4 2 5 29 7 30 8 91 9 31 10 90 11 32 12 33 13
REMARK SMILES IDX 34 14 84 15 35 16 89 17 83 18 85 19 36 20 88 21 82 22 81 23
REMARK SMILES IDX 37 25 69 26 49 27 68 28 50 29 53 30 67 31 86 32 51 33 52 34
REMARK SMILES IDX 66 36 87 37 54 38 38 39 39 40 47 41 40 42 46 43 48 44 45 45
REMARK SMILES IDX 41 46 42 47 43 48 44 49 70 50 71 51 79 52 72 53 78 54 80 55
REMARK SMILES IDX 77 56 73 57 74 58 75 59 76 60 55 61 56 62 64 63 57 64 63 65
REMARK SMILES IDX 65 66 62 67 58 68 59 69 60 70 61 71 6 72 7 73 8 74 9 75
REMARK SMILES IDX 10 77 11 78 12 79 28 80 13 81 15 82 14 83 16 84 17 85 18 86
REMARK SMILES IDX 19 87 20 88 21 89 26 90 22 91 23 92 25 93 27 94 24 95
REMARK H PARENT 3 6 85 24 53 35 8 76
REMARK Flexibility Score: inf
ROOT
ATOM      1  C   UNL     1       4.953  -0.242   2.257  1.00  0.00     0.023 C 
ENDROOT
BRANCH   1   2
ATOM      2  C   UNL     1       4.583  -0.737   0.863  1.00  0.00     0.116 C 
BRANCH   2   3
ATOM      3  N   UNL     1       3.144  -0.817   0.656  1.00  0.00    -0.352 N 
ATOM      4  O   UNL     1       1.101  -0.153  -0.021  1.00  0.00    -0.269 OA
ATOM      5  C   UNL     1       2.317  -0.033  -0.113  1.00  0.00     0.251 C 
ATOM      6  H   UNL     1       2.694  -1.545   1.142  1.00  0.00     0.163 HD
BRANCH   5   7
ATOM      7  C   UNL     1       2.896   0.969  -1.035  1.00  0.00     0.039 A 
ATOM      8  C   UNL     1       3.958   0.637  -1.879  1.00  0.00     0.014 A 
ATOM      9  C   UNL     1       2.355   2.256  -1.063  1.00  0.00     0.014 A 
ATOM     10  C   UNL     1       4.576   1.625  -2.640  1.00  0.00     0.010 A 
ATOM     11  C   UNL     1       2.923   3.227  -1.891  1.00  0.00     0.010 A 
ATOM     12  C   UNL     1       4.059   2.928  -2.663  1.00  0.00    -0.014 A 
BRANCH  12  13
ATOM     13  C   UNL     1       4.684   3.970  -3.518  1.00  0.00     0.031 A 
ATOM     14  C   UNL     1       5.299   5.195  -2.903  1.00  0.00     0.074 A 
ATOM     15  C   UNL     1       4.665   3.821  -4.856  1.00  0.00     0.049 A 
ATOM     16  N   UNL     1       5.779   6.264  -3.487  1.00  0.00    -0.248 NA
ATOM     17  C   UNL     1       5.369   5.226  -1.436  1.00  0.00     0.031 C 
ATOM     18  C   UNL     1       4.110   2.667  -5.566  1.00  0.00     0.029 A 
ATOM     19  N   UNL     1       5.108   4.646  -5.858  1.00  0.00    -0.354 N 
ATOM     20  C   UNL     1       6.186   7.109  -2.459  1.00  0.00     0.074 A 
ATOM     21  C   UNL     1       5.860   6.436  -1.217  1.00  0.00     0.031 C 
ATOM     22  C   UNL     1       4.247   2.856  -6.885  1.00  0.00     0.029 A 
ATOM     23  C   UNL     1       4.827   4.174  -7.118  1.00  0.00     0.049 A 
ATOM     24  H   UNL     1       5.581   5.494  -5.692  1.00  0.00     0.167 HD
ATOM     25  C   UNL     1       6.778   8.327  -2.549  1.00  0.00     0.034 A 
ATOM     26  C   UNL     1       4.969   4.752  -8.327  1.00  0.00     0.034 A 
ATOM     27  C   UNL     1       7.081   8.977  -3.804  1.00  0.00     0.049 A 
ATOM     28  C   UNL     1       5.556   6.134  -8.408  1.00  0.00     0.074 A 
ATOM     29  C   UNL     1       7.708  10.193  -4.017  1.00  0.00     0.029 A 
ATOM     30  N   UNL     1       6.760   8.475  -5.061  1.00  0.00    -0.354 N 
ATOM     31  N   UNL     1       5.946   6.921  -7.432  1.00  0.00    -0.248 NA
ATOM     32  C   UNL     1       5.729   6.705  -9.749  1.00  0.00     0.031 C 
ATOM     33  C   UNL     1       7.687  10.465  -5.389  1.00  0.00     0.029 A 
ATOM     34  C   UNL     1       7.138   9.375  -6.047  1.00  0.00     0.049 A 
ATOM     35  H   UNL     1       6.327   7.607  -5.227  1.00  0.00     0.167 HD
ATOM     36  C   UNL     1       6.441   8.069  -8.043  1.00  0.00     0.074 A 
ATOM     37  C   UNL     1       6.296   7.872  -9.472  1.00  0.00     0.031 C 
ATOM     38  C   UNL     1       6.982   9.174  -7.471  1.00  0.00     0.034 A 
BRANCH  25  39
ATOM     39  C   UNL     1       7.072   9.054  -1.255  1.00  0.00     0.023 A 
ATOM     40  C   UNL     1       7.924   8.515  -0.275  1.00  0.00     0.031 A 
ATOM     41  C   UNL     1       6.443  10.280  -0.970  1.00  0.00     0.131 A 
ATOM     42  C   UNL     1       8.043   9.141   0.975  1.00  0.00     0.055 A 
ATOM     43  C   UNL     1       6.643  10.950   0.240  1.00  0.00     0.041 A 
ATOM     44  F   UNL     1       5.602  10.840  -1.853  1.00  0.00    -0.206 F 
ATOM     45  C   UNL     1       7.429  10.369   1.230  1.00  0.00     0.022 A 
BRANCH  42  46
ATOM     46  S   UNL     1       8.847   8.232   2.324  1.00  0.00     0.124 S 
ATOM     47  O   UNL     1       8.084   6.985   2.338  1.00  0.00    -0.237 OA
ATOM     48  O   UNL     1      10.225   8.132   1.859  1.00  0.00    -0.237 OA
ATOM     49  O   UNL     1       8.639   9.090   3.489  1.00  0.00    -0.744 OA
ENDBRANCH  42  46
ENDBRANCH  25  39
BRANCH  26  50
ATOM     50  C   UNL     1       4.492   4.034  -9.541  1.00  0.00     0.023 A 
ATOM     51  C   UNL     1       5.388   3.570 -10.514  1.00  0.00     0.031 A 
ATOM     52  C   UNL     1       3.120   3.777  -9.726  1.00  0.00     0.131 A 
ATOM     53  C   UNL     1       4.900   2.889 -11.640  1.00  0.00     0.055 A 
ATOM     54  C   UNL     1       2.645   3.056 -10.821  1.00  0.00     0.041 A 
ATOM     55  F   UNL     1       2.223   4.194  -8.818  1.00  0.00    -0.206 F 
ATOM     56  C   UNL     1       3.538   2.613 -11.791  1.00  0.00     0.022 A 
BRANCH  53  57
ATOM     57  S   UNL     1       6.070   2.404 -12.938  1.00  0.00     0.124 S 
ATOM     58  O   UNL     1       6.605   3.696 -13.353  1.00  0.00    -0.237 OA
ATOM     59  O   UNL     1       6.987   1.533 -12.211  1.00  0.00    -0.237 OA
ATOM     60  O   UNL     1       5.226   1.732 -13.924  1.00  0.00    -0.744 OA
ENDBRANCH  53  57
ENDBRANCH  26  50
BRANCH  38  61
ATOM     61  C   UNL     1       7.527  10.237  -8.394  1.00  0.00     0.023 A 
ATOM     62  C   UNL     1       6.694  11.038  -9.194  1.00  0.00     0.031 A 
ATOM     63  C   UNL     1       8.915  10.470  -8.441  1.00  0.00     0.131 A 
ATOM     64  C   UNL     1       7.261  12.015 -10.029  1.00  0.00     0.055 A 
ATOM     65  C   UNL     1       9.466  11.478  -9.231  1.00  0.00     0.041 A 
ATOM     66  F   UNL     1       9.757   9.729  -7.703  1.00  0.00    -0.206 F 
ATOM     67  C   UNL     1       8.638  12.254 -10.036  1.00  0.00     0.022 A 
BRANCH  64  68
ATOM     68  S   UNL     1       6.180  12.941 -11.155  1.00  0.00     0.124 S 
ATOM     69  O   UNL     1       5.628  11.877 -11.987  1.00  0.00    -0.237 OA
ATOM     70  O   UNL     1       5.246  13.584 -10.237  1.00  0.00    -0.237 OA
ATOM     71  O   UNL     1       7.097  13.850 -11.841  1.00  0.00    -0.744 OA
ENDBRANCH  64  68
ENDBRANCH  38  61
ENDBRANCH  12  13
ENDBRANCH   5   7
ENDBRANCH   2   3
ENDBRANCH   1   2
BRANCH   1  72
ATOM     72  C   UNL     1       4.474  -1.120   3.413  1.00  0.00     0.023 C 
BRANCH  72  73
ATOM     73  C   UNL     1       4.800  -2.603   3.285  1.00  0.00     0.116 C 
BRANCH  73  74
ATOM     74  N   UNL     1       6.220  -2.893   3.219  1.00  0.00    -0.356 N 
ATOM     75  C   UNL     1       6.877  -4.027   3.610  1.00  0.00     0.224 C 
ATOM     76  H   UNL     1       6.785  -2.179   2.843  1.00  0.00     0.163 HD
ATOM     77  O   UNL     1       8.079  -4.123   3.358  1.00  0.00    -0.275 OA
BRANCH  75  78
ATOM     78  C   UNL     1       6.125  -5.092   4.408  1.00  0.00     0.098 C 
ATOM     79  C   UNL     1       7.081  -6.132   5.041  1.00  0.00     0.017 C 
ATOM     80  C   UNL     1       5.048  -5.796   3.574  1.00  0.00     0.133 C 
ATOM     81  C   UNL     1       7.523  -7.246   4.076  1.00  0.00     0.022 C 
ATOM     82  N   UNL     1       5.636  -6.755   2.647  1.00  0.00    -0.338 N 
ATOM     83  C   UNL     1       6.329  -7.838   3.330  1.00  0.00     0.120 C 
BRANCH  82  84
ATOM     84  C   UNL     1       5.634  -6.447   1.298  1.00  0.00     0.246 C 
ATOM     85  O   UNL     1       5.075  -5.439   0.857  1.00  0.00    -0.270 OA
BRANCH  84  86
ATOM     86  C   UNL     1       6.207  -7.381   0.292  1.00  0.00     0.072 C 
ATOM     87  C   UNL     1       7.377  -8.030   0.363  1.00  0.00     0.018 C 
BRANCH  87  88
ATOM     88  C   UNL     1       7.842  -8.933  -0.699  1.00  0.00     0.029 A 
ATOM     89  C   UNL     1       8.524  -8.409  -1.802  1.00  0.00     0.131 A 
ATOM     90  C   UNL     1       7.665 -10.326  -0.635  1.00  0.00     0.051 A 
ATOM     91  F   UNL     1       8.711  -7.086  -1.912  1.00  0.00    -0.206 F 
ATOM     92  C   UNL     1       9.043  -9.233  -2.800  1.00  0.00     0.040 A 
ATOM     93  C   UNL     1       8.185 -11.159  -1.635  1.00  0.00     0.021 A 
ATOM     94  Cl  UNL     1       6.818 -11.082   0.671  1.00  0.00    -0.084 Cl
ATOM     95  C   UNL     1       8.882 -10.614  -2.713  1.00  0.00     0.005 A 
ENDBRANCH  87  88
ENDBRANCH  84  86
ENDBRANCH  82  84
ENDBRANCH  75  78
ENDBRANCH  73  74
ENDBRANCH  72  73
ENDBRANCH   1  72
TORSDOF 17
