REMARK SMILES C=CCn1nc(C(=O)NCCCCNC(=O)c2ccc(-c3c4nc(c(-c5cc(S(=O)(=O)[O-])ccc5F)c5ccc([nH]5)c(-c5cc(S(=O)(=O)[O-])ccc5F)c5nc(c(-c6cc(S(=O)(=O)[O-])ccc6F)c6ccc3[nH]6)C=C5)C=C4)cc2)c2c1CC[C@@H]([NH2+]Cc1nc(C)cc(=O)[nH]1)C2
REMARK SMILES IDX 11 1 10 2 9 3 7 4 8 5 6 7 4 8 5 9 81 10 80 11 82 12 95 13
REMARK SMILES IDX 83 14 84 15 3 16 2 17 1 18 85 19 86 22 87 23 88 24 94 25
REMARK SMILES IDX 89 26 92 27 90 29 91 30 93 31 12 32 13 33 14 34 15 35 16 37
REMARK SMILES IDX 17 38 18 39 79 40 19 41 78 42 20 43 21 44 22 45 72 46 23 47
REMARK SMILES IDX 77 48 71 49 73 50 24 51 76 52 70 53 69 54 25 56 57 57 37 58
REMARK SMILES IDX 56 59 38 60 41 61 55 62 74 63 39 64 40 65 54 67 75 68 42 69
REMARK SMILES IDX 26 70 27 71 35 72 28 73 34 74 36 75 33 76 29 77 30 78 31 79
REMARK SMILES IDX 32 80 58 81 59 82 67 83 60 84 66 85 68 86 65 87 61 88 62 89
REMARK SMILES IDX 63 90 64 91 43 92 44 93 52 94 45 95 51 96 53 97 50 98 46 99
REMARK SMILES IDX 47 100 48 101 49 102
REMARK H PARENT 9 6 85 20 85 21 94 28 14 36 73 55 41 66
REMARK Flexibility Score: inf
ROOT
ATOM      1  C   UNL     1      -2.947   7.929  -2.080  1.00  0.00     0.023 C 
ENDROOT
BRANCH   1   2
ATOM      2  C   UNL     1      -3.714   7.274  -0.909  1.00  0.00     0.116 C 
BRANCH   2   3
ATOM      3  N   UNL     1      -4.373   6.034  -1.293  1.00  0.00    -0.351 N 
ATOM      4  C   UNL     1      -4.115   4.681  -1.212  1.00  0.00     0.272 C 
ATOM      5  O   UNL     1      -5.078   3.995  -1.588  1.00  0.00    -0.267 OA
ATOM      6  H   UNL     1      -5.237   6.208  -1.730  1.00  0.00     0.163 HD
BRANCH   4   7
ATOM      7  C   UNL     1      -2.838   4.025  -0.789  1.00  0.00     0.153 A 
ATOM      8  N   UNL     1      -1.546   2.286  -0.572  1.00  0.00    -0.265 N 
ATOM      9  N   UNL     1      -2.825   2.670  -0.756  1.00  0.00    -0.167 NA
ATOM     10  C   UNL     1      -0.721   3.351  -0.357  1.00  0.00     0.043 A 
ATOM     11  C   UNL     1      -1.514   4.481  -0.504  1.00  0.00     0.012 A 
ATOM     12  C   UNL     1       0.775   3.337  -0.283  1.00  0.00     0.062 C 
ATOM     13  C   UNL     1      -0.883   5.819  -0.571  1.00  0.00     0.105 C 
ATOM     14  C   UNL     1       1.357   4.757  -0.244  1.00  0.00     0.072 C 
ATOM     15  C   UNL     1       0.572   5.776  -1.097  1.00  0.00     0.187 C 
BRANCH   8  16
ATOM     16  C   UNL     1      -1.258   0.853  -0.729  1.00  0.00     0.171 C 
BRANCH  16  17
ATOM     17  C   UNL     1       0.183   0.460  -0.913  1.00  0.00    -0.011 C 
ATOM     18  C   UNL     1       0.930  -0.155   0.014  1.00  0.00     0.006 C 
ENDBRANCH  16  17
ENDBRANCH   8  16
BRANCH  15  19
ATOM     19  N   UNL     1       0.742   5.621  -2.577  1.00  0.00    -0.337 N 
ATOM     20  H   UNL     1       1.657   5.205  -2.751  1.00  0.00     0.346 HD
ATOM     21  H   UNL     1       0.645   6.553  -2.980  1.00  0.00     0.346 HD
BRANCH  19  22
ATOM     22  C   UNL     1      -0.276   4.778  -3.223  1.00  0.00     0.337 C 
BRANCH  22  23
ATOM     23  C   UNL     1      -0.001   4.552  -4.691  1.00  0.00     0.164 A 
ATOM     24  N   UNL     1       0.139   3.341  -5.128  1.00  0.00    -0.234 NA
ATOM     25  N   UNL     1       0.000   5.651  -5.497  1.00  0.00    -0.306 N 
ATOM     26  C   UNL     1       0.234   3.161  -6.481  1.00  0.00     0.045 A 
ATOM     27  C   UNL     1       0.122   5.545  -6.848  1.00  0.00     0.251 A 
ATOM     28  H   UNL     1      -0.089   6.544  -5.091  1.00  0.00     0.171 HD
ATOM     29  C   UNL     1       0.277   1.729  -6.931  1.00  0.00     0.067 C 
ATOM     30  C   UNL     1       0.224   4.169  -7.364  1.00  0.00     0.095 A 
ATOM     31  O   UNL     1       0.133   6.510  -7.604  1.00  0.00    -0.270 OA
ENDBRANCH  22  23
ENDBRANCH  19  22
ENDBRANCH  15  19
ENDBRANCH   4   7
ENDBRANCH   2   3
ENDBRANCH   1   2
BRANCH   1  32
ATOM     32  C   UNL     1      -3.550   9.196  -2.690  1.00  0.00     0.023 C 
BRANCH  32  33
ATOM     33  C   UNL     1      -3.463  10.416  -1.778  1.00  0.00     0.116 C 
BRANCH  33  34
ATOM     34  N   UNL     1      -2.093  10.889  -1.556  1.00  0.00    -0.352 N 
ATOM     35  C   UNL     1      -1.679  11.813  -0.604  1.00  0.00     0.251 C 
ATOM     36  H   UNL     1      -1.396  10.515  -2.142  1.00  0.00     0.163 HD
ATOM     37  O   UNL     1      -0.663  12.465  -0.750  1.00  0.00    -0.269 OA
BRANCH  35  38
ATOM     38  C   UNL     1      -2.510  11.945   0.608  1.00  0.00     0.039 A 
ATOM     39  C   UNL     1      -2.940  13.186   1.083  1.00  0.00     0.014 A 
ATOM     40  C   UNL     1      -2.933  10.755   1.199  1.00  0.00     0.014 A 
ATOM     41  C   UNL     1      -3.886  13.213   2.107  1.00  0.00     0.010 A 
ATOM     42  C   UNL     1      -3.960  10.784   2.108  1.00  0.00     0.010 A 
ATOM     43  C   UNL     1      -4.414  12.005   2.599  1.00  0.00    -0.014 A 
BRANCH  43  44
ATOM     44  C   UNL     1      -5.569  11.987   3.497  1.00  0.00     0.031 A 
ATOM     45  C   UNL     1      -6.752  12.726   2.972  1.00  0.00     0.074 A 
ATOM     46  C   UNL     1      -5.653  11.173   4.575  1.00  0.00     0.049 A 
ATOM     47  N   UNL     1      -7.233  13.843   3.403  1.00  0.00    -0.248 NA
ATOM     48  C   UNL     1      -7.367  12.274   1.711  1.00  0.00     0.031 C 
ATOM     49  C   UNL     1      -4.675  10.179   5.033  1.00  0.00     0.029 A 
ATOM     50  N   UNL     1      -6.687  10.978   5.440  1.00  0.00    -0.354 N 
ATOM     51  C   UNL     1      -8.379  14.085   2.651  1.00  0.00     0.074 A 
ATOM     52  C   UNL     1      -8.265  13.240   1.494  1.00  0.00     0.031 C 
ATOM     53  C   UNL     1      -5.256   9.338   5.919  1.00  0.00     0.029 A 
ATOM     54  C   UNL     1      -6.589   9.826   6.224  1.00  0.00     0.049 A 
ATOM     55  H   UNL     1      -7.447  11.602   5.506  1.00  0.00     0.167 HD
ATOM     56  C   UNL     1      -9.441  14.747   3.191  1.00  0.00     0.034 A 
ATOM     57  C   UNL     1      -7.533   9.300   7.057  1.00  0.00     0.034 A 
ATOM     58  C   UNL     1      -9.052  15.412   4.419  1.00  0.00     0.049 A 
ATOM     59  C   UNL     1      -8.457  10.411   7.395  1.00  0.00     0.074 A 
ATOM     60  C   UNL     1      -8.089  16.348   4.750  1.00  0.00     0.029 A 
ATOM     61  N   UNL     1      -9.415  14.823   5.612  1.00  0.00    -0.354 N 
ATOM     62  N   UNL     1      -8.086  11.459   8.077  1.00  0.00    -0.248 NA
ATOM     63  C   UNL     1      -9.620  10.609   6.542  1.00  0.00     0.031 C 
ATOM     64  C   UNL     1      -7.562  15.900   5.998  1.00  0.00     0.029 A 
ATOM     65  C   UNL     1      -8.303  14.793   6.417  1.00  0.00     0.049 A 
ATOM     66  H   UNL     1     -10.310  14.486   5.845  1.00  0.00     0.167 HD
ATOM     67  C   UNL     1      -8.650  12.536   7.411  1.00  0.00     0.074 A 
ATOM     68  C   UNL     1      -9.661  11.946   6.532  1.00  0.00     0.031 C 
ATOM     69  C   UNL     1      -8.047  13.764   7.411  1.00  0.00     0.034 A 
BRANCH  56  70
ATOM     70  C   UNL     1     -10.899  14.482   2.865  1.00  0.00     0.023 A 
ATOM     71  C   UNL     1     -11.856  15.232   3.578  1.00  0.00     0.031 A 
ATOM     72  C   UNL     1     -11.407  13.375   2.149  1.00  0.00     0.131 A 
ATOM     73  C   UNL     1     -13.191  14.804   3.674  1.00  0.00     0.055 A 
ATOM     74  C   UNL     1     -12.752  12.992   2.192  1.00  0.00     0.041 A 
ATOM     75  F   UNL     1     -10.633  12.546   1.441  1.00  0.00    -0.206 F 
ATOM     76  C   UNL     1     -13.646  13.684   2.988  1.00  0.00     0.022 A 
BRANCH  73  77
ATOM     77  S   UNL     1     -14.270  15.631   4.870  1.00  0.00     0.124 S 
ATOM     78  O   UNL     1     -13.496  15.496   6.099  1.00  0.00    -0.237 OA
ATOM     79  O   UNL     1     -14.363  16.975   4.310  1.00  0.00    -0.237 OA
ATOM     80  O   UNL     1     -15.500  14.845   4.816  1.00  0.00    -0.744 OA
ENDBRANCH  73  77
ENDBRANCH  56  70
BRANCH  57  81
ATOM     81  C   UNL     1      -7.861   7.859   7.288  1.00  0.00     0.023 A 
ATOM     82  C   UNL     1      -8.615   7.393   8.393  1.00  0.00     0.031 A 
ATOM     83  C   UNL     1      -7.639   6.929   6.247  1.00  0.00     0.131 A 
ATOM     84  C   UNL     1      -9.110   6.062   8.417  1.00  0.00     0.055 A 
ATOM     85  C   UNL     1      -8.134   5.622   6.273  1.00  0.00     0.041 A 
ATOM     86  F   UNL     1      -7.005   7.288   5.120  1.00  0.00    -0.206 F 
ATOM     87  C   UNL     1      -8.881   5.186   7.354  1.00  0.00     0.022 A 
BRANCH  84  88
ATOM     88  S   UNL     1     -10.141   5.460   9.802  1.00  0.00     0.124 S 
ATOM     89  O   UNL     1      -9.189   5.423  10.906  1.00  0.00    -0.237 OA
ATOM     90  O   UNL     1     -11.188   6.472   9.879  1.00  0.00    -0.237 OA
ATOM     91  O   UNL     1     -10.597   4.147   9.344  1.00  0.00    -0.744 OA
ENDBRANCH  84  88
ENDBRANCH  57  81
BRANCH  69  92
ATOM     92  C   UNL     1      -6.913  14.015   8.390  1.00  0.00     0.023 A 
ATOM     93  C   UNL     1      -5.725  13.252   8.488  1.00  0.00     0.031 A 
ATOM     94  C   UNL     1      -7.013  15.164   9.196  1.00  0.00     0.131 A 
ATOM     95  C   UNL     1      -4.706  13.644   9.382  1.00  0.00     0.055 A 
ATOM     96  C   UNL     1      -5.994  15.562  10.058  1.00  0.00     0.041 A 
ATOM     97  F   UNL     1      -8.104  15.945   9.135  1.00  0.00    -0.206 F 
ATOM     98  C   UNL     1      -4.838  14.799  10.160  1.00  0.00     0.022 A 
BRANCH  95  99
ATOM     99  S   UNL     1      -3.194  12.642   9.582  1.00  0.00     0.124 S 
ATOM    100  O   UNL     1      -3.696  11.277   9.676  1.00  0.00    -0.237 OA
ATOM    101  O   UNL     1      -2.439  12.963   8.374  1.00  0.00    -0.237 OA
ATOM    102  O   UNL     1      -2.606  13.161  10.820  1.00  0.00    -0.744 OA
ENDBRANCH  95  99
ENDBRANCH  69  92
ENDBRANCH  43  44
ENDBRANCH  35  38
ENDBRANCH  33  34
ENDBRANCH  32  33
ENDBRANCH   1  32
TORSDOF 19
