REMARK SMILES Cc1cccc(Cl)c1Nc1ccccc1CC(=O)NCCCCNC(=O)c1ccc(-c2c3nc(c(-c4cc(S(=O)(=O)[O-])ccc4F)c4ccc([nH]4)c(-c4cc(S(=O)(=O)[O-])ccc4F)c4nc(c(-c5cc(S(=O)(=O)[O-])ccc5F)c5ccc2[nH]5)C=C4)C=C3)cc1
REMARK SMILES IDX 21 1 20 2 19 3 17 4 18 5 16 7 15 8 10 9 11 10 12 11 14 12
REMARK SMILES IDX 13 13 9 14 8 16 1 17 2 18 3 19 4 20 6 21 5 22 7 23 22 24
REMARK SMILES IDX 23 25 24 26 25 27 26 29 27 30 28 31 89 32 29 33 88 34 30 35
REMARK SMILES IDX 31 36 32 37 82 38 33 39 87 40 81 41 83 42 34 43 86 44 80 45
REMARK SMILES IDX 79 46 35 48 67 49 47 50 66 51 48 52 51 53 65 54 84 55 49 56
REMARK SMILES IDX 50 57 64 59 85 60 52 61 36 62 37 63 45 64 38 65 44 66 46 67
REMARK SMILES IDX 43 68 39 69 40 70 41 71 42 72 68 73 69 74 77 75 70 76 76 77
REMARK SMILES IDX 78 78 75 79 71 80 72 81 73 82 74 83 53 84 54 85 62 86 55 87
REMARK SMILES IDX 61 88 63 89 60 90 56 91 57 92 58 93 59 94
REMARK H PARENT 19 6 9 15 24 28 83 47 51 58
REMARK Flexibility Score: inf
ROOT
ATOM      1  C   UNL     1       0.649   5.062  -2.153  1.00  0.00     0.023 C 
ENDROOT
BRANCH   1   2
ATOM      2  C   UNL     1       0.088   3.776  -2.758  1.00  0.00     0.116 C 
BRANCH   2   3
ATOM      3  N   UNL     1       1.037   3.138  -3.649  1.00  0.00    -0.356 N 
ATOM      4  C   UNL     1       1.894   2.109  -3.375  1.00  0.00     0.224 C 
ATOM      5  O   UNL     1       2.688   1.752  -4.248  1.00  0.00    -0.275 OA
ATOM      6  H   UNL     1       1.067   3.490  -4.568  1.00  0.00     0.163 HD
BRANCH   4   7
ATOM      7  C   UNL     1       1.825   1.402  -2.029  1.00  0.00     0.137 C 
BRANCH   7   8
ATOM      8  C   UNL     1       2.352   2.225  -0.871  1.00  0.00    -0.015 A 
ATOM      9  C   UNL     1       1.598   2.499   0.290  1.00  0.00     0.042 A 
ATOM     10  C   UNL     1       2.137   3.378   1.250  1.00  0.00     0.026 A 
ATOM     11  C   UNL     1       3.398   3.952   1.089  1.00  0.00     0.002 A 
ATOM     12  C   UNL     1       3.642   2.785  -0.999  1.00  0.00     0.006 A 
ATOM     13  C   UNL     1       4.157   3.644  -0.031  1.00  0.00     0.000 A 
BRANCH   9  14
ATOM     14  N   UNL     1       0.348   1.920   0.590  1.00  0.00    -0.354 N 
ATOM     15  H   UNL     1      -0.304   2.556   0.962  1.00  0.00     0.167 HD
BRANCH  14  16
ATOM     16  C   UNL     1      -0.150   0.602   0.460  1.00  0.00     0.060 A 
ATOM     17  C   UNL     1      -2.458   1.611   0.002  1.00  0.00     0.046 C 
ATOM     18  C   UNL     1      -1.526   0.434   0.144  1.00  0.00    -0.026 A 
ATOM     19  C   UNL     1      -2.045  -0.852  -0.089  1.00  0.00     0.005 A 
ATOM     20  C   UNL     1      -1.231  -1.976  -0.005  1.00  0.00     0.002 A 
ATOM     21  C   UNL     1       0.649  -0.560   0.567  1.00  0.00     0.064 A 
ATOM     22  C   UNL     1       0.110  -1.831   0.331  1.00  0.00     0.023 A 
ATOM     23  Cl  UNL     1       2.297  -0.530   1.101  1.00  0.00    -0.082 Cl
ENDBRANCH  14  16
ENDBRANCH   9  14
ENDBRANCH   7   8
ENDBRANCH   4   7
ENDBRANCH   2   3
ENDBRANCH   1   2
BRANCH   1  24
ATOM     24  C   UNL     1       0.806   6.219  -3.143  1.00  0.00     0.023 C 
BRANCH  24  25
ATOM     25  C   UNL     1      -0.483   6.671  -3.819  1.00  0.00     0.116 C 
BRANCH  25  26
ATOM     26  N   UNL     1      -1.500   7.114  -2.875  1.00  0.00    -0.352 N 
ATOM     27  C   UNL     1      -2.443   8.099  -3.043  1.00  0.00     0.251 C 
ATOM     28  H   UNL     1      -1.513   6.649  -2.007  1.00  0.00     0.163 HD
ATOM     29  O   UNL     1      -3.160   8.432  -2.105  1.00  0.00    -0.269 OA
BRANCH  27  30
ATOM     30  C   UNL     1      -2.547   8.781  -4.352  1.00  0.00     0.039 A 
ATOM     31  C   UNL     1      -2.525  10.178  -4.391  1.00  0.00     0.014 A 
ATOM     32  C   UNL     1      -2.616   8.041  -5.535  1.00  0.00     0.014 A 
ATOM     33  C   UNL     1      -2.495  10.833  -5.625  1.00  0.00     0.010 A 
ATOM     34  C   UNL     1      -2.525   8.693  -6.761  1.00  0.00     0.010 A 
ATOM     35  C   UNL     1      -2.456  10.095  -6.818  1.00  0.00    -0.014 A 
BRANCH  35  36
ATOM     36  C   UNL     1      -2.339  10.760  -8.142  1.00  0.00     0.031 A 
ATOM     37  C   UNL     1      -3.459  10.641  -9.138  1.00  0.00     0.074 A 
ATOM     38  C   UNL     1      -1.195  11.388  -8.477  1.00  0.00     0.049 A 
ATOM     39  N   UNL     1      -3.501  11.026 -10.387  1.00  0.00    -0.248 NA
ATOM     40  C   UNL     1      -4.680   9.968  -8.672  1.00  0.00     0.031 C 
ATOM     41  C   UNL     1      -0.025  11.536  -7.607  1.00  0.00     0.029 A 
ATOM     42  N   UNL     1      -0.818  12.001  -9.645  1.00  0.00    -0.354 N 
ATOM     43  C   UNL     1      -4.744  10.624 -10.865  1.00  0.00     0.074 A 
ATOM     44  C   UNL     1      -5.400   9.920  -9.782  1.00  0.00     0.031 C 
ATOM     45  C   UNL     1       0.933  12.204  -8.270  1.00  0.00     0.029 A 
ATOM     46  C   UNL     1       0.467  12.493  -9.623  1.00  0.00     0.049 A 
ATOM     47  H   UNL     1      -1.412  12.082 -10.427  1.00  0.00     0.167 HD
ATOM     48  C   UNL     1      -5.292  10.838 -12.087  1.00  0.00     0.034 A 
ATOM     49  C   UNL     1       1.193  13.090 -10.588  1.00  0.00     0.034 A 
ATOM     50  C   UNL     1      -4.631  11.557 -13.148  1.00  0.00     0.049 A 
ATOM     51  C   UNL     1       0.568  13.308 -11.943  1.00  0.00     0.074 A 
ATOM     52  C   UNL     1      -5.114  11.881 -14.403  1.00  0.00     0.029 A 
ATOM     53  N   UNL     1      -3.338  12.062 -13.079  1.00  0.00    -0.354 N 
ATOM     54  N   UNL     1      -0.624  12.957 -12.367  1.00  0.00    -0.248 NA
ATOM     55  C   UNL     1       1.382  14.009 -12.944  1.00  0.00     0.031 C 
ATOM     56  C   UNL     1      -4.097  12.529 -15.113  1.00  0.00     0.029 A 
ATOM     57  C   UNL     1      -3.001  12.672 -14.278  1.00  0.00     0.049 A 
ATOM     58  H   UNL     1      -2.748  11.996 -12.294  1.00  0.00     0.167 HD
ATOM     59  C   UNL     1      -0.713  13.425 -13.675  1.00  0.00     0.074 A 
ATOM     60  C   UNL     1       0.542  14.087 -13.966  1.00  0.00     0.031 C 
ATOM     61  C   UNL     1      -1.743  13.325 -14.552  1.00  0.00     0.034 A 
BRANCH  48  62
ATOM     62  C   UNL     1      -6.663  10.259 -12.340  1.00  0.00     0.023 A 
ATOM     63  C   UNL     1      -7.788  10.679 -11.609  1.00  0.00     0.031 A 
ATOM     64  C   UNL     1      -6.844   9.250 -13.302  1.00  0.00     0.131 A 
ATOM     65  C   UNL     1      -9.022  10.038 -11.791  1.00  0.00     0.055 A 
ATOM     66  C   UNL     1      -8.093   8.672 -13.538  1.00  0.00     0.041 A 
ATOM     67  F   UNL     1      -5.804   8.793 -14.018  1.00  0.00    -0.206 F 
ATOM     68  C   UNL     1      -9.189   9.054 -12.769  1.00  0.00     0.022 A 
BRANCH  65  69
ATOM     69  S   UNL     1     -10.367  10.406 -10.632  1.00  0.00     0.124 S 
ATOM     70  O   UNL     1      -9.770  10.018  -9.356  1.00  0.00    -0.237 OA
ATOM     71  O   UNL     1     -10.575  11.835 -10.832  1.00  0.00    -0.237 OA
ATOM     72  O   UNL     1     -11.458   9.546 -11.088  1.00  0.00    -0.744 OA
ENDBRANCH  65  69
ENDBRANCH  48  62
BRANCH  49  73
ATOM     73  C   UNL     1       2.597  13.514 -10.322  1.00  0.00     0.023 A 
ATOM     74  C   UNL     1       2.951  14.872 -10.312  1.00  0.00     0.031 A 
ATOM     75  C   UNL     1       3.612  12.564 -10.110  1.00  0.00     0.131 A 
ATOM     76  C   UNL     1       4.293  15.242 -10.137  1.00  0.00     0.055 A 
ATOM     77  C   UNL     1       4.938  12.940  -9.889  1.00  0.00     0.041 A 
ATOM     78  F   UNL     1       3.324  11.253 -10.103  1.00  0.00    -0.206 F 
ATOM     79  C   UNL     1       5.287  14.286  -9.914  1.00  0.00     0.022 A 
BRANCH  76  80
ATOM     80  S   UNL     1       4.735  16.996 -10.279  1.00  0.00     0.124 S 
ATOM     81  O   UNL     1       4.273  17.311 -11.626  1.00  0.00    -0.237 OA
ATOM     82  O   UNL     1       3.974  17.589  -9.184  1.00  0.00    -0.237 OA
ATOM     83  O   UNL     1       6.185  16.997 -10.099  1.00  0.00    -0.744 OA
ENDBRANCH  76  80
ENDBRANCH  49  73
BRANCH  61  84
ATOM     84  C   UNL     1      -1.572  13.999 -15.890  1.00  0.00     0.023 A 
ATOM     85  C   UNL     1      -0.673  13.514 -16.855  1.00  0.00     0.031 A 
ATOM     86  C   UNL     1      -2.326  15.145 -16.199  1.00  0.00     0.131 A 
ATOM     87  C   UNL     1      -0.519  14.200 -18.070  1.00  0.00     0.055 A 
ATOM     88  C   UNL     1      -2.205  15.793 -17.428  1.00  0.00     0.041 A 
ATOM     89  F   UNL     1      -3.198  15.649 -15.311  1.00  0.00    -0.206 F 
ATOM     90  C   UNL     1      -1.291  15.327 -18.368  1.00  0.00     0.022 A 
BRANCH  87  91
ATOM     91  S   UNL     1       0.752  13.638 -19.235  1.00  0.00     0.124 S 
ATOM     92  O   UNL     1       1.972  13.786 -18.448  1.00  0.00    -0.237 OA
ATOM     93  O   UNL     1       0.336  12.267 -19.515  1.00  0.00    -0.237 OA
ATOM     94  O   UNL     1       0.622  14.564 -20.359  1.00  0.00    -0.744 OA
ENDBRANCH  87  91
ENDBRANCH  61  84
ENDBRANCH  35  36
ENDBRANCH  27  30
ENDBRANCH  25  26
ENDBRANCH  24  25
ENDBRANCH   1  24
TORSDOF 17
