REMARK SMILES C[C@@H](C(=O)NCCCCNC(=O)c1ccc(-c2c3nc(c(-c4cc(S(=O)(=O)[O-])ccc4F)c4ccc([nH]4)c(-c4cc(S(=O)(=O)[O-])ccc4F)c4nc(c(-c5cc(S(=O)(=O)[O-])ccc5F)c5ccc2[nH]5)C=C4)C=C3)cc1)c1ccc(-c2ccc3[nH]ccc3c2)cc1
REMARK SMILES IDX 8 1 7 2 6 3 5 4 3 5 4 6 2 8 1 9 76 10 77 11 90 12 78 13
REMARK SMILES IDX 89 14 79 15 80 16 81 17 88 18 82 19 87 20 83 21 86 22 84 23
REMARK SMILES IDX 85 24 9 26 10 27 11 28 12 30 13 31 14 32 75 33 15 34 74 35
REMARK SMILES IDX 16 36 17 37 18 38 68 39 19 40 73 41 67 42 69 43 20 44 72 45
REMARK SMILES IDX 66 46 65 47 21 49 53 50 33 51 52 52 34 53 37 54 51 55 70 56
REMARK SMILES IDX 35 57 36 58 50 60 71 61 38 62 22 63 23 64 31 65 24 66 30 67
REMARK SMILES IDX 32 68 29 69 25 70 26 71 27 72 28 73 54 74 55 75 63 76 56 77
REMARK SMILES IDX 62 78 64 79 61 80 57 81 58 82 59 83 60 84 39 85 40 86 48 87
REMARK SMILES IDX 41 88 47 89 49 90 46 91 42 92 43 93 44 94 45 95
REMARK H PARENT 5 7 84 25 10 29 69 48 37 59
REMARK Flexibility Score: inf
ROOT
ATOM      1  C   UNL     1       5.019  -2.499   0.523  1.00  0.00     0.023 C 
ENDROOT
BRANCH   1   2
ATOM      2  C   UNL     1       4.245  -1.262   0.064  1.00  0.00     0.023 C 
BRANCH   2   3
ATOM      3  C   UNL     1       3.430  -1.456  -1.220  1.00  0.00     0.116 C 
BRANCH   3   4
ATOM      4  N   UNL     1       2.418  -2.474  -1.028  1.00  0.00    -0.356 N 
ATOM      5  C   UNL     1       1.114  -2.330  -0.643  1.00  0.00     0.227 C 
ATOM      6  O   UNL     1       0.592  -3.320  -0.128  1.00  0.00    -0.274 OA
ATOM      7  H   UNL     1       2.710  -3.398  -1.199  1.00  0.00     0.163 HD
BRANCH   5   8
ATOM      8  C   UNL     1       0.402  -0.982  -0.860  1.00  0.00     0.105 C 
ATOM      9  C   UNL     1       0.789  -0.032   0.285  1.00  0.00     0.023 C 
BRANCH   8  10
ATOM     10  C   UNL     1      -1.125  -1.022  -1.012  1.00  0.00    -0.036 A 
ATOM     11  C   UNL     1      -1.840   0.190  -1.053  1.00  0.00     0.005 A 
ATOM     12  C   UNL     1      -1.869  -2.205  -1.123  1.00  0.00     0.005 A 
ATOM     13  C   UNL     1      -3.235   0.214  -1.096  1.00  0.00     0.009 A 
ATOM     14  C   UNL     1      -3.268  -2.184  -1.163  1.00  0.00     0.009 A 
ATOM     15  C   UNL     1      -3.966  -0.975  -1.132  1.00  0.00    -0.018 A 
BRANCH  15  16
ATOM     16  C   UNL     1      -5.426  -0.944  -1.168  1.00  0.00    -0.018 A 
ATOM     17  C   UNL     1      -6.087  -0.644  -2.366  1.00  0.00     0.011 A 
ATOM     18  C   UNL     1      -6.176  -1.186  -0.003  1.00  0.00     0.019 A 
ATOM     19  C   UNL     1      -7.481  -0.608  -2.447  1.00  0.00     0.027 A 
ATOM     20  C   UNL     1      -7.582  -1.109  -0.050  1.00  0.00    -0.000 A 
ATOM     21  C   UNL     1      -8.198  -0.846  -1.272  1.00  0.00     0.045 A 
ATOM     22  C   UNL     1      -8.613  -1.220   0.923  1.00  0.00     0.028 A 
ATOM     23  N   UNL     1      -9.556  -0.878  -1.054  1.00  0.00    -0.361 N 
ATOM     24  C   UNL     1      -9.817  -1.050   0.279  1.00  0.00     0.083 A 
ATOM     25  H   UNL     1     -10.242  -0.790  -1.756  1.00  0.00     0.166 HD
ENDBRANCH  15  16
ENDBRANCH   8  10
ENDBRANCH   5   8
ENDBRANCH   3   4
ENDBRANCH   2   3
ENDBRANCH   1   2
BRANCH   1  26
ATOM     26  C   UNL     1       5.976  -3.072  -0.511  1.00  0.00     0.116 C 
BRANCH  26  27
ATOM     27  N   UNL     1       6.961  -2.096  -0.949  1.00  0.00    -0.352 N 
ATOM     28  C   UNL     1       8.322  -2.237  -1.074  1.00  0.00     0.251 C 
ATOM     29  H   UNL     1       6.602  -1.211  -1.189  1.00  0.00     0.163 HD
ATOM     30  O   UNL     1       9.017  -1.252  -1.287  1.00  0.00    -0.269 OA
BRANCH  28  31
ATOM     31  C   UNL     1       8.933  -3.575  -0.914  1.00  0.00     0.039 A 
ATOM     32  C   UNL     1      10.079  -3.699  -0.127  1.00  0.00     0.014 A 
ATOM     33  C   UNL     1       8.365  -4.702  -1.516  1.00  0.00     0.014 A 
ATOM     34  C   UNL     1      10.616  -4.965   0.110  1.00  0.00     0.010 A 
ATOM     35  C   UNL     1       8.854  -5.969  -1.212  1.00  0.00     0.010 A 
ATOM     36  C   UNL     1       9.985  -6.115  -0.395  1.00  0.00    -0.014 A 
BRANCH  36  37
ATOM     37  C   UNL     1      10.491  -7.473  -0.064  1.00  0.00     0.031 A 
ATOM     38  C   UNL     1      11.000  -8.379  -1.151  1.00  0.00     0.074 A 
ATOM     39  C   UNL     1      10.450  -7.901   1.214  1.00  0.00     0.049 A 
ATOM     40  N   UNL     1      11.442  -9.608  -1.063  1.00  0.00    -0.248 NA
ATOM     41  C   UNL     1      10.987  -7.844  -2.521  1.00  0.00     0.031 C 
ATOM     42  C   UNL     1       9.940  -7.127   2.348  1.00  0.00     0.029 A 
ATOM     43  N   UNL     1      10.841  -9.091   1.778  1.00  0.00    -0.354 N 
ATOM     44  C   UNL     1      11.756  -9.993  -2.362  1.00  0.00     0.074 A 
ATOM     45  C   UNL     1      11.391  -8.890  -3.225  1.00  0.00     0.031 C 
ATOM     46  C   UNL     1      10.080  -7.846   3.473  1.00  0.00     0.029 A 
ATOM     47  C   UNL     1      10.639  -9.152   3.138  1.00  0.00     0.049 A 
ATOM     48  H   UNL     1      11.229  -9.831   1.257  1.00  0.00     0.167 HD
ATOM     49  C   UNL     1      12.321 -11.149  -2.790  1.00  0.00     0.034 A 
ATOM     50  C   UNL     1      10.864 -10.151   4.014  1.00  0.00     0.034 A 
ATOM     51  C   UNL     1      12.682 -12.238  -1.915  1.00  0.00     0.049 A 
ATOM     52  C   UNL     1      11.454 -11.443   3.504  1.00  0.00     0.074 A 
ATOM     53  C   UNL     1      13.300 -13.433  -2.238  1.00  0.00     0.029 A 
ATOM     54  N   UNL     1      12.448 -12.272  -0.545  1.00  0.00    -0.354 N 
ATOM     55  N   UNL     1      11.798 -11.769   2.279  1.00  0.00    -0.248 NA
ATOM     56  C   UNL     1      11.697 -12.497   4.497  1.00  0.00     0.031 C 
ATOM     57  C   UNL     1      13.369 -14.219  -1.083  1.00  0.00     0.029 A 
ATOM     58  C   UNL     1      12.877 -13.482  -0.018  1.00  0.00     0.049 A 
ATOM     59  H   UNL     1      12.038 -11.544  -0.025  1.00  0.00     0.167 HD
ATOM     60  C   UNL     1      12.328 -13.054   2.363  1.00  0.00     0.074 A 
ATOM     61  C   UNL     1      12.280 -13.430   3.761  1.00  0.00     0.031 C 
ATOM     62  C   UNL     1      12.812 -13.851   1.377  1.00  0.00     0.034 A 
BRANCH  49  63
ATOM     63  C   UNL     1      12.560 -11.302  -4.274  1.00  0.00     0.023 A 
ATOM     64  C   UNL     1      13.436 -10.453  -4.973  1.00  0.00     0.031 A 
ATOM     65  C   UNL     1      11.901 -12.308  -5.003  1.00  0.00     0.131 A 
ATOM     66  C   UNL     1      13.579 -10.582  -6.363  1.00  0.00     0.055 A 
ATOM     67  C   UNL     1      12.111 -12.484  -6.372  1.00  0.00     0.041 A 
ATOM     68  F   UNL     1      11.035 -13.136  -4.396  1.00  0.00    -0.206 F 
ATOM     69  C   UNL     1      12.944 -11.610  -7.063  1.00  0.00     0.022 A 
BRANCH  66  70
ATOM     70  S   UNL     1      14.498  -9.303  -7.262  1.00  0.00     0.124 S 
ATOM     71  O   UNL     1      13.739  -8.101  -6.923  1.00  0.00    -0.237 OA
ATOM     72  O   UNL     1      15.830  -9.402  -6.679  1.00  0.00    -0.237 OA
ATOM     73  O   UNL     1      14.393  -9.723  -8.658  1.00  0.00    -0.744 OA
ENDBRANCH  66  70
ENDBRANCH  49  63
BRANCH  50  74
ATOM     74  C   UNL     1      10.522  -9.991   5.458  1.00  0.00     0.023 A 
ATOM     75  C   UNL     1      11.511 -10.070   6.451  1.00  0.00     0.031 A 
ATOM     76  C   UNL     1       9.188  -9.822   5.873  1.00  0.00     0.131 A 
ATOM     77  C   UNL     1      11.148 -10.043   7.807  1.00  0.00     0.055 A 
ATOM     78  C   UNL     1       8.839  -9.728   7.221  1.00  0.00     0.041 A 
ATOM     79  F   UNL     1       8.200  -9.739   4.968  1.00  0.00    -0.206 F 
ATOM     80  C   UNL     1       9.821  -9.857   8.198  1.00  0.00     0.022 A 
BRANCH  77  81
ATOM     81  S   UNL     1      12.424 -10.373   9.053  1.00  0.00     0.124 S 
ATOM     82  O   UNL     1      12.919 -11.678   8.631  1.00  0.00    -0.237 OA
ATOM     83  O   UNL     1      13.333  -9.248   8.860  1.00  0.00    -0.237 OA
ATOM     84  O   UNL     1      11.681 -10.363  10.311  1.00  0.00    -0.744 OA
ENDBRANCH  77  81
ENDBRANCH  50  74
BRANCH  62  85
ATOM     85  C   UNL     1      13.371 -15.193   1.790  1.00  0.00     0.023 A 
ATOM     86  C   UNL     1      12.559 -16.191   2.357  1.00  0.00     0.031 A 
ATOM     87  C   UNL     1      14.742 -15.467   1.635  1.00  0.00     0.131 A 
ATOM     88  C   UNL     1      13.135 -17.387   2.811  1.00  0.00     0.055 A 
ATOM     89  C   UNL     1      15.296 -16.688   2.021  1.00  0.00     0.041 A 
ATOM     90  F   UNL     1      15.567 -14.551   1.104  1.00  0.00    -0.206 F 
ATOM     91  C   UNL     1      14.495 -17.650   2.628  1.00  0.00     0.022 A 
BRANCH  88  92
ATOM     92  S   UNL     1      12.104 -18.548   3.748  1.00  0.00     0.124 S 
ATOM     93  O   UNL     1      11.642 -17.718   4.855  1.00  0.00    -0.237 OA
ATOM     94  O   UNL     1      11.090 -18.926   2.769  1.00  0.00    -0.237 OA
ATOM     95  O   UNL     1      13.035 -19.613   4.117  1.00  0.00    -0.744 OA
ENDBRANCH  88  92
ENDBRANCH  62  85
ENDBRANCH  36  37
ENDBRANCH  28  31
ENDBRANCH  26  27
ENDBRANCH   1  26
TORSDOF 16
