REMARK SMILES CNS(=O)(=O)c1ccc(Oc2csc(C(=O)NCCCCNC(=O)c3ccc(-c4c5nc(c(-c6cc(S(=O)(=O)[O-])ccc6F)c6ccc([nH]6)c(-c6cc(S(=O)(=O)[O-])ccc6F)c6nc(c(-c7cc(S(=O)(=O)[O-])ccc7F)c7ccc4[nH]7)C=C6)C=C5)cc3)c2)cc1
REMARK SMILES IDX 19 1 18 2 17 3 15 4 16 5 14 7 11 8 12 9 88 10 13 11 10 12
REMARK SMILES IDX 9 13 6 14 7 15 90 16 8 17 89 18 3 19 4 20 5 21 2 22 1 23
REMARK SMILES IDX 20 25 21 26 22 27 23 28 24 30 25 31 26 32 87 33 27 34 86 35
REMARK SMILES IDX 28 36 29 37 30 38 80 39 31 40 85 41 79 42 81 43 32 44 84 45
REMARK SMILES IDX 78 46 77 47 33 49 65 50 45 51 64 52 46 53 49 54 63 55 82 56
REMARK SMILES IDX 47 57 48 58 62 60 83 61 50 62 34 63 35 64 43 65 36 66 42 67
REMARK SMILES IDX 44 68 41 69 37 70 38 71 39 72 40 73 66 74 67 75 75 76 68 77
REMARK SMILES IDX 74 78 76 79 73 80 69 81 70 82 71 83 72 84 51 85 52 86 60 87
REMARK SMILES IDX 53 88 59 89 61 90 58 91 54 92 55 93 56 94 57 95
REMARK H PARENT 17 6 2 24 22 29 81 48 49 59
REMARK Flexibility Score: inf
ROOT
ATOM      1  C   UNL     1      -7.079   6.083  -1.510  1.00  0.00     0.023 C 
ENDROOT
BRANCH   1   2
ATOM      2  C   UNL     1      -6.917   7.074  -0.357  1.00  0.00     0.116 C 
BRANCH   2   3
ATOM      3  N   UNL     1      -7.889   6.814   0.685  1.00  0.00    -0.351 N 
ATOM      4  C   UNL     1      -7.786   6.213   1.917  1.00  0.00     0.261 C 
ATOM      5  O   UNL     1      -8.826   6.201   2.582  1.00  0.00    -0.268 OA
ATOM      6  H   UNL     1      -8.797   7.127   0.469  1.00  0.00     0.163 HD
BRANCH   4   7
ATOM      7  C   UNL     1      -6.524   5.670   2.405  1.00  0.00     0.096 A 
ATOM      8  C   UNL     1      -4.349   4.869   2.671  1.00  0.00     0.138 A 
ATOM      9  C   UNL     1      -4.718   5.008   3.984  1.00  0.00     0.112 A 
ATOM     10  C   UNL     1      -5.393   5.197   1.762  1.00  0.00     0.072 A 
ATOM     11  S   UNL     1      -6.336   5.531   4.120  1.00  0.00    -0.135 S 
BRANCH   8  12
ATOM     12  O   UNL     1      -3.086   4.553   2.318  1.00  0.00    -0.456 OA
BRANCH  12  13
ATOM     13  C   UNL     1      -2.749   3.281   1.924  1.00  0.00     0.127 A 
ATOM     14  C   UNL     1      -1.801   0.777   1.146  1.00  0.00     0.082 A 
ATOM     15  C   UNL     1      -1.124   1.929   0.742  1.00  0.00     0.025 A 
ATOM     16  C   UNL     1      -2.961   0.874   1.924  1.00  0.00     0.025 A 
ATOM     17  C   UNL     1      -1.595   3.179   1.144  1.00  0.00     0.048 A 
ATOM     18  C   UNL     1      -3.439   2.130   2.308  1.00  0.00     0.048 A 
BRANCH  14  19
ATOM     19  S   UNL     1      -1.184  -0.830   0.714  1.00  0.00     0.240 S 
ATOM     20  O   UNL     1      -1.452  -1.050  -0.688  1.00  0.00    -0.207 OA
ATOM     21  O   UNL     1      -1.630  -1.752   1.736  1.00  0.00    -0.207 OA
BRANCH  19  22
ATOM     22  N   UNL     1       0.481  -0.715   0.956  1.00  0.00    -0.214 NA
ATOM     23  C   UNL     1       1.359  -0.448  -0.182  1.00  0.00     0.120 C 
ATOM     24  H   UNL     1       0.632   0.037   1.629  1.00  0.00     0.141 HD
ENDBRANCH  19  22
ENDBRANCH  14  19
ENDBRANCH  12  13
ENDBRANCH   8  12
ENDBRANCH   4   7
ENDBRANCH   2   3
ENDBRANCH   1   2
BRANCH   1  25
ATOM     25  C   UNL     1      -8.274   6.380  -2.426  1.00  0.00     0.023 C 
BRANCH  25  26
ATOM     26  C   UNL     1      -8.234   7.732  -3.136  1.00  0.00     0.116 C 
BRANCH  26  27
ATOM     27  N   UNL     1      -7.035   7.926  -3.936  1.00  0.00    -0.352 N 
ATOM     28  C   UNL     1      -6.898   8.592  -5.131  1.00  0.00     0.251 C 
ATOM     29  H   UNL     1      -6.211   7.526  -3.573  1.00  0.00     0.163 HD
ATOM     30  O   UNL     1      -5.827   8.561  -5.729  1.00  0.00    -0.269 OA
BRANCH  28  31
ATOM     31  C   UNL     1      -8.060   9.303  -5.703  1.00  0.00     0.039 A 
ATOM     32  C   UNL     1      -8.405   9.067  -7.036  1.00  0.00     0.014 A 
ATOM     33  C   UNL     1      -8.829  10.167  -4.918  1.00  0.00     0.014 A 
ATOM     34  C   UNL     1      -9.568   9.638  -7.559  1.00  0.00     0.010 A 
ATOM     35  C   UNL     1     -10.020  10.682  -5.421  1.00  0.00     0.010 A 
ATOM     36  C   UNL     1     -10.407  10.415  -6.744  1.00  0.00    -0.014 A 
BRANCH  36  37
ATOM     37  C   UNL     1     -11.702  10.941  -7.251  1.00  0.00     0.031 A 
ATOM     38  C   UNL     1     -11.924  12.424  -7.360  1.00  0.00     0.074 A 
ATOM     39  C   UNL     1     -12.698  10.082  -7.544  1.00  0.00     0.049 A 
ATOM     40  N   UNL     1     -13.006  13.076  -7.700  1.00  0.00    -0.248 NA
ATOM     41  C   UNL     1     -10.785  13.286  -7.013  1.00  0.00     0.031 C 
ATOM     42  C   UNL     1     -12.615   8.623  -7.437  1.00  0.00     0.029 A 
ATOM     43  N   UNL     1     -13.979  10.307  -7.982  1.00  0.00    -0.354 N 
ATOM     44  C   UNL     1     -12.684  14.425  -7.598  1.00  0.00     0.074 A 
ATOM     45  C   UNL     1     -11.325  14.492  -7.103  1.00  0.00     0.031 C 
ATOM     46  C   UNL     1     -13.785   8.086  -7.821  1.00  0.00     0.029 A 
ATOM     47  C   UNL     1     -14.716   9.158  -8.156  1.00  0.00     0.049 A 
ATOM     48  H   UNL     1     -14.338  11.208  -8.156  1.00  0.00     0.167 HD
ATOM     49  C   UNL     1     -13.444  15.505  -7.909  1.00  0.00     0.034 A 
ATOM     50  C   UNL     1     -16.000   8.987  -8.529  1.00  0.00     0.034 A 
ATOM     51  C   UNL     1     -14.795  15.417  -8.408  1.00  0.00     0.049 A 
ATOM     52  C   UNL     1     -16.834  10.204  -8.842  1.00  0.00     0.074 A 
ATOM     53  C   UNL     1     -15.635  16.443  -8.806  1.00  0.00     0.029 A 
ATOM     54  N   UNL     1     -15.509  14.236  -8.570  1.00  0.00    -0.354 N 
ATOM     55  N   UNL     1     -16.498  11.472  -8.789  1.00  0.00    -0.248 NA
ATOM     56  C   UNL     1     -18.218   9.965  -9.273  1.00  0.00     0.031 C 
ATOM     57  C   UNL     1     -16.876  15.890  -9.142  1.00  0.00     0.029 A 
ATOM     58  C   UNL     1     -16.789  14.512  -9.030  1.00  0.00     0.049 A 
ATOM     59  H   UNL     1     -15.158  13.335  -8.385  1.00  0.00     0.167 HD
ATOM     60  C   UNL     1     -17.621  12.180  -9.210  1.00  0.00     0.074 A 
ATOM     61  C   UNL     1     -18.636  11.196  -9.527  1.00  0.00     0.031 C 
ATOM     62  C   UNL     1     -17.796  13.521  -9.329  1.00  0.00     0.034 A 
BRANCH  49  63
ATOM     63  C   UNL     1     -12.832  16.869  -7.692  1.00  0.00     0.023 A 
ATOM     64  C   UNL     1     -11.686  17.283  -8.394  1.00  0.00     0.031 A 
ATOM     65  C   UNL     1     -13.382  17.757  -6.752  1.00  0.00     0.131 A 
ATOM     66  C   UNL     1     -11.083  18.513  -8.090  1.00  0.00     0.055 A 
ATOM     67  C   UNL     1     -12.826  19.016  -6.514  1.00  0.00     0.041 A 
ATOM     68  F   UNL     1     -14.463  17.411  -6.035  1.00  0.00    -0.206 F 
ATOM     69  C   UNL     1     -11.660  19.394  -7.173  1.00  0.00     0.022 A 
BRANCH  66  70
ATOM     70  S   UNL     1      -9.454  18.877  -8.800  1.00  0.00     0.124 S 
ATOM     71  O   UNL     1      -8.657  17.761  -8.296  1.00  0.00    -0.237 OA
ATOM     72  O   UNL     1      -9.726  18.871 -10.233  1.00  0.00    -0.237 OA
ATOM     73  O   UNL     1      -9.116  20.180  -8.233  1.00  0.00    -0.744 OA
ENDBRANCH  66  70
ENDBRANCH  49  63
BRANCH  50  74
ATOM     74  C   UNL     1     -16.587   7.619  -8.620  1.00  0.00     0.023 A 
ATOM     75  C   UNL     1     -17.017   7.098  -9.850  1.00  0.00     0.031 A 
ATOM     76  C   UNL     1     -16.765   6.829  -7.470  1.00  0.00     0.131 A 
ATOM     77  C   UNL     1     -17.647   5.845  -9.897  1.00  0.00     0.055 A 
ATOM     78  C   UNL     1     -17.345   5.560  -7.530  1.00  0.00     0.041 A 
ATOM     79  F   UNL     1     -16.367   7.277  -6.269  1.00  0.00    -0.206 F 
ATOM     80  C   UNL     1     -17.802   5.067  -8.748  1.00  0.00     0.022 A 
BRANCH  77  81
ATOM     81  S   UNL     1     -18.341   5.281 -11.476  1.00  0.00     0.124 S 
ATOM     82  O   UNL     1     -19.274   6.357 -11.791  1.00  0.00    -0.237 OA
ATOM     83  O   UNL     1     -17.151   5.196 -12.316  1.00  0.00    -0.237 OA
ATOM     84  O   UNL     1     -18.957   3.999 -11.138  1.00  0.00    -0.744 OA
ENDBRANCH  77  81
ENDBRANCH  50  74
BRANCH  62  85
ATOM     85  C   UNL     1     -19.126  13.992  -9.865  1.00  0.00     0.023 A 
ATOM     86  C   UNL     1     -20.318  13.825  -9.140  1.00  0.00     0.031 A 
ATOM     87  C   UNL     1     -19.200  14.609 -11.127  1.00  0.00     0.131 A 
ATOM     88  C   UNL     1     -21.541  14.219  -9.705  1.00  0.00     0.055 A 
ATOM     89  C   UNL     1     -20.411  15.054 -11.658  1.00  0.00     0.041 A 
ATOM     90  F   UNL     1     -18.092  14.792 -11.864  1.00  0.00    -0.206 F 
ATOM     91  C   UNL     1     -21.592  14.848 -10.952  1.00  0.00     0.022 A 
BRANCH  88  92
ATOM     92  S   UNL     1     -23.076  13.817  -8.828  1.00  0.00     0.124 S 
ATOM     93  O   UNL     1     -23.002  12.362  -8.736  1.00  0.00    -0.237 OA
ATOM     94  O   UNL     1     -22.918  14.544  -7.572  1.00  0.00    -0.237 OA
ATOM     95  O   UNL     1     -24.122  14.329  -9.712  1.00  0.00    -0.744 OA
ENDBRANCH  88  92
ENDBRANCH  62  85
ENDBRANCH  36  37
ENDBRANCH  28  31
ENDBRANCH  26  27
ENDBRANCH  25  26
ENDBRANCH   1  25
TORSDOF 18
