REMARK SMILES C[NH2+][C@@]1(C(=O)NCCCCNC(=O)c2ccc(-c3c4nc(c(-c5cc(S(=O)(=O)[O-])ccc5F)c5ccc([nH]5)c(-c5cc(S(=O)(=O)[O-])ccc5F)c5nc(c(-c6cc(S(=O)(=O)[O-])ccc6F)c6ccc3[nH]6)C=C5)C=C4)cc2)CCC[C@H]1CCSc1nccc(=O)[nH]1
REMARK SMILES IDX 8 1 7 2 6 3 4 4 5 5 3 7 77 8 80 9 78 10 79 11 2 12 1 13
REMARK SMILES IDX 81 16 82 17 83 18 84 19 85 20 90 21 86 22 88 23 87 25 89 26
REMARK SMILES IDX 9 27 10 28 11 29 12 30 13 32 14 33 15 34 76 35 16 36 75 37
REMARK SMILES IDX 17 38 18 39 19 40 69 41 20 42 74 43 68 44 70 45 21 46 73 47
REMARK SMILES IDX 67 48 66 49 22 51 54 52 34 53 53 54 35 55 38 56 52 57 71 58
REMARK SMILES IDX 36 59 37 60 51 62 72 63 39 64 23 65 24 66 32 67 25 68 31 69
REMARK SMILES IDX 33 70 30 71 26 72 27 73 28 74 29 75 55 76 56 77 64 78 57 79
REMARK SMILES IDX 63 80 65 81 62 82 58 83 59 84 60 85 61 86 40 87 41 88 49 89
REMARK SMILES IDX 42 90 48 91 50 92 47 93 43 94 44 95 45 96 46 97
REMARK H PARENT 6 6 2 14 2 15 90 24 11 31 70 50 38 61
REMARK Flexibility Score: inf
ROOT
ATOM      1  C   UNL     1      -4.596  -1.291  -0.006  1.00  0.00     0.023 C 
ENDROOT
BRANCH   1   2
ATOM      2  C   UNL     1      -4.032   0.037  -0.489  1.00  0.00     0.116 C 
BRANCH   2   3
ATOM      3  N   UNL     1      -2.827   0.471   0.178  1.00  0.00    -0.351 N 
ATOM      4  C   UNL     1      -1.627   0.913  -0.294  1.00  0.00     0.281 C 
ATOM      5  O   UNL     1      -1.041   1.661   0.505  1.00  0.00    -0.268 OA
ATOM      6  H   UNL     1      -2.883   0.443   1.160  1.00  0.00     0.163 HD
BRANCH   4   7
ATOM      7  C   UNL     1      -1.008   0.599  -1.735  1.00  0.00     0.178 C 
ATOM      8  C   UNL     1      -1.545   1.652  -2.743  1.00  0.00     0.079 C 
ATOM      9  C   UNL     1      -1.405  -0.780  -2.377  1.00  0.00     0.061 C 
ATOM     10  C   UNL     1      -2.727   1.046  -3.462  1.00  0.00     0.008 C 
ATOM     11  C   UNL     1      -2.441  -0.445  -3.495  1.00  0.00     0.011 C 
BRANCH   7  12
ATOM     12  N   UNL     1       0.481   0.832  -1.752  1.00  0.00    -0.336 N 
ATOM     13  C   UNL     1       1.227   0.557  -0.528  1.00  0.00     0.331 C 
ATOM     14  H   UNL     1       0.873   0.243  -2.486  1.00  0.00     0.346 HD
ATOM     15  H   UNL     1       0.582   1.837  -1.894  1.00  0.00     0.346 HD
ENDBRANCH   7  12
BRANCH   9  16
ATOM     16  C   UNL     1      -0.298  -1.626  -3.068  1.00  0.00     0.022 C 
BRANCH  16  17
ATOM     17  C   UNL     1       0.684  -2.419  -2.206  1.00  0.00     0.079 C 
BRANCH  17  18
ATOM     18  S   UNL     1      -0.004  -3.976  -1.563  1.00  0.00    -0.088 SA
BRANCH  18  19
ATOM     19  C   UNL     1      -0.655  -3.485  -0.035  1.00  0.00     0.168 A 
ATOM     20  N   UNL     1      -0.354  -2.375   0.547  1.00  0.00    -0.233 NA
ATOM     21  N   UNL     1      -1.515  -4.404   0.472  1.00  0.00    -0.301 N 
ATOM     22  C   UNL     1      -0.970  -2.126   1.746  1.00  0.00     0.120 A 
ATOM     23  C   UNL     1      -2.166  -4.203   1.650  1.00  0.00     0.251 A 
ATOM     24  H   UNL     1      -1.671  -5.239  -0.025  1.00  0.00     0.172 HD
ATOM     25  C   UNL     1      -1.847  -2.942   2.336  1.00  0.00     0.091 A 
ATOM     26  O   UNL     1      -2.975  -4.999   2.109  1.00  0.00    -0.269 OA
ENDBRANCH  18  19
ENDBRANCH  17  18
ENDBRANCH  16  17
ENDBRANCH   9  16
ENDBRANCH   4   7
ENDBRANCH   2   3
ENDBRANCH   1   2
BRANCH   1  27
ATOM     27  C   UNL     1      -5.285  -1.274   1.354  1.00  0.00     0.023 C 
BRANCH  27  28
ATOM     28  C   UNL     1      -6.321  -0.174   1.573  1.00  0.00     0.116 C 
BRANCH  28  29
ATOM     29  N   UNL     1      -7.326  -0.074   0.526  1.00  0.00    -0.352 N 
ATOM     30  C   UNL     1      -8.662   0.248   0.642  1.00  0.00     0.251 C 
ATOM     31  H   UNL     1      -7.010  -0.261  -0.388  1.00  0.00     0.163 HD
ATOM     32  O   UNL     1      -9.380   0.249  -0.349  1.00  0.00    -0.269 OA
BRANCH  30  33
ATOM     33  C   UNL     1      -9.223   0.532   1.982  1.00  0.00     0.039 A 
ATOM     34  C   UNL     1     -10.366  -0.160   2.390  1.00  0.00     0.014 A 
ATOM     35  C   UNL     1      -8.585   1.418   2.853  1.00  0.00     0.014 A 
ATOM     36  C   UNL     1     -10.815  -0.032   3.707  1.00  0.00     0.010 A 
ATOM     37  C   UNL     1      -8.989   1.485   4.183  1.00  0.00     0.010 A 
ATOM     38  C   UNL     1     -10.100   0.751   4.628  1.00  0.00    -0.014 A 
BRANCH  38  39
ATOM     39  C   UNL     1     -10.489   0.808   6.061  1.00  0.00     0.031 A 
ATOM     40  C   UNL     1     -10.924   2.112   6.672  1.00  0.00     0.074 A 
ATOM     41  C   UNL     1     -10.372  -0.294   6.829  1.00  0.00     0.049 A 
ATOM     42  N   UNL     1     -11.210   2.390   7.918  1.00  0.00    -0.248 NA
ATOM     43  C   UNL     1     -11.013   3.263   5.762  1.00  0.00     0.031 C 
ATOM     44  C   UNL     1      -9.909  -1.605   6.364  1.00  0.00     0.029 A 
ATOM     45  N   UNL     1     -10.620  -0.488   8.165  1.00  0.00    -0.354 N 
ATOM     46  C   UNL     1     -11.494   3.751   7.946  1.00  0.00     0.074 A 
ATOM     47  C   UNL     1     -11.283   4.250   6.603  1.00  0.00     0.031 C 
ATOM     48  C   UNL     1      -9.930  -2.469   7.392  1.00  0.00     0.029 A 
ATOM     49  C   UNL     1     -10.365  -1.770   8.596  1.00  0.00     0.049 A 
ATOM     50  H   UNL     1     -10.950   0.224   8.760  1.00  0.00     0.167 HD
ATOM     51  C   UNL     1     -11.916   4.509   8.989  1.00  0.00     0.034 A 
ATOM     52  C   UNL     1     -10.463  -2.317   9.824  1.00  0.00     0.034 A 
ATOM     53  C   UNL     1     -12.140   3.991  10.316  1.00  0.00     0.049 A 
ATOM     54  C   UNL     1     -10.935  -1.457  10.968  1.00  0.00     0.074 A 
ATOM     55  C   UNL     1     -12.622   4.654  11.432  1.00  0.00     0.029 A 
ATOM     56  N   UNL     1     -11.894   2.682  10.711  1.00  0.00    -0.354 N 
ATOM     57  N   UNL     1     -11.251  -0.182  10.968  1.00  0.00    -0.248 NA
ATOM     58  C   UNL     1     -11.076  -2.112  12.275  1.00  0.00     0.031 C 
ATOM     59  C   UNL     1     -12.613   3.763  12.511  1.00  0.00     0.029 A 
ATOM     60  C   UNL     1     -12.191   2.524  12.056  1.00  0.00     0.049 A 
ATOM     61  H   UNL     1     -11.557   1.969  10.120  1.00  0.00     0.167 HD
ATOM     62  C   UNL     1     -11.657   0.108  12.267  1.00  0.00     0.074 A 
ATOM     63  C   UNL     1     -11.559  -1.127  13.018  1.00  0.00     0.031 C 
ATOM     64  C   UNL     1     -12.078   1.287  12.792  1.00  0.00     0.034 A 
BRANCH  51  65
ATOM     65  C   UNL     1     -12.139   5.980   8.728  1.00  0.00     0.023 A 
ATOM     66  C   UNL     1     -13.107   6.426   7.810  1.00  0.00     0.031 A 
ATOM     67  C   UNL     1     -11.348   6.947   9.371  1.00  0.00     0.131 A 
ATOM     68  C   UNL     1     -13.199   7.790   7.496  1.00  0.00     0.055 A 
ATOM     69  C   UNL     1     -11.504   8.312   9.118  1.00  0.00     0.041 A 
ATOM     70  F   UNL     1     -10.395   6.582  10.243  1.00  0.00    -0.206 F 
ATOM     71  C   UNL     1     -12.422   8.740   8.163  1.00  0.00     0.022 A 
BRANCH  68  72
ATOM     72  S   UNL     1     -14.238   8.286   6.095  1.00  0.00     0.124 S 
ATOM     73  O   UNL     1     -13.623   7.546   4.996  1.00  0.00    -0.237 OA
ATOM     74  O   UNL     1     -15.562   7.834   6.508  1.00  0.00    -0.237 OA
ATOM     75  O   UNL     1     -14.064   9.736   6.035  1.00  0.00    -0.744 OA
ENDBRANCH  68  72
ENDBRANCH  51  65
BRANCH  52  76
ATOM     76  C   UNL     1     -10.107  -3.748  10.046  1.00  0.00     0.023 A 
ATOM     77  C   UNL     1     -11.084  -4.684  10.420  1.00  0.00     0.031 A 
ATOM     78  C   UNL     1      -8.778  -4.192   9.926  1.00  0.00     0.131 A 
ATOM     79  C   UNL     1     -10.712  -6.007  10.707  1.00  0.00     0.055 A 
ATOM     80  C   UNL     1      -8.421  -5.520  10.165  1.00  0.00     0.041 A 
ATOM     81  F   UNL     1      -7.808  -3.338   9.564  1.00  0.00    -0.206 F 
ATOM     82  C   UNL     1      -9.389  -6.434  10.571  1.00  0.00     0.022 A 
BRANCH  79  83
ATOM     83  S   UNL     1     -11.974  -7.146  11.339  1.00  0.00     0.124 S 
ATOM     84  O   UNL     1     -12.428  -6.451  12.538  1.00  0.00    -0.237 OA
ATOM     85  O   UNL     1     -12.920  -7.195  10.229  1.00  0.00    -0.237 OA
ATOM     86  O   UNL     1     -11.230  -8.381  11.576  1.00  0.00    -0.744 OA
ENDBRANCH  79  83
ENDBRANCH  52  76
BRANCH  64  87
ATOM     87  C   UNL     1     -12.505   1.276  14.239  1.00  0.00     0.023 A 
ATOM     88  C   UNL     1     -11.585   1.070  15.281  1.00  0.00     0.031 A 
ATOM     89  C   UNL     1     -13.858   1.460  14.575  1.00  0.00     0.131 A 
ATOM     90  C   UNL     1     -12.037   0.999  16.607  1.00  0.00     0.055 A 
ATOM     91  C   UNL     1     -14.294   1.444  15.900  1.00  0.00     0.041 A 
ATOM     92  F   UNL     1     -14.779   1.659  13.618  1.00  0.00    -0.206 F 
ATOM     93  C   UNL     1     -13.384   1.200  16.924  1.00  0.00     0.022 A 
BRANCH  90  94
ATOM     94  S   UNL     1     -10.855   0.553  17.908  1.00  0.00     0.124 S 
ATOM     95  O   UNL     1     -10.382  -0.751  17.456  1.00  0.00    -0.237 OA
ATOM     96  O   UNL     1      -9.887   1.642  17.836  1.00  0.00    -0.237 OA
ATOM     97  O   UNL     1     -11.671   0.530  19.121  1.00  0.00    -0.744 OA
ENDBRANCH  90  94
ENDBRANCH  64  87
ENDBRANCH  38  39
ENDBRANCH  30  33
ENDBRANCH  28  29
ENDBRANCH  27  28
ENDBRANCH   1  27
TORSDOF 19
