REMARK SMILES O=C(NCCCCNC(=O)c1cc2cnc(Cl)cc2[nH]1)c1ccc(-c2c3nc(c(-c4cc(S(=O)(=O)[O-])ccc4F)c4ccc([nH]4)c(-c4cc(S(=O)(=O)[O-])ccc4F)c4nc(c(-c5cc(S(=O)(=O)[O-])ccc5F)c5ccc2[nH]5)C=C4)C=C3)cc1
REMARK SMILES IDX 4 1 3 2 1 3 2 4 21 6 22 7 83 8 23 9 82 10 24 11 25 12 26 13
REMARK SMILES IDX 76 14 27 15 81 16 75 17 77 18 28 19 80 20 74 21 73 22 29 24
REMARK SMILES IDX 61 25 41 26 60 27 42 28 45 29 59 30 78 31 43 32 44 33 58 35
REMARK SMILES IDX 79 36 46 37 30 38 31 39 39 40 32 41 38 42 40 43 37 44 33 45
REMARK SMILES IDX 34 46 35 47 36 48 62 49 63 50 71 51 64 52 70 53 72 54 69 55
REMARK SMILES IDX 65 56 66 57 67 58 68 59 47 60 48 61 56 62 49 63 55 64 57 65
REMARK SMILES IDX 54 66 50 67 51 68 52 69 53 70 5 71 6 72 7 73 8 74 9 75 10 77
REMARK SMILES IDX 11 78 12 79 20 80 13 81 19 82 14 84 18 85 15 86 16 87 17 88
REMARK H PARENT 3 5 77 23 45 34 8 76 20 83
REMARK Flexibility Score: inf
ROOT
ATOM      1  C   UNL     1       4.562   1.098  -1.145  1.00  0.00     0.116 C 
ENDROOT
BRANCH   1   2
ATOM      2  N   UNL     1       3.111   0.908  -1.006  1.00  0.00    -0.352 N 
ATOM      3  O   UNL     1       1.303  -0.262  -0.253  1.00  0.00    -0.269 OA
ATOM      4  C   UNL     1       2.444   0.140  -0.056  1.00  0.00     0.251 C 
ATOM      5  H   UNL     1       2.545   1.377  -1.662  1.00  0.00     0.163 HD
BRANCH   4   6
ATOM      6  C   UNL     1       3.144  -0.159   1.208  1.00  0.00     0.039 A 
ATOM      7  C   UNL     1       3.089  -1.394   1.854  1.00  0.00     0.014 A 
ATOM      8  C   UNL     1       3.953   0.854   1.700  1.00  0.00     0.014 A 
ATOM      9  C   UNL     1       3.930  -1.601   2.950  1.00  0.00     0.010 A 
ATOM     10  C   UNL     1       4.969   0.543   2.552  1.00  0.00     0.010 A 
ATOM     11  C   UNL     1       4.891  -0.626   3.280  1.00  0.00    -0.014 A 
BRANCH  11  12
ATOM     12  C   UNL     1       5.872  -0.812   4.344  1.00  0.00     0.031 A 
ATOM     13  C   UNL     1       6.555  -2.123   4.299  1.00  0.00     0.074 A 
ATOM     14  C   UNL     1       6.250   0.163   5.204  1.00  0.00     0.049 A 
ATOM     15  N   UNL     1       6.261  -3.163   5.004  1.00  0.00    -0.248 NA
ATOM     16  C   UNL     1       7.507  -2.387   3.211  1.00  0.00     0.031 C 
ATOM     17  C   UNL     1       5.907   1.595   5.187  1.00  0.00     0.029 A 
ATOM     18  N   UNL     1       7.109   0.090   6.256  1.00  0.00    -0.354 N 
ATOM     19  C   UNL     1       7.187  -4.132   4.641  1.00  0.00     0.074 A 
ATOM     20  C   UNL     1       7.741  -3.690   3.386  1.00  0.00     0.031 C 
ATOM     21  C   UNL     1       6.731   2.278   6.010  1.00  0.00     0.029 A 
ATOM     22  C   UNL     1       7.507   1.320   6.769  1.00  0.00     0.049 A 
ATOM     23  H   UNL     1       7.425  -0.766   6.625  1.00  0.00     0.167 HD
ATOM     24  C   UNL     1       7.625  -5.046   5.553  1.00  0.00     0.034 A 
ATOM     25  C   UNL     1       8.402   1.549   7.761  1.00  0.00     0.034 A 
ATOM     26  C   UNL     1       6.807  -5.002   6.743  1.00  0.00     0.049 A 
ATOM     27  C   UNL     1       8.527   0.298   8.539  1.00  0.00     0.074 A 
ATOM     28  C   UNL     1       5.477  -5.229   7.029  1.00  0.00     0.029 A 
ATOM     29  N   UNL     1       7.309  -4.265   7.788  1.00  0.00    -0.354 N 
ATOM     30  N   UNL     1       7.580  -0.187   9.289  1.00  0.00    -0.248 NA
ATOM     31  C   UNL     1       9.554  -0.648   8.134  1.00  0.00     0.031 C 
ATOM     32  C   UNL     1       5.142  -4.274   8.032  1.00  0.00     0.029 A 
ATOM     33  C   UNL     1       6.294  -3.559   8.375  1.00  0.00     0.049 A 
ATOM     34  H   UNL     1       8.252  -4.246   8.071  1.00  0.00     0.167 HD
ATOM     35  C   UNL     1       7.619  -1.550   9.043  1.00  0.00     0.074 A 
ATOM     36  C   UNL     1       8.932  -1.787   8.445  1.00  0.00     0.031 C 
ATOM     37  C   UNL     1       6.476  -2.298   9.072  1.00  0.00     0.034 A 
BRANCH  24  38
ATOM     38  C   UNL     1       9.018  -5.637   5.563  1.00  0.00     0.023 A 
ATOM     39  C   UNL     1      10.056  -5.189   4.727  1.00  0.00     0.031 A 
ATOM     40  C   UNL     1       9.405  -6.516   6.597  1.00  0.00     0.131 A 
ATOM     41  C   UNL     1      11.385  -5.585   4.920  1.00  0.00     0.055 A 
ATOM     42  C   UNL     1      10.742  -6.859   6.834  1.00  0.00     0.041 A 
ATOM     43  F   UNL     1       8.500  -7.016   7.453  1.00  0.00    -0.206 F 
ATOM     44  C   UNL     1      11.743  -6.388   5.996  1.00  0.00     0.022 A 
BRANCH  41  45
ATOM     45  S   UNL     1      12.677  -5.024   3.776  1.00  0.00     0.124 S 
ATOM     46  O   UNL     1      13.609  -4.356   4.677  1.00  0.00    -0.237 OA
ATOM     47  O   UNL     1      13.136  -6.291   3.212  1.00  0.00    -0.237 OA
ATOM     48  O   UNL     1      11.957  -4.158   2.846  1.00  0.00    -0.744 OA
ENDBRANCH  41  45
ENDBRANCH  24  38
BRANCH  25  49
ATOM     49  C   UNL     1       9.473   2.573   7.776  1.00  0.00     0.023 A 
ATOM     50  C   UNL     1       9.995   3.046   6.560  1.00  0.00     0.031 A 
ATOM     51  C   UNL     1      10.221   2.816   8.942  1.00  0.00     0.131 A 
ATOM     52  C   UNL     1      11.257   3.655   6.521  1.00  0.00     0.055 A 
ATOM     53  C   UNL     1      11.471   3.445   8.904  1.00  0.00     0.041 A 
ATOM     54  F   UNL     1       9.791   2.367  10.132  1.00  0.00    -0.206 F 
ATOM     55  C   UNL     1      12.005   3.849   7.684  1.00  0.00     0.022 A 
BRANCH  52  56
ATOM     56  S   UNL     1      12.003   4.103   4.930  1.00  0.00     0.124 S 
ATOM     57  O   UNL     1      12.460   5.468   5.180  1.00  0.00    -0.237 OA
ATOM     58  O   UNL     1      13.053   3.099   4.803  1.00  0.00    -0.237 OA
ATOM     59  O   UNL     1      10.890   3.986   3.992  1.00  0.00    -0.744 OA
ENDBRANCH  52  56
ENDBRANCH  25  49
BRANCH  37  60
ATOM     60  C   UNL     1       5.235  -1.703   9.703  1.00  0.00     0.023 A 
ATOM     61  C   UNL     1       4.581  -2.498  10.660  1.00  0.00     0.031 A 
ATOM     62  C   UNL     1       4.578  -0.533   9.275  1.00  0.00     0.131 A 
ATOM     63  C   UNL     1       3.303  -2.160  11.114  1.00  0.00     0.055 A 
ATOM     64  C   UNL     1       3.330  -0.157   9.790  1.00  0.00     0.041 A 
ATOM     65  F   UNL     1       5.074   0.237   8.298  1.00  0.00    -0.206 F 
ATOM     66  C   UNL     1       2.677  -0.983  10.699  1.00  0.00     0.022 A 
BRANCH  63  67
ATOM     67  S   UNL     1       2.363  -3.332  12.124  1.00  0.00     0.124 S 
ATOM     68  O   UNL     1       2.225  -2.610  13.386  1.00  0.00    -0.237 OA
ATOM     69  O   UNL     1       1.132  -3.488  11.353  1.00  0.00    -0.237 OA
ATOM     70  O   UNL     1       3.213  -4.518  12.174  1.00  0.00    -0.744 OA
ENDBRANCH  63  67
ENDBRANCH  37  60
ENDBRANCH  11  12
ENDBRANCH   4   6
ENDBRANCH   1   2
BRANCH   1  71
ATOM     71  C   UNL     1       4.966   2.074  -2.239  1.00  0.00     0.023 C 
BRANCH  71  72
ATOM     72  C   UNL     1       4.476   3.515  -2.043  1.00  0.00     0.023 C 
BRANCH  72  73
ATOM     73  C   UNL     1       4.857   4.208  -0.729  1.00  0.00     0.116 C 
BRANCH  73  74
ATOM     74  N   UNL     1       6.283   4.472  -0.598  1.00  0.00    -0.351 N 
ATOM     75  C   UNL     1       6.987   5.631  -0.808  1.00  0.00     0.267 C 
ATOM     76  H   UNL     1       6.825   3.701  -0.315  1.00  0.00     0.163 HD
ATOM     77  O   UNL     1       8.217   5.565  -0.918  1.00  0.00    -0.268 OA
BRANCH  75  78
ATOM     78  C   UNL     1       6.265   6.864  -0.966  1.00  0.00     0.105 A 
ATOM     79  C   UNL     1       6.494   7.889  -1.868  1.00  0.00     0.043 A 
ATOM     80  N   UNL     1       5.219   7.284  -0.174  1.00  0.00    -0.350 N 
ATOM     81  C   UNL     1       5.369   8.756  -1.833  1.00  0.00     0.019 A 
ATOM     82  C   UNL     1       4.554   8.316  -0.790  1.00  0.00     0.051 A 
ATOM     83  H   UNL     1       4.984   6.902   0.702  1.00  0.00     0.167 HD
ATOM     84  C   UNL     1       4.938   9.838  -2.610  1.00  0.00     0.123 A 
ATOM     85  C   UNL     1       3.312   8.887  -0.525  1.00  0.00     0.067 A 
ATOM     86  N   UNL     1       3.720  10.396  -2.396  1.00  0.00    -0.244 NA
ATOM     87  C   UNL     1       2.958   9.907  -1.394  1.00  0.00     0.131 A 
ATOM     88  Cl  UNL     1       1.409  10.642  -1.270  1.00  0.00    -0.062 Cl
ENDBRANCH  75  78
ENDBRANCH  73  74
ENDBRANCH  72  73
ENDBRANCH  71  72
ENDBRANCH   1  71
TORSDOF 14
