REMARK SMILES N#CCC1(C[N@@H+]2CCO[C@H](CC(=O)NCCCCNC(=O)c3ccc(-c4c5nc(c(-c6cc(S(=O)(=O)[O-])ccc6F)c6ccc([nH]6)c(-c6cc(S(=O)(=O)[O-])ccc6F)c6nc(c(-c7cc(S(=O)(=O)[O-])ccc7F)c7ccc4[nH]7)C=C6)C=C5)cc3)C2)CC1
REMARK SMILES IDX 15 1 14 2 12 3 13 4 11 6 10 7 6 8 7 9 85 10 8 12 9 13 5 14
REMARK SMILES IDX 4 15 86 16 87 17 3 18 2 19 1 20 16 21 17 22 18 23 19 24
REMARK SMILES IDX 20 25 21 27 22 28 23 29 84 30 24 31 83 32 25 33 26 34 27 35
REMARK SMILES IDX 77 36 28 37 82 38 76 39 78 40 29 41 81 42 75 43 74 44 30 46
REMARK SMILES IDX 62 47 42 48 61 49 43 50 46 51 60 52 79 53 44 54 45 55 59 57
REMARK SMILES IDX 80 58 47 59 31 60 32 61 40 62 33 63 39 64 41 65 38 66 34 67
REMARK SMILES IDX 35 68 36 69 37 70 63 71 64 72 72 73 65 74 71 75 73 76 70 77
REMARK SMILES IDX 66 78 67 79 68 80 69 81 48 82 49 83 57 84 50 85 56 86 58 87
REMARK SMILES IDX 55 88 51 89 52 90 53 91 54 92
REMARK H PARENT 14 5 6 11 19 26 78 45 46 56
REMARK Flexibility Score: inf
ROOT
ATOM      1  C   UNL     1       3.489  -3.281   1.889  1.00  0.00     0.116 C 
ENDROOT
BRANCH   1   2
ATOM      2  N   UNL     1       3.195  -2.390   0.594  1.00  0.00    -0.356 N 
ATOM      3  C   UNL     1       3.410  -2.593  -0.810  1.00  0.00     0.222 C 
ATOM      4  O   UNL     1       3.083  -3.707  -1.249  1.00  0.00    -0.275 OA
ATOM      5  H   UNL     1       2.779  -1.522   0.803  1.00  0.00     0.163 HD
BRANCH   3   6
ATOM      6  C   UNL     1       3.910  -1.367  -2.055  1.00  0.00     0.138 C 
BRANCH   6   7
ATOM      7  C   UNL     1       4.990   0.040  -2.401  1.00  0.00     0.182 C 
ATOM      8  N   UNL     1       6.650   1.108  -0.611  1.00  0.00    -0.330 N 
ATOM      9  C   UNL     1       5.861   2.351  -0.658  1.00  0.00     0.291 C 
ATOM     10  C   UNL     1       6.506   0.426  -1.931  1.00  0.00     0.295 C 
ATOM     11  H   UNL     1       7.638   1.324  -0.477  1.00  0.00     0.348 HD
ATOM     12  C   UNL     1       4.990   2.486  -1.957  1.00  0.00     0.222 C 
ATOM     13  O   UNL     1       4.225   1.297  -2.348  1.00  0.00    -0.366 OA
BRANCH   8  14
ATOM     14  C   UNL     1       6.379   0.273   0.580  1.00  0.00     0.270 C 
BRANCH  14  15
ATOM     15  C   UNL     1       5.415  -0.842   0.162  1.00  0.00     0.032 C 
ATOM     16  C   UNL     1       5.860  -2.397   0.352  1.00  0.00     0.015 C 
ATOM     17  C   UNL     1       6.332  -1.785  -0.834  1.00  0.00     0.015 C 
BRANCH  15  18
ATOM     18  C   UNL     1       3.831   0.056   0.066  1.00  0.00     0.133 C 
BRANCH  18  19
ATOM     19  C   UNL     1       2.311   0.056   0.066  1.00  0.00     0.063 C 
ATOM     20  N   UNL     1       1.050   0.056   0.066  1.00  0.00    -0.198 NA
ENDBRANCH  18  19
ENDBRANCH  15  18
ENDBRANCH  14  15
ENDBRANCH   8  14
ENDBRANCH   6   7
ENDBRANCH   3   6
ENDBRANCH   1   2
BRANCH   1  21
ATOM     21  C   UNL     1       4.892  -3.112   2.619  1.00  0.00     0.023 C 
BRANCH  21  22
ATOM     22  C   UNL     1       5.247  -3.106   4.119  1.00  0.00     0.023 C 
BRANCH  22  23
ATOM     23  C   UNL     1       5.798  -4.383   4.775  1.00  0.00     0.116 C 
BRANCH  23  24
ATOM     24  N   UNL     1       7.028  -4.961   4.227  1.00  0.00    -0.352 N 
ATOM     25  C   UNL     1       7.976  -5.775   4.834  1.00  0.00     0.251 C 
ATOM     26  H   UNL     1       7.210  -4.739   3.285  1.00  0.00     0.163 HD
ATOM     27  O   UNL     1       8.924  -6.187   4.155  1.00  0.00    -0.269 OA
BRANCH  25  28
ATOM     28  C   UNL     1       7.923  -6.113   6.287  1.00  0.00     0.039 A 
ATOM     29  C   UNL     1       9.116  -6.260   7.012  1.00  0.00     0.014 A 
ATOM     30  C   UNL     1       6.713  -6.265   6.961  1.00  0.00     0.014 A 
ATOM     31  C   UNL     1       9.085  -6.430   8.406  1.00  0.00     0.010 A 
ATOM     32  C   UNL     1       6.681  -6.327   8.352  1.00  0.00     0.010 A 
ATOM     33  C   UNL     1       7.864  -6.402   9.097  1.00  0.00    -0.014 A 
BRANCH  33  34
ATOM     34  C   UNL     1       7.785  -6.434  10.586  1.00  0.00     0.031 A 
ATOM     35  C   UNL     1       7.026  -7.536  11.282  1.00  0.00     0.074 A 
ATOM     36  C   UNL     1       8.295  -5.413  11.305  1.00  0.00     0.049 A 
ATOM     37  N   UNL     1       6.744  -7.678  12.553  1.00  0.00    -0.248 NA
ATOM     38  C   UNL     1       6.466  -8.591  10.425  1.00  0.00     0.031 C 
ATOM     39  C   UNL     1       8.978  -4.242  10.746  1.00  0.00     0.029 A 
ATOM     40  N   UNL     1       8.306  -5.182  12.658  1.00  0.00    -0.354 N 
ATOM     41  C   UNL     1       5.953  -8.820  12.642  1.00  0.00     0.074 A 
ATOM     42  C   UNL     1       5.743  -9.287  11.288  1.00  0.00     0.031 C 
ATOM     43  C   UNL     1       9.369  -3.438  11.748  1.00  0.00     0.029 A 
ATOM     44  C   UNL     1       8.936  -4.012  13.018  1.00  0.00     0.049 A 
ATOM     45  H   UNL     1       7.901  -5.797  13.312  1.00  0.00     0.167 HD
ATOM     46  C   UNL     1       5.470  -9.441  13.749  1.00  0.00     0.034 A 
ATOM     47  C   UNL     1       9.146  -3.466  14.232  1.00  0.00     0.034 A 
ATOM     48  C   UNL     1       5.715  -8.979  15.095  1.00  0.00     0.049 A 
ATOM     49  C   UNL     1       8.654  -4.201  15.452  1.00  0.00     0.074 A 
ATOM     50  C   UNL     1       5.327  -9.555  16.293  1.00  0.00     0.029 A 
ATOM     51  N   UNL     1       6.420  -7.827  15.421  1.00  0.00    -0.354 N 
ATOM     52  N   UNL     1       7.959  -5.313  15.522  1.00  0.00    -0.248 NA
ATOM     53  C   UNL     1       8.998  -3.620  16.756  1.00  0.00     0.031 C 
ATOM     54  C   UNL     1       5.756  -8.728  17.339  1.00  0.00     0.029 A 
ATOM     55  C   UNL     1       6.469  -7.670  16.798  1.00  0.00     0.049 A 
ATOM     56  H   UNL     1       6.826  -7.211  14.769  1.00  0.00     0.167 HD
ATOM     57  C   UNL     1       7.810  -5.581  16.880  1.00  0.00     0.074 A 
ATOM     58  C   UNL     1       8.504  -4.524  17.588  1.00  0.00     0.031 C 
ATOM     59  C   UNL     1       7.160  -6.606  17.488  1.00  0.00     0.034 A 
BRANCH  46  60
ATOM     60  C   UNL     1       4.623 -10.675  13.537  1.00  0.00     0.023 A 
ATOM     61  C   UNL     1       5.140 -11.823  12.907  1.00  0.00     0.031 A 
ATOM     62  C   UNL     1       3.271 -10.694  13.921  1.00  0.00     0.131 A 
ATOM     63  C   UNL     1       4.291 -12.895  12.595  1.00  0.00     0.055 A 
ATOM     64  C   UNL     1       2.453 -11.802  13.688  1.00  0.00     0.041 A 
ATOM     65  F   UNL     1       2.713  -9.625  14.511  1.00  0.00    -0.206 F 
ATOM     66  C   UNL     1       2.957 -12.905  13.004  1.00  0.00     0.022 A 
BRANCH  63  67
ATOM     67  S   UNL     1       4.918 -14.203  11.505  1.00  0.00     0.124 S 
ATOM     68  O   UNL     1       5.242 -13.447  10.297  1.00  0.00    -0.237 OA
ATOM     69  O   UNL     1       6.054 -14.723  12.256  1.00  0.00    -0.237 OA
ATOM     70  O   UNL     1       3.784 -15.115  11.375  1.00  0.00    -0.744 OA
ENDBRANCH  63  67
ENDBRANCH  46  60
BRANCH  47  71
ATOM     71  C   UNL     1       9.878  -2.174  14.365  1.00  0.00     0.023 A 
ATOM     72  C   UNL     1      11.143  -2.123  14.972  1.00  0.00     0.031 A 
ATOM     73  C   UNL     1       9.312  -0.967  13.918  1.00  0.00     0.131 A 
ATOM     74  C   UNL     1      11.783  -0.888  15.159  1.00  0.00     0.055 A 
ATOM     75  C   UNL     1       9.973   0.255  14.064  1.00  0.00     0.041 A 
ATOM     76  F   UNL     1       8.111  -0.961  13.320  1.00  0.00    -0.206 F 
ATOM     77  C   UNL     1      11.211   0.300  14.699  1.00  0.00     0.022 A 
BRANCH  74  78
ATOM     78  S   UNL     1      13.346  -0.849  16.079  1.00  0.00     0.124 S 
ATOM     79  O   UNL     1      12.958  -1.448  17.351  1.00  0.00    -0.237 OA
ATOM     80  O   UNL     1      14.216  -1.655  15.229  1.00  0.00    -0.237 OA
ATOM     81  O   UNL     1      13.674   0.574  16.132  1.00  0.00    -0.744 OA
ENDBRANCH  74  78
ENDBRANCH  47  71
BRANCH  59  82
ATOM     82  C   UNL     1       7.220  -6.648  18.995  1.00  0.00     0.023 A 
ATOM     83  C   UNL     1       6.600  -5.666  19.787  1.00  0.00     0.031 A 
ATOM     84  C   UNL     1       7.940  -7.666  19.644  1.00  0.00     0.131 A 
ATOM     85  C   UNL     1       6.770  -5.682  21.179  1.00  0.00     0.055 A 
ATOM     86  C   UNL     1       8.055  -7.711  21.034  1.00  0.00     0.041 A 
ATOM     87  F   UNL     1       8.552  -8.629  18.936  1.00  0.00    -0.206 F 
ATOM     88  C   UNL     1       7.483  -6.706  21.808  1.00  0.00     0.022 A 
BRANCH  85  89
ATOM     89  S   UNL     1       6.145  -4.281  22.146  1.00  0.00     0.124 S 
ATOM     90  O   UNL     1       6.798  -3.148  21.499  1.00  0.00    -0.237 OA
ATOM     91  O   UNL     1       4.703  -4.385  21.947  1.00  0.00    -0.237 OA
ATOM     92  O   UNL     1       6.605  -4.569  23.504  1.00  0.00    -0.744 OA
ENDBRANCH  85  89
ENDBRANCH  59  82
ENDBRANCH  33  34
ENDBRANCH  25  28
ENDBRANCH  23  24
ENDBRANCH  22  23
ENDBRANCH  21  22
ENDBRANCH   1  21
TORSDOF 19
