REMARK SMILES O=C(CN1C(=O)/C(=C2/Sc3ccccc3N2CCCS(=O)(=O)[O-])SC1=S)NCCCCNC(=O)c1ccc(-c2c3nc(c(-c4cc(S(=O)(=O)[O-])ccc4F)c4ccc([nH]4)c(-c4cc(S(=O)(=O)[O-])ccc4F)c4nc(c(-c5cc(S(=O)(=O)[O-])ccc5F)c5ccc2[nH]5)C=C4)C=C3)cc1
REMARK SMILES IDX 28 1 27 2 1 3 2 4 3 6 4 7 5 8 25 9 6 10 7 11 24 12 26 13
REMARK SMILES IDX 8 14 9 15 16 16 10 17 15 18 11 19 14 20 12 21 13 22 17 23
REMARK SMILES IDX 18 24 19 25 20 26 21 27 22 28 23 29 29 30 30 31 31 32 32 33
REMARK SMILES IDX 33 34 34 36 35 37 36 38 97 39 37 40 96 41 38 42 39 43 40 44
REMARK SMILES IDX 90 45 41 46 95 47 89 48 91 49 42 50 94 51 88 52 87 53 43 55
REMARK SMILES IDX 75 56 55 57 74 58 56 59 59 60 73 61 92 62 57 63 58 64 72 66
REMARK SMILES IDX 93 67 60 68 44 69 45 70 53 71 46 72 52 73 54 74 51 75 47 76
REMARK SMILES IDX 48 77 49 78 50 79 76 80 77 81 85 82 78 83 84 84 86 85 83 86
REMARK SMILES IDX 79 87 80 88 81 89 82 90 61 91 62 92 70 93 63 94 69 95 71 96
REMARK SMILES IDX 68 97 64 98 65 99 66 100 67 101
REMARK H PARENT 27 5 32 35 91 54 59 65
REMARK Flexibility Score: inf
ROOT
ATOM      1  C   UNL     1       1.913   0.443   2.180  1.00  0.00     0.116 C 
ENDROOT
BRANCH   1   2
ATOM      2  N   UNL     1       2.735  -0.182   1.109  1.00  0.00    -0.355 N 
ATOM      3  O   UNL     1       1.151   0.125  -0.531  1.00  0.00    -0.273 OA
ATOM      4  C   UNL     1       2.286  -0.254  -0.229  1.00  0.00     0.240 C 
ATOM      5  H   UNL     1       3.617  -0.555   1.338  1.00  0.00     0.163 HD
BRANCH   4   6
ATOM      6  C   UNL     1       3.268  -0.789  -1.357  1.00  0.00     0.227 C 
BRANCH   6   7
ATOM      7  N   UNL     1       3.266   0.000  -2.650  1.00  0.00    -0.283 N 
ATOM      8  C   UNL     1       3.918   1.202  -2.749  1.00  0.00     0.269 C 
ATOM      9  C   UNL     1       3.059  -0.490  -3.917  1.00  0.00     0.148 C 
ATOM     10  O   UNL     1       4.955   1.457  -2.159  1.00  0.00    -0.268 OA
ATOM     11  C   UNL     1       3.434   2.032  -3.878  1.00  0.00     0.111 C 
ATOM     12  S   UNL     1       3.129   0.841  -5.112  1.00  0.00    -0.052 SA
ATOM     13  S   UNL     1       2.867  -2.076  -4.393  1.00  0.00    -0.052 S 
ATOM     14  C   UNL     1       3.155   3.366  -3.913  1.00  0.00     0.100 C 
ATOM     15  S   UNL     1       2.776   4.112  -5.543  1.00  0.00    -0.068 SA
ATOM     16  N   UNL     1       3.046   4.350  -2.888  1.00  0.00    -0.334 N 
ATOM     17  C   UNL     1       2.437   5.677  -4.757  1.00  0.00     0.037 A 
ATOM     18  C   UNL     1       2.512   5.584  -3.363  1.00  0.00     0.056 A 
ATOM     19  C   UNL     1       2.150   6.886  -5.379  1.00  0.00     0.017 A 
ATOM     20  C   UNL     1       2.114   6.676  -2.583  1.00  0.00     0.027 A 
ATOM     21  C   UNL     1       1.835   7.998  -4.590  1.00  0.00     0.001 A 
ATOM     22  C   UNL     1       1.777   7.883  -3.199  1.00  0.00     0.002 A 
BRANCH  16  23
ATOM     23  C   UNL     1       3.841   4.523  -1.675  1.00  0.00     0.124 C 
BRANCH  23  24
ATOM     24  C   UNL     1       3.077   4.098  -0.438  1.00  0.00     0.037 C 
BRANCH  24  25
ATOM     25  C   UNL     1       3.373   2.679  -0.083  1.00  0.00     0.124 C 
BRANCH  25  26
ATOM     26  S   UNL     1       4.998   2.319   0.592  1.00  0.00     0.095 S 
ATOM     27  O   UNL     1       5.178   3.123   1.756  1.00  0.00    -0.243 OA
ATOM     28  O   UNL     1       5.209   0.880   0.638  1.00  0.00    -0.243 OA
ATOM     29  O   UNL     1       6.022   2.952  -0.464  1.00  0.00    -0.748 OA
ENDBRANCH  25  26
ENDBRANCH  24  25
ENDBRANCH  23  24
ENDBRANCH  16  23
ENDBRANCH   6   7
ENDBRANCH   4   6
ENDBRANCH   1   2
BRANCH   1  30
ATOM     30  C   UNL     1       2.334   0.399   3.675  1.00  0.00     0.023 C 
BRANCH  30  31
ATOM     31  C   UNL     1       3.642   1.036   4.195  1.00  0.00     0.023 C 
BRANCH  31  32
ATOM     32  C   UNL     1       3.880   2.545   4.041  1.00  0.00     0.116 C 
BRANCH  32  33
ATOM     33  N   UNL     1       3.561   3.465   5.122  1.00  0.00    -0.352 N 
ATOM     34  C   UNL     1       4.353   4.470   5.672  1.00  0.00     0.251 C 
ATOM     35  H   UNL     1       2.665   3.363   5.518  1.00  0.00     0.163 HD
ATOM     36  O   UNL     1       3.820   5.315   6.391  1.00  0.00    -0.269 OA
BRANCH  34  37
ATOM     37  C   UNL     1       5.838   4.506   5.506  1.00  0.00     0.039 A 
ATOM     38  C   UNL     1       6.482   4.495   4.269  1.00  0.00     0.014 A 
ATOM     39  C   UNL     1       6.626   4.572   6.661  1.00  0.00     0.014 A 
ATOM     40  C   UNL     1       7.873   4.322   4.188  1.00  0.00     0.010 A 
ATOM     41  C   UNL     1       8.025   4.481   6.580  1.00  0.00     0.010 A 
ATOM     42  C   UNL     1       8.663   4.274   5.347  1.00  0.00    -0.014 A 
BRANCH  42  43
ATOM     43  C   UNL     1      10.130   3.977   5.280  1.00  0.00     0.031 A 
ATOM     44  C   UNL     1      10.692   2.734   5.933  1.00  0.00     0.074 A 
ATOM     45  C   UNL     1      10.974   4.810   4.639  1.00  0.00     0.049 A 
ATOM     46  N   UNL     1      11.933   2.314   5.986  1.00  0.00    -0.248 NA
ATOM     47  C   UNL     1       9.739   1.851   6.622  1.00  0.00     0.031 C 
ATOM     48  C   UNL     1      10.576   6.045   3.968  1.00  0.00     0.029 A 
ATOM     49  N   UNL     1      12.336   4.749   4.445  1.00  0.00    -0.354 N 
ATOM     50  C   UNL     1      11.913   1.142   6.738  1.00  0.00     0.074 A 
ATOM     51  C   UNL     1      10.541   0.934   7.146  1.00  0.00     0.031 C 
ATOM     52  C   UNL     1      11.657   6.606   3.408  1.00  0.00     0.029 A 
ATOM     53  C   UNL     1      12.842   5.810   3.729  1.00  0.00     0.049 A 
ATOM     54  H   UNL     1      12.896   4.014   4.787  1.00  0.00     0.167 HD
ATOM     55  C   UNL     1      12.937   0.309   7.048  1.00  0.00     0.034 A 
ATOM     56  C   UNL     1      14.109   6.125   3.378  1.00  0.00     0.034 A 
ATOM     57  C   UNL     1      14.298   0.505   6.610  1.00  0.00     0.049 A 
ATOM     58  C   UNL     1      15.239   5.198   3.751  1.00  0.00     0.074 A 
ATOM     59  C   UNL     1      15.383  -0.333   6.809  1.00  0.00     0.029 A 
ATOM     60  N   UNL     1      14.770   1.602   5.906  1.00  0.00    -0.354 N 
ATOM     61  N   UNL     1      15.187   4.051   4.386  1.00  0.00    -0.248 NA
ATOM     62  C   UNL     1      16.598   5.598   3.357  1.00  0.00     0.031 C 
ATOM     63  C   UNL     1      16.522   0.301   6.316  1.00  0.00     0.029 A 
ATOM     64  C   UNL     1      16.138   1.486   5.709  1.00  0.00     0.049 A 
ATOM     65  H   UNL     1      14.216   2.353   5.591  1.00  0.00     0.167 HD
ATOM     66  C   UNL     1      16.498   3.582   4.446  1.00  0.00     0.074 A 
ATOM     67  C   UNL     1      17.318   4.559   3.761  1.00  0.00     0.031 C 
ATOM     68  C   UNL     1      16.969   2.445   5.018  1.00  0.00     0.034 A 
BRANCH  55  69
ATOM     69  C   UNL     1      12.662  -0.908   7.905  1.00  0.00     0.023 A 
ATOM     70  C   UNL     1      13.337  -1.062   9.133  1.00  0.00     0.031 A 
ATOM     71  C   UNL     1      11.867  -1.976   7.451  1.00  0.00     0.131 A 
ATOM     72  C   UNL     1      13.239  -2.267   9.841  1.00  0.00     0.055 A 
ATOM     73  C   UNL     1      11.729  -3.154   8.188  1.00  0.00     0.041 A 
ATOM     74  F   UNL     1      11.211  -1.890   6.282  1.00  0.00    -0.206 F 
ATOM     75  C   UNL     1      12.429  -3.310   9.380  1.00  0.00     0.022 A 
BRANCH  72  76
ATOM     76  S   UNL     1      14.227  -2.564  11.333  1.00  0.00     0.124 S 
ATOM     77  O   UNL     1      13.191  -2.789  12.338  1.00  0.00    -0.237 OA
ATOM     78  O   UNL     1      14.998  -3.746  10.957  1.00  0.00    -0.237 OA
ATOM     79  O   UNL     1      14.995  -1.335  11.496  1.00  0.00    -0.744 OA
ENDBRANCH  72  76
ENDBRANCH  55  69
BRANCH  56  80
ATOM     80  C   UNL     1      14.341   7.359   2.568  1.00  0.00     0.023 A 
ATOM     81  C   UNL     1      13.992   8.627   3.068  1.00  0.00     0.031 A 
ATOM     82  C   UNL     1      14.777   7.271   1.235  1.00  0.00     0.131 A 
ATOM     83  C   UNL     1      13.985   9.735   2.210  1.00  0.00     0.055 A 
ATOM     84  C   UNL     1      14.850   8.394   0.409  1.00  0.00     0.041 A 
ATOM     85  F   UNL     1      15.116   6.083   0.712  1.00  0.00    -0.206 F 
ATOM     86  C   UNL     1      14.429   9.630   0.889  1.00  0.00     0.022 A 
BRANCH  83  87
ATOM     87  S   UNL     1      13.248  11.308   2.735  1.00  0.00     0.124 S 
ATOM     88  O   UNL     1      14.335  12.252   2.496  1.00  0.00    -0.237 OA
ATOM     89  O   UNL     1      12.108  11.414   1.826  1.00  0.00    -0.237 OA
ATOM     90  O   UNL     1      12.907  11.079   4.135  1.00  0.00    -0.744 OA
ENDBRANCH  83  87
ENDBRANCH  56  80
BRANCH  68  91
ATOM     91  C   UNL     1      18.450   2.140   4.948  1.00  0.00     0.023 A 
ATOM     92  C   UNL     1      18.893   0.951   4.332  1.00  0.00     0.031 A 
ATOM     93  C   UNL     1      19.398   2.917   5.636  1.00  0.00     0.131 A 
ATOM     94  C   UNL     1      20.227   0.544   4.468  1.00  0.00     0.055 A 
ATOM     95  C   UNL     1      20.740   2.538   5.718  1.00  0.00     0.041 A 
ATOM     96  F   UNL     1      19.031   4.052   6.253  1.00  0.00    -0.206 F 
ATOM     97  C   UNL     1      21.155   1.337   5.149  1.00  0.00     0.022 A 
BRANCH  94  98
ATOM     98  S   UNL     1      20.778  -1.077   3.866  1.00  0.00     0.124 S 
ATOM     99  O   UNL     1      21.822  -0.707   2.913  1.00  0.00    -0.237 OA
ATOM    100  O   UNL     1      21.252  -1.714   5.092  1.00  0.00    -0.237 OA
ATOM    101  O   UNL     1      19.578  -1.661   3.277  1.00  0.00    -0.744 OA
ENDBRANCH  94  98
ENDBRANCH  68  91
ENDBRANCH  42  43
ENDBRANCH  34  37
ENDBRANCH  32  33
ENDBRANCH  31  32
ENDBRANCH  30  31
ENDBRANCH   1  30
TORSDOF 19
