REMARK SMILES Cc1cc(C)n([C@@H](C(=O)NCCCCNC(=O)c2ccc(-c3c4nc(c(-c5cc(S(=O)(=O)[O-])ccc5F)c5ccc([nH]5)c(-c5cc(S(=O)(=O)[O-])ccc5F)c5nc(c(-c6cc(S(=O)(=O)[O-])ccc6F)c6ccc3[nH]6)C=C5)C=C4)cc2)C(C)C)n1
REMARK SMILES IDX 13 1 12 2 11 3 10 4 8 5 9 6 7 8 6 9 1 10 2 11 3 12 84 13
REMARK SMILES IDX 4 14 5 15 81 16 82 17 83 18 14 19 15 20 16 21 17 23 18 24
REMARK SMILES IDX 19 25 80 26 20 27 79 28 21 29 22 30 23 31 73 32 24 33 78 34
REMARK SMILES IDX 72 35 74 36 25 37 77 38 71 39 70 40 26 42 58 43 38 44 57 45
REMARK SMILES IDX 39 46 42 47 56 48 75 49 40 50 41 51 55 53 76 54 43 55 27 56
REMARK SMILES IDX 28 57 36 58 29 59 35 60 37 61 34 62 30 63 31 64 32 65 33 66
REMARK SMILES IDX 59 67 60 68 68 69 61 70 67 71 69 72 66 73 62 74 63 75 64 76
REMARK SMILES IDX 65 77 44 78 45 79 53 80 46 81 52 82 54 83 51 84 47 85 48 86
REMARK SMILES IDX 49 87 50 88
REMARK H PARENT 10 7 15 22 74 41 42 52
REMARK Flexibility Score: inf
ROOT
ATOM      1  C   UNL     1      -4.444  -0.115   1.381  1.00  0.00     0.023 C 
ENDROOT
BRANCH   1   2
ATOM      2  C   UNL     1      -3.052   0.532   1.445  1.00  0.00     0.023 C 
BRANCH   2   3
ATOM      3  C   UNL     1      -2.879   1.679   2.452  1.00  0.00     0.116 C 
BRANCH   3   4
ATOM      4  N   UNL     1      -3.015   1.222   3.827  1.00  0.00    -0.354 N 
ATOM      5  C   UNL     1      -2.045   0.894   4.737  1.00  0.00     0.245 C 
ATOM      6  O   UNL     1      -2.417   0.366   5.789  1.00  0.00    -0.273 OA
ATOM      7  H   UNL     1      -3.941   1.137   4.151  1.00  0.00     0.163 HD
BRANCH   5   8
ATOM      8  C   UNL     1      -0.566   1.185   4.444  1.00  0.00     0.199 C 
BRANCH   8   9
ATOM      9  N   UNL     1      -0.086   0.291   3.383  1.00  0.00    -0.257 N 
ATOM     10  C   UNL     1       1.039   0.090   0.025  1.00  0.00     0.069 C 
ATOM     11  C   UNL     1       0.613  -0.160   1.422  1.00  0.00     0.060 A 
ATOM     12  C   UNL     1       0.363  -1.396   2.050  1.00  0.00     0.048 A 
ATOM     13  N   UNL     1       0.397   0.861   2.253  1.00  0.00    -0.177 NA
ATOM     14  C   UNL     1      -0.083  -1.085   3.319  1.00  0.00     0.037 A 
ATOM     15  C   UNL     1      -0.530  -1.994   4.404  1.00  0.00     0.066 C 
ENDBRANCH   8   9
BRANCH   8  16
ATOM     16  C   UNL     1       0.350   1.148   5.703  1.00  0.00     0.017 C 
ATOM     17  C   UNL     1       1.811   1.470   5.349  1.00  0.00     0.010 C 
ATOM     18  C   UNL     1      -0.100   2.140   6.787  1.00  0.00     0.010 C 
ENDBRANCH   8  16
ENDBRANCH   5   8
ENDBRANCH   3   4
ENDBRANCH   2   3
ENDBRANCH   1   2
BRANCH   1  19
ATOM     19  C   UNL     1      -5.550   0.820   0.923  1.00  0.00     0.116 C 
BRANCH  19  20
ATOM     20  N   UNL     1      -5.382   1.284  -0.458  1.00  0.00    -0.352 N 
ATOM     21  C   UNL     1      -6.194   2.164  -1.167  1.00  0.00     0.251 C 
ATOM     22  H   UNL     1      -4.600   0.931  -0.942  1.00  0.00     0.163 HD
ATOM     23  O   UNL     1      -6.205   2.169  -2.386  1.00  0.00    -0.269 OA
BRANCH  21  24
ATOM     24  C   UNL     1      -7.018   3.109  -0.388  1.00  0.00     0.039 A 
ATOM     25  C   UNL     1      -8.330   3.460  -0.723  1.00  0.00     0.014 A 
ATOM     26  C   UNL     1      -6.423   3.606   0.763  1.00  0.00     0.014 A 
ATOM     27  C   UNL     1      -9.047   4.275   0.158  1.00  0.00     0.010 A 
ATOM     28  C   UNL     1      -7.201   4.160   1.730  1.00  0.00     0.010 A 
ATOM     29  C   UNL     1      -8.465   4.615   1.387  1.00  0.00    -0.014 A 
BRANCH  29  30
ATOM     30  C   UNL     1      -9.130   5.388   2.426  1.00  0.00     0.031 A 
ATOM     31  C   UNL     1     -10.296   4.697   3.039  1.00  0.00     0.074 A 
ATOM     32  C   UNL     1      -8.500   6.445   2.995  1.00  0.00     0.049 A 
ATOM     33  N   UNL     1     -11.540   5.037   2.985  1.00  0.00    -0.248 NA
ATOM     34  C   UNL     1     -10.079   3.365   3.634  1.00  0.00     0.031 C 
ATOM     35  C   UNL     1      -7.170   6.992   2.679  1.00  0.00     0.029 A 
ATOM     36  N   UNL     1      -8.852   7.179   4.081  1.00  0.00    -0.354 N 
ATOM     37  C   UNL     1     -12.223   4.104   3.761  1.00  0.00     0.074 A 
ATOM     38  C   UNL     1     -11.331   2.988   3.900  1.00  0.00     0.031 C 
ATOM     39  C   UNL     1      -6.746   7.790   3.686  1.00  0.00     0.029 A 
ATOM     40  C   UNL     1      -7.828   7.947   4.641  1.00  0.00     0.049 A 
ATOM     41  H   UNL     1      -9.765   7.172   4.449  1.00  0.00     0.167 HD
ATOM     42  C   UNL     1     -13.348   4.447   4.450  1.00  0.00     0.034 A 
ATOM     43  C   UNL     1      -7.862   8.642   5.815  1.00  0.00     0.034 A 
ATOM     44  C   UNL     1     -13.853   5.723   3.987  1.00  0.00     0.049 A 
ATOM     45  C   UNL     1      -9.302   8.819   6.141  1.00  0.00     0.074 A 
ATOM     46  C   UNL     1     -14.299   6.200   2.769  1.00  0.00     0.029 A 
ATOM     47  N   UNL     1     -13.539   6.844   4.727  1.00  0.00    -0.354 N 
ATOM     48  N   UNL     1     -10.116   9.517   5.392  1.00  0.00    -0.248 NA
ATOM     49  C   UNL     1      -9.942   7.797   6.958  1.00  0.00     0.031 C 
ATOM     50  C   UNL     1     -13.736   7.507   2.663  1.00  0.00     0.029 A 
ATOM     51  C   UNL     1     -13.073   7.802   3.858  1.00  0.00     0.049 A 
ATOM     52  H   UNL     1     -13.632   6.940   5.703  1.00  0.00     0.167 HD
ATOM     53  C   UNL     1     -11.273   8.755   5.305  1.00  0.00     0.074 A 
ATOM     54  C   UNL     1     -11.139   7.747   6.360  1.00  0.00     0.031 C 
ATOM     55  C   UNL     1     -12.078   8.806   4.200  1.00  0.00     0.034 A 
BRANCH  42  56
ATOM     56  C   UNL     1     -13.789   3.850   5.773  1.00  0.00     0.023 A 
ATOM     57  C   UNL     1     -14.967   4.370   6.345  1.00  0.00     0.031 A 
ATOM     58  C   UNL     1     -13.016   3.024   6.622  1.00  0.00     0.131 A 
ATOM     59  C   UNL     1     -15.268   4.165   7.703  1.00  0.00     0.055 A 
ATOM     60  C   UNL     1     -13.355   2.769   7.955  1.00  0.00     0.041 A 
ATOM     61  F   UNL     1     -11.849   2.486   6.255  1.00  0.00    -0.206 F 
ATOM     62  C   UNL     1     -14.467   3.369   8.514  1.00  0.00     0.022 A 
BRANCH  59  63
ATOM     63  S   UNL     1     -16.627   5.113   8.433  1.00  0.00     0.124 S 
ATOM     64  O   UNL     1     -16.270   6.477   8.057  1.00  0.00    -0.237 OA
ATOM     65  O   UNL     1     -17.787   4.540   7.758  1.00  0.00    -0.237 OA
ATOM     66  O   UNL     1     -16.522   4.811   9.858  1.00  0.00    -0.744 OA
ENDBRANCH  59  63
ENDBRANCH  42  56
BRANCH  43  67
ATOM     67  C   UNL     1      -6.754   8.808   6.809  1.00  0.00     0.023 A 
ATOM     68  C   UNL     1      -6.689   9.848   7.767  1.00  0.00     0.031 A 
ATOM     69  C   UNL     1      -5.823   7.754   6.969  1.00  0.00     0.131 A 
ATOM     70  C   UNL     1      -5.723   9.806   8.810  1.00  0.00     0.055 A 
ATOM     71  C   UNL     1      -4.880   7.716   8.000  1.00  0.00     0.041 A 
ATOM     72  F   UNL     1      -5.856   6.677   6.168  1.00  0.00    -0.206 F 
ATOM     73  C   UNL     1      -4.829   8.740   8.930  1.00  0.00     0.022 A 
BRANCH  70  74
ATOM     74  S   UNL     1      -5.644  11.117  10.084  1.00  0.00     0.124 S 
ATOM     75  O   UNL     1      -5.290  12.295   9.301  1.00  0.00    -0.237 OA
ATOM     76  O   UNL     1      -6.990  11.091  10.645  1.00  0.00    -0.237 OA
ATOM     77  O   UNL     1      -4.596  10.651  10.994  1.00  0.00    -0.744 OA
ENDBRANCH  70  74
ENDBRANCH  43  67
BRANCH  55  78
ATOM     78  C   UNL     1     -11.796   9.872   3.151  1.00  0.00     0.023 A 
ATOM     79  C   UNL     1     -10.592   9.995   2.414  1.00  0.00     0.031 A 
ATOM     80  C   UNL     1     -12.863  10.712   2.788  1.00  0.00     0.131 A 
ATOM     81  C   UNL     1     -10.494  10.936   1.366  1.00  0.00     0.055 A 
ATOM     82  C   UNL     1     -12.770  11.623   1.737  1.00  0.00     0.041 A 
ATOM     83  F   UNL     1     -14.041  10.627   3.428  1.00  0.00    -0.206 F 
ATOM     84  C   UNL     1     -11.584  11.742   1.024  1.00  0.00     0.022 A 
BRANCH  81  85
ATOM     85  S   UNL     1      -8.939  11.142   0.431  1.00  0.00     0.124 S 
ATOM     86  O   UNL     1      -7.933  11.293   1.475  1.00  0.00    -0.237 OA
ATOM     87  O   UNL     1      -8.871   9.909  -0.350  1.00  0.00    -0.237 OA
ATOM     88  O   UNL     1      -9.177  12.349  -0.364  1.00  0.00    -0.744 OA
ENDBRANCH  81  85
ENDBRANCH  55  78
ENDBRANCH  29  30
ENDBRANCH  21  24
ENDBRANCH  19  20
ENDBRANCH   1  19
TORSDOF 16
