REMARK SMILES COC(=O)c1ccc(C)c(NC(=O)[C@H]2CC=CC[C@H]2C(=O)NCCCCNC(=O)c2ccc(-c3c4nc(c(-c5cc(S(=O)(=O)[O-])ccc5F)c5ccc([nH]5)c(-c5cc(S(=O)(=O)[O-])ccc5F)c5nc(c(-c6cc(S(=O)(=O)[O-])ccc6F)c6ccc3[nH]6)C=C5)C=C4)cc2)c1
REMARK SMILES IDX 24 1 23 2 22 3 20 4 21 5 19 7 14 8 15 9 16 10 18 11 17 12
REMARK SMILES IDX 12 13 11 14 13 16 10 17 5 18 6 19 93 20 7 21 8 22 9 23 3 24
REMARK SMILES IDX 4 25 2 26 1 27 25 28 26 29 27 30 28 31 29 33 30 34 31 35
REMARK SMILES IDX 92 36 32 37 91 38 33 39 34 40 35 41 85 42 36 43 90 44 84 45
REMARK SMILES IDX 86 46 37 47 89 48 83 49 82 50 38 52 70 53 50 54 69 55 51 56
REMARK SMILES IDX 54 57 68 58 87 59 52 60 53 61 67 63 88 64 55 65 39 66 40 67
REMARK SMILES IDX 48 68 41 69 47 70 49 71 46 72 42 73 43 74 44 75 45 76 71 77
REMARK SMILES IDX 72 78 80 79 73 80 79 81 81 82 78 83 74 84 75 85 76 86 77 87
REMARK SMILES IDX 56 88 57 89 65 90 58 91 64 92 66 93 63 94 59 95 60 96 61 97
REMARK SMILES IDX 62 98
REMARK H PARENT 22 6 11 15 27 32 86 51 54 62
REMARK Flexibility Score: inf
ROOT
ATOM      1  C   UNL     1       6.331   1.271  -0.157  1.00  0.00     0.023 C 
ENDROOT
BRANCH   1   2
ATOM      2  C   UNL     1       7.781   1.661   0.130  1.00  0.00     0.116 C 
BRANCH   2   3
ATOM      3  N   UNL     1       7.919   2.212   1.472  1.00  0.00    -0.356 N 
ATOM      4  C   UNL     1       8.315   1.660   2.644  1.00  0.00     0.224 C 
ATOM      5  O   UNL     1       8.133   2.343   3.663  1.00  0.00    -0.275 OA
ATOM      6  H   UNL     1       7.681   3.165   1.540  1.00  0.00     0.163 HD
BRANCH   4   7
ATOM      7  C   UNL     1       8.921   0.268   2.792  1.00  0.00     0.095 C 
ATOM      8  C   UNL     1       7.895  -0.863   2.996  1.00  0.00     0.095 C 
ATOM      9  C   UNL     1       8.616  -2.170   3.400  1.00  0.00     0.041 C 
ATOM     10  C   UNL     1       9.905  -2.421   2.669  1.00  0.00    -0.030 C 
ATOM     11  C   UNL     1      10.145  -0.038   1.925  1.00  0.00     0.041 C 
ATOM     12  C   UNL     1      10.577  -1.473   2.002  1.00  0.00    -0.030 C 
BRANCH   8  13
ATOM     13  C   UNL     1       7.012  -1.239   1.831  1.00  0.00     0.228 C 
ATOM     14  N   UNL     1       5.650  -1.220   1.858  1.00  0.00    -0.326 N 
ATOM     15  H   UNL     1       5.272  -1.622   1.042  1.00  0.00     0.169 HD
ATOM     16  O   UNL     1       7.502  -1.604   0.759  1.00  0.00    -0.274 OA
BRANCH  14  17
ATOM     17  C   UNL     1       4.633  -0.784   2.729  1.00  0.00     0.044 A 
ATOM     18  C   UNL     1       2.394   0.248   2.720  1.00  0.00     0.062 A 
ATOM     19  C   UNL     1       2.361   0.212   4.107  1.00  0.00     0.016 A 
ATOM     20  C   UNL     1       3.527  -0.238   2.050  1.00  0.00     0.042 A 
ATOM     21  C   UNL     1       3.436  -0.350   4.797  1.00  0.00     0.006 A 
ATOM     22  C   UNL     1       4.553  -0.903   4.122  1.00  0.00    -0.027 A 
ATOM     23  C   UNL     1       5.497  -1.695   4.976  1.00  0.00     0.046 C 
BRANCH  18  24
ATOM     24  C   UNL     1       1.183   0.665   1.968  1.00  0.00     0.337 C 
ATOM     25  O   UNL     1       0.061   0.746   2.452  1.00  0.00    -0.246 OA
BRANCH  24  26
ATOM     26  O   UNL     1       1.487   0.793   0.657  1.00  0.00    -0.465 OA
ATOM     27  C   UNL     1       0.699  -0.030  -0.200  1.00  0.00     0.282 C 
ENDBRANCH  24  26
ENDBRANCH  18  24
ENDBRANCH  14  17
ENDBRANCH   8  13
ENDBRANCH   4   7
ENDBRANCH   2   3
ENDBRANCH   1   2
BRANCH   1  28
ATOM     28  C   UNL     1       5.348   2.390  -0.445  1.00  0.00     0.023 C 
BRANCH  28  29
ATOM     29  C   UNL     1       5.611   3.114  -1.744  1.00  0.00     0.116 C 
BRANCH  29  30
ATOM     30  N   UNL     1       5.108   2.478  -2.956  1.00  0.00    -0.352 N 
ATOM     31  C   UNL     1       5.190   2.948  -4.263  1.00  0.00     0.251 C 
ATOM     32  H   UNL     1       4.655   1.613  -2.835  1.00  0.00     0.163 HD
ATOM     33  O   UNL     1       4.615   2.382  -5.186  1.00  0.00    -0.269 OA
BRANCH  31  34
ATOM     34  C   UNL     1       6.114   4.077  -4.550  1.00  0.00     0.039 A 
ATOM     35  C   UNL     1       7.136   3.841  -5.477  1.00  0.00     0.014 A 
ATOM     36  C   UNL     1       6.211   5.128  -3.651  1.00  0.00     0.014 A 
ATOM     37  C   UNL     1       8.374   4.445  -5.284  1.00  0.00     0.010 A 
ATOM     38  C   UNL     1       7.475   5.573  -3.342  1.00  0.00     0.010 A 
ATOM     39  C   UNL     1       8.569   5.186  -4.124  1.00  0.00    -0.014 A 
BRANCH  39  40
ATOM     40  C   UNL     1       9.874   5.562  -3.597  1.00  0.00     0.031 A 
ATOM     41  C   UNL     1      10.233   6.992  -3.549  1.00  0.00     0.074 A 
ATOM     42  C   UNL     1      10.691   4.639  -3.042  1.00  0.00     0.049 A 
ATOM     43  N   UNL     1      11.428   7.436  -3.381  1.00  0.00    -0.248 NA
ATOM     44  C   UNL     1       9.257   8.056  -3.747  1.00  0.00     0.031 C 
ATOM     45  C   UNL     1      11.864   4.880  -2.204  1.00  0.00     0.029 A 
ATOM     46  N   UNL     1      10.764   3.281  -3.352  1.00  0.00    -0.354 N 
ATOM     47  C   UNL     1      11.346   8.787  -3.135  1.00  0.00     0.074 A 
ATOM     48  C   UNL     1       9.987   9.134  -3.462  1.00  0.00     0.031 C 
ATOM     49  C   UNL     1      12.685   3.823  -2.290  1.00  0.00     0.029 A 
ATOM     50  C   UNL     1      12.133   2.935  -3.293  1.00  0.00     0.049 A 
ATOM     51  H   UNL     1      10.013   2.683  -3.569  1.00  0.00     0.167 HD
ATOM     52  C   UNL     1      12.415   9.404  -2.559  1.00  0.00     0.034 A 
ATOM     53  C   UNL     1      12.789   2.497  -4.407  1.00  0.00     0.034 A 
ATOM     54  C   UNL     1      13.580   8.506  -2.522  1.00  0.00     0.049 A 
ATOM     55  C   UNL     1      13.933   3.392  -4.840  1.00  0.00     0.074 A 
ATOM     56  C   UNL     1      14.236   7.794  -1.531  1.00  0.00     0.029 A 
ATOM     57  N   UNL     1      14.070   8.013  -3.726  1.00  0.00    -0.354 N 
ATOM     58  N   UNL     1      14.201   4.561  -4.320  1.00  0.00    -0.248 NA
ATOM     59  C   UNL     1      14.838   3.061  -5.934  1.00  0.00     0.031 C 
ATOM     60  C   UNL     1      15.117   6.864  -2.160  1.00  0.00     0.029 A 
ATOM     61  C   UNL     1      15.020   7.031  -3.530  1.00  0.00     0.049 A 
ATOM     62  H   UNL     1      13.774   8.326  -4.611  1.00  0.00     0.167 HD
ATOM     63  C   UNL     1      15.235   5.159  -5.003  1.00  0.00     0.074 A 
ATOM     64  C   UNL     1      15.593   4.172  -6.010  1.00  0.00     0.031 C 
ATOM     65  C   UNL     1      15.670   6.424  -4.691  1.00  0.00     0.034 A 
BRANCH  52  66
ATOM     66  C   UNL     1      12.354  10.723  -1.810  1.00  0.00     0.023 A 
ATOM     67  C   UNL     1      13.370  11.017  -0.875  1.00  0.00     0.031 A 
ATOM     68  C   UNL     1      11.331  11.691  -1.887  1.00  0.00     0.131 A 
ATOM     69  C   UNL     1      13.299  12.141  -0.029  1.00  0.00     0.055 A 
ATOM     70  C   UNL     1      11.237  12.790  -1.022  1.00  0.00     0.041 A 
ATOM     71  F   UNL     1      10.389  11.670  -2.833  1.00  0.00    -0.206 F 
ATOM     72  C   UNL     1      12.219  13.015  -0.077  1.00  0.00     0.022 A 
BRANCH  69  73
ATOM     73  S   UNL     1      14.639  12.444   1.151  1.00  0.00     0.124 S 
ATOM     74  O   UNL     1      14.597  11.243   1.979  1.00  0.00    -0.237 OA
ATOM     75  O   UNL     1      15.796  12.588   0.275  1.00  0.00    -0.237 OA
ATOM     76  O   UNL     1      14.223  13.673   1.827  1.00  0.00    -0.744 OA
ENDBRANCH  69  73
ENDBRANCH  52  66
BRANCH  53  77
ATOM     77  C   UNL     1      11.901   1.678  -5.289  1.00  0.00     0.023 A 
ATOM     78  C   UNL     1      11.307   0.547  -4.685  1.00  0.00     0.031 A 
ATOM     79  C   UNL     1      11.278   2.213  -6.424  1.00  0.00     0.131 A 
ATOM     80  C   UNL     1      10.020   0.142  -5.064  1.00  0.00     0.055 A 
ATOM     81  C   UNL     1      10.039   1.727  -6.869  1.00  0.00     0.041 A 
ATOM     82  F   UNL     1      11.772   3.307  -7.023  1.00  0.00    -0.206 F 
ATOM     83  C   UNL     1       9.376   0.729  -6.152  1.00  0.00     0.022 A 
BRANCH  80  84
ATOM     84  S   UNL     1       9.085  -0.896  -3.894  1.00  0.00     0.124 S 
ATOM     85  O   UNL     1       9.582  -2.229  -4.214  1.00  0.00    -0.237 OA
ATOM     86  O   UNL     1       9.495  -0.342  -2.604  1.00  0.00    -0.237 OA
ATOM     87  O   UNL     1       7.690  -0.638  -4.243  1.00  0.00    -0.744 OA
ENDBRANCH  80  84
ENDBRANCH  53  77
BRANCH  65  88
ATOM     88  C   UNL     1      16.726   7.240  -5.436  1.00  0.00     0.023 A 
ATOM     89  C   UNL     1      17.676   6.685  -6.304  1.00  0.00     0.031 A 
ATOM     90  C   UNL     1      16.833   8.648  -5.262  1.00  0.00     0.131 A 
ATOM     91  C   UNL     1      18.598   7.494  -7.004  1.00  0.00     0.055 A 
ATOM     92  C   UNL     1      17.771   9.445  -5.927  1.00  0.00     0.041 A 
ATOM     93  F   UNL     1      16.025   9.336  -4.445  1.00  0.00    -0.206 F 
ATOM     94  C   UNL     1      18.653   8.871  -6.820  1.00  0.00     0.022 A 
BRANCH  91  95
ATOM     95  S   UNL     1      19.724   6.699  -8.181  1.00  0.00     0.124 S 
ATOM     96  O   UNL     1      20.395   5.707  -7.347  1.00  0.00    -0.237 OA
ATOM     97  O   UNL     1      18.795   6.167  -9.174  1.00  0.00    -0.237 OA
ATOM     98  O   UNL     1      20.570   7.795  -8.647  1.00  0.00    -0.744 OA
ENDBRANCH  91  95
ENDBRANCH  65  88
ENDBRANCH  39  40
ENDBRANCH  31  34
ENDBRANCH  29  30
ENDBRANCH  28  29
ENDBRANCH   1  28
TORSDOF 18
