REMARK SMILES O=C(NCCCCNC(=O)[C@H]1CC=CC[C@@H]1C(=O)NC1CCCCC1)c1ccc(-c2c3nc(c(-c4cc(S(=O)(=O)[O-])ccc4F)c4ccc([nH]4)c(-c4cc(S(=O)(=O)[O-])ccc4F)c4nc(c(-c5cc(S(=O)(=O)[O-])ccc5F)c5ccc2[nH]5)C=C4)C=C3)cc1
REMARK SMILES IDX 5 1 4 2 3 3 1 4 2 5 26 7 27 8 88 9 28 10 87 11 29 12 30 13
REMARK SMILES IDX 31 14 81 15 32 16 86 17 80 18 82 19 33 20 85 21 79 22 78 23
REMARK SMILES IDX 34 25 66 26 46 27 65 28 47 29 50 30 64 31 83 32 48 33 49 34
REMARK SMILES IDX 63 36 84 37 51 38 35 39 36 40 44 41 37 42 43 43 45 44 42 45
REMARK SMILES IDX 38 46 39 47 40 48 41 49 67 50 68 51 76 52 69 53 75 54 77 55
REMARK SMILES IDX 74 56 70 57 71 58 72 59 73 60 52 61 53 62 61 63 54 64 60 65
REMARK SMILES IDX 62 66 59 67 55 68 56 69 57 70 58 71 6 72 7 73 8 74 9 75
REMARK SMILES IDX 10 77 11 78 12 79 16 80 13 81 15 82 14 83 17 84 18 85 19 86
REMARK SMILES IDX 20 88 21 89 25 90 22 91 24 92 23 93
REMARK H PARENT 3 6 82 24 50 35 8 76 19 87
REMARK Flexibility Score: inf
ROOT
ATOM      1  C   UNL     1       5.706   0.045  -2.361  1.00  0.00     0.023 C 
ENDROOT
BRANCH   1   2
ATOM      2  C   UNL     1       5.046   0.143  -0.992  1.00  0.00     0.116 C 
BRANCH   2   3
ATOM      3  N   UNL     1       3.593   0.296  -1.011  1.00  0.00    -0.352 N 
ATOM      4  O   UNL     1       1.486   0.003  -0.217  1.00  0.00    -0.269 OA
ATOM      5  C   UNL     1       2.688  -0.154  -0.066  1.00  0.00     0.251 C 
ATOM      6  H   UNL     1       3.215   0.774  -1.784  1.00  0.00     0.163 HD
BRANCH   5   7
ATOM      7  C   UNL     1       3.224  -0.876   1.108  1.00  0.00     0.039 A 
ATOM      8  C   UNL     1       4.284  -0.318   1.819  1.00  0.00     0.014 A 
ATOM      9  C   UNL     1       2.784  -2.172   1.386  1.00  0.00     0.014 A 
ATOM     10  C   UNL     1       5.052  -1.135   2.630  1.00  0.00     0.010 A 
ATOM     11  C   UNL     1       3.488  -2.953   2.309  1.00  0.00     0.010 A 
ATOM     12  C   UNL     1       4.667  -2.464   2.891  1.00  0.00    -0.014 A 
BRANCH  12  13
ATOM     13  C   UNL     1       5.535  -3.284   3.781  1.00  0.00     0.031 A 
ATOM     14  C   UNL     1       6.216  -4.535   3.288  1.00  0.00     0.074 A 
ATOM     15  C   UNL     1       5.791  -2.815   5.019  1.00  0.00     0.049 A 
ATOM     16  N   UNL     1       7.059  -5.314   3.919  1.00  0.00    -0.248 NA
ATOM     17  C   UNL     1       5.904  -4.980   1.922  1.00  0.00     0.031 C 
ATOM     18  C   UNL     1       5.178  -1.617   5.604  1.00  0.00     0.029 A 
ATOM     19  N   UNL     1       6.663  -3.242   5.985  1.00  0.00    -0.354 N 
ATOM     20  C   UNL     1       7.358  -6.352   3.042  1.00  0.00     0.074 A 
ATOM     21  C   UNL     1       6.585  -6.115   1.841  1.00  0.00     0.031 C 
ATOM     22  C   UNL     1       5.762  -1.352   6.779  1.00  0.00     0.029 A 
ATOM     23  C   UNL     1       6.719  -2.409   7.079  1.00  0.00     0.049 A 
ATOM     24  H   UNL     1       7.198  -4.064   5.905  1.00  0.00     0.167 HD
ATOM     25  C   UNL     1       8.201  -7.401   3.224  1.00  0.00     0.034 A 
ATOM     26  C   UNL     1       7.446  -2.489   8.209  1.00  0.00     0.034 A 
ATOM     27  C   UNL     1       8.977  -7.611   4.425  1.00  0.00     0.049 A 
ATOM     28  C   UNL     1       8.387  -3.648   8.373  1.00  0.00     0.074 A 
ATOM     29  C   UNL     1       9.854  -8.642   4.720  1.00  0.00     0.029 A 
ATOM     30  N   UNL     1       8.979  -6.768   5.529  1.00  0.00    -0.354 N 
ATOM     31  N   UNL     1       8.627  -4.636   7.542  1.00  0.00    -0.248 NA
ATOM     32  C   UNL     1       9.150  -3.705   9.623  1.00  0.00     0.031 C 
ATOM     33  C   UNL     1      10.344  -8.450   6.018  1.00  0.00     0.029 A 
ATOM     34  C   UNL     1       9.826  -7.263   6.510  1.00  0.00     0.049 A 
ATOM     35  H   UNL     1       8.454  -5.938   5.605  1.00  0.00     0.167 HD
ATOM     36  C   UNL     1       9.563  -5.442   8.179  1.00  0.00     0.074 A 
ATOM     37  C   UNL     1       9.880  -4.794   9.437  1.00  0.00     0.031 C 
ATOM     38  C   UNL     1      10.099  -6.621   7.774  1.00  0.00     0.034 A 
BRANCH  25  39
ATOM     39  C   UNL     1       8.291  -8.427   2.118  1.00  0.00     0.023 A 
ATOM     40  C   UNL     1       8.833  -8.119   0.857  1.00  0.00     0.031 A 
ATOM     41  C   UNL     1       7.824  -9.738   2.328  1.00  0.00     0.131 A 
ATOM     42  C   UNL     1       8.845  -9.090  -0.158  1.00  0.00     0.055 A 
ATOM     43  C   UNL     1       7.902 -10.719   1.337  1.00  0.00     0.041 A 
ATOM     44  F   UNL     1       7.277 -10.087   3.504  1.00  0.00    -0.206 F 
ATOM     45  C   UNL     1       8.405 -10.394   0.081  1.00  0.00     0.022 A 
BRANCH  42  46
ATOM     46  S   UNL     1       9.338  -8.594  -1.832  1.00  0.00     0.124 S 
ATOM     47  O   UNL     1       8.350  -7.561  -2.137  1.00  0.00    -0.237 OA
ATOM     48  O   UNL     1      10.706  -8.129  -1.633  1.00  0.00    -0.237 OA
ATOM     49  O   UNL     1       9.203  -9.824  -2.609  1.00  0.00    -0.744 OA
ENDBRANCH  42  46
ENDBRANCH  25  39
BRANCH  26  50
ATOM     50  C   UNL     1       7.269  -1.472   9.284  1.00  0.00     0.023 A 
ATOM     51  C   UNL     1       8.321  -0.629   9.674  1.00  0.00     0.031 A 
ATOM     52  C   UNL     1       6.035  -1.339   9.947  1.00  0.00     0.131 A 
ATOM     53  C   UNL     1       8.128   0.287  10.719  1.00  0.00     0.055 A 
ATOM     54  C   UNL     1       5.831  -0.387  10.945  1.00  0.00     0.041 A 
ATOM     55  F   UNL     1       4.995  -2.118   9.609  1.00  0.00    -0.206 F 
ATOM     56  C   UNL     1       6.886   0.425  11.345  1.00  0.00     0.022 A 
BRANCH  53  57
ATOM     57  S   UNL     1       9.550   1.246  11.308  1.00  0.00     0.124 S 
ATOM     58  O   UNL     1      10.510   0.195  11.623  1.00  0.00    -0.237 OA
ATOM     59  O   UNL     1       9.859   2.071  10.145  1.00  0.00    -0.237 OA
ATOM     60  O   UNL     1       9.017   1.970  12.460  1.00  0.00    -0.744 OA
ENDBRANCH  53  57
ENDBRANCH  26  50
BRANCH  38  61
ATOM     61  C   UNL     1      11.080  -7.265   8.720  1.00  0.00     0.023 A 
ATOM     62  C   UNL     1      10.666  -7.763   9.968  1.00  0.00     0.031 A 
ATOM     63  C   UNL     1      12.446  -7.325   8.400  1.00  0.00     0.131 A 
ATOM     64  C   UNL     1      11.619  -8.230  10.884  1.00  0.00     0.055 A 
ATOM     65  C   UNL     1      13.384  -7.846   9.293  1.00  0.00     0.041 A 
ATOM     66  F   UNL     1      12.894  -6.861   7.223  1.00  0.00    -0.206 F 
ATOM     67  C   UNL     1      12.974  -8.286  10.549  1.00  0.00     0.022 A 
BRANCH  64  68
ATOM     68  S   UNL     1      11.075  -8.652  12.562  1.00  0.00     0.124 S 
ATOM     69  O   UNL     1      10.451  -7.408  13.001  1.00  0.00    -0.237 OA
ATOM     70  O   UNL     1      10.169  -9.771  12.323  1.00  0.00    -0.237 OA
ATOM     71  O   UNL     1      12.319  -8.997  13.248  1.00  0.00    -0.744 OA
ENDBRANCH  64  68
ENDBRANCH  38  61
ENDBRANCH  12  13
ENDBRANCH   5   7
ENDBRANCH   2   3
ENDBRANCH   1   2
BRANCH   1  72
ATOM     72  C   UNL     1       5.388   1.197  -3.305  1.00  0.00     0.023 C 
BRANCH  72  73
ATOM     73  C   UNL     1       5.821   2.578  -2.811  1.00  0.00     0.116 C 
BRANCH  73  74
ATOM     74  N   UNL     1       7.179   2.858  -3.217  1.00  0.00    -0.356 N 
ATOM     75  C   UNL     1       7.687   3.648  -4.200  1.00  0.00     0.224 C 
ATOM     76  H   UNL     1       7.863   2.391  -2.684  1.00  0.00     0.163 HD
ATOM     77  O   UNL     1       8.913   3.618  -4.328  1.00  0.00    -0.275 OA
BRANCH  75  78
ATOM     78  C   UNL     1       6.787   4.537  -5.078  1.00  0.00     0.095 C 
ATOM     79  C   UNL     1       7.317   5.985  -5.016  1.00  0.00     0.041 C 
ATOM     80  C   UNL     1       6.719   4.018  -6.537  1.00  0.00     0.095 C 
ATOM     81  C   UNL     1       8.471   6.258  -5.935  1.00  0.00    -0.030 C 
ATOM     82  C   UNL     1       8.115   4.126  -7.209  1.00  0.00     0.041 C 
ATOM     83  C   UNL     1       8.849   5.408  -6.902  1.00  0.00    -0.030 C 
BRANCH  80  84
ATOM     84  C   UNL     1       5.713   4.813  -7.385  1.00  0.00     0.224 C 
ATOM     85  O   UNL     1       6.066   5.751  -8.110  1.00  0.00    -0.275 OA
ATOM     86  N   UNL     1       4.377   4.592  -7.397  1.00  0.00    -0.353 N 
ATOM     87  H   UNL     1       3.890   5.335  -7.820  1.00  0.00     0.163 HD
BRANCH  86  88
ATOM     88  C   UNL     1       3.463   3.535  -6.944  1.00  0.00     0.082 C 
ATOM     89  C   UNL     1       3.563   3.272  -5.449  1.00  0.00     0.025 C 
ATOM     90  C   UNL     1       2.030   3.965  -7.323  1.00  0.00     0.025 C 
ATOM     91  C   UNL     1       2.445   2.398  -4.887  1.00  0.00     0.002 C 
ATOM     92  C   UNL     1       0.936   3.072  -6.749  1.00  0.00     0.002 C 
ATOM     93  C   UNL     1       1.072   2.936  -5.242  1.00  0.00     0.000 C 
ENDBRANCH  86  88
ENDBRANCH  80  84
ENDBRANCH  75  78
ENDBRANCH  73  74
ENDBRANCH  72  73
ENDBRANCH   1  72
TORSDOF 16
