REMARK SMILES CC[C@@H]1CC[C@](C[C@@H]2CCCc3ccccc32)(C(=O)NCCCCNC(=O)c2ccc(-c3c4nc(c(-c5cc(S(=O)(=O)[O-])ccc5F)c5ccc([nH]5)c(-c5cc(S(=O)(=O)[O-])ccc5F)c5nc(c(-c6cc(S(=O)(=O)[O-])ccc6F)c6ccc3[nH]6)C=C5)C=C4)cc2)C1
REMARK SMILES IDX 23 1 22 2 21 3 20 4 18 5 19 6 6 8 3 9 4 10 91 11 5 12 2 13
REMARK SMILES IDX 1 14 7 15 8 16 9 17 17 18 10 19 12 20 16 21 11 22 13 23
REMARK SMILES IDX 15 24 14 25 24 26 25 27 26 28 27 30 28 31 29 32 90 33 30 34
REMARK SMILES IDX 89 35 31 36 32 37 33 38 83 39 34 40 88 41 82 42 84 43 35 44
REMARK SMILES IDX 87 45 81 46 80 47 36 49 68 50 48 51 67 52 49 53 52 54 66 55
REMARK SMILES IDX 85 56 50 57 51 58 65 60 86 61 53 62 37 63 38 64 46 65 39 66
REMARK SMILES IDX 45 67 47 68 44 69 40 70 41 71 42 72 43 73 69 74 70 75 78 76
REMARK SMILES IDX 71 77 77 78 79 79 76 80 72 81 73 82 74 83 75 84 54 85 55 86
REMARK SMILES IDX 63 87 56 88 62 89 64 90 61 91 57 92 58 93 59 94 60 95
REMARK H PARENT 20 7 25 29 84 48 52 59
REMARK Flexibility Score: inf
ROOT
ATOM      1  C   UNL     1      -4.127   4.754  -2.138  1.00  0.00     0.023 C 
ENDROOT
BRANCH   1   2
ATOM      2  C   UNL     1      -3.370   4.200  -0.934  1.00  0.00     0.023 C 
BRANCH   2   3
ATOM      3  C   UNL     1      -1.939   3.752  -1.198  1.00  0.00     0.116 C 
BRANCH   3   4
ATOM      4  N   UNL     1      -1.023   4.820  -1.548  1.00  0.00    -0.356 N 
ATOM      5  C   UNL     1       0.329   4.947  -1.412  1.00  0.00     0.226 C 
ATOM      6  O   UNL     1       0.823   5.878  -2.062  1.00  0.00    -0.274 OA
ATOM      7  H   UNL     1      -1.459   5.600  -1.961  1.00  0.00     0.163 HD
BRANCH   5   8
ATOM      8  C   UNL     1       1.218   4.068  -0.456  1.00  0.00     0.050 C 
ATOM      9  C   UNL     1       0.700   2.016   0.776  1.00  0.00    -0.010 C 
ATOM     10  C   UNL     1       0.187   3.188   1.605  1.00  0.00     0.005 C 
ATOM     11  C   UNL     1       0.923   2.567  -0.632  1.00  0.00     0.020 C 
ATOM     12  C   UNL     1       0.860   4.418   1.003  1.00  0.00     0.017 C 
BRANCH   9  13
ATOM     13  C   UNL     1      -0.146   0.752   0.867  1.00  0.00     0.000 C 
ATOM     14  C   UNL     1       0.492  -0.393   0.090  1.00  0.00     0.004 C 
ENDBRANCH   9  13
BRANCH   8  15
ATOM     15  C   UNL     1       2.728   4.400  -0.789  1.00  0.00     0.025 C 
BRANCH  15  16
ATOM     16  C   UNL     1       4.008   3.959   0.022  1.00  0.00     0.020 C 
ATOM     17  C   UNL     1       4.146   2.467   0.383  1.00  0.00     0.009 C 
ATOM     18  C   UNL     1       4.512   4.891   1.132  1.00  0.00    -0.042 A 
ATOM     19  C   UNL     1       4.009   2.180   1.875  1.00  0.00     0.005 C 
ATOM     20  C   UNL     1       5.007   4.395   2.360  1.00  0.00    -0.045 A 
ATOM     21  C   UNL     1       4.619   6.273   0.895  1.00  0.00     0.004 A 
ATOM     22  C   UNL     1       5.071   2.920   2.655  1.00  0.00     0.036 C 
ATOM     23  C   UNL     1       5.538   5.273   3.320  1.00  0.00     0.004 A 
ATOM     24  C   UNL     1       5.157   7.136   1.854  1.00  0.00     0.000 A 
ATOM     25  C   UNL     1       5.606   6.638   3.070  1.00  0.00     0.000 A 
ENDBRANCH  15  16
ENDBRANCH   8  15
ENDBRANCH   5   8
ENDBRANCH   3   4
ENDBRANCH   2   3
ENDBRANCH   1   2
BRANCH   1  26
ATOM     26  C   UNL     1      -4.081   3.902  -3.403  1.00  0.00     0.116 C 
BRANCH  26  27
ATOM     27  N   UNL     1      -4.610   2.558  -3.216  1.00  0.00    -0.352 N 
ATOM     28  C   UNL     1      -5.672   1.930  -3.831  1.00  0.00     0.251 C 
ATOM     29  H   UNL     1      -4.136   2.013  -2.547  1.00  0.00     0.163 HD
ATOM     30  O   UNL     1      -6.031   0.827  -3.441  1.00  0.00    -0.269 OA
BRANCH  28  31
ATOM     31  C   UNL     1      -6.400   2.611  -4.926  1.00  0.00     0.039 A 
ATOM     32  C   UNL     1      -7.796   2.635  -4.897  1.00  0.00     0.014 A 
ATOM     33  C   UNL     1      -5.711   3.247  -5.961  1.00  0.00     0.014 A 
ATOM     34  C   UNL     1      -8.496   3.382  -5.850  1.00  0.00     0.010 A 
ATOM     35  C   UNL     1      -6.404   4.060  -6.855  1.00  0.00     0.010 A 
ATOM     36  C   UNL     1      -7.804   4.145  -6.804  1.00  0.00    -0.014 A 
BRANCH  36  37
ATOM     37  C   UNL     1      -8.521   5.042  -7.753  1.00  0.00     0.031 A 
ATOM     38  C   UNL     1      -8.416   4.806  -9.236  1.00  0.00     0.074 A 
ATOM     39  C   UNL     1      -9.206   6.106  -7.284  1.00  0.00     0.049 A 
ATOM     40  N   UNL     1      -8.871   5.533 -10.224  1.00  0.00    -0.248 NA
ATOM     41  C   UNL     1      -7.674   3.610  -9.664  1.00  0.00     0.031 C 
ATOM     42  C   UNL     1      -9.351   6.464  -5.870  1.00  0.00     0.029 A 
ATOM     43  N   UNL     1      -9.901   7.090  -7.944  1.00  0.00    -0.354 N 
ATOM     44  C   UNL     1      -8.463   4.890 -11.388  1.00  0.00     0.074 A 
ATOM     45  C   UNL     1      -7.669   3.750 -10.981  1.00  0.00     0.031 C 
ATOM     46  C   UNL     1     -10.106   7.570  -5.770  1.00  0.00     0.029 A 
ATOM     47  C   UNL     1     -10.457   8.034  -7.108  1.00  0.00     0.049 A 
ATOM     48  H   UNL     1      -9.993   7.119  -8.923  1.00  0.00     0.167 HD
ATOM     49  C   UNL     1      -8.747   5.204 -12.677  1.00  0.00     0.034 A 
ATOM     50  C   UNL     1     -11.154   9.154  -7.389  1.00  0.00     0.034 A 
ATOM     51  C   UNL     1      -9.553   6.333 -13.070  1.00  0.00     0.049 A 
ATOM     52  C   UNL     1     -11.430   9.496  -8.833  1.00  0.00     0.074 A 
ATOM     53  C   UNL     1      -9.931   6.719 -14.344  1.00  0.00     0.029 A 
ATOM     54  N   UNL     1     -10.107   7.258 -12.195  1.00  0.00    -0.354 N 
ATOM     55  N   UNL     1     -11.068   8.852  -9.919  1.00  0.00    -0.248 NA
ATOM     56  C   UNL     1     -12.218  10.709  -9.089  1.00  0.00     0.031 C 
ATOM     57  C   UNL     1     -10.661   7.908 -14.245  1.00  0.00     0.029 A 
ATOM     58  C   UNL     1     -10.804   8.224 -12.904  1.00  0.00     0.049 A 
ATOM     59  H   UNL     1     -10.018   7.232 -11.215  1.00  0.00     0.167 HD
ATOM     60  C   UNL     1     -11.620   9.563 -10.982  1.00  0.00     0.074 A 
ATOM     61  C   UNL     1     -12.351  10.672 -10.406  1.00  0.00     0.031 C 
ATOM     62  C   UNL     1     -11.533   9.322 -12.315  1.00  0.00     0.034 A 
BRANCH  49  63
ATOM     63  C   UNL     1      -8.170   4.316 -13.753  1.00  0.00     0.023 A 
ATOM     64  C   UNL     1      -8.545   2.966 -13.870  1.00  0.00     0.031 A 
ATOM     65  C   UNL     1      -7.233   4.822 -14.671  1.00  0.00     0.131 A 
ATOM     66  C   UNL     1      -7.940   2.153 -14.840  1.00  0.00     0.055 A 
ATOM     67  C   UNL     1      -6.693   4.027 -15.684  1.00  0.00     0.041 A 
ATOM     68  F   UNL     1      -6.822   6.098 -14.595  1.00  0.00    -0.206 F 
ATOM     69  C   UNL     1      -7.037   2.681 -15.765  1.00  0.00     0.022 A 
BRANCH  66  70
ATOM     70  S   UNL     1      -8.261   0.369 -14.797  1.00  0.00     0.124 S 
ATOM     71  O   UNL     1      -7.742   0.009 -13.480  1.00  0.00    -0.237 OA
ATOM     72  O   UNL     1      -9.710   0.304 -14.953  1.00  0.00    -0.237 OA
ATOM     73  O   UNL     1      -7.489  -0.145 -15.927  1.00  0.00    -0.744 OA
ENDBRANCH  66  70
ENDBRANCH  49  63
BRANCH  50  74
ATOM     74  C   UNL     1     -11.633  10.053  -6.297  1.00  0.00     0.023 A 
ATOM     75  C   UNL     1     -13.004  10.290  -6.105  1.00  0.00     0.031 A 
ATOM     76  C   UNL     1     -10.726  10.751  -5.479  1.00  0.00     0.131 A 
ATOM     77  C   UNL     1     -13.427  11.249  -5.172  1.00  0.00     0.055 A 
ATOM     78  C   UNL     1     -11.155  11.657  -4.507  1.00  0.00     0.041 A 
ATOM     79  F   UNL     1      -9.404  10.563  -5.615  1.00  0.00    -0.206 F 
ATOM     80  C   UNL     1     -12.512  11.925  -4.362  1.00  0.00     0.022 A 
BRANCH  77  81
ATOM     81  S   UNL     1     -15.185  11.692  -5.121  1.00  0.00     0.124 S 
ATOM     82  O   UNL     1     -15.435  12.074  -6.506  1.00  0.00    -0.237 OA
ATOM     83  O   UNL     1     -15.798  10.444  -4.678  1.00  0.00    -0.237 OA
ATOM     84  O   UNL     1     -15.232  12.786  -4.153  1.00  0.00    -0.744 OA
ENDBRANCH  77  81
ENDBRANCH  50  74
BRANCH  62  85
ATOM     85  C   UNL     1     -12.300  10.242 -13.232  1.00  0.00     0.023 A 
ATOM     86  C   UNL     1     -11.957  11.598 -13.380  1.00  0.00     0.031 A 
ATOM     87  C   UNL     1     -13.399   9.754 -13.962  1.00  0.00     0.131 A 
ATOM     88  C   UNL     1     -12.741  12.431 -14.193  1.00  0.00     0.055 A 
ATOM     89  C   UNL     1     -14.136  10.573 -14.816  1.00  0.00     0.041 A 
ATOM     90  F   UNL     1     -13.771   8.468 -13.857  1.00  0.00    -0.206 F 
ATOM     91  C   UNL     1     -13.817  11.923 -14.925  1.00  0.00     0.022 A 
BRANCH  88  92
ATOM     92  S   UNL     1     -12.388  14.210 -14.212  1.00  0.00     0.124 S 
ATOM     93  O   UNL     1     -12.545  14.566 -12.805  1.00  0.00    -0.237 OA
ATOM     94  O   UNL     1     -11.025  14.253 -14.731  1.00  0.00    -0.237 OA
ATOM     95  O   UNL     1     -13.409  14.752 -15.107  1.00  0.00    -0.744 OA
ENDBRANCH  88  92
ENDBRANCH  62  85
ENDBRANCH  36  37
ENDBRANCH  28  31
ENDBRANCH  26  27
ENDBRANCH   1  26
TORSDOF 17
