REMARK SMILES O=C(C[C@H](NC(=O)[C@]12C[C@H]3C[C@H](C[C@H](C3)C1)C2)c1cccc([N+](=O)[O-])c1)NCCCCNC(=O)c1ccc(-c2c3nc(c(-c4cc(S(=O)(=O)[O-])ccc4F)c4ccc([nH]4)c(-c4cc(S(=O)(=O)[O-])ccc4F)c4nc(c(-c5cc(S(=O)(=O)[O-])ccc5F)c5ccc2[nH]5)C=C4)C=C3)cc1
REMARK SMILES IDX 29 1 28 2 27 3 1 4 2 5 3 7 4 8 18 9 19 10 26 11 20 12 22 13
REMARK SMILES IDX 21 14 23 15 24 16 25 17 5 18 6 19 7 21 8 22 9 23 16 24 17 25
REMARK SMILES IDX 10 26 14 27 12 28 11 29 15 30 13 31 30 32 31 33 32 34 33 35
REMARK SMILES IDX 34 37 35 38 36 39 97 40 37 41 96 42 38 43 39 44 40 45 90 46
REMARK SMILES IDX 41 47 95 48 89 49 91 50 42 51 94 52 88 53 87 54 43 56 75 57
REMARK SMILES IDX 55 58 74 59 56 60 59 61 73 62 92 63 57 64 58 65 72 67 93 68
REMARK SMILES IDX 60 69 44 70 45 71 53 72 46 73 52 74 54 75 51 76 47 77 48 78
REMARK SMILES IDX 49 79 50 80 76 81 77 82 85 83 78 84 84 85 86 86 83 87 79 88
REMARK SMILES IDX 80 89 81 90 82 91 61 92 62 93 70 94 63 95 69 96 71 97 68 98
REMARK SMILES IDX 64 99 65 100 66 101 67 102
REMARK H PARENT 27 6 5 20 32 36 91 55 59 66
REMARK Flexibility Score: inf
ROOT
ATOM      1  C   UNL     1       4.755   1.298  -3.597  1.00  0.00     0.023 C 
ENDROOT
BRANCH   1   2
ATOM      2  C   UNL     1       5.229   1.816  -2.242  1.00  0.00     0.116 C 
BRANCH   2   3
ATOM      3  N   UNL     1       4.901   0.881  -1.190  1.00  0.00    -0.356 N 
ATOM      4  O   UNL     1       6.898   1.037  -0.056  1.00  0.00    -0.275 OA
ATOM      5  C   UNL     1       5.783   0.556  -0.186  1.00  0.00     0.222 C 
ATOM      6  H   UNL     1       4.011   0.461  -1.192  1.00  0.00     0.163 HD
BRANCH   5   7
ATOM      7  C   UNL     1       5.254  -0.511   0.729  1.00  0.00     0.129 C 
BRANCH   7   8
ATOM      8  C   UNL     1       4.227  -0.026   1.753  1.00  0.00     0.122 C 
BRANCH   8   9
ATOM      9  C   UNL     1       4.776   0.845   2.867  1.00  0.00    -0.018 A 
ATOM     10  C   UNL     1       5.395   0.235   3.972  1.00  0.00     0.006 A 
ATOM     11  C   UNL     1       4.621   2.243   2.870  1.00  0.00     0.091 A 
ATOM     12  C   UNL     1       5.807   0.987   5.074  1.00  0.00     0.007 A 
ATOM     13  C   UNL     1       5.026   2.992   3.984  1.00  0.00     0.269 A 
ATOM     14  C   UNL     1       5.614   2.367   5.090  1.00  0.00     0.085 A 
BRANCH  13  15
ATOM     15  N   UNL     1       4.803   4.444   4.009  1.00  0.00     0.062 N 
ATOM     16  O   UNL     1       5.163   5.064   5.021  1.00  0.00    -0.258 OA
ATOM     17  O   UNL     1       4.269   4.964   3.019  1.00  0.00    -0.258 OA
ENDBRANCH  13  15
ENDBRANCH   8   9
BRANCH   8  18
ATOM     18  N   UNL     1       3.014   0.546   1.179  1.00  0.00    -0.348 N 
ATOM     19  C   UNL     1       1.705   0.537   1.540  1.00  0.00     0.226 C 
ATOM     20  H   UNL     1       3.181   1.049   0.349  1.00  0.00     0.164 HD
ATOM     21  O   UNL     1       0.989   1.258   0.832  1.00  0.00    -0.274 OA
BRANCH  19  22
ATOM     22  C   UNL     1       1.108  -0.211   2.759  1.00  0.00     0.050 C 
ATOM     23  C   UNL     1       1.859  -1.478   3.212  1.00  0.00     0.020 C 
ATOM     24  C   UNL     1      -0.348  -0.627   2.387  1.00  0.00     0.020 C 
ATOM     25  C   UNL     1       1.006   0.746   3.973  1.00  0.00     0.020 C 
ATOM     26  C   UNL     1       1.160  -2.194   4.368  1.00  0.00    -0.010 C 
ATOM     27  C   UNL     1      -1.047  -1.338   3.559  1.00  0.00    -0.010 C 
ATOM     28  C   UNL     1       0.320   0.041   5.166  1.00  0.00    -0.010 C 
ATOM     29  C   UNL     1       1.111  -1.219   5.557  1.00  0.00     0.007 C 
ATOM     30  C   UNL     1      -0.250  -2.593   3.934  1.00  0.00     0.007 C 
ATOM     31  C   UNL     1      -1.102  -0.388   4.767  1.00  0.00     0.007 C 
ENDBRANCH  19  22
ENDBRANCH   8  18
ENDBRANCH   7   8
ENDBRANCH   5   7
ENDBRANCH   2   3
ENDBRANCH   1   2
BRANCH   1  32
ATOM     32  C   UNL     1       3.239   1.111  -3.719  1.00  0.00     0.023 C 
BRANCH  32  33
ATOM     33  C   UNL     1       2.407   2.350  -3.402  1.00  0.00     0.116 C 
BRANCH  33  34
ATOM     34  N   UNL     1       2.734   3.465  -4.275  1.00  0.00    -0.352 N 
ATOM     35  C   UNL     1       1.918   4.193  -5.106  1.00  0.00     0.251 C 
ATOM     36  H   UNL     1       3.680   3.738  -4.271  1.00  0.00     0.163 HD
ATOM     37  O   UNL     1       2.420   4.958  -5.925  1.00  0.00    -0.269 OA
BRANCH  35  38
ATOM     38  C   UNL     1       0.449   4.031  -5.035  1.00  0.00     0.039 A 
ATOM     39  C   UNL     1      -0.279   3.952  -6.224  1.00  0.00     0.014 A 
ATOM     40  C   UNL     1      -0.212   3.961  -3.805  1.00  0.00     0.014 A 
ATOM     41  C   UNL     1      -1.659   3.737  -6.180  1.00  0.00     0.010 A 
ATOM     42  C   UNL     1      -1.573   3.668  -3.763  1.00  0.00     0.010 A 
ATOM     43  C   UNL     1      -2.313   3.553  -4.950  1.00  0.00    -0.014 A 
BRANCH  43  44
ATOM     44  C   UNL     1      -3.765   3.236  -4.891  1.00  0.00     0.031 A 
ATOM     45  C   UNL     1      -4.723   4.188  -4.225  1.00  0.00     0.074 A 
ATOM     46  C   UNL     1      -4.213   2.066  -5.390  1.00  0.00     0.049 A 
ATOM     47  N   UNL     1      -6.010   4.060  -4.021  1.00  0.00    -0.248 NA
ATOM     48  C   UNL     1      -4.153   5.436  -3.697  1.00  0.00     0.031 C 
ATOM     49  C   UNL     1      -3.379   1.048  -6.032  1.00  0.00     0.029 A 
ATOM     50  N   UNL     1      -5.477   1.531  -5.433  1.00  0.00    -0.354 N 
ATOM     51  C   UNL     1      -6.401   5.203  -3.331  1.00  0.00     0.074 A 
ATOM     52  C   UNL     1      -5.203   5.982  -3.101  1.00  0.00     0.031 C 
ATOM     53  C   UNL     1      -4.157   0.029  -6.432  1.00  0.00     0.029 A 
ATOM     54  C   UNL     1      -5.534   0.291  -6.027  1.00  0.00     0.049 A 
ATOM     55  H   UNL     1      -6.269   1.992  -5.073  1.00  0.00     0.167 HD
ATOM     56  C   UNL     1      -7.646   5.576  -2.944  1.00  0.00     0.034 A 
ATOM     57  C   UNL     1      -6.573  -0.548  -6.212  1.00  0.00     0.034 A 
ATOM     58  C   UNL     1      -8.831   4.788  -3.185  1.00  0.00     0.049 A 
ATOM     59  C   UNL     1      -7.941  -0.131  -5.730  1.00  0.00     0.074 A 
ATOM     60  C   UNL     1     -10.146   5.098  -2.885  1.00  0.00     0.029 A 
ATOM     61  N   UNL     1      -8.847   3.528  -3.771  1.00  0.00    -0.354 N 
ATOM     62  N   UNL     1      -8.302   0.978  -5.127  1.00  0.00    -0.248 NA
ATOM     63  C   UNL     1      -9.041  -1.075  -5.962  1.00  0.00     0.031 C 
ATOM     64  C   UNL     1     -10.943   3.995  -3.210  1.00  0.00     0.029 A 
ATOM     65  C   UNL     1     -10.142   3.032  -3.801  1.00  0.00     0.049 A 
ATOM     66  H   UNL     1      -8.054   3.056  -4.113  1.00  0.00     0.167 HD
ATOM     67  C   UNL     1      -9.679   0.878  -4.942  1.00  0.00     0.074 A 
ATOM     68  C   UNL     1     -10.082  -0.392  -5.510  1.00  0.00     0.031 C 
ATOM     69  C   UNL     1     -10.534   1.758  -4.361  1.00  0.00     0.034 A 
BRANCH  56  70
ATOM     70  C   UNL     1      -7.782   6.878  -2.188  1.00  0.00     0.023 A 
ATOM     71  C   UNL     1      -7.430   8.111  -2.766  1.00  0.00     0.031 A 
ATOM     72  C   UNL     1      -8.254   6.886  -0.864  1.00  0.00     0.131 A 
ATOM     73  C   UNL     1      -7.485   9.286  -2.000  1.00  0.00     0.055 A 
ATOM     74  C   UNL     1      -8.388   8.070  -0.135  1.00  0.00     0.041 A 
ATOM     75  F   UNL     1      -8.586   5.740  -0.249  1.00  0.00    -0.206 F 
ATOM     76  C   UNL     1      -7.987   9.278  -0.697  1.00  0.00     0.022 A 
BRANCH  73  77
ATOM     77  S   UNL     1      -6.751  10.799  -2.680  1.00  0.00     0.124 S 
ATOM     78  O   UNL     1      -5.375  10.374  -2.928  1.00  0.00    -0.237 OA
ATOM     79  O   UNL     1      -7.567  11.041  -3.864  1.00  0.00    -0.237 OA
ATOM     80  O   UNL     1      -6.910  11.772  -1.602  1.00  0.00    -0.744 OA
ENDBRANCH  73  77
ENDBRANCH  56  70
BRANCH  57  81
ATOM     81  C   UNL     1      -6.372  -1.873  -6.870  1.00  0.00     0.023 A 
ATOM     82  C   UNL     1      -7.008  -2.182  -8.083  1.00  0.00     0.031 A 
ATOM     83  C   UNL     1      -5.582  -2.870  -6.270  1.00  0.00     0.131 A 
ATOM     84  C   UNL     1      -6.887  -3.469  -8.629  1.00  0.00     0.055 A 
ATOM     85  C   UNL     1      -5.414  -4.129  -6.849  1.00  0.00     0.041 A 
ATOM     86  F   UNL     1      -4.950  -2.630  -5.109  1.00  0.00    -0.206 F 
ATOM     87  C   UNL     1      -6.082  -4.439  -8.029  1.00  0.00     0.022 A 
BRANCH  84  88
ATOM     88  S   UNL     1      -7.883  -3.891 -10.086  1.00  0.00     0.124 S 
ATOM     89  O   UNL     1      -9.236  -3.639  -9.602  1.00  0.00    -0.237 OA
ATOM     90  O   UNL     1      -7.372  -2.957 -11.083  1.00  0.00    -0.237 OA
ATOM     91  O   UNL     1      -7.556  -5.295 -10.325  1.00  0.00    -0.744 OA
ENDBRANCH  84  88
ENDBRANCH  57  81
BRANCH  69  92
ATOM     92  C   UNL     1     -12.001   1.398  -4.359  1.00  0.00     0.023 A 
ATOM     93  C   UNL     1     -12.496   0.293  -3.643  1.00  0.00     0.031 A 
ATOM     94  C   UNL     1     -12.917   2.169  -5.097  1.00  0.00     0.131 A 
ATOM     95  C   UNL     1     -13.856  -0.043  -3.729  1.00  0.00     0.055 A 
ATOM     96  C   UNL     1     -14.280   1.871  -5.121  1.00  0.00     0.041 A 
ATOM     97  F   UNL     1     -12.503   3.232  -5.804  1.00  0.00    -0.206 F 
ATOM     98  C   UNL     1     -14.754   0.750  -4.446  1.00  0.00     0.022 A 
BRANCH  95  99
ATOM     99  S   UNL     1     -14.419  -1.594  -2.974  1.00  0.00     0.124 S 
ATOM    100  O   UNL     1     -13.585  -2.582  -3.652  1.00  0.00    -0.237 OA
ATOM    101  O   UNL     1     -14.129  -1.377  -1.560  1.00  0.00    -0.237 OA
ATOM    102  O   UNL     1     -15.840  -1.645  -3.313  1.00  0.00    -0.744 OA
ENDBRANCH  95  99
ENDBRANCH  69  92
ENDBRANCH  43  44
ENDBRANCH  35  38
ENDBRANCH  33  34
ENDBRANCH  32  33
ENDBRANCH   1  32
TORSDOF 19
