REMARK SMILES Cc1nn(C)c(=O)c(C(=O)N2CCCC[C@H]2C(=O)NCCCCNC(=O)c2ccc(-c3c4nc(c(-c5cc(S(=O)(=O)[O-])ccc5F)c5ccc([nH]5)c(-c5cc(S(=O)(=O)[O-])ccc5F)c5nc(c(-c6cc(S(=O)(=O)[O-])ccc6F)c6ccc3[nH]6)C=C5)C=C4)cc2)c1C
REMARK SMILES IDX 22 1 21 2 20 3 19 4 17 5 18 6 16 8 11 9 12 10 13 11 15 12
REMARK SMILES IDX 14 13 9 14 10 15 8 16 1 17 2 18 3 19 90 20 4 21 91 22 5 23
REMARK SMILES IDX 6 24 7 25 23 26 24 27 25 28 26 30 27 31 28 32 89 33 29 34
REMARK SMILES IDX 88 35 30 36 31 37 32 38 82 39 33 40 87 41 81 42 83 43 34 44
REMARK SMILES IDX 86 45 80 46 79 47 35 49 67 50 47 51 66 52 48 53 51 54 65 55
REMARK SMILES IDX 84 56 49 57 50 58 64 60 85 61 52 62 36 63 37 64 45 65 38 66
REMARK SMILES IDX 44 67 46 68 43 69 39 70 40 71 41 72 42 73 68 74 69 75 77 76
REMARK SMILES IDX 70 77 76 78 78 79 75 80 71 81 72 82 73 83 74 84 53 85 54 86
REMARK SMILES IDX 62 87 55 88 61 89 63 90 60 91 56 92 57 93 58 94 59 95
REMARK H PARENT 19 7 24 29 83 48 51 59
REMARK Flexibility Score: inf
ROOT
ATOM      1  C   UNL     1       3.050   2.718   1.857  1.00  0.00     0.023 C 
ENDROOT
BRANCH   1   2
ATOM      2  C   UNL     1       2.206   2.169   2.994  1.00  0.00     0.023 C 
BRANCH   2   3
ATOM      3  C   UNL     1       1.296   3.178   3.690  1.00  0.00     0.116 C 
BRANCH   3   4
ATOM      4  N   UNL     1       0.278   3.799   2.855  1.00  0.00    -0.354 N 
ATOM      5  C   UNL     1      -1.084   3.721   2.782  1.00  0.00     0.242 C 
ATOM      6  O   UNL     1      -1.609   4.511   1.984  1.00  0.00    -0.273 OA
ATOM      7  H   UNL     1       0.658   4.418   2.191  1.00  0.00     0.163 HD
BRANCH   5   8
ATOM      8  C   UNL     1      -1.972   2.608   3.456  1.00  0.00     0.174 C 
ATOM      9  N   UNL     1      -1.379   1.869   4.563  1.00  0.00    -0.326 N 
ATOM     10  C   UNL     1      -1.295   2.629   5.843  1.00  0.00     0.120 C 
ATOM     11  C   UNL     1      -2.510   3.482   6.210  1.00  0.00     0.022 C 
ATOM     12  C   UNL     1      -3.308   3.253   3.878  1.00  0.00     0.035 C 
ATOM     13  C   UNL     1      -3.090   4.232   5.024  1.00  0.00     0.004 C 
BRANCH   9  14
ATOM     14  C   UNL     1      -0.662   0.669   4.482  1.00  0.00     0.260 C 
ATOM     15  O   UNL     1       0.071   0.388   5.447  1.00  0.00    -0.269 OA
BRANCH  14  16
ATOM     16  C   UNL     1      -0.596  -0.356   3.333  1.00  0.00     0.111 A 
ATOM     17  C   UNL     1       0.803  -1.223  -0.116  1.00  0.00     0.069 C 
ATOM     18  C   UNL     1       0.232  -1.395   1.285  1.00  0.00     0.062 A 
ATOM     19  N   UNL     1       0.451  -2.550   1.809  1.00  0.00    -0.175 NA
ATOM     20  C   UNL     1      -0.396  -0.219   1.996  1.00  0.00    -0.010 A 
ATOM     21  N   UNL     1       0.045  -2.752   3.083  1.00  0.00    -0.232 N 
ATOM     22  C   UNL     1      -0.490   0.983   1.120  1.00  0.00     0.047 C 
ATOM     23  C   UNL     1       0.277  -4.098   3.578  1.00  0.00     0.178 C 
ATOM     24  C   UNL     1      -0.574  -1.787   3.861  1.00  0.00     0.279 A 
ATOM     25  O   UNL     1      -1.129  -2.065   4.925  1.00  0.00    -0.267 OA
ENDBRANCH  14  16
ENDBRANCH   9  14
ENDBRANCH   5   8
ENDBRANCH   3   4
ENDBRANCH   2   3
ENDBRANCH   1   2
BRANCH   1  26
ATOM     26  C   UNL     1       3.796   3.994   2.201  1.00  0.00     0.116 C 
BRANCH  26  27
ATOM     27  N   UNL     1       4.531   3.909   3.458  1.00  0.00    -0.352 N 
ATOM     28  C   UNL     1       5.809   4.319   3.737  1.00  0.00     0.251 C 
ATOM     29  H   UNL     1       4.043   3.500   4.208  1.00  0.00     0.163 HD
ATOM     30  O   UNL     1       6.307   4.098   4.836  1.00  0.00    -0.269 OA
BRANCH  28  31
ATOM     31  C   UNL     1       6.581   4.979   2.671  1.00  0.00     0.039 A 
ATOM     32  C   UNL     1       7.843   4.480   2.352  1.00  0.00     0.014 A 
ATOM     33  C   UNL     1       6.007   6.017   1.932  1.00  0.00     0.014 A 
ATOM     34  C   UNL     1       8.508   4.982   1.236  1.00  0.00     0.010 A 
ATOM     35  C   UNL     1       6.627   6.445   0.768  1.00  0.00     0.010 A 
ATOM     36  C   UNL     1       7.888   5.939   0.417  1.00  0.00    -0.014 A 
BRANCH  36  37
ATOM     37  C   UNL     1       8.564   6.471  -0.788  1.00  0.00     0.031 A 
ATOM     38  C   UNL     1       8.922   7.930  -0.837  1.00  0.00     0.074 A 
ATOM     39  C   UNL     1       8.809   5.662  -1.836  1.00  0.00     0.049 A 
ATOM     40  N   UNL     1       9.426   8.623  -1.822  1.00  0.00    -0.248 NA
ATOM     41  C   UNL     1       8.643   8.723   0.374  1.00  0.00     0.031 C 
ATOM     42  C   UNL     1       8.474   4.237  -1.906  1.00  0.00     0.029 A 
ATOM     43  N   UNL     1       9.401   5.921  -3.046  1.00  0.00    -0.354 N 
ATOM     44  C   UNL     1       9.509   9.930  -1.357  1.00  0.00     0.074 A 
ATOM     45  C   UNL     1       8.945   9.947  -0.027  1.00  0.00     0.031 C 
ATOM     46  C   UNL     1       8.901   3.742  -3.080  1.00  0.00     0.029 A 
ATOM     47  C   UNL     1       9.499   4.819  -3.862  1.00  0.00     0.049 A 
ATOM     48  H   UNL     1       9.725   6.814  -3.305  1.00  0.00     0.167 HD
ATOM     49  C   UNL     1      10.040  11.011  -1.974  1.00  0.00     0.034 A 
ATOM     50  C   UNL     1      10.010   4.697  -5.103  1.00  0.00     0.034 A 
ATOM     51  C   UNL     1      10.641  10.967  -3.279  1.00  0.00     0.049 A 
ATOM     52  C   UNL     1      10.586   5.918  -5.771  1.00  0.00     0.074 A 
ATOM     53  C   UNL     1      11.258  11.990  -3.976  1.00  0.00     0.029 A 
ATOM     54  N   UNL     1      10.710   9.836  -4.080  1.00  0.00    -0.354 N 
ATOM     55  N   UNL     1      10.666   7.146  -5.313  1.00  0.00    -0.248 NA
ATOM     56  C   UNL     1      11.138   5.740  -7.120  1.00  0.00     0.031 C 
ATOM     57  C   UNL     1      11.656  11.489  -5.219  1.00  0.00     0.029 A 
ATOM     58  C   UNL     1      11.340  10.141  -5.274  1.00  0.00     0.049 A 
ATOM     59  H   UNL     1      10.363   8.948  -3.836  1.00  0.00     0.167 HD
ATOM     60  C   UNL     1      11.290   7.883  -6.313  1.00  0.00     0.074 A 
ATOM     61  C   UNL     1      11.578   6.960  -7.393  1.00  0.00     0.031 C 
ATOM     62  C   UNL     1      11.600   9.204  -6.339  1.00  0.00     0.034 A 
BRANCH  49  63
ATOM     63  C   UNL     1       9.992  12.323  -1.241  1.00  0.00     0.023 A 
ATOM     64  C   UNL     1      10.749  12.540  -0.077  1.00  0.00     0.031 A 
ATOM     65  C   UNL     1       9.185  13.372  -1.713  1.00  0.00     0.131 A 
ATOM     66  C   UNL     1      10.647  13.761   0.604  1.00  0.00     0.055 A 
ATOM     67  C   UNL     1       9.138  14.608  -1.068  1.00  0.00     0.041 A 
ATOM     68  F   UNL     1       8.425  13.208  -2.808  1.00  0.00    -0.206 F 
ATOM     69  C   UNL     1       9.867  14.806   0.102  1.00  0.00     0.022 A 
BRANCH  66  70
ATOM     70  S   UNL     1      11.492  13.941   2.197  1.00  0.00     0.124 S 
ATOM     71  O   UNL     1      10.741  13.006   3.032  1.00  0.00    -0.237 OA
ATOM     72  O   UNL     1      12.861  13.553   1.879  1.00  0.00    -0.237 OA
ATOM     73  O   UNL     1      11.304  15.352   2.526  1.00  0.00    -0.744 OA
ENDBRANCH  66  70
ENDBRANCH  49  63
BRANCH  50  74
ATOM     74  C   UNL     1       9.997   3.379  -5.796  1.00  0.00     0.023 A 
ATOM     75  C   UNL     1      11.192   2.687  -6.052  1.00  0.00     0.031 A 
ATOM     76  C   UNL     1       8.791   2.798  -6.226  1.00  0.00     0.131 A 
ATOM     77  C   UNL     1      11.158   1.467  -6.746  1.00  0.00     0.055 A 
ATOM     78  C   UNL     1       8.759   1.566  -6.881  1.00  0.00     0.041 A 
ATOM     79  F   UNL     1       7.621   3.415  -5.996  1.00  0.00    -0.206 F 
ATOM     80  C   UNL     1       9.949   0.897  -7.152  1.00  0.00     0.022 A 
BRANCH  77  81
ATOM     81  S   UNL     1      12.727   0.649  -7.146  1.00  0.00     0.124 S 
ATOM     82  O   UNL     1      13.354   1.627  -8.028  1.00  0.00    -0.237 OA
ATOM     83  O   UNL     1      13.332   0.490  -5.829  1.00  0.00    -0.237 OA
ATOM     84  O   UNL     1      12.307  -0.594  -7.790  1.00  0.00    -0.744 OA
ENDBRANCH  77  81
ENDBRANCH  50  74
BRANCH  62  85
ATOM     85  C   UNL     1      12.295   9.724  -7.566  1.00  0.00     0.023 A 
ATOM     86  C   UNL     1      11.609   9.871  -8.783  1.00  0.00     0.031 A 
ATOM     87  C   UNL     1      13.642  10.121  -7.504  1.00  0.00     0.131 A 
ATOM     88  C   UNL     1      12.283  10.377  -9.902  1.00  0.00     0.055 A 
ATOM     89  C   UNL     1      14.294  10.668  -8.608  1.00  0.00     0.041 A 
ATOM     90  F   UNL     1      14.335  10.004  -6.361  1.00  0.00    -0.206 F 
ATOM     91  C   UNL     1      13.616  10.793  -9.818  1.00  0.00     0.022 A 
BRANCH  88  92
ATOM     92  S   UNL     1      11.403  10.454 -11.485  1.00  0.00     0.124 S 
ATOM     93  O   UNL     1      11.163   9.043 -11.766  1.00  0.00    -0.237 OA
ATOM     94  O   UNL     1      10.224  11.247 -11.152  1.00  0.00    -0.237 OA
ATOM     95  O   UNL     1      12.357  11.111 -12.376  1.00  0.00    -0.744 OA
ENDBRANCH  88  92
ENDBRANCH  62  85
ENDBRANCH  36  37
ENDBRANCH  28  31
ENDBRANCH  26  27
ENDBRANCH   1  26
TORSDOF 16
