REMARK SMILES O=C(NCCCCNC(=O)[C@@H](c1cccc(O)c1)[NH+]1CC[NH+](C2CCCC2)CC1)c1ccc(-c2c3nc(c(-c4cc(S(=O)(=O)[O-])ccc4F)c4ccc([nH]4)c(-c4cc(S(=O)(=O)[O-])ccc4F)c4nc(c(-c5cc(S(=O)(=O)[O-])ccc5F)c5ccc2[nH]5)C=C4)C=C3)cc1
REMARK SMILES IDX 5 1 4 2 3 3 1 4 2 5 30 7 31 8 92 9 32 10 91 11 33 12 34 13
REMARK SMILES IDX 35 14 85 15 36 16 90 17 84 18 86 19 37 20 89 21 83 22 82 23
REMARK SMILES IDX 38 25 70 26 50 27 69 28 51 29 54 30 68 31 87 32 52 33 53 34
REMARK SMILES IDX 67 36 88 37 55 38 39 39 40 40 48 41 41 42 47 43 49 44 46 45
REMARK SMILES IDX 42 46 43 47 44 48 45 49 71 50 72 51 80 52 73 53 79 54 81 55
REMARK SMILES IDX 78 56 74 57 75 58 76 59 77 60 56 61 57 62 65 63 58 64 64 65
REMARK SMILES IDX 66 66 63 67 59 68 60 69 61 70 62 71 6 72 7 73 8 74 9 75
REMARK SMILES IDX 10 77 11 78 12 79 13 80 18 81 14 82 16 83 15 84 17 85 19 87
REMARK SMILES IDX 20 88 29 89 21 91 28 92 22 93 23 95 24 96 27 97 25 98 26 99
REMARK H PARENT 3 6 86 24 54 35 8 76 17 86 19 90 22 94
REMARK Flexibility Score: inf
ROOT
ATOM      1  C   UNL     1       5.134  -2.220  -1.608  1.00  0.00     0.023 C 
ENDROOT
BRANCH   1   2
ATOM      2  C   UNL     1       4.655  -0.857  -1.096  1.00  0.00     0.116 C 
BRANCH   2   3
ATOM      3  N   UNL     1       3.212  -0.694  -1.077  1.00  0.00    -0.352 N 
ATOM      4  O   UNL     1       1.187  -0.248  -0.173  1.00  0.00    -0.269 OA
ATOM      5  C   UNL     1       2.399  -0.300  -0.030  1.00  0.00     0.251 C 
ATOM      6  H   UNL     1       2.749  -0.890  -1.924  1.00  0.00     0.163 HD
BRANCH   5   7
ATOM      7  C   UNL     1       3.007   0.024   1.289  1.00  0.00     0.039 A 
ATOM      8  C   UNL     1       4.089   0.902   1.388  1.00  0.00     0.014 A 
ATOM      9  C   UNL     1       2.507  -0.595   2.438  1.00  0.00     0.014 A 
ATOM     10  C   UNL     1       4.777   1.021   2.595  1.00  0.00     0.010 A 
ATOM     11  C   UNL     1       3.153  -0.410   3.668  1.00  0.00     0.010 A 
ATOM     12  C   UNL     1       4.326   0.358   3.750  1.00  0.00    -0.014 A 
BRANCH  12  13
ATOM     13  C   UNL     1       5.092   0.481   5.023  1.00  0.00     0.031 A 
ATOM     14  C   UNL     1       5.748  -0.723   5.654  1.00  0.00     0.074 A 
ATOM     15  C   UNL     1       5.223   1.691   5.602  1.00  0.00     0.049 A 
ATOM     16  N   UNL     1       6.441  -0.802   6.764  1.00  0.00    -0.248 NA
ATOM     17  C   UNL     1       5.598  -2.006   4.953  1.00  0.00     0.031 C 
ATOM     18  C   UNL     1       4.636   2.933   5.094  1.00  0.00     0.029 A 
ATOM     19  N   UNL     1       5.897   2.082   6.732  1.00  0.00    -0.354 N 
ATOM     20  C   UNL     1       6.789  -2.142   6.908  1.00  0.00     0.074 A 
ATOM     21  C   UNL     1       6.205  -2.844   5.783  1.00  0.00     0.031 C 
ATOM     22  C   UNL     1       5.002   3.950   5.888  1.00  0.00     0.029 A 
ATOM     23  C   UNL     1       5.795   3.428   6.996  1.00  0.00     0.049 A 
ATOM     24  H   UNL     1       6.405   1.458   7.299  1.00  0.00     0.167 HD
ATOM     25  C   UNL     1       7.529  -2.731   7.882  1.00  0.00     0.034 A 
ATOM     26  C   UNL     1       6.263   4.163   8.024  1.00  0.00     0.034 A 
ATOM     27  C   UNL     1       8.121  -2.017   8.991  1.00  0.00     0.049 A 
ATOM     28  C   UNL     1       7.063   3.485   9.103  1.00  0.00     0.074 A 
ATOM     29  C   UNL     1       8.925  -2.512  10.004  1.00  0.00     0.029 A 
ATOM     30  N   UNL     1       7.968  -0.659   9.240  1.00  0.00    -0.354 N 
ATOM     31  N   UNL     1       7.390   2.218   9.214  1.00  0.00    -0.248 NA
ATOM     32  C   UNL     1       7.559   4.335  10.191  1.00  0.00     0.031 C 
ATOM     33  C   UNL     1       9.203  -1.471  10.897  1.00  0.00     0.029 A 
ATOM     34  C   UNL     1       8.634  -0.308  10.405  1.00  0.00     0.049 A 
ATOM     35  H   UNL     1       7.460  -0.036   8.671  1.00  0.00     0.167 HD
ATOM     36  C   UNL     1       8.141   2.123  10.381  1.00  0.00     0.074 A 
ATOM     37  C   UNL     1       8.238   3.464  10.923  1.00  0.00     0.031 C 
ATOM     38  C   UNL     1       8.702   1.027  10.952  1.00  0.00     0.034 A 
BRANCH  25  39
ATOM     39  C   UNL     1       7.704  -4.231   7.820  1.00  0.00     0.023 A 
ATOM     40  C   UNL     1       8.418  -4.857   6.783  1.00  0.00     0.031 A 
ATOM     41  C   UNL     1       7.143  -5.049   8.818  1.00  0.00     0.131 A 
ATOM     42  C   UNL     1       8.499  -6.258   6.735  1.00  0.00     0.055 A 
ATOM     43  C   UNL     1       7.289  -6.438   8.803  1.00  0.00     0.041 A 
ATOM     44  F   UNL     1       6.436  -4.511   9.824  1.00  0.00    -0.206 F 
ATOM     45  C   UNL     1       7.960  -7.052   7.750  1.00  0.00     0.022 A 
BRANCH  42  46
ATOM     46  S   UNL     1       9.214  -7.038   5.260  1.00  0.00     0.124 S 
ATOM     47  O   UNL     1       8.353  -6.514   4.202  1.00  0.00    -0.237 OA
ATOM     48  O   UNL     1      10.584  -6.541   5.274  1.00  0.00    -0.237 OA
ATOM     49  O   UNL     1       9.066  -8.468   5.522  1.00  0.00    -0.744 OA
ENDBRANCH  42  46
ENDBRANCH  25  39
BRANCH  26  50
ATOM     50  C   UNL     1       5.948   5.617   8.103  1.00  0.00     0.023 A 
ATOM     51  C   UNL     1       6.954   6.588   7.994  1.00  0.00     0.031 A 
ATOM     52  C   UNL     1       4.625   6.052   8.301  1.00  0.00     0.131 A 
ATOM     53  C   UNL     1       6.626   7.947   8.112  1.00  0.00     0.055 A 
ATOM     54  C   UNL     1       4.297   7.406   8.369  1.00  0.00     0.041 A 
ATOM     55  F   UNL     1       3.626   5.162   8.406  1.00  0.00    -0.206 F 
ATOM     56  C   UNL     1       5.303   8.363   8.284  1.00  0.00     0.022 A 
BRANCH  53  57
ATOM     57  S   UNL     1       7.965   9.170   8.098  1.00  0.00     0.124 S 
ATOM     58  O   UNL     1       8.777   8.736   9.229  1.00  0.00    -0.237 OA
ATOM     59  O   UNL     1       8.546   8.966   6.775  1.00  0.00    -0.237 OA
ATOM     60  O   UNL     1       7.268  10.441   8.280  1.00  0.00    -0.744 OA
ENDBRANCH  53  57
ENDBRANCH  26  50
BRANCH  38  61
ATOM     61  C   UNL     1       9.491   1.250  12.218  1.00  0.00     0.023 A 
ATOM     62  C   UNL     1       8.867   1.638  13.417  1.00  0.00     0.031 A 
ATOM     63  C   UNL     1      10.889   1.100  12.217  1.00  0.00     0.131 A 
ATOM     64  C   UNL     1       9.645   1.921  14.550  1.00  0.00     0.055 A 
ATOM     65  C   UNL     1      11.653   1.329  13.362  1.00  0.00     0.041 A 
ATOM     66  F   UNL     1      11.536   0.734  11.099  1.00  0.00    -0.206 F 
ATOM     67  C   UNL     1      11.033   1.754  14.534  1.00  0.00     0.022 A 
BRANCH  64  68
ATOM     68  S   UNL     1       8.829   2.599  16.021  1.00  0.00     0.124 S 
ATOM     69  O   UNL     1       8.222   3.818  15.496  1.00  0.00    -0.237 OA
ATOM     70  O   UNL     1       7.904   1.531  16.386  1.00  0.00    -0.237 OA
ATOM     71  O   UNL     1       9.931   2.810  16.958  1.00  0.00    -0.744 OA
ENDBRANCH  64  68
ENDBRANCH  38  61
ENDBRANCH  12  13
ENDBRANCH   5   7
ENDBRANCH   2   3
ENDBRANCH   1   2
BRANCH   1  72
ATOM     72  C   UNL     1       5.561  -2.297  -3.085  1.00  0.00     0.023 C 
BRANCH  72  73
ATOM     73  C   UNL     1       6.423  -1.112  -3.506  1.00  0.00     0.116 C 
BRANCH  73  74
ATOM     74  N   UNL     1       7.521  -1.368  -4.417  1.00  0.00    -0.351 N 
ATOM     75  C   UNL     1       7.645  -1.148  -5.764  1.00  0.00     0.283 C 
ATOM     76  H   UNL     1       8.315  -1.769  -3.995  1.00  0.00     0.163 HD
ATOM     77  O   UNL     1       8.798  -1.000  -6.193  1.00  0.00    -0.268 OA
BRANCH  75  78
ATOM     78  C   UNL     1       6.428  -1.185  -6.748  1.00  0.00     0.306 C 
BRANCH  78  79
ATOM     79  C   UNL     1       5.758  -2.600  -6.777  1.00  0.00     0.023 A 
ATOM     80  C   UNL     1       4.551  -2.933  -7.420  1.00  0.00     0.011 A 
ATOM     81  C   UNL     1       6.470  -3.712  -6.268  1.00  0.00     0.056 A 
ATOM     82  C   UNL     1       4.005  -4.226  -7.398  1.00  0.00     0.004 A 
ATOM     83  C   UNL     1       5.945  -5.008  -6.274  1.00  0.00     0.116 A 
ATOM     84  C   UNL     1       4.696  -5.270  -6.806  1.00  0.00     0.046 A 
BRANCH  83  85
ATOM     85  O   UNL     1       6.713  -6.003  -5.750  1.00  0.00    -0.508 OA
ATOM     86  H   UNL     1       6.394  -6.884  -5.737  1.00  0.00     0.293 HD
ENDBRANCH  83  85
ENDBRANCH  78  79
BRANCH  78  87
ATOM     87  N   UNL     1       5.699   0.129  -6.853  1.00  0.00    -0.312 N 
ATOM     88  C   UNL     1       4.295   0.147  -7.211  1.00  0.00     0.325 C 
ATOM     89  C   UNL     1       5.931   1.213  -5.879  1.00  0.00     0.325 C 
ATOM     90  H   UNL     1       6.259   0.344  -7.678  1.00  0.00     0.349 HD
ATOM     91  C   UNL     1       3.469  -0.256  -5.983  1.00  0.00     0.324 C 
ATOM     92  C   UNL     1       4.652   1.709  -5.085  1.00  0.00     0.324 C 
ATOM     93  N   UNL     1       3.572   0.719  -4.883  1.00  0.00    -0.323 N 
ATOM     94  H   UNL     1       3.894   0.239  -4.042  1.00  0.00     0.348 HD
BRANCH  93  95
ATOM     95  C   UNL     1       2.254   1.234  -4.516  1.00  0.00     0.184 C 
ATOM     96  C   UNL     1       2.183   2.306  -3.430  1.00  0.00     0.065 C 
ATOM     97  C   UNL     1       1.435   1.876  -5.647  1.00  0.00     0.065 C 
ATOM     98  C   UNL     1       0.708   2.701  -3.467  1.00  0.00     0.006 C 
ATOM     99  C   UNL     1       0.292   2.594  -4.935  1.00  0.00     0.006 C 
ENDBRANCH  93  95
ENDBRANCH  78  87
ENDBRANCH  75  78
ENDBRANCH  73  74
ENDBRANCH  72  73
ENDBRANCH   1  72
TORSDOF 18
