REMARK SMILES Cc1ccccc1OCC(=O)NCCC(=O)NCCCCNC(=O)c1ccc(-c2c3nc(c(-c4cc(S(=O)(=O)[O-])ccc4F)c4ccc([nH]4)c(-c4cc(S(=O)(=O)[O-])ccc4F)c4nc(c(-c5cc(S(=O)(=O)[O-])ccc5F)c5ccc2[nH]5)C=C4)C=C3)cc1
REMARK SMILES IDX 18 1 17 2 15 3 16 4 14 6 13 7 12 8 10 9 11 10 9 12 8 13 7 14
REMARK SMILES IDX 1 15 2 16 3 17 4 18 6 19 5 20 19 21 20 22 21 23 22 24 23 25
REMARK SMILES IDX 24 27 25 28 26 29 87 30 27 31 86 32 28 33 29 34 30 35 80 36
REMARK SMILES IDX 31 37 85 38 79 39 81 40 32 41 84 42 78 43 77 44 33 46 65 47
REMARK SMILES IDX 45 48 64 49 46 50 49 51 63 52 82 53 47 54 48 55 62 57 83 58
REMARK SMILES IDX 50 59 34 60 35 61 43 62 36 63 42 64 44 65 41 66 37 67 38 68
REMARK SMILES IDX 39 69 40 70 66 71 67 72 75 73 68 74 74 75 76 76 73 77 69 78
REMARK SMILES IDX 70 79 71 80 72 81 51 82 52 83 60 84 53 85 59 86 61 87 58 88
REMARK SMILES IDX 54 89 55 90 56 91 57 92
REMARK H PARENT 17 5 12 11 22 26 81 45 49 56
REMARK Flexibility Score: inf
ROOT
ATOM      1  C   UNL     1       2.272   0.534   3.627  1.00  0.00     0.116 C 
ENDROOT
BRANCH   1   2
ATOM      2  N   UNL     1       1.799   1.448   4.669  1.00  0.00    -0.356 N 
ATOM      3  C   UNL     1       0.999   2.546   4.589  1.00  0.00     0.221 C 
ATOM      4  O   UNL     1       0.779   3.196   5.615  1.00  0.00    -0.275 OA
ATOM      5  H   UNL     1       2.110   1.232   5.578  1.00  0.00     0.163 HD
BRANCH   3   6
ATOM      6  C   UNL     1       0.422   2.987   3.266  1.00  0.00     0.121 C 
BRANCH   6   7
ATOM      7  C   UNL     1       1.221   4.140   2.677  1.00  0.00     0.126 C 
BRANCH   7   8
ATOM      8  N   UNL     1       2.515   3.735   2.164  1.00  0.00    -0.353 N 
ATOM      9  C   UNL     1       2.875   3.379   0.896  1.00  0.00     0.257 C 
ATOM     10  O   UNL     1       4.054   3.082   0.690  1.00  0.00    -0.271 OA
ATOM     11  H   UNL     1       3.241   3.713   2.829  1.00  0.00     0.163 HD
BRANCH   9  12
ATOM     12  C   UNL     1       1.875   3.515  -0.256  1.00  0.00     0.329 C 
BRANCH  12  13
ATOM     13  O   UNL     1       0.549   3.073  -0.103  1.00  0.00    -0.484 OA
BRANCH  13  14
ATOM     14  C   UNL     1       0.162   1.771  -0.220  1.00  0.00     0.122 A 
ATOM     15  C   UNL     1       2.337   0.558  -0.945  1.00  0.00     0.048 C 
ATOM     16  C   UNL     1       0.885   0.623  -0.565  1.00  0.00    -0.009 A 
ATOM     17  C   UNL     1       0.216  -0.625  -0.527  1.00  0.00     0.007 A 
ATOM     18  C   UNL     1      -1.133  -0.737  -0.198  1.00  0.00     0.001 A 
ATOM     19  C   UNL     1      -1.208   1.641   0.091  1.00  0.00     0.047 A 
ATOM     20  C   UNL     1      -1.853   0.405   0.103  1.00  0.00     0.004 A 
ENDBRANCH  13  14
ENDBRANCH  12  13
ENDBRANCH   9  12
ENDBRANCH   7   8
ENDBRANCH   6   7
ENDBRANCH   3   6
ENDBRANCH   1   2
BRANCH   1  21
ATOM     21  C   UNL     1       3.779   0.677   3.367  1.00  0.00     0.023 C 
BRANCH  21  22
ATOM     22  C   UNL     1       4.681   0.394   4.566  1.00  0.00     0.023 C 
BRANCH  22  23
ATOM     23  C   UNL     1       4.725  -1.075   4.962  1.00  0.00     0.116 C 
BRANCH  23  24
ATOM     24  N   UNL     1       5.909  -1.792   4.498  1.00  0.00    -0.352 N 
ATOM     25  C   UNL     1       6.271  -3.107   4.757  1.00  0.00     0.251 C 
ATOM     26  H   UNL     1       6.528  -1.278   3.931  1.00  0.00     0.163 HD
ATOM     27  O   UNL     1       7.333  -3.574   4.386  1.00  0.00    -0.269 OA
BRANCH  25  28
ATOM     28  C   UNL     1       5.266  -3.981   5.411  1.00  0.00     0.039 A 
ATOM     29  C   UNL     1       4.818  -5.091   4.689  1.00  0.00     0.014 A 
ATOM     30  C   UNL     1       4.588  -3.548   6.546  1.00  0.00     0.014 A 
ATOM     31  C   UNL     1       3.556  -5.610   4.960  1.00  0.00     0.010 A 
ATOM     32  C   UNL     1       3.293  -3.986   6.741  1.00  0.00     0.010 A 
ATOM     33  C   UNL     1       2.753  -4.971   5.905  1.00  0.00    -0.014 A 
BRANCH  33  34
ATOM     34  C   UNL     1       1.308  -5.164   5.974  1.00  0.00     0.031 A 
ATOM     35  C   UNL     1       0.688  -5.872   7.111  1.00  0.00     0.074 A 
ATOM     36  C   UNL     1       0.509  -4.677   4.998  1.00  0.00     0.049 A 
ATOM     37  N   UNL     1      -0.429  -6.514   7.041  1.00  0.00    -0.248 NA
ATOM     38  C   UNL     1       1.314  -5.945   8.423  1.00  0.00     0.031 C 
ATOM     39  C   UNL     1      -0.948  -4.566   5.016  1.00  0.00     0.029 A 
ATOM     40  N   UNL     1       0.856  -4.425   3.678  1.00  0.00    -0.354 N 
ATOM     41  C   UNL     1      -0.813  -6.822   8.325  1.00  0.00     0.074 A 
ATOM     42  C   UNL     1       0.339  -6.510   9.140  1.00  0.00     0.031 C 
ATOM     43  C   UNL     1      -1.395  -4.518   3.751  1.00  0.00     0.029 A 
ATOM     44  C   UNL     1      -0.255  -4.738   2.881  1.00  0.00     0.049 A 
ATOM     45  H   UNL     1       1.724  -4.087   3.359  1.00  0.00     0.167 HD
ATOM     46  C   UNL     1      -2.107  -7.171   8.579  1.00  0.00     0.034 A 
ATOM     47  C   UNL     1      -0.179  -5.690   1.908  1.00  0.00     0.034 A 
ATOM     48  C   UNL     1      -2.914  -7.224   7.357  1.00  0.00     0.049 A 
ATOM     49  C   UNL     1      -1.160  -6.824   2.078  1.00  0.00     0.074 A 
ATOM     50  C   UNL     1      -3.854  -6.370   6.805  1.00  0.00     0.029 A 
ATOM     51  N   UNL     1      -2.618  -8.160   6.371  1.00  0.00    -0.354 N 
ATOM     52  N   UNL     1      -1.807  -7.091   3.178  1.00  0.00    -0.248 NA
ATOM     53  C   UNL     1      -1.446  -7.775   1.015  1.00  0.00     0.031 C 
ATOM     54  C   UNL     1      -4.123  -6.801   5.479  1.00  0.00     0.029 A 
ATOM     55  C   UNL     1      -3.358  -7.927   5.226  1.00  0.00     0.049 A 
ATOM     56  H   UNL     1      -1.967  -8.891   6.475  1.00  0.00     0.167 HD
ATOM     57  C   UNL     1      -2.533  -8.250   3.018  1.00  0.00     0.074 A 
ATOM     58  C   UNL     1      -2.289  -8.617   1.633  1.00  0.00     0.031 C 
ATOM     59  C   UNL     1      -3.234  -8.802   4.061  1.00  0.00     0.034 A 
BRANCH  46  60
ATOM     60  C   UNL     1      -2.708  -7.155   9.970  1.00  0.00     0.023 A 
ATOM     61  C   UNL     1      -4.071  -6.828  10.135  1.00  0.00     0.031 A 
ATOM     62  C   UNL     1      -2.003  -7.400  11.164  1.00  0.00     0.131 A 
ATOM     63  C   UNL     1      -4.633  -6.632  11.410  1.00  0.00     0.055 A 
ATOM     64  C   UNL     1      -2.540  -7.139  12.433  1.00  0.00     0.041 A 
ATOM     65  F   UNL     1      -0.783  -7.955  11.157  1.00  0.00    -0.206 F 
ATOM     66  C   UNL     1      -3.859  -6.734  12.561  1.00  0.00     0.022 A 
BRANCH  63  67
ATOM     67  S   UNL     1      -6.402  -6.253  11.544  1.00  0.00     0.124 S 
ATOM     68  O   UNL     1      -6.518  -5.026  10.763  1.00  0.00    -0.237 OA
ATOM     69  O   UNL     1      -7.016  -7.445  10.971  1.00  0.00    -0.237 OA
ATOM     70  O   UNL     1      -6.605  -6.088  12.983  1.00  0.00    -0.744 OA
ENDBRANCH  63  67
ENDBRANCH  46  60
BRANCH  47  71
ATOM     71  C   UNL     1       1.178  -5.822   1.304  1.00  0.00     0.023 A 
ATOM     72  C   UNL     1       1.746  -4.654   0.760  1.00  0.00     0.031 A 
ATOM     73  C   UNL     1       2.034  -6.890   1.601  1.00  0.00     0.131 A 
ATOM     74  C   UNL     1       3.137  -4.503   0.717  1.00  0.00     0.055 A 
ATOM     75  C   UNL     1       3.424  -6.768   1.461  1.00  0.00     0.041 A 
ATOM     76  F   UNL     1       1.558  -8.018   2.149  1.00  0.00    -0.206 F 
ATOM     77  C   UNL     1       3.984  -5.554   1.063  1.00  0.00     0.022 A 
BRANCH  74  78
ATOM     78  S   UNL     1       3.789  -2.824   0.505  1.00  0.00     0.124 S 
ATOM     79  O   UNL     1       3.709  -2.658  -0.941  1.00  0.00    -0.237 OA
ATOM     80  O   UNL     1       2.851  -2.026   1.294  1.00  0.00    -0.237 OA
ATOM     81  O   UNL     1       5.135  -2.897   1.063  1.00  0.00    -0.744 OA
ENDBRANCH  74  78
ENDBRANCH  47  71
BRANCH  59  82
ATOM     82  C   UNL     1      -3.909 -10.172   4.093  1.00  0.00     0.023 A 
ATOM     83  C   UNL     1      -4.006 -11.033   2.992  1.00  0.00     0.031 A 
ATOM     84  C   UNL     1      -4.483 -10.681   5.288  1.00  0.00     0.131 A 
ATOM     85  C   UNL     1      -4.630 -12.295   3.078  1.00  0.00     0.055 A 
ATOM     86  C   UNL     1      -5.087 -11.942   5.382  1.00  0.00     0.041 A 
ATOM     87  F   UNL     1      -4.472  -9.989   6.436  1.00  0.00    -0.206 F 
ATOM     88  C   UNL     1      -5.167 -12.761   4.270  1.00  0.00     0.022 A 
BRANCH  85  89
ATOM     89  S   UNL     1      -4.738 -13.297   1.570  1.00  0.00     0.124 S 
ATOM     90  O   UNL     1      -5.482 -12.419   0.672  1.00  0.00    -0.237 OA
ATOM     91  O   UNL     1      -3.332 -13.498   1.233  1.00  0.00    -0.237 OA
ATOM     92  O   UNL     1      -5.453 -14.496   2.001  1.00  0.00    -0.744 OA
ENDBRANCH  85  89
ENDBRANCH  59  82
ENDBRANCH  33  34
ENDBRANCH  25  28
ENDBRANCH  23  24
ENDBRANCH  22  23
ENDBRANCH  21  22
ENDBRANCH   1  21
TORSDOF 19
