REMARK SMILES COc1cc(/C=C2\SC(=S)N(CC(=O)NCCCCNC(=O)c3ccc(-c4c5nc(c(-c6cc(S(=O)(=O)[O-])ccc6F)c6ccc([nH]6)c(-c6cc(S(=O)(=O)[O-])ccc6F)c6nc(c(-c7cc(S(=O)(=O)[O-])ccc7F)c7ccc4[nH]7)C=C6)C=C5)cc3)C2=O)cc2c1OCO2
REMARK SMILES IDX 17 1 16 2 15 3 13 4 14 5 12 7 11 8 6 9 7 10 8 11 86 12 9 13
REMARK SMILES IDX 87 14 10 15 5 16 3 17 4 18 90 19 89 20 91 21 88 22 93 23
REMARK SMILES IDX 92 24 2 25 1 26 18 27 19 28 20 29 21 30 22 32 23 33 24 34
REMARK SMILES IDX 85 35 25 36 84 37 26 38 27 39 28 40 78 41 29 42 83 43 77 44
REMARK SMILES IDX 79 45 30 46 82 47 76 48 75 49 31 51 63 52 43 53 62 54 44 55
REMARK SMILES IDX 47 56 61 57 80 58 45 59 46 60 60 62 81 63 48 64 32 65 33 66
REMARK SMILES IDX 41 67 34 68 40 69 42 70 39 71 35 72 36 73 37 74 38 75 64 76
REMARK SMILES IDX 65 77 73 78 66 79 72 80 74 81 71 82 67 83 68 84 69 85 70 86
REMARK SMILES IDX 49 87 50 88 58 89 51 90 57 91 59 92 56 93 52 94 53 95 54 96
REMARK SMILES IDX 55 97
REMARK H PARENT 15 6 20 31 79 50 47 61
REMARK Flexibility Score: inf
ROOT
ATOM      1  C   UNL     1      -2.147   5.620   6.539  1.00  0.00     0.023 C 
ENDROOT
BRANCH   1   2
ATOM      2  C   UNL     1      -2.329   5.818   8.041  1.00  0.00     0.116 C 
BRANCH   2   3
ATOM      3  N   UNL     1      -3.384   4.988   8.579  1.00  0.00    -0.355 N 
ATOM      4  C   UNL     1      -3.317   3.906   9.407  1.00  0.00     0.240 C 
ATOM      5  O   UNL     1      -4.367   3.538   9.941  1.00  0.00    -0.273 OA
ATOM      6  H   UNL     1      -4.294   5.244   8.305  1.00  0.00     0.163 HD
BRANCH   4   7
ATOM      7  C   UNL     1      -1.978   3.283   9.820  1.00  0.00     0.227 C 
BRANCH   7   8
ATOM      8  N   UNL     1      -1.071   2.982   8.715  1.00  0.00    -0.283 N 
ATOM      9  C   UNL     1      -0.576   0.942   5.766  1.00  0.00     0.029 C 
ATOM     10  C   UNL     1      -0.424   1.815   6.771  1.00  0.00     0.081 C 
ATOM     11  S   UNL     1       0.914   2.845   7.087  1.00  0.00    -0.054 SA
ATOM     12  C   UNL     1      -1.471   2.013   7.807  1.00  0.00     0.266 C 
ATOM     13  C   UNL     1       0.219   3.447   8.583  1.00  0.00     0.148 C 
ATOM     14  O   UNL     1      -2.508   1.373   7.850  1.00  0.00    -0.268 OA
ATOM     15  S   UNL     1       1.096   4.405   9.630  1.00  0.00    -0.052 S 
BRANCH   9  16
ATOM     16  C   UNL     1       0.410   0.684   4.710  1.00  0.00    -0.017 A 
ATOM     17  C   UNL     1       0.966   0.675   2.324  1.00  0.00     0.165 A 
ATOM     18  C   UNL     1       0.047   0.883   3.363  1.00  0.00     0.058 A 
ATOM     19  C   UNL     1       2.253   0.304   2.670  1.00  0.00     0.207 A 
ATOM     20  C   UNL     1       2.601   0.095   3.987  1.00  0.00     0.170 A 
ATOM     21  O   UNL     1       3.322   0.128   1.843  1.00  0.00    -0.450 OA
ATOM     22  C   UNL     1       1.703   0.248   5.022  1.00  0.00     0.059 A 
ATOM     23  O   UNL     1       3.910  -0.244   4.143  1.00  0.00    -0.453 OA
ATOM     24  C   UNL     1       4.379  -0.117   2.789  1.00  0.00     0.468 C 
BRANCH  17  25
ATOM     25  O   UNL     1       0.497   0.928   1.068  1.00  0.00    -0.493 OA
ATOM     26  C   UNL     1       1.042   0.110   0.039  1.00  0.00     0.278 C 
ENDBRANCH  17  25
ENDBRANCH   9  16
ENDBRANCH   7   8
ENDBRANCH   4   7
ENDBRANCH   2   3
ENDBRANCH   1   2
BRANCH   1  27
ATOM     27  C   UNL     1      -3.295   6.169   5.688  1.00  0.00     0.023 C 
BRANCH  27  28
ATOM     28  C   UNL     1      -3.595   7.652   5.878  1.00  0.00     0.116 C 
BRANCH  28  29
ATOM     29  N   UNL     1      -2.456   8.507   5.581  1.00  0.00    -0.352 N 
ATOM     30  C   UNL     1      -2.425   9.683   4.868  1.00  0.00     0.251 C 
ATOM     31  H   UNL     1      -1.591   8.203   5.939  1.00  0.00     0.163 HD
ATOM     32  O   UNL     1      -1.348  10.200   4.591  1.00  0.00    -0.269 OA
BRANCH  30  33
ATOM     33  C   UNL     1      -3.693  10.290   4.408  1.00  0.00     0.039 A 
ATOM     34  C   UNL     1      -3.795  10.718   3.082  1.00  0.00     0.014 A 
ATOM     35  C   UNL     1      -4.787  10.402   5.270  1.00  0.00     0.014 A 
ATOM     36  C   UNL     1      -5.018  11.192   2.603  1.00  0.00     0.010 A 
ATOM     37  C   UNL     1      -6.024  10.795   4.768  1.00  0.00     0.010 A 
ATOM     38  C   UNL     1      -6.154  11.195   3.429  1.00  0.00    -0.014 A 
BRANCH  38  39
ATOM     39  C   UNL     1      -7.484  11.605   2.906  1.00  0.00     0.031 A 
ATOM     40  C   UNL     1      -8.195  12.794   3.490  1.00  0.00     0.074 A 
ATOM     41  C   UNL     1      -8.082  10.865   1.952  1.00  0.00     0.049 A 
ATOM     42  N   UNL     1      -9.383  13.269   3.214  1.00  0.00    -0.248 NA
ATOM     43  C   UNL     1      -7.487  13.522   4.553  1.00  0.00     0.031 C 
ATOM     44  C   UNL     1      -7.519   9.656   1.347  1.00  0.00     0.029 A 
ATOM     45  N   UNL     1      -9.299  11.010   1.333  1.00  0.00    -0.354 N 
ATOM     46  C   UNL     1      -9.570  14.345   4.076  1.00  0.00     0.074 A 
ATOM     47  C   UNL     1      -8.405  14.396   4.934  1.00  0.00     0.031 C 
ATOM     48  C   UNL     1      -8.378   9.183   0.430  1.00  0.00     0.029 A 
ATOM     49  C   UNL     1      -9.572  10.022   0.416  1.00  0.00     0.049 A 
ATOM     50  H   UNL     1      -9.917  11.751   1.527  1.00  0.00     0.167 HD
ATOM     51  C   UNL     1     -10.604  15.223   4.128  1.00  0.00     0.034 A 
ATOM     52  C   UNL     1     -10.668   9.800  -0.338  1.00  0.00     0.034 A 
ATOM     53  C   UNL     1     -11.760  15.147   3.266  1.00  0.00     0.049 A 
ATOM     54  C   UNL     1     -11.821  10.765  -0.248  1.00  0.00     0.074 A 
ATOM     55  C   UNL     1     -12.836  16.014   3.187  1.00  0.00     0.029 A 
ATOM     56  N   UNL     1     -12.004  14.132   2.347  1.00  0.00    -0.354 N 
ATOM     57  N   UNL     1     -11.955  11.822   0.520  1.00  0.00    -0.248 NA
ATOM     58  C   UNL     1     -12.962  10.515  -1.135  1.00  0.00     0.031 C 
ATOM     59  C   UNL     1     -13.766  15.479   2.289  1.00  0.00     0.029 A 
ATOM     60  C   UNL     1     -13.232  14.328   1.731  1.00  0.00     0.049 A 
ATOM     61  H   UNL     1     -11.393  13.383   2.160  1.00  0.00     0.167 HD
ATOM     62  C   UNL     1     -13.189  12.377   0.193  1.00  0.00     0.074 A 
ATOM     63  C   UNL     1     -13.749  11.545  -0.855  1.00  0.00     0.031 C 
ATOM     64  C   UNL     1     -13.798  13.477   0.706  1.00  0.00     0.034 A 
BRANCH  51  65
ATOM     65  C   UNL     1     -10.533  16.308   5.181  1.00  0.00     0.023 A 
ATOM     66  C   UNL     1      -9.467  17.226   5.226  1.00  0.00     0.031 A 
ATOM     67  C   UNL     1     -11.503  16.387   6.196  1.00  0.00     0.131 A 
ATOM     68  C   UNL     1      -9.333  18.095   6.319  1.00  0.00     0.055 A 
ATOM     69  C   UNL     1     -11.421  17.328   7.225  1.00  0.00     0.041 A 
ATOM     70  F   UNL     1     -12.536  15.530   6.224  1.00  0.00    -0.206 F 
ATOM     71  C   UNL     1     -10.318  18.173   7.305  1.00  0.00     0.022 A 
BRANCH  68  72
ATOM     72  S   UNL     1      -7.756  18.966   6.539  1.00  0.00     0.124 S 
ATOM     73  O   UNL     1      -6.804  17.857   6.539  1.00  0.00    -0.237 OA
ATOM     74  O   UNL     1      -7.715  19.843   5.375  1.00  0.00    -0.237 OA
ATOM     75  O   UNL     1      -7.913  19.640   7.826  1.00  0.00    -0.744 OA
ENDBRANCH  68  72
ENDBRANCH  51  65
BRANCH  52  76
ATOM     76  C   UNL     1     -10.726   8.602  -1.223  1.00  0.00     0.023 A 
ATOM     77  C   UNL     1     -10.739   8.723  -2.621  1.00  0.00     0.031 A 
ATOM     78  C   UNL     1     -10.759   7.308  -0.671  1.00  0.00     0.131 A 
ATOM     79  C   UNL     1     -10.807   7.570  -3.420  1.00  0.00     0.055 A 
ATOM     80  C   UNL     1     -10.777   6.164  -1.470  1.00  0.00     0.041 A 
ATOM     81  F   UNL     1     -10.742   7.138   0.661  1.00  0.00    -0.206 F 
ATOM     82  C   UNL     1     -10.808   6.292  -2.854  1.00  0.00     0.022 A 
BRANCH  79  83
ATOM     83  S   UNL     1     -10.942   7.762  -5.219  1.00  0.00     0.124 S 
ATOM     84  O   UNL     1     -12.193   8.501  -5.346  1.00  0.00    -0.237 OA
ATOM     85  O   UNL     1      -9.725   8.499  -5.539  1.00  0.00    -0.237 OA
ATOM     86  O   UNL     1     -10.978   6.384  -5.707  1.00  0.00    -0.744 OA
ENDBRANCH  79  83
ENDBRANCH  52  76
BRANCH  64  87
ATOM     87  C   UNL     1     -15.133  13.866   0.112  1.00  0.00     0.023 A 
ATOM     88  C   UNL     1     -16.271  13.050   0.243  1.00  0.00     0.031 A 
ATOM     89  C   UNL     1     -15.265  15.070  -0.603  1.00  0.00     0.131 A 
ATOM     90  C   UNL     1     -17.474  13.421  -0.379  1.00  0.00     0.055 A 
ATOM     91  C   UNL     1     -16.481  15.468  -1.160  1.00  0.00     0.041 A 
ATOM     92  F   UNL     1     -14.212  15.887  -0.767  1.00  0.00    -0.206 F 
ATOM     93  C   UNL     1     -17.591  14.635  -1.062  1.00  0.00     0.022 A 
BRANCH  90  94
ATOM     94  S   UNL     1     -18.857  12.247  -0.377  1.00  0.00     0.124 S 
ATOM     95  O   UNL     1     -18.262  11.079  -1.018  1.00  0.00    -0.237 OA
ATOM     96  O   UNL     1     -19.151  12.114   1.046  1.00  0.00    -0.237 OA
ATOM     97  O   UNL     1     -19.886  12.927  -1.161  1.00  0.00    -0.744 OA
ENDBRANCH  90  94
ENDBRANCH  64  87
ENDBRANCH  38  39
ENDBRANCH  30  33
ENDBRANCH  28  29
ENDBRANCH  27  28
ENDBRANCH   1  27
TORSDOF 17
