REMARK SMILES CC(C)CCNC(=O)[C@@H](C)Oc1ccc(N)cc1C(=O)NCCCCNC(=O)c1ccc(-c2c3nc(c(-c4cc(S(=O)(=O)[O-])ccc4F)c4ccc([nH]4)c(-c4cc(S(=O)(=O)[O-])ccc4F)c4nc(c(-c5cc(S(=O)(=O)[O-])ccc5F)c5ccc2[nH]5)C=C4)C=C3)cc1
REMARK SMILES IDX 22 1 21 2 19 3 20 4 18 6 12 7 13 8 14 9 17 10 15 11 11 12
REMARK SMILES IDX 9 13 10 14 7 15 6 16 8 18 5 19 4 20 2 21 1 22 3 23 16 24
REMARK SMILES IDX 23 27 24 28 25 29 26 30 27 31 28 33 29 34 30 35 91 36 31 37
REMARK SMILES IDX 90 38 32 39 33 40 34 41 84 42 35 43 89 44 83 45 85 46 36 47
REMARK SMILES IDX 88 48 82 49 81 50 37 52 69 53 49 54 68 55 50 56 53 57 67 58
REMARK SMILES IDX 86 59 51 60 52 61 66 63 87 64 54 65 38 66 39 67 47 68 40 69
REMARK SMILES IDX 46 70 48 71 45 72 41 73 42 74 43 75 44 76 70 77 71 78 79 79
REMARK SMILES IDX 72 80 78 81 80 82 77 83 73 84 74 85 75 86 76 87 55 88 56 89
REMARK SMILES IDX 64 90 57 91 63 92 65 93 62 94 58 95 59 96 60 97 61 98
REMARK H PARENT 21 5 6 17 16 25 16 26 26 32 85 51 53 62
REMARK Flexibility Score: inf
ROOT
ATOM      1  C   UNL     1      -6.074   1.148  -2.977  1.00  0.00     0.116 C 
ENDROOT
BRANCH   1   2
ATOM      2  N   UNL     1      -6.428   1.729  -1.726  1.00  0.00    -0.352 N 
ATOM      3  C   UNL     1      -5.616   2.055  -0.668  1.00  0.00     0.255 C 
ATOM      4  O   UNL     1      -6.222   2.422   0.346  1.00  0.00    -0.269 OA
ATOM      5  H   UNL     1      -7.386   1.922  -1.602  1.00  0.00     0.163 HD
BRANCH   3   6
ATOM      6  C   UNL     1      -4.096   2.042  -0.629  1.00  0.00     0.083 A 
ATOM      7  C   UNL     1      -3.136   2.014  -1.663  1.00  0.00     0.133 A 
ATOM      8  C   UNL     1      -1.847   2.501  -1.395  1.00  0.00     0.049 A 
ATOM      9  C   UNL     1      -1.411   2.728  -0.088  1.00  0.00     0.029 A 
ATOM     10  C   UNL     1      -3.599   2.218   0.691  1.00  0.00     0.043 A 
ATOM     11  C   UNL     1      -2.257   2.473   0.977  1.00  0.00     0.032 A 
BRANCH   7  12
ATOM     12  O   UNL     1      -3.383   1.656  -2.953  1.00  0.00    -0.480 OA
BRANCH  12  13
ATOM     13  C   UNL     1      -2.734   0.494  -3.515  1.00  0.00     0.258 C 
ATOM     14  C   UNL     1      -3.280  -0.889  -3.086  1.00  0.00     0.064 C 
BRANCH  13  15
ATOM     15  C   UNL     1      -1.200   0.393  -3.740  1.00  0.00     0.260 C 
ATOM     16  N   UNL     1      -0.368  -0.144  -2.797  1.00  0.00    -0.353 N 
ATOM     17  H   UNL     1       0.502  -0.464  -3.128  1.00  0.00     0.163 HD
ATOM     18  O   UNL     1      -0.690   0.746  -4.807  1.00  0.00    -0.271 OA
BRANCH  16  19
ATOM     19  C   UNL     1      -0.596  -0.305  -1.377  1.00  0.00     0.116 C 
BRANCH  19  20
ATOM     20  C   UNL     1      -0.123  -1.632  -0.811  1.00  0.00     0.024 C 
BRANCH  20  21
ATOM     21  C   UNL     1       1.399  -1.728  -0.608  1.00  0.00    -0.016 C 
ATOM     22  C   UNL     1       1.961  -0.569   0.223  1.00  0.00     0.007 C 
ATOM     23  C   UNL     1       1.724  -3.054   0.082  1.00  0.00     0.007 C 
ENDBRANCH  20  21
ENDBRANCH  19  20
ENDBRANCH  16  19
ENDBRANCH  13  15
ENDBRANCH  12  13
ENDBRANCH   7  12
BRANCH  11  24
ATOM     24  N   UNL     1      -1.827   2.627   2.283  1.00  0.00    -0.399 N 
ATOM     25  H   UNL     1      -0.878   2.806   2.471  1.00  0.00     0.156 HD
ATOM     26  H   UNL     1      -2.471   2.557   3.025  1.00  0.00     0.156 HD
ENDBRANCH  11  24
ENDBRANCH   3   6
ENDBRANCH   1   2
BRANCH   1  27
ATOM     27  C   UNL     1      -6.989   0.056  -3.499  1.00  0.00     0.023 C 
BRANCH  27  28
ATOM     28  C   UNL     1      -8.251   0.531  -4.187  1.00  0.00     0.023 C 
BRANCH  28  29
ATOM     29  C   UNL     1      -8.039   1.610  -5.239  1.00  0.00     0.116 C 
BRANCH  29  30
ATOM     30  N   UNL     1      -7.091   1.244  -6.292  1.00  0.00    -0.352 N 
ATOM     31  C   UNL     1      -7.292   1.130  -7.650  1.00  0.00     0.251 C 
ATOM     32  H   UNL     1      -6.176   1.052  -5.984  1.00  0.00     0.163 HD
ATOM     33  O   UNL     1      -6.391   0.725  -8.381  1.00  0.00    -0.269 OA
BRANCH  31  34
ATOM     34  C   UNL     1      -8.625   1.444  -8.201  1.00  0.00     0.039 A 
ATOM     35  C   UNL     1      -9.274   0.502  -9.000  1.00  0.00     0.014 A 
ATOM     36  C   UNL     1      -9.279   2.610  -7.805  1.00  0.00     0.014 A 
ATOM     37  C   UNL     1     -10.630   0.671  -9.287  1.00  0.00     0.010 A 
ATOM     38  C   UNL     1     -10.652   2.706  -7.979  1.00  0.00     0.010 A 
ATOM     39  C   UNL     1     -11.348   1.735  -8.716  1.00  0.00    -0.014 A 
BRANCH  39  40
ATOM     40  C   UNL     1     -12.824   1.860  -8.861  1.00  0.00     0.031 A 
ATOM     41  C   UNL     1     -13.407   3.119  -9.447  1.00  0.00     0.074 A 
ATOM     42  C   UNL     1     -13.636   0.899  -8.371  1.00  0.00     0.049 A 
ATOM     43  N   UNL     1     -14.657   3.494  -9.528  1.00  0.00    -0.248 NA
ATOM     44  C   UNL     1     -12.450   4.114  -9.959  1.00  0.00     0.031 C 
ATOM     45  C   UNL     1     -13.196  -0.337  -7.716  1.00  0.00     0.029 A 
ATOM     46  N   UNL     1     -15.007   0.814  -8.335  1.00  0.00    -0.354 N 
ATOM     47  C   UNL     1     -14.631   4.782 -10.055  1.00  0.00     0.074 A 
ATOM     48  C   UNL     1     -13.240   5.144 -10.214  1.00  0.00     0.031 C 
ATOM     49  C   UNL     1     -14.271  -1.069  -7.381  1.00  0.00     0.029 A 
ATOM     50  C   UNL     1     -15.479  -0.338  -7.745  1.00  0.00     0.049 A 
ATOM     51  H   UNL     1     -15.598   1.513  -8.698  1.00  0.00     0.167 HD
ATOM     52  C   UNL     1     -15.672   5.578 -10.400  1.00  0.00     0.034 A 
ATOM     53  C   UNL     1     -16.743  -0.751  -7.517  1.00  0.00     0.034 A 
ATOM     54  C   UNL     1     -17.050   5.173 -10.299  1.00  0.00     0.049 A 
ATOM     55  C   UNL     1     -17.884   0.138  -7.949  1.00  0.00     0.074 A 
ATOM     56  C   UNL     1     -18.179   5.852 -10.723  1.00  0.00     0.029 A 
ATOM     57  N   UNL     1     -17.488   3.981  -9.739  1.00  0.00    -0.354 N 
ATOM     58  N   UNL     1     -17.839   1.321  -8.518  1.00  0.00    -0.248 NA
ATOM     59  C   UNL     1     -19.243  -0.368  -7.718  1.00  0.00     0.031 C 
ATOM     60  C   UNL     1     -19.302   5.097 -10.367  1.00  0.00     0.029 A 
ATOM     61  C   UNL     1     -18.872   3.917  -9.782  1.00  0.00     0.049 A 
ATOM     62  H   UNL     1     -16.902   3.284  -9.366  1.00  0.00     0.167 HD
ATOM     63  C   UNL     1     -19.165   1.680  -8.746  1.00  0.00     0.074 A 
ATOM     64  C   UNL     1     -19.981   0.585  -8.267  1.00  0.00     0.031 C 
ATOM     65  C   UNL     1     -19.666   2.812  -9.304  1.00  0.00     0.034 A 
BRANCH  52  66
ATOM     66  C   UNL     1     -15.355   6.963 -10.907  1.00  0.00     0.023 A 
ATOM     67  C   UNL     1     -14.634   7.173 -12.095  1.00  0.00     0.031 A 
ATOM     68  C   UNL     1     -15.764   8.094 -10.177  1.00  0.00     0.131 A 
ATOM     69  C   UNL     1     -14.279   8.475 -12.478  1.00  0.00     0.055 A 
ATOM     70  C   UNL     1     -15.479   9.390 -10.608  1.00  0.00     0.041 A 
ATOM     71  F   UNL     1     -16.439   7.955  -9.025  1.00  0.00    -0.206 F 
ATOM     72  C   UNL     1     -14.719   9.587 -11.757  1.00  0.00     0.022 A 
BRANCH  69  73
ATOM     73  S   UNL     1     -13.125   8.685 -13.861  1.00  0.00     0.124 S 
ATOM     74  O   UNL     1     -11.938   7.996 -13.359  1.00  0.00    -0.237 OA
ATOM     75  O   UNL     1     -13.825   8.031 -14.960  1.00  0.00    -0.237 OA
ATOM     76  O   UNL     1     -12.992  10.136 -13.979  1.00  0.00    -0.744 OA
ENDBRANCH  69  73
ENDBRANCH  52  66
BRANCH  53  77
ATOM     77  C   UNL     1     -17.017  -2.059  -6.852  1.00  0.00     0.023 A 
ATOM     78  C   UNL     1     -17.697  -3.083  -7.534  1.00  0.00     0.031 A 
ATOM     79  C   UNL     1     -16.671  -2.283  -5.508  1.00  0.00     0.131 A 
ATOM     80  C   UNL     1     -18.066  -4.254  -6.855  1.00  0.00     0.055 A 
ATOM     81  C   UNL     1     -16.990  -3.475  -4.853  1.00  0.00     0.041 A 
ATOM     82  F   UNL     1     -16.015  -1.343  -4.810  1.00  0.00    -0.206 F 
ATOM     83  C   UNL     1     -17.707  -4.462  -5.521  1.00  0.00     0.022 A 
BRANCH  80  84
ATOM     84  S   UNL     1     -19.121  -5.457  -7.710  1.00  0.00     0.124 S 
ATOM     85  O   UNL     1     -20.258  -4.631  -8.100  1.00  0.00    -0.237 OA
ATOM     86  O   UNL     1     -18.251  -5.904  -8.793  1.00  0.00    -0.237 OA
ATOM     87  O   UNL     1     -19.399  -6.458  -6.682  1.00  0.00    -0.744 OA
ENDBRANCH  80  84
ENDBRANCH  53  77
BRANCH  65  88
ATOM     88  C   UNL     1     -21.161   2.885  -9.478  1.00  0.00     0.023 A 
ATOM     89  C   UNL     1     -22.030   2.976  -8.377  1.00  0.00     0.031 A 
ATOM     90  C   UNL     1     -21.721   2.857 -10.767  1.00  0.00     0.131 A 
ATOM     91  C   UNL     1     -23.417   2.980  -8.584  1.00  0.00     0.055 A 
ATOM     92  C   UNL     1     -23.100   2.921 -10.969  1.00  0.00     0.041 A 
ATOM     93  F   UNL     1     -20.935   2.771 -11.852  1.00  0.00    -0.206 F 
ATOM     94  C   UNL     1     -23.957   2.970  -9.873  1.00  0.00     0.022 A 
BRANCH  91  95
ATOM     95  S   UNL     1     -24.512   2.915  -7.140  1.00  0.00     0.124 S 
ATOM     96  O   UNL     1     -24.097   1.670  -6.500  1.00  0.00    -0.237 OA
ATOM     97  O   UNL     1     -24.166   4.142  -6.430  1.00  0.00    -0.237 OA
ATOM     98  O   UNL     1     -25.851   2.895  -7.725  1.00  0.00    -0.744 OA
ENDBRANCH  91  95
ENDBRANCH  65  88
ENDBRANCH  39  40
ENDBRANCH  31  34
ENDBRANCH  29  30
ENDBRANCH  28  29
ENDBRANCH  27  28
ENDBRANCH   1  27
TORSDOF 21
