REMARK SMILES O=C(NCCCCNC(=O)c1cn(C2C[NH+](CC[NH+]3CCCCC3)C2)nn1)c1ccc(-c2c3nc(c(-c4cc(S(=O)(=O)[O-])ccc4F)c4ccc([nH]4)c(-c4cc(S(=O)(=O)[O-])ccc4F)c4nc(c(-c5cc(S(=O)(=O)[O-])ccc5F)c5ccc2[nH]5)C=C4)C=C3)cc1
REMARK SMILES IDX 6 1 5 2 4 3 3 4 1 5 2 6 28 8 29 9 90 10 30 11 89 12 31 13
REMARK SMILES IDX 32 14 33 15 83 16 34 17 88 18 82 19 84 20 35 21 87 22 81 23
REMARK SMILES IDX 80 24 36 26 68 27 48 28 67 29 49 30 52 31 66 32 85 33 50 34
REMARK SMILES IDX 51 35 65 37 86 38 53 39 37 40 38 41 46 42 39 43 45 44 47 45
REMARK SMILES IDX 44 46 40 47 41 48 42 49 43 50 69 51 70 52 78 53 71 54 77 55
REMARK SMILES IDX 79 56 76 57 72 58 73 59 74 60 75 61 54 62 55 63 63 64 56 65
REMARK SMILES IDX 62 66 64 67 61 68 57 69 58 70 59 71 60 72 7 73 8 74 9 75
REMARK SMILES IDX 10 77 11 78 12 79 27 80 13 81 26 82 14 83 15 84 25 85 16 86
REMARK SMILES IDX 17 88 18 89 19 90 20 91 24 92 21 94 23 95 22 96
REMARK H PARENT 3 7 84 25 52 36 8 76 16 87 19 93
REMARK Flexibility Score: inf
ROOT
ATOM      1  C   UNL     1       4.534  -2.734  -2.082  1.00  0.00     0.023 C 
ENDROOT
BRANCH   1   2
ATOM      2  C   UNL     1       4.976  -1.912  -0.872  1.00  0.00     0.023 C 
BRANCH   2   3
ATOM      3  C   UNL     1       4.768  -0.401  -0.987  1.00  0.00     0.116 C 
BRANCH   3   4
ATOM      4  N   UNL     1       3.405   0.013  -1.244  1.00  0.00    -0.352 N 
ATOM      5  O   UNL     1       1.340   0.753  -0.994  1.00  0.00    -0.269 OA
ATOM      6  C   UNL     1       2.304   0.205  -0.452  1.00  0.00     0.251 C 
ATOM      7  H   UNL     1       3.231   0.198  -2.195  1.00  0.00     0.163 HD
BRANCH   6   8
ATOM      8  C   UNL     1       2.181  -0.246   0.963  1.00  0.00     0.039 A 
ATOM      9  C   UNL     1       3.222  -0.739   1.749  1.00  0.00     0.014 A 
ATOM     10  C   UNL     1       0.888  -0.204   1.519  1.00  0.00     0.014 A 
ATOM     11  C   UNL     1       2.971  -1.285   3.002  1.00  0.00     0.010 A 
ATOM     12  C   UNL     1       0.636  -0.713   2.790  1.00  0.00     0.010 A 
ATOM     13  C   UNL     1       1.675  -1.292   3.515  1.00  0.00    -0.014 A 
BRANCH  13  14
ATOM     14  C   UNL     1       1.487  -1.819   4.864  1.00  0.00     0.031 A 
ATOM     15  C   UNL     1       2.150  -1.055   5.959  1.00  0.00     0.074 A 
ATOM     16  C   UNL     1       0.660  -2.841   5.155  1.00  0.00     0.049 A 
ATOM     17  N   UNL     1       3.003  -1.473   6.837  1.00  0.00    -0.248 NA
ATOM     18  C   UNL     1       1.879   0.388   6.035  1.00  0.00     0.031 C 
ATOM     19  C   UNL     1      -0.282  -3.510   4.257  1.00  0.00     0.029 A 
ATOM     20  N   UNL     1       0.402  -3.414   6.367  1.00  0.00    -0.354 N 
ATOM     21  C   UNL     1       3.232  -0.402   7.701  1.00  0.00     0.074 A 
ATOM     22  C   UNL     1       2.626   0.745   7.080  1.00  0.00     0.031 C 
ATOM     23  C   UNL     1      -1.162  -4.222   4.994  1.00  0.00     0.029 A 
ATOM     24  C   UNL     1      -0.768  -4.160   6.393  1.00  0.00     0.049 A 
ATOM     25  H   UNL     1       0.991  -3.308   7.149  1.00  0.00     0.167 HD
ATOM     26  C   UNL     1       3.746  -0.576   8.951  1.00  0.00     0.034 A 
ATOM     27  C   UNL     1      -1.422  -4.622   7.488  1.00  0.00     0.034 A 
ATOM     28  C   UNL     1       4.431  -1.841   9.071  1.00  0.00     0.049 A 
ATOM     29  C   UNL     1      -0.449  -4.680   8.604  1.00  0.00     0.074 A 
ATOM     30  C   UNL     1       5.494  -2.435   8.417  1.00  0.00     0.029 A 
ATOM     31  N   UNL     1       3.835  -2.856   9.783  1.00  0.00    -0.354 N 
ATOM     32  N   UNL     1       0.574  -5.489   8.628  1.00  0.00    -0.248 NA
ATOM     33  C   UNL     1      -0.360  -3.548   9.513  1.00  0.00     0.031 C 
ATOM     34  C   UNL     1       5.162  -3.821   8.357  1.00  0.00     0.029 A 
ATOM     35  C   UNL     1       3.943  -3.988   9.016  1.00  0.00     0.049 A 
ATOM     36  H   UNL     1       3.414  -2.784  10.670  1.00  0.00     0.167 HD
ATOM     37  C   UNL     1       1.596  -4.760   9.214  1.00  0.00     0.074 A 
ATOM     38  C   UNL     1       0.932  -3.623   9.846  1.00  0.00     0.031 C 
ATOM     39  C   UNL     1       2.905  -4.992   8.899  1.00  0.00     0.034 A 
BRANCH  26  40
ATOM     40  C   UNL     1       3.367   0.249  10.166  1.00  0.00     0.023 A 
ATOM     41  C   UNL     1       3.977  -0.085  11.393  1.00  0.00     0.031 A 
ATOM     42  C   UNL     1       2.256   1.118  10.255  1.00  0.00     0.131 A 
ATOM     43  C   UNL     1       3.423   0.330  12.617  1.00  0.00     0.055 A 
ATOM     44  C   UNL     1       1.756   1.592  11.473  1.00  0.00     0.041 A 
ATOM     45  F   UNL     1       1.536   1.484   9.189  1.00  0.00    -0.206 F 
ATOM     46  C   UNL     1       2.314   1.168  12.666  1.00  0.00     0.022 A 
BRANCH  43  47
ATOM     47  S   UNL     1       4.047  -0.425  14.143  1.00  0.00     0.124 S 
ATOM     48  O   UNL     1       4.021  -1.844  13.802  1.00  0.00    -0.237 OA
ATOM     49  O   UNL     1       5.367   0.186  14.259  1.00  0.00    -0.237 OA
ATOM     50  O   UNL     1       3.073  -0.009  15.149  1.00  0.00    -0.744 OA
ENDBRANCH  43  47
ENDBRANCH  26  40
BRANCH  27  51
ATOM     51  C   UNL     1      -2.896  -4.693   7.661  1.00  0.00     0.023 A 
ATOM     52  C   UNL     1      -3.514  -5.536   8.604  1.00  0.00     0.031 A 
ATOM     53  C   UNL     1      -3.722  -3.742   7.018  1.00  0.00     0.131 A 
ATOM     54  C   UNL     1      -4.902  -5.421   8.853  1.00  0.00     0.055 A 
ATOM     55  C   UNL     1      -5.093  -3.644   7.255  1.00  0.00     0.041 A 
ATOM     56  F   UNL     1      -3.207  -2.817   6.192  1.00  0.00    -0.206 F 
ATOM     57  C   UNL     1      -5.689  -4.482   8.181  1.00  0.00     0.022 A 
BRANCH  54  58
ATOM     58  S   UNL     1      -5.689  -6.437  10.143  1.00  0.00     0.124 S 
ATOM     59  O   UNL     1      -5.635  -7.773   9.561  1.00  0.00    -0.237 OA
ATOM     60  O   UNL     1      -4.831  -6.197  11.298  1.00  0.00    -0.237 OA
ATOM     61  O   UNL     1      -7.033  -5.868  10.252  1.00  0.00    -0.744 OA
ENDBRANCH  54  58
ENDBRANCH  27  51
BRANCH  39  62
ATOM     62  C   UNL     1       3.254  -6.252   8.137  1.00  0.00     0.023 A 
ATOM     63  C   UNL     1       2.723  -6.587   6.871  1.00  0.00     0.031 A 
ATOM     64  C   UNL     1       4.267  -7.075   8.658  1.00  0.00     0.131 A 
ATOM     65  C   UNL     1       3.197  -7.720   6.184  1.00  0.00     0.055 A 
ATOM     66  C   UNL     1       4.746  -8.188   7.967  1.00  0.00     0.041 A 
ATOM     67  F   UNL     1       4.840  -6.787   9.839  1.00  0.00    -0.206 F 
ATOM     68  C   UNL     1       4.208  -8.518   6.729  1.00  0.00     0.022 A 
BRANCH  65  69
ATOM     69  S   UNL     1       2.503  -8.171   4.562  1.00  0.00     0.124 S 
ATOM     70  O   UNL     1       1.062  -8.137   4.785  1.00  0.00    -0.237 OA
ATOM     71  O   UNL     1       3.041  -7.133   3.687  1.00  0.00    -0.237 OA
ATOM     72  O   UNL     1       3.049  -9.509   4.320  1.00  0.00    -0.744 OA
ENDBRANCH  65  69
ENDBRANCH  39  62
ENDBRANCH  13  14
ENDBRANCH   6   8
ENDBRANCH   3   4
ENDBRANCH   2   3
ENDBRANCH   1   2
BRANCH   1  73
ATOM     73  C   UNL     1       5.022  -2.230  -3.432  1.00  0.00     0.116 C 
BRANCH  73  74
ATOM     74  N   UNL     1       6.466  -2.100  -3.507  1.00  0.00    -0.351 N 
ATOM     75  C   UNL     1       7.302  -2.348  -4.577  1.00  0.00     0.273 C 
ATOM     76  H   UNL     1       6.909  -1.792  -2.684  1.00  0.00     0.163 HD
ATOM     77  O   UNL     1       8.507  -2.267  -4.420  1.00  0.00    -0.267 OA
BRANCH  75  78
ATOM     78  C   UNL     1       6.694  -2.727  -5.843  1.00  0.00     0.170 A 
ATOM     79  C   UNL     1       5.604  -2.175  -6.494  1.00  0.00     0.145 A 
ATOM     80  N   UNL     1       7.160  -3.789  -6.574  1.00  0.00    -0.125 NA
ATOM     81  N   UNL     1       5.351  -3.062  -7.495  1.00  0.00    -0.237 N 
ATOM     82  N   UNL     1       6.331  -3.982  -7.586  1.00  0.00    -0.066 NA
BRANCH  81  83
ATOM     83  C   UNL     1       4.159  -3.243  -8.248  1.00  0.00     0.218 C 
ATOM     84  C   UNL     1       2.825  -2.738  -7.668  1.00  0.00     0.296 C 
ATOM     85  C   UNL     1       3.899  -2.224  -9.366  1.00  0.00     0.296 C 
ATOM     86  N   UNL     1       2.455  -2.260  -9.023  1.00  0.00    -0.326 N 
ATOM     87  H   UNL     1       1.872  -1.436  -9.166  1.00  0.00     0.348 HD
BRANCH  86  88
ATOM     88  C   UNL     1       1.651  -3.252  -9.788  1.00  0.00     0.324 C 
BRANCH  88  89
ATOM     89  C   UNL     1       2.128  -4.704 -10.149  1.00  0.00     0.324 C 
BRANCH  89  90
ATOM     90  N   UNL     1       2.182  -5.611  -8.997  1.00  0.00    -0.330 N 
ATOM     91  C   UNL     1       0.938  -6.356  -8.769  1.00  0.00     0.262 C 
ATOM     92  C   UNL     1       3.309  -6.556  -9.025  1.00  0.00     0.262 C 
ATOM     93  H   UNL     1       2.325  -4.971  -8.216  1.00  0.00     0.348 HD
ATOM     94  C   UNL     1       0.974  -7.038  -7.394  1.00  0.00     0.062 C 
ATOM     95  C   UNL     1       3.495  -7.066  -7.596  1.00  0.00     0.062 C 
ATOM     96  C   UNL     1       2.258  -7.834  -7.145  1.00  0.00     0.012 C 
ENDBRANCH  89  90
ENDBRANCH  88  89
ENDBRANCH  86  88
ENDBRANCH  81  83
ENDBRANCH  75  78
ENDBRANCH  73  74
ENDBRANCH   1  73
TORSDOF 18
