REMARK SMILES Cc1ccc(N2CC[C@H]([NH+]3CCOCC3)[C@H](CCC(=O)NCCCCNC(=O)c3ccc(-c4c5nc(c(-c6cc(S(=O)(=O)[O-])ccc6F)c6ccc([nH]6)c(-c6cc(S(=O)(=O)[O-])ccc6F)c6nc(c(-c7cc(S(=O)(=O)[O-])ccc7F)c7ccc4[nH]7)C=C6)C=C5)cc3)C2)nc1
REMARK SMILES IDX 23 1 22 2 21 3 19 4 20 5 18 7 17 8 16 9 6 10 7 11 92 12 8 13
REMARK SMILES IDX 9 14 5 15 1 16 2 17 3 18 94 19 4 20 93 21 10 22 11 23 15 24
REMARK SMILES IDX 12 26 14 27 13 28 24 29 25 30 26 31 27 32 28 34 29 35 30 36
REMARK SMILES IDX 91 37 31 38 90 39 32 40 33 41 34 42 84 43 35 44 89 45 83 46
REMARK SMILES IDX 85 47 36 48 88 49 82 50 81 51 37 53 69 54 49 55 68 56 50 57
REMARK SMILES IDX 53 58 67 59 86 60 51 61 52 62 66 64 87 65 54 66 38 67 39 68
REMARK SMILES IDX 47 69 40 70 46 71 48 72 45 73 41 74 42 75 43 76 44 77 70 78
REMARK SMILES IDX 71 79 79 80 72 81 78 82 80 83 77 84 73 85 74 86 75 87 76 88
REMARK SMILES IDX 55 89 56 90 64 91 57 92 63 93 65 94 62 95 58 96 59 97 60 98
REMARK SMILES IDX 61 99
REMARK H PARENT 21 6 10 25 26 33 85 52 53 63
REMARK Flexibility Score: inf
ROOT
ATOM      1  C   UNL     1      -6.822   1.325  -3.008  1.00  0.00     0.023 C 
ENDROOT
BRANCH   1   2
ATOM      2  C   UNL     1      -7.061   0.041  -3.815  1.00  0.00     0.116 C 
BRANCH   2   3
ATOM      3  N   UNL     1      -6.060  -0.072  -4.861  1.00  0.00    -0.356 N 
ATOM      4  C   UNL     1      -4.868  -0.735  -4.856  1.00  0.00     0.220 C 
ATOM      5  O   UNL     1      -4.071  -0.518  -5.771  1.00  0.00    -0.275 OA
ATOM      6  H   UNL     1      -6.274   0.400  -5.698  1.00  0.00     0.163 HD
BRANCH   4   7
ATOM      7  C   UNL     1      -4.555  -1.758  -3.776  1.00  0.00     0.100 C 
BRANCH   7   8
ATOM      8  C   UNL     1      -3.706  -1.248  -2.592  1.00  0.00     0.021 C 
BRANCH   8   9
ATOM      9  C   UNL     1      -4.521  -0.599  -1.452  1.00  0.00     0.067 C 
ATOM     10  N   UNL     1      -2.936   0.184   0.301  1.00  0.00    -0.356 N 
ATOM     11  C   UNL     1      -3.545  -0.627   1.335  1.00  0.00     0.124 C 
ATOM     12  C   UNL     1      -3.765   0.599  -0.818  1.00  0.00     0.127 C 
ATOM     13  C   UNL     1      -4.150  -1.887   0.731  1.00  0.00     0.087 C 
ATOM     14  C   UNL     1      -5.173  -1.492  -0.336  1.00  0.00     0.190 C 
BRANCH  10  15
ATOM     15  C   UNL     1      -1.568   0.096   0.148  1.00  0.00     0.128 A 
ATOM     16  C   UNL     1       2.676  -0.213  -0.050  1.00  0.00     0.046 C 
ATOM     17  C   UNL     1       1.192  -0.059   0.016  1.00  0.00    -0.033 A 
ATOM     18  C   UNL     1       0.566   1.164  -0.194  1.00  0.00     0.009 A 
ATOM     19  C   UNL     1       0.377  -1.153   0.271  1.00  0.00     0.117 A 
ATOM     20  C   UNL     1      -0.825   1.238  -0.139  1.00  0.00     0.047 A 
ATOM     21  N   UNL     1      -0.969  -1.095   0.361  1.00  0.00    -0.239 NA
ENDBRANCH  10  15
BRANCH  14  22
ATOM     22  N   UNL     1      -6.089  -2.556  -0.796  1.00  0.00    -0.328 N 
ATOM     23  C   UNL     1      -7.142  -2.914   0.186  1.00  0.00     0.291 C 
ATOM     24  C   UNL     1      -5.518  -3.785  -1.367  1.00  0.00     0.291 C 
ATOM     25  H   UNL     1      -6.497  -2.069  -1.595  1.00  0.00     0.348 HD
ATOM     26  C   UNL     1      -6.832  -4.107   1.112  1.00  0.00     0.221 C 
ATOM     27  C   UNL     1      -5.244  -4.935  -0.394  1.00  0.00     0.221 C 
ATOM     28  O   UNL     1      -6.404  -5.255   0.375  1.00  0.00    -0.370 OA
ENDBRANCH  14  22
ENDBRANCH   8   9
ENDBRANCH   7   8
ENDBRANCH   4   7
ENDBRANCH   2   3
ENDBRANCH   1   2
BRANCH   1  29
ATOM     29  C   UNL     1      -7.665   2.503  -3.459  1.00  0.00     0.023 C 
BRANCH  29  30
ATOM     30  C   UNL     1      -9.110   2.386  -3.004  1.00  0.00     0.116 C 
BRANCH  30  31
ATOM     31  N   UNL     1      -9.271   2.524  -1.558  1.00  0.00    -0.352 N 
ATOM     32  C   UNL     1     -10.192   3.293  -0.873  1.00  0.00     0.251 C 
ATOM     33  H   UNL     1      -8.646   2.004  -1.003  1.00  0.00     0.163 HD
ATOM     34  O   UNL     1     -10.158   3.388   0.339  1.00  0.00    -0.269 OA
BRANCH  32  35
ATOM     35  C   UNL     1     -11.181   4.039  -1.679  1.00  0.00     0.039 A 
ATOM     36  C   UNL     1     -11.213   5.431  -1.587  1.00  0.00     0.014 A 
ATOM     37  C   UNL     1     -11.921   3.364  -2.652  1.00  0.00     0.014 A 
ATOM     38  C   UNL     1     -11.903   6.159  -2.557  1.00  0.00     0.010 A 
ATOM     39  C   UNL     1     -12.517   4.093  -3.670  1.00  0.00     0.010 A 
ATOM     40  C   UNL     1     -12.499   5.498  -3.644  1.00  0.00    -0.014 A 
BRANCH  40  41
ATOM     41  C   UNL     1     -13.088   6.244  -4.786  1.00  0.00     0.031 A 
ATOM     42  C   UNL     1     -14.540   6.052  -5.125  1.00  0.00     0.074 A 
ATOM     43  C   UNL     1     -12.299   7.001  -5.576  1.00  0.00     0.049 A 
ATOM     44  N   UNL     1     -15.215   6.484  -6.157  1.00  0.00    -0.248 NA
ATOM     45  C   UNL     1     -15.325   5.222  -4.197  1.00  0.00     0.031 C 
ATOM     46  C   UNL     1     -10.862   7.219  -5.384  1.00  0.00     0.029 A 
ATOM     47  N   UNL     1     -12.589   7.715  -6.713  1.00  0.00    -0.354 N 
ATOM     48  C   UNL     1     -16.494   5.958  -6.018  1.00  0.00     0.074 A 
ATOM     49  C   UNL     1     -16.478   5.121  -4.837  1.00  0.00     0.031 C 
ATOM     50  C   UNL     1     -10.405   8.029  -6.352  1.00  0.00     0.029 A 
ATOM     51  C   UNL     1     -11.498   8.348  -7.264  1.00  0.00     0.049 A 
ATOM     52  H   UNL     1     -13.493   7.770  -7.098  1.00  0.00     0.167 HD
ATOM     53  C   UNL     1     -17.588   6.176  -6.787  1.00  0.00     0.034 A 
ATOM     54  C   UNL     1     -11.387   9.085  -8.388  1.00  0.00     0.034 A 
ATOM     55  C   UNL     1     -17.593   7.039  -7.941  1.00  0.00     0.049 A 
ATOM     56  C   UNL     1     -12.613   9.302  -9.238  1.00  0.00     0.074 A 
ATOM     57  C   UNL     1     -18.661   7.403  -8.740  1.00  0.00     0.029 A 
ATOM     58  N   UNL     1     -16.471   7.669  -8.464  1.00  0.00    -0.354 N 
ATOM     59  N   UNL     1     -13.832   8.848  -9.057  1.00  0.00    -0.248 NA
ATOM     60  C   UNL     1     -12.450  10.127 -10.441  1.00  0.00     0.031 C 
ATOM     61  C   UNL     1     -18.176   8.201  -9.782  1.00  0.00     0.029 A 
ATOM     62  C   UNL     1     -16.815   8.390  -9.597  1.00  0.00     0.049 A 
ATOM     63  H   UNL     1     -15.564   7.612  -8.086  1.00  0.00     0.167 HD
ATOM     64  C   UNL     1     -14.585   9.351 -10.114  1.00  0.00     0.074 A 
ATOM     65  C   UNL     1     -13.686  10.154 -10.918  1.00  0.00     0.031 C 
ATOM     66  C   UNL     1     -15.900   9.170 -10.394  1.00  0.00     0.034 A 
BRANCH  53  67
ATOM     67  C   UNL     1     -18.856   5.452  -6.407  1.00  0.00     0.023 A 
ATOM     68  C   UNL     1     -19.491   5.677  -5.173  1.00  0.00     0.031 A 
ATOM     69  C   UNL     1     -19.416   4.494  -7.270  1.00  0.00     0.131 A 
ATOM     70  C   UNL     1     -20.594   4.895  -4.799  1.00  0.00     0.055 A 
ATOM     71  C   UNL     1     -20.566   3.780  -6.928  1.00  0.00     0.041 A 
ATOM     72  F   UNL     1     -18.843   4.222  -8.453  1.00  0.00    -0.206 F 
ATOM     73  C   UNL     1     -21.152   3.966  -5.679  1.00  0.00     0.022 A 
BRANCH  70  74
ATOM     74  S   UNL     1     -21.192   5.007  -3.091  1.00  0.00     0.124 S 
ATOM     75  O   UNL     1     -20.003   4.614  -2.337  1.00  0.00    -0.237 OA
ATOM     76  O   UNL     1     -21.582   6.408  -2.984  1.00  0.00    -0.237 OA
ATOM     77  O   UNL     1     -22.292   4.046  -3.049  1.00  0.00    -0.744 OA
ENDBRANCH  70  74
ENDBRANCH  53  67
BRANCH  54  78
ATOM     78  C   UNL     1     -10.070   9.656  -8.794  1.00  0.00     0.023 A 
ATOM     79  C   UNL     1      -9.863  11.044  -8.823  1.00  0.00     0.031 A 
ATOM     80  C   UNL     1      -9.012   8.823  -9.198  1.00  0.00     0.131 A 
ATOM     81  C   UNL     1      -8.642  11.561  -9.285  1.00  0.00     0.055 A 
ATOM     82  C   UNL     1      -7.783   9.340  -9.612  1.00  0.00     0.041 A 
ATOM     83  F   UNL     1      -9.155   7.488  -9.184  1.00  0.00    -0.206 F 
ATOM     84  C   UNL     1      -7.597  10.718  -9.669  1.00  0.00     0.022 A 
BRANCH  81  85
ATOM     85  S   UNL     1      -8.466  13.359  -9.449  1.00  0.00     0.124 S 
ATOM     86  O   UNL     1      -9.550  13.682 -10.369  1.00  0.00    -0.237 OA
ATOM     87  O   UNL     1      -8.638  13.806  -8.071  1.00  0.00    -0.237 OA
ATOM     88  O   UNL     1      -7.118  13.521  -9.990  1.00  0.00    -0.744 OA
ENDBRANCH  81  85
ENDBRANCH  54  78
BRANCH  66  89
ATOM     89  C   UNL     1     -16.445   9.880 -11.607  1.00  0.00     0.023 A 
ATOM     90  C   UNL     1     -16.085   9.493 -12.908  1.00  0.00     0.031 A 
ATOM     91  C   UNL     1     -17.343  10.951 -11.455  1.00  0.00     0.131 A 
ATOM     92  C   UNL     1     -16.590  10.199 -14.010  1.00  0.00     0.055 A 
ATOM     93  C   UNL     1     -17.883  11.616 -12.555  1.00  0.00     0.041 A 
ATOM     94  F   UNL     1     -17.718  11.359 -10.232  1.00  0.00    -0.206 F 
ATOM     95  C   UNL     1     -17.500  11.247 -13.842  1.00  0.00     0.022 A 
BRANCH  92  96
ATOM     96  S   UNL     1     -15.996   9.770 -15.668  1.00  0.00     0.124 S 
ATOM     97  O   UNL     1     -14.570  10.062 -15.564  1.00  0.00    -0.237 OA
ATOM     98  O   UNL     1     -16.351   8.358 -15.773  1.00  0.00    -0.237 OA
ATOM     99  O   UNL     1     -16.751  10.663 -16.545  1.00  0.00    -0.744 OA
ENDBRANCH  92  96
ENDBRANCH  66  89
ENDBRANCH  40  41
ENDBRANCH  32  35
ENDBRANCH  30  31
ENDBRANCH  29  30
ENDBRANCH   1  29
TORSDOF 18
