REMARK SMILES O=C(NCCCCNC(=O)c1ccc2c(c1)[C@@H]1C=CC[C@@H]1[C@H](c1ccncc1)N2)c1ccc(-c2c3nc(c(-c4cc(S(=O)(=O)[O-])ccc4F)c4ccc([nH]4)c(-c4cc(S(=O)(=O)[O-])ccc4F)c4nc(c(-c5cc(S(=O)(=O)[O-])ccc5F)c5ccc2[nH]5)C=C4)C=C3)cc1
REMARK SMILES IDX 4 1 3 2 1 3 2 4 30 6 31 7 92 8 32 9 91 10 33 11 34 12 35 13
REMARK SMILES IDX 85 14 36 15 90 16 84 17 86 18 37 19 89 20 83 21 82 22 38 24
REMARK SMILES IDX 70 25 50 26 69 27 51 28 54 29 68 30 87 31 52 32 53 33 67 35
REMARK SMILES IDX 88 36 55 37 39 38 40 39 48 40 41 41 47 42 49 43 46 44 42 45
REMARK SMILES IDX 43 46 44 47 45 48 71 49 72 50 80 51 73 52 79 53 81 54 78 55
REMARK SMILES IDX 74 56 75 57 76 58 77 59 56 60 57 61 65 62 58 63 64 64 66 65
REMARK SMILES IDX 63 66 59 67 60 68 61 69 62 70 5 71 6 72 7 73 8 74 9 75 10 77
REMARK SMILES IDX 11 78 12 79 16 80 13 81 15 82 14 83 17 84 29 85 18 86 21 87
REMARK SMILES IDX 22 88 19 90 20 91 23 92 24 93 28 94 25 95 27 96 26 97
REMARK H PARENT 3 5 86 23 54 34 8 76 29 89
REMARK Flexibility Score: inf
ROOT
ATOM      1  C   UNL     1       4.684  -0.416  -1.329  1.00  0.00     0.116 C 
ENDROOT
BRANCH   1   2
ATOM      2  N   UNL     1       3.254  -0.180  -1.201  1.00  0.00    -0.352 N 
ATOM      3  O   UNL     1       1.272   0.026  -0.144  1.00  0.00    -0.269 OA
ATOM      4  C   UNL     1       2.495  -0.052  -0.061  1.00  0.00     0.251 C 
ATOM      5  H   UNL     1       2.760  -0.102  -2.049  1.00  0.00     0.163 HD
BRANCH   4   6
ATOM      6  C   UNL     1       3.155  -0.035   1.263  1.00  0.00     0.039 A 
ATOM      7  C   UNL     1       4.287   0.752   1.485  1.00  0.00     0.014 A 
ATOM      8  C   UNL     1       2.640  -0.830   2.292  1.00  0.00     0.014 A 
ATOM      9  C   UNL     1       4.988   0.632   2.679  1.00  0.00     0.010 A 
ATOM     10  C   UNL     1       3.301  -0.885   3.523  1.00  0.00     0.010 A 
ATOM     11  C   UNL     1       4.500  -0.180   3.716  1.00  0.00    -0.014 A 
BRANCH  11  12
ATOM     12  C   UNL     1       5.237  -0.235   5.005  1.00  0.00     0.031 A 
ATOM     13  C   UNL     1       5.887  -1.507   5.475  1.00  0.00     0.074 A 
ATOM     14  C   UNL     1       5.342   0.892   5.736  1.00  0.00     0.049 A 
ATOM     15  N   UNL     1       6.576  -1.726   6.567  1.00  0.00    -0.248 NA
ATOM     16  C   UNL     1       5.737  -2.689   4.614  1.00  0.00     0.031 C 
ATOM     17  C   UNL     1       4.747   2.183   5.378  1.00  0.00     0.029 A 
ATOM     18  N   UNL     1       5.994   1.144   6.914  1.00  0.00    -0.354 N 
ATOM     19  C   UNL     1       6.930  -3.071   6.534  1.00  0.00     0.074 A 
ATOM     20  C   UNL     1       6.349  -3.624   5.327  1.00  0.00     0.031 C 
ATOM     21  C   UNL     1       5.098   3.097   6.293  1.00  0.00     0.029 A 
ATOM     22  C   UNL     1       5.884   2.448   7.335  1.00  0.00     0.049 A 
ATOM     23  H   UNL     1       6.494   0.457   7.412  1.00  0.00     0.167 HD
ATOM     24  C   UNL     1       7.676  -3.774   7.425  1.00  0.00     0.034 A 
ATOM     25  C   UNL     1       6.345   3.054   8.446  1.00  0.00     0.034 A 
ATOM     26  C   UNL     1       8.249  -3.203   8.622  1.00  0.00     0.049 A 
ATOM     27  C   UNL     1       7.139   2.244   9.433  1.00  0.00     0.074 A 
ATOM     28  C   UNL     1       9.045  -3.816   9.575  1.00  0.00     0.029 A 
ATOM     29  N   UNL     1       8.081  -1.887   9.038  1.00  0.00    -0.354 N 
ATOM     30  N   UNL     1       7.474   0.976   9.380  1.00  0.00    -0.248 NA
ATOM     31  C   UNL     1       7.618   2.948  10.628  1.00  0.00     0.031 C 
ATOM     32  C   UNL     1       9.305  -2.891  10.594  1.00  0.00     0.029 A 
ATOM     33  C   UNL     1       8.731  -1.679  10.246  1.00  0.00     0.049 A 
ATOM     34  H   UNL     1       7.574  -1.202   8.546  1.00  0.00     0.167 HD
ATOM     35  C   UNL     1       8.217   0.734  10.530  1.00  0.00     0.074 A 
ATOM     36  C   UNL     1       8.298   1.993  11.244  1.00  0.00     0.031 C 
ATOM     37  C   UNL     1       8.781  -0.424  10.958  1.00  0.00     0.034 A 
BRANCH  24  38
ATOM     38  C   UNL     1       7.873  -5.248   7.159  1.00  0.00     0.023 A 
ATOM     39  C   UNL     1       8.591  -5.712   6.042  1.00  0.00     0.031 A 
ATOM     40  C   UNL     1       7.321  -6.205   8.029  1.00  0.00     0.131 A 
ATOM     41  C   UNL     1       8.682  -7.090   5.790  1.00  0.00     0.055 A 
ATOM     42  C   UNL     1       7.476  -7.576   7.812  1.00  0.00     0.041 A 
ATOM     43  F   UNL     1       6.609  -5.824   9.101  1.00  0.00    -0.206 F 
ATOM     44  C   UNL     1       8.149  -8.026   6.680  1.00  0.00     0.022 A 
BRANCH  41  45
ATOM     45  S   UNL     1       9.393  -7.640   4.215  1.00  0.00     0.124 S 
ATOM     46  O   UNL     1       8.524  -6.972   3.248  1.00  0.00    -0.237 OA
ATOM     47  O   UNL     1      10.761  -7.143   4.295  1.00  0.00    -0.237 OA
ATOM     48  O   UNL     1       9.253  -9.094   4.264  1.00  0.00    -0.744 OA
ENDBRANCH  41  45
ENDBRANCH  24  38
BRANCH  25  49
ATOM     49  C   UNL     1       6.036   4.488   8.696  1.00  0.00     0.023 A 
ATOM     50  C   UNL     1       7.050   5.456   8.722  1.00  0.00     0.031 A 
ATOM     51  C   UNL     1       4.713   4.908   8.927  1.00  0.00     0.131 A 
ATOM     52  C   UNL     1       6.731   6.793   9.006  1.00  0.00     0.055 A 
ATOM     53  C   UNL     1       4.394   6.246   9.159  1.00  0.00     0.041 A 
ATOM     54  F   UNL     1       3.706   4.021   8.906  1.00  0.00    -0.206 F 
ATOM     55  C   UNL     1       5.409   7.196   9.211  1.00  0.00     0.022 A 
BRANCH  52  56
ATOM     56  S   UNL     1       8.081   7.993   9.170  1.00  0.00     0.124 S 
ATOM     57  O   UNL     1       8.880   7.398  10.235  1.00  0.00    -0.237 OA
ATOM     58  O   UNL     1       8.670   7.969   7.835  1.00  0.00    -0.237 OA
ATOM     59  O   UNL     1       7.393   9.233   9.523  1.00  0.00    -0.744 OA
ENDBRANCH  52  56
ENDBRANCH  25  49
BRANCH  37  60
ATOM     60  C   UNL     1       9.557  -0.358  12.249  1.00  0.00     0.023 A 
ATOM     61  C   UNL     1       8.918  -0.137  13.481  1.00  0.00     0.031 A 
ATOM     62  C   UNL     1      10.957  -0.485  12.240  1.00  0.00     0.131 A 
ATOM     63  C   UNL     1       9.684   0.009  14.648  1.00  0.00     0.055 A 
ATOM     64  C   UNL     1      11.709  -0.393  13.411  1.00  0.00     0.041 A 
ATOM     65  F   UNL     1      11.617  -0.693  11.089  1.00  0.00    -0.206 F 
ATOM     66  C   UNL     1      11.074  -0.132  14.622  1.00  0.00     0.022 A 
BRANCH  63  67
ATOM     67  S   UNL     1       8.846   0.479  16.186  1.00  0.00     0.124 S 
ATOM     68  O   UNL     1       8.230   1.750  15.821  1.00  0.00    -0.237 OA
ATOM     69  O   UNL     1       7.929  -0.637  16.396  1.00  0.00    -0.237 OA
ATOM     70  O   UNL     1       9.936   0.574  17.155  1.00  0.00    -0.744 OA
ENDBRANCH  63  67
ENDBRANCH  37  60
ENDBRANCH  11  12
ENDBRANCH   4   6
ENDBRANCH   1   2
BRANCH   1  71
ATOM     71  C   UNL     1       5.019  -1.608  -2.217  1.00  0.00     0.023 C 
BRANCH  71  72
ATOM     72  C   UNL     1       4.537  -1.506  -3.661  1.00  0.00     0.023 C 
BRANCH  72  73
ATOM     73  C   UNL     1       4.923  -0.224  -4.390  1.00  0.00     0.116 C 
BRANCH  73  74
ATOM     74  N   UNL     1       6.362  -0.030  -4.484  1.00  0.00    -0.352 N 
ATOM     75  C   UNL     1       7.141   0.144  -5.602  1.00  0.00     0.251 C 
ATOM     76  H   UNL     1       6.846  -0.024  -3.627  1.00  0.00     0.163 HD
ATOM     77  O   UNL     1       8.365   0.182  -5.520  1.00  0.00    -0.269 OA
BRANCH  75  78
ATOM     78  C   UNL     1       6.498   0.261  -6.925  1.00  0.00     0.040 A 
ATOM     79  C   UNL     1       6.896  -0.595  -7.948  1.00  0.00     0.016 A 
ATOM     80  C   UNL     1       5.473   1.183  -7.137  1.00  0.00     0.020 A 
ATOM     81  C   UNL     1       6.230  -0.551  -9.174  1.00  0.00     0.027 A 
ATOM     82  C   UNL     1       4.749   1.171  -8.338  1.00  0.00    -0.017 A 
ATOM     83  C   UNL     1       5.167   0.339  -9.390  1.00  0.00     0.038 A 
ATOM     84  C   UNL     1       3.511   2.030  -8.467  1.00  0.00     0.049 C 
ATOM     85  N   UNL     1       4.492   0.306 -10.605  1.00  0.00    -0.378 N 
ATOM     86  C   UNL     1       2.491   1.738  -7.390  1.00  0.00    -0.023 C 
ATOM     87  C   UNL     1       2.679   1.729  -9.725  1.00  0.00     0.031 C 
ATOM     88  C   UNL     1       3.556   1.373 -10.927  1.00  0.00     0.114 C 
ATOM     89  H   UNL     1       4.645  -0.431 -11.240  1.00  0.00     0.161 HD
ATOM     90  C   UNL     1       1.482   0.984  -7.843  1.00  0.00    -0.030 C 
ATOM     91  C   UNL     1       1.655   0.664  -9.294  1.00  0.00     0.034 C 
BRANCH  88  92
ATOM     92  C   UNL     1       2.729   1.055 -12.164  1.00  0.00    -0.022 A 
ATOM     93  C   UNL     1       2.007   2.083 -12.788  1.00  0.00     0.026 A 
ATOM     94  C   UNL     1       2.631  -0.229 -12.713  1.00  0.00     0.026 A 
ATOM     95  C   UNL     1       1.246   1.791 -13.909  1.00  0.00     0.111 A 
ATOM     96  C   UNL     1       1.855  -0.419 -13.847  1.00  0.00     0.111 A 
ATOM     97  N   UNL     1       1.161   0.563 -14.459  1.00  0.00    -0.265 NA
ENDBRANCH  88  92
ENDBRANCH  75  78
ENDBRANCH  73  74
ENDBRANCH  72  73
ENDBRANCH  71  72
ENDBRANCH   1  71
TORSDOF 15
