REMARK SMILES C[C@H](Br)C(=O)c1ccc(OCC(=O)NCCCCNC(=O)c2ccc(-c3c4nc(c(-c5cc(S(=O)(=O)[O-])ccc5F)c5ccc([nH]5)c(-c5cc(S(=O)(=O)[O-])ccc5F)c5nc(c(-c6cc(S(=O)(=O)[O-])ccc6F)c6ccc3[nH]6)C=C5)C=C4)cc2)cc1
REMARK SMILES IDX 16 1 15 2 14 3 12 4 13 5 11 7 10 8 9 9 6 10 7 11 86 12 8 13
REMARK SMILES IDX 85 14 4 15 5 16 2 17 1 18 3 19 17 20 18 21 19 22 20 23 21 25
REMARK SMILES IDX 22 26 23 27 84 28 24 29 83 30 25 31 26 32 27 33 77 34 28 35
REMARK SMILES IDX 82 36 76 37 78 38 29 39 81 40 75 41 74 42 30 44 62 45 42 46
REMARK SMILES IDX 61 47 43 48 46 49 60 50 79 51 44 52 45 53 59 55 80 56 47 57
REMARK SMILES IDX 31 58 32 59 40 60 33 61 39 62 41 63 38 64 34 65 35 66 36 67
REMARK SMILES IDX 37 68 63 69 64 70 72 71 65 72 71 73 73 74 70 75 66 76 67 77
REMARK SMILES IDX 68 78 69 79 48 80 49 81 57 82 50 83 56 84 58 85 55 86 51 87
REMARK SMILES IDX 52 88 53 89 54 90
REMARK H PARENT 14 6 19 24 78 43 46 54
REMARK Flexibility Score: inf
ROOT
ATOM      1  C   UNL     1      -3.033  -2.043   6.196  1.00  0.00     0.023 C 
ENDROOT
BRANCH   1   2
ATOM      2  C   UNL     1      -3.408  -0.682   6.780  1.00  0.00     0.116 C 
BRANCH   2   3
ATOM      3  N   UNL     1      -2.391   0.324   6.541  1.00  0.00    -0.353 N 
ATOM      4  C   UNL     1      -2.440   1.390   5.690  1.00  0.00     0.257 C 
ATOM      5  O   UNL     1      -1.486   2.169   5.651  1.00  0.00    -0.271 OA
ATOM      6  H   UNL     1      -1.559   0.225   7.058  1.00  0.00     0.163 HD
BRANCH   4   7
ATOM      7  C   UNL     1      -3.690   1.619   4.833  1.00  0.00     0.329 C 
BRANCH   7   8
ATOM      8  O   UNL     1      -4.092   0.543   3.999  1.00  0.00    -0.484 OA
BRANCH   8   9
ATOM      9  C   UNL     1      -3.272   0.188   2.966  1.00  0.00     0.120 A 
ATOM     10  C   UNL     1      -1.748  -0.782   0.813  1.00  0.00     0.019 A 
ATOM     11  C   UNL     1      -2.923  -1.437   1.197  1.00  0.00     0.015 A 
ATOM     12  C   UNL     1      -1.349   0.367   1.497  1.00  0.00     0.015 A 
ATOM     13  C   UNL     1      -3.673  -0.956   2.273  1.00  0.00     0.047 A 
ATOM     14  C   UNL     1      -2.114   0.854   2.566  1.00  0.00     0.047 A 
BRANCH  10  15
ATOM     15  C   UNL     1      -1.018  -1.302  -0.374  1.00  0.00     0.176 C 
ATOM     16  O   UNL     1      -1.684  -1.558  -1.380  1.00  0.00    -0.293 OA
BRANCH  15  17
ATOM     17  C   UNL     1       0.477  -1.562  -0.332  1.00  0.00     0.126 C 
ATOM     18  C   UNL     1       0.998  -2.190   0.944  1.00  0.00     0.029 C 
ATOM     19  Br  UNL     1       1.423   0.087  -0.744  1.00  0.00    -0.081 Br
ENDBRANCH  15  17
ENDBRANCH  10  15
ENDBRANCH   8   9
ENDBRANCH   7   8
ENDBRANCH   4   7
ENDBRANCH   2   3
ENDBRANCH   1   2
BRANCH   1  20
ATOM     20  C   UNL     1      -1.758  -2.667   6.770  1.00  0.00     0.023 C 
BRANCH  20  21
ATOM     21  C   UNL     1      -1.705  -2.781   8.290  1.00  0.00     0.116 C 
BRANCH  21  22
ATOM     22  N   UNL     1      -2.791  -3.575   8.840  1.00  0.00    -0.352 N 
ATOM     23  C   UNL     1      -2.748  -4.576   9.781  1.00  0.00     0.251 C 
ATOM     24  H   UNL     1      -3.687  -3.365   8.488  1.00  0.00     0.163 HD
ATOM     25  O   UNL     1      -3.763  -5.226  10.019  1.00  0.00    -0.269 OA
BRANCH  23  26
ATOM     26  C   UNL     1      -1.477  -4.894  10.472  1.00  0.00     0.039 A 
ATOM     27  C   UNL     1      -1.104  -6.233  10.613  1.00  0.00     0.014 A 
ATOM     28  C   UNL     1      -0.649  -3.882  10.965  1.00  0.00     0.014 A 
ATOM     29  C   UNL     1       0.132  -6.553  11.182  1.00  0.00     0.010 A 
ATOM     30  C   UNL     1       0.614  -4.199  11.460  1.00  0.00     0.010 A 
ATOM     31  C   UNL     1       1.021  -5.538  11.572  1.00  0.00    -0.014 A 
BRANCH  31  32
ATOM     32  C   UNL     1       2.378  -5.857  12.090  1.00  0.00     0.031 A 
ATOM     33  C   UNL     1       2.764  -5.482  13.495  1.00  0.00     0.074 A 
ATOM     34  C   UNL     1       3.286  -6.429  11.274  1.00  0.00     0.049 A 
ATOM     35  N   UNL     1       3.913  -5.621  14.105  1.00  0.00    -0.248 NA
ATOM     36  C   UNL     1       1.725  -4.834  14.307  1.00  0.00     0.031 C 
ATOM     37  C   UNL     1       3.048  -6.807   9.880  1.00  0.00     0.029 A 
ATOM     38  N   UNL     1       4.591  -6.790  11.496  1.00  0.00    -0.354 N 
ATOM     39  C   UNL     1       3.740  -5.068  15.370  1.00  0.00     0.074 A 
ATOM     40  C   UNL     1       2.397  -4.527  15.405  1.00  0.00     0.031 C 
ATOM     41  C   UNL     1       4.157  -7.378   9.384  1.00  0.00     0.029 A 
ATOM     42  C   UNL     1       5.200  -7.362  10.404  1.00  0.00     0.049 A 
ATOM     43  H   UNL     1       5.049  -6.651  12.357  1.00  0.00     0.167 HD
ATOM     44  C   UNL     1       4.609  -5.037  16.413  1.00  0.00     0.034 A 
ATOM     45  C   UNL     1       6.458  -7.817  10.239  1.00  0.00     0.034 A 
ATOM     46  C   UNL     1       5.947  -5.580  16.358  1.00  0.00     0.049 A 
ATOM     47  C   UNL     1       7.425  -7.730  11.391  1.00  0.00     0.074 A 
ATOM     48  C   UNL     1       6.891  -5.653  17.367  1.00  0.00     0.029 A 
ATOM     49  N   UNL     1       6.538  -6.129  15.225  1.00  0.00    -0.354 N 
ATOM     50  N   UNL     1       7.231  -7.253  12.599  1.00  0.00    -0.248 NA
ATOM     51  C   UNL     1       8.778  -8.250  11.158  1.00  0.00     0.031 C 
ATOM     52  C   UNL     1       8.074  -6.170  16.827  1.00  0.00     0.029 A 
ATOM     53  C   UNL     1       7.846  -6.504  15.501  1.00  0.00     0.049 A 
ATOM     54  H   UNL     1       6.093  -6.237  14.354  1.00  0.00     0.167 HD
ATOM     55  C   UNL     1       8.431  -7.446  13.280  1.00  0.00     0.074 A 
ATOM     56  C   UNL     1       9.335  -8.092  12.349  1.00  0.00     0.031 C 
ATOM     57  C   UNL     1       8.751  -7.127  14.561  1.00  0.00     0.034 A 
BRANCH  44  58
ATOM     58  C   UNL     1       4.140  -4.360  17.681  1.00  0.00     0.023 A 
ATOM     59  C   UNL     1       3.005  -4.809  18.381  1.00  0.00     0.031 A 
ATOM     60  C   UNL     1       4.795  -3.214  18.167  1.00  0.00     0.131 A 
ATOM     61  C   UNL     1       2.497  -4.058  19.453  1.00  0.00     0.055 A 
ATOM     62  C   UNL     1       4.343  -2.529  19.297  1.00  0.00     0.041 A 
ATOM     63  F   UNL     1       5.872  -2.722  17.535  1.00  0.00    -0.206 F 
ATOM     64  C   UNL     1       3.174  -2.936  19.934  1.00  0.00     0.022 A 
BRANCH  61  65
ATOM     65  S   UNL     1       0.841  -4.458  20.077  1.00  0.00     0.124 S 
ATOM     66  O   UNL     1       0.036  -4.359  18.861  1.00  0.00    -0.237 OA
ATOM     67  O   UNL     1       1.022  -5.801  20.615  1.00  0.00    -0.237 OA
ATOM     68  O   UNL     1       0.587  -3.415  21.068  1.00  0.00    -0.744 OA
ENDBRANCH  61  65
ENDBRANCH  44  58
BRANCH  45  69
ATOM     69  C   UNL     1       6.877  -8.400   8.933  1.00  0.00     0.023 A 
ATOM     70  C   UNL     1       7.208  -9.760   8.825  1.00  0.00     0.031 A 
ATOM     71  C   UNL     1       6.968  -7.605   7.777  1.00  0.00     0.131 A 
ATOM     72  C   UNL     1       7.644 -10.279   7.597  1.00  0.00     0.055 A 
ATOM     73  C   UNL     1       7.356  -8.136   6.545  1.00  0.00     0.041 A 
ATOM     74  F   UNL     1       6.657  -6.300   7.824  1.00  0.00    -0.206 F 
ATOM     75  C   UNL     1       7.707  -9.480   6.453  1.00  0.00     0.022 A 
BRANCH  72  76
ATOM     76  S   UNL     1       8.187 -12.008   7.527  1.00  0.00     0.124 S 
ATOM     77  O   UNL     1       9.301 -12.008   8.467  1.00  0.00    -0.237 OA
ATOM     78  O   UNL     1       6.986 -12.720   7.953  1.00  0.00    -0.237 OA
ATOM     79  O   UNL     1       8.552 -12.193   6.124  1.00  0.00    -0.744 OA
ENDBRANCH  72  76
ENDBRANCH  45  69
BRANCH  57  80
ATOM     80  C   UNL     1      10.131  -7.512  15.040  1.00  0.00     0.023 A 
ATOM     81  C   UNL     1      11.293  -6.930  14.504  1.00  0.00     0.031 A 
ATOM     82  C   UNL     1      10.284  -8.490  16.039  1.00  0.00     0.131 A 
ATOM     83  C   UNL     1      12.557  -7.372  14.927  1.00  0.00     0.055 A 
ATOM     84  C   UNL     1      11.542  -8.878  16.504  1.00  0.00     0.041 A 
ATOM     85  F   UNL     1       9.211  -9.085  16.584  1.00  0.00    -0.206 F 
ATOM     86  C   UNL     1      12.688  -8.328  15.937  1.00  0.00     0.022 A 
BRANCH  83  87
ATOM     87  S   UNL     1      14.030  -6.753  14.068  1.00  0.00     0.124 S 
ATOM     88  O   UNL     1      13.767  -7.152  12.689  1.00  0.00    -0.237 OA
ATOM     89  O   UNL     1      13.972  -5.321  14.340  1.00  0.00    -0.237 OA
ATOM     90  O   UNL     1      15.130  -7.463  14.719  1.00  0.00    -0.744 OA
ENDBRANCH  83  87
ENDBRANCH  57  80
ENDBRANCH  31  32
ENDBRANCH  23  26
ENDBRANCH  21  22
ENDBRANCH  20  21
ENDBRANCH   1  20
TORSDOF 18
