REMARK SMILES O=C(NCCCCNC(=O)[C@H]1CC[C@@H](CNc2ccccc2C(F)(F)F)O1)c1ccc(-c2c3nc(c(-c4cc(S(=O)(=O)[O-])ccc4F)c4ccc([nH]4)c(-c4cc(S(=O)(=O)[O-])ccc4F)c4nc(c(-c5cc(S(=O)(=O)[O-])ccc5F)c5ccc2[nH]5)C=C4)C=C3)cc1
REMARK SMILES IDX 6 1 5 2 4 3 3 4 1 5 2 6 28 8 29 9 90 10 30 11 89 12 31 13
REMARK SMILES IDX 32 14 33 15 83 16 34 17 88 18 82 19 84 20 35 21 87 22 81 23
REMARK SMILES IDX 80 24 36 26 68 27 48 28 67 29 49 30 52 31 66 32 85 33 50 34
REMARK SMILES IDX 51 35 65 37 86 38 53 39 37 40 38 41 46 42 39 43 45 44 47 45
REMARK SMILES IDX 44 46 40 47 41 48 42 49 43 50 69 51 70 52 78 53 71 54 77 55
REMARK SMILES IDX 79 56 76 57 72 58 73 59 74 60 75 61 54 62 55 63 63 64 56 65
REMARK SMILES IDX 62 66 64 67 61 68 57 69 58 70 59 71 60 72 7 73 8 74 9 75
REMARK SMILES IDX 10 77 11 78 12 79 27 80 13 81 14 82 15 83 16 84 17 86 18 87
REMARK SMILES IDX 22 88 19 89 21 90 20 91 23 92 24 93 25 94 26 95
REMARK H PARENT 3 7 84 25 52 36 8 76 16 85
REMARK Flexibility Score: inf
ROOT
ATOM      1  C   UNL     1       8.293  -0.966   5.424  1.00  0.00     0.023 C 
ENDROOT
BRANCH   1   2
ATOM      2  C   UNL     1       8.839  -0.305   6.694  1.00  0.00     0.023 C 
BRANCH   2   3
ATOM      3  C   UNL     1      10.329  -0.513   6.952  1.00  0.00     0.116 C 
BRANCH   3   4
ATOM      4  N   UNL     1      11.158  -0.065   5.843  1.00  0.00    -0.352 N 
ATOM      5  O   UNL     1      12.741   1.152   4.803  1.00  0.00    -0.269 OA
ATOM      6  C   UNL     1      12.251   0.764   5.861  1.00  0.00     0.251 C 
ATOM      7  H   UNL     1      10.898  -0.404   4.956  1.00  0.00     0.163 HD
BRANCH   6   8
ATOM      8  C   UNL     1      12.821   1.202   7.151  1.00  0.00     0.039 A 
ATOM      9  C   UNL     1      13.075   0.281   8.171  1.00  0.00     0.014 A 
ATOM     10  C   UNL     1      13.110   2.556   7.335  1.00  0.00     0.014 A 
ATOM     11  C   UNL     1      13.517   0.728   9.414  1.00  0.00     0.010 A 
ATOM     12  C   UNL     1      13.613   2.994   8.561  1.00  0.00     0.010 A 
ATOM     13  C   UNL     1      13.799   2.087   9.617  1.00  0.00    -0.014 A 
BRANCH  13  14
ATOM     14  C   UNL     1      14.324   2.558  10.923  1.00  0.00     0.031 A 
ATOM     15  C   UNL     1      13.518   3.495  11.777  1.00  0.00     0.074 A 
ATOM     16  C   UNL     1      15.552   2.170  11.315  1.00  0.00     0.049 A 
ATOM     17  N   UNL     1      13.856   4.104  12.884  1.00  0.00    -0.248 NA
ATOM     18  C   UNL     1      12.158   3.795  11.312  1.00  0.00     0.031 C 
ATOM     19  C   UNL     1      16.423   1.260  10.568  1.00  0.00     0.029 A 
ATOM     20  N   UNL     1      16.289   2.505  12.421  1.00  0.00    -0.354 N 
ATOM     21  C   UNL     1      12.758   4.880  13.241  1.00  0.00     0.074 A 
ATOM     22  C   UNL     1      11.760   4.687  12.208  1.00  0.00     0.031 C 
ATOM     23  C   UNL     1      17.577   1.113  11.234  1.00  0.00     0.029 A 
ATOM     24  C   UNL     1      17.555   1.968  12.416  1.00  0.00     0.049 A 
ATOM     25  H   UNL     1      15.946   3.073  13.148  1.00  0.00     0.167 HD
ATOM     26  C   UNL     1      12.601   5.674  14.331  1.00  0.00     0.034 A 
ATOM     27  C   UNL     1      18.600   2.176  13.239  1.00  0.00     0.034 A 
ATOM     28  C   UNL     1      13.619   5.856  15.341  1.00  0.00     0.049 A 
ATOM     29  C   UNL     1      18.434   3.109  14.407  1.00  0.00     0.074 A 
ATOM     30  C   UNL     1      13.556   6.600  16.506  1.00  0.00     0.029 A 
ATOM     31  N   UNL     1      14.895   5.305  15.294  1.00  0.00    -0.354 N 
ATOM     32  N   UNL     1      17.385   3.821  14.748  1.00  0.00    -0.248 NA
ATOM     33  C   UNL     1      19.586   3.264  15.303  1.00  0.00     0.031 C 
ATOM     34  C   UNL     1      14.812   6.563  17.121  1.00  0.00     0.029 A 
ATOM     35  C   UNL     1      15.638   5.724  16.388  1.00  0.00     0.049 A 
ATOM     36  H   UNL     1      15.223   4.703  14.588  1.00  0.00     0.167 HD
ATOM     37  C   UNL     1      17.741   4.487  15.915  1.00  0.00     0.074 A 
ATOM     38  C   UNL     1      19.103   4.094  16.218  1.00  0.00     0.031 C 
ATOM     39  C   UNL     1      17.001   5.335  16.674  1.00  0.00     0.034 A 
BRANCH  26  40
ATOM     40  C   UNL     1      11.305   6.445  14.446  1.00  0.00     0.023 A 
ATOM     41  C   UNL     1      10.060   5.796  14.529  1.00  0.00     0.031 A 
ATOM     42  C   UNL     1      11.308   7.851  14.417  1.00  0.00     0.131 A 
ATOM     43  C   UNL     1       8.874   6.543  14.477  1.00  0.00     0.055 A 
ATOM     44  C   UNL     1      10.126   8.593  14.460  1.00  0.00     0.041 A 
ATOM     45  F   UNL     1      12.462   8.531  14.320  1.00  0.00    -0.206 F 
ATOM     46  C   UNL     1       8.898   7.939  14.468  1.00  0.00     0.022 A 
BRANCH  43  47
ATOM     47  S   UNL     1       7.308   5.660  14.229  1.00  0.00     0.124 S 
ATOM     48  O   UNL     1       7.596   4.880  13.027  1.00  0.00    -0.237 OA
ATOM     49  O   UNL     1       7.175   4.902  15.466  1.00  0.00    -0.237 OA
ATOM     50  O   UNL     1       6.335   6.735  14.044  1.00  0.00    -0.744 OA
ENDBRANCH  43  47
ENDBRANCH  26  40
BRANCH  27  51
ATOM     51  C   UNL     1      19.904   1.524  12.941  1.00  0.00     0.023 A 
ATOM     52  C   UNL     1      20.419   0.512  13.763  1.00  0.00     0.031 A 
ATOM     53  C   UNL     1      20.638   1.887  11.796  1.00  0.00     0.131 A 
ATOM     54  C   UNL     1      21.644  -0.093  13.437  1.00  0.00     0.055 A 
ATOM     55  C   UNL     1      21.831   1.253  11.453  1.00  0.00     0.041 A 
ATOM     56  F   UNL     1      20.179   2.843  10.972  1.00  0.00    -0.206 F 
ATOM     57  C   UNL     1      22.344   0.259  12.280  1.00  0.00     0.022 A 
BRANCH  54  58
ATOM     58  S   UNL     1      22.331  -1.330  14.570  1.00  0.00     0.124 S 
ATOM     59  O   UNL     1      22.506  -0.551  15.790  1.00  0.00    -0.237 OA
ATOM     60  O   UNL     1      21.275  -2.337  14.597  1.00  0.00    -0.237 OA
ATOM     61  O   UNL     1      23.567  -1.746  13.911  1.00  0.00    -0.744 OA
ENDBRANCH  54  58
ENDBRANCH  27  51
BRANCH  39  62
ATOM     62  C   UNL     1      17.628   5.851  17.945  1.00  0.00     0.023 A 
ATOM     63  C   UNL     1      18.684   6.778  17.934  1.00  0.00     0.031 A 
ATOM     64  C   UNL     1      17.132   5.423  19.190  1.00  0.00     0.131 A 
ATOM     65  C   UNL     1      19.230   7.225  19.148  1.00  0.00     0.055 A 
ATOM     66  C   UNL     1      17.645   5.910  20.392  1.00  0.00     0.041 A 
ATOM     67  F   UNL     1      16.127   4.535  19.256  1.00  0.00    -0.206 F 
ATOM     68  C   UNL     1      18.705   6.811  20.376  1.00  0.00     0.022 A 
BRANCH  65  69
ATOM     69  S   UNL     1      20.675   8.322  19.109  1.00  0.00     0.124 S 
ATOM     70  O   UNL     1      21.673   7.483  18.453  1.00  0.00    -0.237 OA
ATOM     71  O   UNL     1      20.187   9.457  18.334  1.00  0.00    -0.237 OA
ATOM     72  O   UNL     1      20.932   8.601  20.521  1.00  0.00    -0.744 OA
ENDBRANCH  65  69
ENDBRANCH  39  62
ENDBRANCH  13  14
ENDBRANCH   6   8
ENDBRANCH   3   4
ENDBRANCH   2   3
ENDBRANCH   1   2
BRANCH   1  73
ATOM     73  C   UNL     1       8.608  -2.453   5.293  1.00  0.00     0.116 C 
BRANCH  73  74
ATOM     74  N   UNL     1       7.970  -3.232   6.333  1.00  0.00    -0.354 N 
ATOM     75  C   UNL     1       6.960  -4.144   6.261  1.00  0.00     0.249 C 
ATOM     76  H   UNL     1       8.322  -3.078   7.240  1.00  0.00     0.163 HD
ATOM     77  O   UNL     1       6.590  -4.668   7.315  1.00  0.00    -0.272 OA
BRANCH  75  78
ATOM     78  C   UNL     1       6.336  -4.520   4.902  1.00  0.00     0.207 C 
ATOM     79  C   UNL     1       6.575  -5.992   4.601  1.00  0.00     0.045 C 
ATOM     80  O   UNL     1       4.915  -4.334   4.921  1.00  0.00    -0.363 OA
ATOM     81  C   UNL     1       5.357  -6.650   5.208  1.00  0.00     0.037 C 
ATOM     82  C   UNL     1       4.267  -5.625   4.936  1.00  0.00     0.138 C 
BRANCH  82  83
ATOM     83  C   UNL     1       3.041  -5.579   5.873  1.00  0.00     0.145 C 
BRANCH  83  84
ATOM     84  N   UNL     1       3.024  -6.605   6.914  1.00  0.00    -0.382 N 
ATOM     85  H   UNL     1       2.985  -7.552   6.651  1.00  0.00     0.160 HD
BRANCH  84  86
ATOM     86  C   UNL     1       3.060  -6.281   8.266  1.00  0.00     0.046 A 
ATOM     87  C   UNL     1       4.070  -6.891   9.037  1.00  0.00     0.026 A 
ATOM     88  C   UNL     1       2.212  -5.358   8.903  1.00  0.00     0.079 A 
ATOM     89  C   UNL     1       4.252  -6.598  10.390  1.00  0.00     0.002 A 
ATOM     90  C   UNL     1       2.418  -5.061  10.273  1.00  0.00     0.015 A 
ATOM     91  C   UNL     1       3.425  -5.677  11.010  1.00  0.00     0.001 A 
BRANCH  88  92
ATOM     92  C   UNL     1       1.058  -4.656   8.230  1.00  0.00     0.418 C 
ATOM     93  F   UNL     1      -0.018  -4.508   9.065  1.00  0.00    -0.166 F 
ATOM     94  F   UNL     1       1.372  -3.389   7.832  1.00  0.00    -0.166 F 
ATOM     95  F   UNL     1       0.547  -5.275   7.128  1.00  0.00    -0.166 F 
ENDBRANCH  88  92
ENDBRANCH  84  86
ENDBRANCH  83  84
ENDBRANCH  82  83
ENDBRANCH  75  78
ENDBRANCH  73  74
ENDBRANCH   1  73
TORSDOF 18
