REMARK SMILES CCc1ccc(Nc2nc(OCC(=O)NCCCCNC(=O)c3ccc(-c4c5nc(c(-c6cc(S(=O)(=O)[O-])ccc6F)c6ccc([nH]6)c(-c6cc(S(=O)(=O)[O-])ccc6F)c6nc(c(-c7cc(S(=O)(=O)[O-])ccc7F)c7ccc4[nH]7)C=C6)C=C5)cc3)cc(-c3cccnc3)n2)cc1
REMARK SMILES IDX 16 1 15 2 13 3 14 4 12 6 11 7 10 8 8 9 9 10 94 11 87 12
REMARK SMILES IDX 86 13 7 14 6 16 3 17 4 18 96 19 5 20 95 21 2 22 1 23 88 24
REMARK SMILES IDX 89 25 93 26 90 27 92 28 91 29 17 30 18 31 19 32 20 33 21 34
REMARK SMILES IDX 22 36 23 37 24 38 85 39 25 40 84 41 26 42 27 43 28 44 78 45
REMARK SMILES IDX 29 46 83 47 77 48 79 49 30 50 82 51 76 52 75 53 31 55 63 56
REMARK SMILES IDX 43 57 62 58 44 59 47 60 61 61 80 62 45 63 46 64 60 66 81 67
REMARK SMILES IDX 48 68 32 69 33 70 41 71 34 72 40 73 42 74 39 75 35 76 36 77
REMARK SMILES IDX 37 78 38 79 64 80 65 81 73 82 66 83 72 84 74 85 71 86 67 87
REMARK SMILES IDX 68 88 69 89 70 90 49 91 50 92 58 93 51 94 57 95 59 96 56 97
REMARK SMILES IDX 52 98 53 99 54 100 55 101
REMARK H PARENT 15 5 7 15 20 35 79 54 47 65
REMARK Flexibility Score: inf
ROOT
ATOM      1  C   UNL     1       8.031   0.246  -7.388  1.00  0.00     0.116 C 
ENDROOT
BRANCH   1   2
ATOM      2  N   UNL     1       7.342  -0.841  -8.054  1.00  0.00    -0.353 N 
ATOM      3  C   UNL     1       6.455  -0.774  -9.085  1.00  0.00     0.258 C 
ATOM      4  O   UNL     1       5.965  -1.819  -9.520  1.00  0.00    -0.271 OA
ATOM      5  H   UNL     1       7.542  -1.745  -7.718  1.00  0.00     0.163 HD
BRANCH   3   6
ATOM      6  C   UNL     1       6.090   0.588  -9.696  1.00  0.00     0.331 C 
BRANCH   6   7
ATOM      7  O   UNL     1       5.489   1.549  -8.846  1.00  0.00    -0.467 OA
BRANCH   7   8
ATOM      8  C   UNL     1       4.277   1.246  -8.291  1.00  0.00     0.219 A 
ATOM      9  C   UNL     1       2.789   1.866  -6.661  1.00  0.00     0.231 A 
ATOM     10  N   UNL     1       3.903   2.134  -7.354  1.00  0.00    -0.177 NA
ATOM     11  N   UNL     1       1.998   0.812  -6.911  1.00  0.00    -0.212 NA
ATOM     12  C   UNL     1       2.376  -0.041  -7.873  1.00  0.00     0.081 A 
ATOM     13  C   UNL     1       3.521   0.146  -8.609  1.00  0.00     0.097 A 
BRANCH   9  14
ATOM     14  N   UNL     1       2.486   2.712  -5.596  1.00  0.00    -0.324 N 
ATOM     15  H   UNL     1       2.641   3.672  -5.748  1.00  0.00     0.170 HD
BRANCH  14  16
ATOM     16  C   UNL     1       1.986   2.361  -4.332  1.00  0.00     0.041 A 
ATOM     17  C   UNL     1       0.978   1.668  -1.766  1.00  0.00    -0.048 A 
ATOM     18  C   UNL     1       1.520   0.696  -2.609  1.00  0.00     0.006 A 
ATOM     19  C   UNL     1       0.916   2.989  -2.237  1.00  0.00     0.006 A 
ATOM     20  C   UNL     1       2.008   1.040  -3.871  1.00  0.00     0.026 A 
ATOM     21  C   UNL     1       1.418   3.331  -3.502  1.00  0.00     0.026 A 
BRANCH  17  22
ATOM     22  C   UNL     1       0.426   1.342  -0.398  1.00  0.00     0.032 C 
ATOM     23  C   UNL     1       0.832  -0.007   0.187  1.00  0.00     0.009 C 
ENDBRANCH  17  22
ENDBRANCH  14  16
ENDBRANCH   9  14
BRANCH  12  24
ATOM     24  C   UNL     1       1.526  -1.212  -8.070  1.00  0.00     0.019 A 
ATOM     25  C   UNL     1       2.019  -2.514  -7.917  1.00  0.00     0.013 A 
ATOM     26  C   UNL     1       0.192  -1.089  -8.450  1.00  0.00     0.121 A 
ATOM     27  C   UNL     1       1.195  -3.609  -8.166  1.00  0.00     0.021 A 
ATOM     28  N   UNL     1      -0.631  -2.133  -8.722  1.00  0.00    -0.264 NA
ATOM     29  C   UNL     1      -0.107  -3.369  -8.572  1.00  0.00     0.111 A 
ENDBRANCH  12  24
ENDBRANCH   7   8
ENDBRANCH   6   7
ENDBRANCH   3   6
ENDBRANCH   1   2
BRANCH   1  30
ATOM     30  C   UNL     1       7.540   0.446  -5.955  1.00  0.00     0.023 C 
BRANCH  30  31
ATOM     31  C   UNL     1       7.761  -0.747  -5.020  1.00  0.00     0.023 C 
BRANCH  31  32
ATOM     32  C   UNL     1       9.189  -1.282  -4.951  1.00  0.00     0.116 C 
BRANCH  32  33
ATOM     33  N   UNL     1      10.152  -0.282  -4.521  1.00  0.00    -0.352 N 
ATOM     34  C   UNL     1      11.168  -0.391  -3.601  1.00  0.00     0.251 C 
ATOM     35  H   UNL     1      10.064   0.600  -4.949  1.00  0.00     0.163 HD
ATOM     36  O   UNL     1      11.793   0.616  -3.274  1.00  0.00    -0.269 OA
BRANCH  34  37
ATOM     37  C   UNL     1      11.482  -1.699  -2.982  1.00  0.00     0.039 A 
ATOM     38  C   UNL     1      11.718  -1.750  -1.606  1.00  0.00     0.014 A 
ATOM     39  C   UNL     1      11.540  -2.870  -3.742  1.00  0.00     0.014 A 
ATOM     40  C   UNL     1      11.947  -2.981  -0.985  1.00  0.00     0.010 A 
ATOM     41  C   UNL     1      11.688  -4.104  -3.110  1.00  0.00     0.010 A 
ATOM     42  C   UNL     1      11.893  -4.175  -1.724  1.00  0.00    -0.014 A 
BRANCH  42  43
ATOM     43  C   UNL     1      12.042  -5.496  -1.051  1.00  0.00     0.031 A 
ATOM     44  C   UNL     1      13.192  -6.405  -1.398  1.00  0.00     0.074 A 
ATOM     45  C   UNL     1      11.118  -5.893  -0.153  1.00  0.00     0.049 A 
ATOM     46  N   UNL     1      13.475  -7.596  -0.933  1.00  0.00    -0.248 NA
ATOM     47  C   UNL     1      14.131  -5.925  -2.421  1.00  0.00     0.031 C 
ATOM     48  C   UNL     1       9.932  -5.124   0.232  1.00  0.00     0.029 A 
ATOM     49  N   UNL     1      11.026  -7.037   0.600  1.00  0.00    -0.354 N 
ATOM     50  C   UNL     1      14.619  -8.008  -1.608  1.00  0.00     0.074 A 
ATOM     51  C   UNL     1      14.933  -6.969  -2.566  1.00  0.00     0.031 C 
ATOM     52  C   UNL     1       9.257  -5.798   1.177  1.00  0.00     0.029 A 
ATOM     53  C   UNL     1       9.929  -7.068   1.431  1.00  0.00     0.049 A 
ATOM     54  H   UNL     1      11.684  -7.768   0.551  1.00  0.00     0.167 HD
ATOM     55  C   UNL     1      15.354  -9.135  -1.430  1.00  0.00     0.034 A 
ATOM     56  C   UNL     1       9.508  -8.012   2.297  1.00  0.00     0.034 A 
ATOM     57  C   UNL     1      15.028 -10.162  -0.468  1.00  0.00     0.049 A 
ATOM     58  C   UNL     1      10.330  -9.266   2.462  1.00  0.00     0.074 A 
ATOM     59  C   UNL     1      15.726 -11.322  -0.176  1.00  0.00     0.029 A 
ATOM     60  N   UNL     1      13.907 -10.161   0.353  1.00  0.00    -0.354 N 
ATOM     61  N   UNL     1      11.440  -9.615   1.852  1.00  0.00    -0.248 NA
ATOM     62  C   UNL     1       9.852 -10.243   3.447  1.00  0.00     0.031 C 
ATOM     63  C   UNL     1      14.991 -12.055   0.761  1.00  0.00     0.029 A 
ATOM     64  C   UNL     1      13.881 -11.312   1.128  1.00  0.00     0.049 A 
ATOM     65  H   UNL     1      13.230  -9.447   0.381  1.00  0.00     0.167 HD
ATOM     66  C   UNL     1      11.812 -10.835   2.412  1.00  0.00     0.074 A 
ATOM     67  C   UNL     1      10.818 -11.148   3.418  1.00  0.00     0.031 C 
ATOM     68  C   UNL     1      12.881 -11.622   2.124  1.00  0.00     0.034 A 
BRANCH  55  69
ATOM     69  C   UNL     1      16.567  -9.323  -2.312  1.00  0.00     0.023 A 
ATOM     70  C   UNL     1      17.648  -8.422  -2.287  1.00  0.00     0.031 A 
ATOM     71  C   UNL     1      16.640 -10.406  -3.206  1.00  0.00     0.131 A 
ATOM     72  C   UNL     1      18.712  -8.575  -3.188  1.00  0.00     0.055 A 
ATOM     73  C   UNL     1      17.745 -10.603  -4.038  1.00  0.00     0.041 A 
ATOM     74  F   UNL     1      15.633 -11.289  -3.296  1.00  0.00    -0.206 F 
ATOM     75  C   UNL     1      18.782  -9.676  -4.044  1.00  0.00     0.022 A 
BRANCH  72  76
ATOM     76  S   UNL     1      19.925  -7.234  -3.332  1.00  0.00     0.124 S 
ATOM     77  O   UNL     1      19.073  -6.104  -3.696  1.00  0.00    -0.237 OA
ATOM     78  O   UNL     1      20.508  -7.191  -1.996  1.00  0.00    -0.237 OA
ATOM     79  O   UNL     1      20.821  -7.694  -4.391  1.00  0.00    -0.744 OA
ENDBRANCH  72  76
ENDBRANCH  55  69
BRANCH  56  80
ATOM     80  C   UNL     1       8.251  -7.818   3.079  1.00  0.00     0.023 A 
ATOM     81  C   UNL     1       8.271  -7.749   4.481  1.00  0.00     0.031 A 
ATOM     82  C   UNL     1       7.001  -7.754   2.436  1.00  0.00     0.131 A 
ATOM     83  C   UNL     1       7.066  -7.676   5.197  1.00  0.00     0.055 A 
ATOM     84  C   UNL     1       5.809  -7.619   3.150  1.00  0.00     0.041 A 
ATOM     85  F   UNL     1       6.922  -7.813   1.097  1.00  0.00    -0.206 F 
ATOM     86  C   UNL     1       5.836  -7.595   4.541  1.00  0.00     0.022 A 
BRANCH  83  87
ATOM     87  S   UNL     1       7.122  -7.795   7.007  1.00  0.00     0.124 S 
ATOM     88  O   UNL     1       7.792  -9.076   7.199  1.00  0.00    -0.237 OA
ATOM     89  O   UNL     1       7.891  -6.607   7.364  1.00  0.00    -0.237 OA
ATOM     90  O   UNL     1       5.713  -7.763   7.393  1.00  0.00    -0.744 OA
ENDBRANCH  83  87
ENDBRANCH  56  80
BRANCH  68  91
ATOM     91  C   UNL     1      13.059 -12.870   2.958  1.00  0.00     0.023 A 
ATOM     92  C   UNL     1      12.120 -13.918   2.943  1.00  0.00     0.031 A 
ATOM     93  C   UNL     1      14.171 -12.997   3.810  1.00  0.00     0.131 A 
ATOM     94  C   UNL     1      12.269 -15.004   3.819  1.00  0.00     0.055 A 
ATOM     95  C   UNL     1      14.354 -14.116   4.623  1.00  0.00     0.041 A 
ATOM     96  F   UNL     1      15.100 -12.029   3.872  1.00  0.00    -0.206 F 
ATOM     97  C   UNL     1      13.390 -15.119   4.645  1.00  0.00     0.022 A 
BRANCH  94  98
ATOM     98  S   UNL     1      10.911 -16.199   3.961  1.00  0.00     0.124 S 
ATOM     99  O   UNL     1       9.784 -15.337   4.301  1.00  0.00    -0.237 OA
ATOM    100  O   UNL     1      10.880 -16.794   2.629  1.00  0.00    -0.237 OA
ATOM    101  O   UNL     1      11.352 -17.094   5.030  1.00  0.00    -0.744 OA
ENDBRANCH  94  98
ENDBRANCH  68  91
ENDBRANCH  42  43
ENDBRANCH  34  37
ENDBRANCH  32  33
ENDBRANCH  31  32
ENDBRANCH  30  31
ENDBRANCH   1  30
TORSDOF 20
