REMARK SMILES C[C@@H](C(=O)NCCCCNC(=O)c1ccc(-c2c3nc(c(-c4cc(S(=O)(=O)[O-])ccc4F)c4ccc([nH]4)c(-c4cc(S(=O)(=O)[O-])ccc4F)c4nc(c(-c5cc(S(=O)(=O)[O-])ccc5F)c5ccc2[nH]5)C=C4)C=C3)cc1)S(=O)(=O)N[C@@]12C[C@@H]3C[C@@](C)(C[C@@](C)(C3)C1)C2
REMARK SMILES IDX 7 1 6 2 5 3 3 4 4 5 2 7 1 8 76 9 77 10 78 11 79 12 80 14
REMARK SMILES IDX 81 15 90 16 91 17 82 18 87 19 84 20 89 21 83 22 86 23 88 24
REMARK SMILES IDX 85 25 8 26 9 27 10 28 11 29 12 31 13 32 14 33 75 34 15 35
REMARK SMILES IDX 74 36 16 37 17 38 18 39 68 40 19 41 73 42 67 43 69 44 20 45
REMARK SMILES IDX 72 46 66 47 65 48 21 50 53 51 33 52 52 53 34 54 37 55 51 56
REMARK SMILES IDX 70 57 35 58 36 59 50 61 71 62 38 63 22 64 23 65 31 66 24 67
REMARK SMILES IDX 30 68 32 69 29 70 25 71 26 72 27 73 28 74 54 75 55 76 63 77
REMARK SMILES IDX 56 78 62 79 64 80 61 81 57 82 58 83 59 84 60 85 39 86 40 87
REMARK SMILES IDX 48 88 41 89 47 90 49 91 46 92 42 93 43 94 44 95 45 96
REMARK H PARENT 5 6 79 13 10 30 69 49 37 60
REMARK Flexibility Score: inf
ROOT
ATOM      1  C   UNL     1       4.233  -1.255  -0.818  1.00  0.00     0.023 C 
ENDROOT
BRANCH   1   2
ATOM      2  C   UNL     1       3.454  -1.226  -2.136  1.00  0.00     0.116 C 
BRANCH   2   3
ATOM      3  N   UNL     1       2.255  -2.037  -2.030  1.00  0.00    -0.355 N 
ATOM      4  C   UNL     1       0.948  -1.720  -1.788  1.00  0.00     0.239 C 
ATOM      5  O   UNL     1       0.211  -2.688  -1.575  1.00  0.00    -0.274 OA
ATOM      6  H   UNL     1       2.413  -3.001  -2.158  1.00  0.00     0.163 HD
BRANCH   4   7
ATOM      7  C   UNL     1       0.430  -0.289  -1.887  1.00  0.00     0.209 C 
ATOM      8  C   UNL     1       1.242   0.820  -1.224  1.00  0.00     0.037 C 
BRANCH   7   9
ATOM      9  S   UNL     1      -1.344  -0.231  -1.435  1.00  0.00     0.223 S 
ATOM     10  O   UNL     1      -1.696   1.107  -1.009  1.00  0.00    -0.212 OA
ATOM     11  O   UNL     1      -2.077  -0.821  -2.541  1.00  0.00    -0.212 OA
BRANCH   9  12
ATOM     12  N   UNL     1      -1.603  -1.256  -0.147  1.00  0.00    -0.208 NA
ATOM     13  H   UNL     1      -1.092  -2.105  -0.386  1.00  0.00     0.141 HD
BRANCH  12  14
ATOM     14  C   UNL     1      -1.292  -1.019   1.277  1.00  0.00     0.034 C 
ATOM     15  C   UNL     1      -0.105  -0.076   1.490  1.00  0.00     0.027 C 
ATOM     16  C   UNL     1      -2.534  -0.461   2.006  1.00  0.00     0.030 C 
ATOM     17  C   UNL     1      -0.943  -2.385   1.923  1.00  0.00     0.030 C 
ATOM     18  C   UNL     1       0.202   0.122   2.974  1.00  0.00    -0.008 C 
ATOM     19  C   UNL     1      -2.236  -0.260   3.517  1.00  0.00    -0.030 C 
ATOM     20  C   UNL     1      -0.611  -2.221   3.426  1.00  0.00    -0.030 C 
ATOM     21  C   UNL     1      -1.037   0.704   3.664  1.00  0.00     0.010 C 
ATOM     22  C   UNL     1       0.568  -1.236   3.579  1.00  0.00     0.010 C 
ATOM     23  C   UNL     1      -1.843  -1.621   4.142  1.00  0.00     0.013 C 
ATOM     24  C   UNL     1      -3.460   0.317   4.238  1.00  0.00     0.011 C 
ATOM     25  C   UNL     1      -0.239  -3.575   4.035  1.00  0.00     0.011 C 
ENDBRANCH  12  14
ENDBRANCH   9  12
ENDBRANCH   7   9
ENDBRANCH   4   7
ENDBRANCH   2   3
ENDBRANCH   1   2
BRANCH   1  26
ATOM     26  C   UNL     1       5.081  -2.518  -0.619  1.00  0.00     0.023 C 
BRANCH  26  27
ATOM     27  C   UNL     1       6.211  -2.706  -1.629  1.00  0.00     0.116 C 
BRANCH  27  28
ATOM     28  N   UNL     1       7.147  -1.593  -1.657  1.00  0.00    -0.352 N 
ATOM     29  C   UNL     1       8.493  -1.616  -1.941  1.00  0.00     0.251 C 
ATOM     30  H   UNL     1       6.769  -0.710  -1.444  1.00  0.00     0.163 HD
ATOM     31  O   UNL     1       9.163  -0.597  -1.812  1.00  0.00    -0.269 OA
BRANCH  29  32
ATOM     32  C   UNL     1       9.124  -2.888  -2.351  1.00  0.00     0.039 A 
ATOM     33  C   UNL     1      10.272  -3.316  -1.680  1.00  0.00     0.014 A 
ATOM     34  C   UNL     1       8.559  -3.675  -3.358  1.00  0.00     0.014 A 
ATOM     35  C   UNL     1      10.808  -4.573  -1.964  1.00  0.00     0.010 A 
ATOM     36  C   UNL     1       9.058  -4.954  -3.595  1.00  0.00     0.010 A 
ATOM     37  C   UNL     1      10.179  -5.420  -2.891  1.00  0.00    -0.014 A 
BRANCH  37  38
ATOM     38  C   UNL     1      10.660  -6.809  -3.113  1.00  0.00     0.031 A 
ATOM     39  C   UNL     1      11.212  -7.214  -4.452  1.00  0.00     0.074 A 
ATOM     40  C   UNL     1      10.531  -7.719  -2.126  1.00  0.00     0.049 A 
ATOM     41  N   UNL     1      11.607  -8.392  -4.860  1.00  0.00    -0.248 NA
ATOM     42  C   UNL     1      11.305  -6.160  -5.474  1.00  0.00     0.031 C 
ATOM     43  C   UNL     1       9.968  -7.452  -0.799  1.00  0.00     0.029 A 
ATOM     44  N   UNL     1      10.850  -9.053  -2.085  1.00  0.00    -0.354 N 
ATOM     45  C   UNL     1      11.985  -8.226  -6.188  1.00  0.00     0.074 A 
ATOM     46  C   UNL     1      11.721  -6.844  -6.529  1.00  0.00     0.031 C 
ATOM     47  C   UNL     1       9.999  -8.580  -0.072  1.00  0.00     0.029 A 
ATOM     48  C   UNL     1      10.540  -9.661  -0.889  1.00  0.00     0.049 A 
ATOM     49  H   UNL     1      11.263  -9.531  -2.840  1.00  0.00     0.167 HD
ATOM     50  C   UNL     1      12.521  -9.139  -7.036  1.00  0.00     0.034 A 
ATOM     51  C   UNL     1      10.664 -10.946  -0.501  1.00  0.00     0.034 A 
ATOM     52  C   UNL     1      12.792 -10.508  -6.674  1.00  0.00     0.049 A 
ATOM     53  C   UNL     1      11.247 -11.944  -1.470  1.00  0.00     0.074 A 
ATOM     54  C   UNL     1      13.394 -11.497  -7.434  1.00  0.00     0.029 A 
ATOM     55  N   UNL     1      12.473 -11.088  -5.452  1.00  0.00    -0.354 N 
ATOM     56  N   UNL     1      11.658 -11.754  -2.703  1.00  0.00    -0.248 NA
ATOM     57  C   UNL     1      11.394 -13.324  -0.992  1.00  0.00     0.031 C 
ATOM     58  C   UNL     1      13.378 -12.687  -6.699  1.00  0.00     0.029 A 
ATOM     59  C   UNL     1      12.834 -12.426  -5.451  1.00  0.00     0.049 A 
ATOM     60  H   UNL     1      12.051 -10.617  -4.698  1.00  0.00     0.167 HD
ATOM     61  C   UNL     1      12.140 -12.987  -3.135  1.00  0.00     0.074 A 
ATOM     62  C   UNL     1      11.986 -13.904  -2.025  1.00  0.00     0.031 C 
ATOM     63  C   UNL     1      12.664 -13.331  -4.339  1.00  0.00     0.034 A 
BRANCH  50  64
ATOM     64  C   UNL     1      12.828  -8.689  -8.443  1.00  0.00     0.023 A 
ATOM     65  C   UNL     1      13.798  -7.707  -8.711  1.00  0.00     0.031 A 
ATOM     66  C   UNL     1      12.139  -9.249  -9.534  1.00  0.00     0.131 A 
ATOM     67  C   UNL     1      14.008  -7.271 -10.028  1.00  0.00     0.055 A 
ATOM     68  C   UNL     1      12.407  -8.864 -10.850  1.00  0.00     0.041 A 
ATOM     69  F   UNL     1      11.188 -10.176  -9.339  1.00  0.00    -0.206 F 
ATOM     70  C   UNL     1      13.338  -7.861 -11.102  1.00  0.00     0.022 A 
BRANCH  67  71
ATOM     71  S   UNL     1      15.086  -5.839 -10.305  1.00  0.00     0.124 S 
ATOM     72  O   UNL     1      14.392  -4.799  -9.550  1.00  0.00    -0.237 OA
ATOM     73  O   UNL     1      16.358  -6.289  -9.752  1.00  0.00    -0.237 OA
ATOM     74  O   UNL     1      15.061  -5.668 -11.756  1.00  0.00    -0.744 OA
ENDBRANCH  67  71
ENDBRANCH  50  64
BRANCH  51  75
ATOM     75  C   UNL     1      10.215 -11.379   0.854  1.00  0.00     0.023 A 
ATOM     76  C   UNL     1      11.129 -11.891   1.789  1.00  0.00     0.031 A 
ATOM     77  C   UNL     1       8.856 -11.345   1.213  1.00  0.00     0.131 A 
ATOM     78  C   UNL     1      10.668 -12.401   3.012  1.00  0.00     0.055 A 
ATOM     79  C   UNL     1       8.408 -11.801   2.455  1.00  0.00     0.041 A 
ATOM     80  F   UNL     1       7.939 -10.860   0.360  1.00  0.00    -0.206 F 
ATOM     81  C   UNL     1       9.315 -12.349   3.357  1.00  0.00     0.022 A 
BRANCH  78  82
ATOM     82  S   UNL     1      11.852 -13.232   4.107  1.00  0.00     0.124 S 
ATOM     83  O   UNL     1      12.396 -14.262   3.228  1.00  0.00    -0.237 OA
ATOM     84  O   UNL     1      12.756 -12.142   4.455  1.00  0.00    -0.237 OA
ATOM     85  O   UNL     1      11.016 -13.722   5.201  1.00  0.00    -0.744 OA
ENDBRANCH  78  82
ENDBRANCH  51  75
BRANCH  63  86
ATOM     86  C   UNL     1      13.146 -14.752  -4.493  1.00  0.00     0.023 A 
ATOM     87  C   UNL     1      12.254 -15.839  -4.483  1.00  0.00     0.031 A 
ATOM     88  C   UNL     1      14.518 -15.023  -4.635  1.00  0.00     0.131 A 
ATOM     89  C   UNL     1      12.750 -17.149  -4.554  1.00  0.00     0.055 A 
ATOM     90  C   UNL     1      15.001 -16.325  -4.767  1.00  0.00     0.041 A 
ATOM     91  F   UNL     1      15.414 -14.022  -4.648  1.00  0.00    -0.206 F 
ATOM     92  C   UNL     1      14.116 -17.399  -4.713  1.00  0.00     0.022 A 
BRANCH  89  93
ATOM     93  S   UNL     1      11.593 -18.530  -4.344  1.00  0.00     0.124 S 
ATOM     94  O   UNL     1      11.040 -18.264  -3.021  1.00  0.00    -0.237 OA
ATOM     95  O   UNL     1      10.679 -18.345  -5.466  1.00  0.00    -0.237 OA
ATOM     96  O   UNL     1      12.449 -19.712  -4.432  1.00  0.00    -0.744 OA
ENDBRANCH  89  93
ENDBRANCH  63  86
ENDBRANCH  37  38
ENDBRANCH  29  32
ENDBRANCH  27  28
ENDBRANCH  26  27
ENDBRANCH   1  26
TORSDOF 17
