REMARK SMILES Cc1ccc(C(=O)NCCCCNC(=O)c2ccc(-c3c4nc(c(-c5cc(S(=O)(=O)[O-])ccc5F)c5ccc([nH]5)c(-c5cc(S(=O)(=O)[O-])ccc5F)c5nc(c(-c6cc(S(=O)(=O)[O-])ccc6F)c6ccc3[nH]6)C=C5)C=C4)cc2)cc1O[C@@H](C)C(=O)N[C@@H]1CCS(=O)(=O)C1
REMARK SMILES IDX 10 1 9 2 8 3 6 4 7 5 5 7 1 8 2 9 3 10 80 11 4 12 79 13 81 14
REMARK SMILES IDX 82 15 83 16 84 17 85 18 86 19 87 21 88 22 93 23 89 24 90 25
REMARK SMILES IDX 91 26 92 27 11 28 12 29 13 30 14 31 15 33 16 34 17 35 78 36
REMARK SMILES IDX 18 37 77 38 19 39 20 40 21 41 71 42 22 43 76 44 70 45 72 46
REMARK SMILES IDX 23 47 75 48 69 49 68 50 24 52 56 53 36 54 55 55 37 56 40 57
REMARK SMILES IDX 54 58 73 59 38 60 39 61 53 63 74 64 41 65 25 66 26 67 34 68
REMARK SMILES IDX 27 69 33 70 35 71 32 72 28 73 29 74 30 75 31 76 57 77 58 78
REMARK SMILES IDX 66 79 59 80 65 81 67 82 64 83 60 84 61 85 62 86 63 87 42 88
REMARK SMILES IDX 43 89 51 90 44 91 50 92 52 93 49 94 45 95 46 96 47 97 48 98
REMARK H PARENT 8 6 86 20 13 32 72 51 40 62
REMARK Flexibility Score: inf
ROOT
ATOM      1  C   UNL     1      -3.432   3.325  -1.526  1.00  0.00     0.023 C 
ENDROOT
BRANCH   1   2
ATOM      2  C   UNL     1      -3.079   2.709  -0.165  1.00  0.00     0.116 C 
BRANCH   2   3
ATOM      3  N   UNL     1      -3.637   1.382   0.079  1.00  0.00    -0.352 N 
ATOM      4  C   UNL     1      -3.149   0.230   0.656  1.00  0.00     0.251 C 
ATOM      5  O   UNL     1      -3.925  -0.729   0.725  1.00  0.00    -0.269 OA
ATOM      6  H   UNL     1      -4.565   1.290  -0.238  1.00  0.00     0.163 HD
BRANCH   4   7
ATOM      7  C   UNL     1      -1.731   0.013   1.093  1.00  0.00     0.043 A 
ATOM      8  C   UNL     1       2.459  -0.976   1.744  1.00  0.00     0.048 C 
ATOM      9  C   UNL     1       1.031  -0.584   1.508  1.00  0.00    -0.009 A 
ATOM     10  C   UNL     1       0.075  -1.607   1.371  1.00  0.00     0.008 A 
ATOM     11  C   UNL     1       0.586   0.736   1.418  1.00  0.00     0.124 A 
ATOM     12  C   UNL     1      -1.270  -1.312   1.117  1.00  0.00     0.014 A 
ATOM     13  C   UNL     1      -0.801   1.014   1.367  1.00  0.00     0.060 A 
BRANCH  11  14
ATOM     14  O   UNL     1       1.334   1.859   1.337  1.00  0.00    -0.481 OA
BRANCH  14  15
ATOM     15  C   UNL     1       2.507   2.078   0.579  1.00  0.00     0.258 C 
ATOM     16  C   UNL     1       3.587   2.351   1.648  1.00  0.00     0.064 C 
BRANCH  15  17
ATOM     17  C   UNL     1       3.230   1.493  -0.728  1.00  0.00     0.261 C 
ATOM     18  O   UNL     1       4.407   1.791  -0.983  1.00  0.00    -0.271 OA
ATOM     19  N   UNL     1       2.632   0.753  -1.704  1.00  0.00    -0.349 N 
ATOM     20  H   UNL     1       3.145   0.678  -2.541  1.00  0.00     0.163 HD
BRANCH  19  21
ATOM     21  C   UNL     1       1.362   0.063  -1.704  1.00  0.00     0.098 C 
ATOM     22  C   UNL     1       1.230  -1.002  -2.811  1.00  0.00     0.042 C 
ATOM     23  C   UNL     1       0.174   1.004  -1.740  1.00  0.00     0.161 C 
ATOM     24  C   UNL     1       0.032  -0.698  -3.694  1.00  0.00     0.139 C 
ATOM     25  S   UNL     1      -0.433   0.972  -3.389  1.00  0.00     0.152 S 
ATOM     26  O   UNL     1       0.389   1.837  -4.218  1.00  0.00    -0.229 OA
ATOM     27  O   UNL     1      -1.871   1.024  -3.391  1.00  0.00    -0.229 OA
ENDBRANCH  19  21
ENDBRANCH  15  17
ENDBRANCH  14  15
ENDBRANCH  11  14
ENDBRANCH   4   7
ENDBRANCH   2   3
ENDBRANCH   1   2
BRANCH   1  28
ATOM     28  C   UNL     1      -4.895   3.548  -1.861  1.00  0.00     0.023 C 
BRANCH  28  29
ATOM     29  C   UNL     1      -5.604   4.533  -0.961  1.00  0.00     0.116 C 
BRANCH  29  30
ATOM     30  N   UNL     1      -5.357   5.942  -1.223  1.00  0.00    -0.352 N 
ATOM     31  C   UNL     1      -6.074   7.047  -0.785  1.00  0.00     0.251 C 
ATOM     32  H   UNL     1      -4.575   6.139  -1.788  1.00  0.00     0.163 HD
ATOM     33  O   UNL     1      -5.910   8.147  -1.308  1.00  0.00    -0.269 OA
BRANCH  31  34
ATOM     34  C   UNL     1      -6.904   6.952   0.449  1.00  0.00     0.039 A 
ATOM     35  C   UNL     1      -6.837   8.037   1.339  1.00  0.00     0.014 A 
ATOM     36  C   UNL     1      -7.347   5.724   0.906  1.00  0.00     0.014 A 
ATOM     37  C   UNL     1      -6.878   7.793   2.704  1.00  0.00     0.010 A 
ATOM     38  C   UNL     1      -7.134   5.431   2.219  1.00  0.00     0.010 A 
ATOM     39  C   UNL     1      -6.857   6.469   3.105  1.00  0.00    -0.014 A 
BRANCH  39  40
ATOM     40  C   UNL     1      -6.752   5.996   4.461  1.00  0.00     0.031 A 
ATOM     41  C   UNL     1      -8.035   5.710   5.116  1.00  0.00     0.074 A 
ATOM     42  C   UNL     1      -5.538   5.551   4.851  1.00  0.00     0.049 A 
ATOM     43  N   UNL     1      -8.171   5.397   6.347  1.00  0.00    -0.248 NA
ATOM     44  C   UNL     1      -9.320   5.793   4.408  1.00  0.00     0.031 C 
ATOM     45  C   UNL     1      -5.188   4.645   5.936  1.00  0.00     0.029 A 
ATOM     46  N   UNL     1      -4.313   6.081   4.445  1.00  0.00    -0.354 N 
ATOM     47  C   UNL     1      -9.443   4.887   6.492  1.00  0.00     0.074 A 
ATOM     48  C   UNL     1     -10.160   5.304   5.322  1.00  0.00     0.031 C 
ATOM     49  C   UNL     1      -3.924   4.904   6.323  1.00  0.00     0.029 A 
ATOM     50  C   UNL     1      -3.495   6.088   5.593  1.00  0.00     0.049 A 
ATOM     51  H   UNL     1      -4.069   6.386   3.541  1.00  0.00     0.167 HD
ATOM     52  C   UNL     1      -9.652   4.019   7.516  1.00  0.00     0.034 A 
ATOM     53  C   UNL     1      -3.190   7.293   6.169  1.00  0.00     0.034 A 
ATOM     54  C   UNL     1      -8.487   4.035   8.403  1.00  0.00     0.049 A 
ATOM     55  C   UNL     1      -3.839   7.424   7.532  1.00  0.00     0.074 A 
ATOM     56  C   UNL     1      -7.401   3.190   8.542  1.00  0.00     0.029 A 
ATOM     57  N   UNL     1      -8.133   5.239   9.004  1.00  0.00    -0.354 N 
ATOM     58  N   UNL     1      -4.943   6.817   7.889  1.00  0.00    -0.248 NA
ATOM     59  C   UNL     1      -3.221   8.159   8.630  1.00  0.00     0.031 C 
ATOM     60  C   UNL     1      -6.335   3.958   9.097  1.00  0.00     0.029 A 
ATOM     61  C   UNL     1      -6.794   5.245   9.335  1.00  0.00     0.049 A 
ATOM     62  H   UNL     1      -8.754   5.984   9.170  1.00  0.00     0.167 HD
ATOM     63  C   UNL     1      -5.157   7.008   9.230  1.00  0.00     0.074 A 
ATOM     64  C   UNL     1      -4.053   7.862   9.643  1.00  0.00     0.031 C 
ATOM     65  C   UNL     1      -6.193   6.435   9.921  1.00  0.00     0.034 A 
BRANCH  52  66
ATOM     66  C   UNL     1     -10.753   2.990   7.617  1.00  0.00     0.023 A 
ATOM     67  C   UNL     1     -10.707   2.101   8.711  1.00  0.00     0.031 A 
ATOM     68  C   UNL     1     -11.773   2.730   6.677  1.00  0.00     0.131 A 
ATOM     69  C   UNL     1     -11.603   1.024   8.827  1.00  0.00     0.055 A 
ATOM     70  C   UNL     1     -12.691   1.679   6.812  1.00  0.00     0.041 A 
ATOM     71  F   UNL     1     -11.924   3.437   5.553  1.00  0.00    -0.206 F 
ATOM     72  C   UNL     1     -12.606   0.813   7.888  1.00  0.00     0.022 A 
BRANCH  69  73
ATOM     73  S   UNL     1     -11.400  -0.131  10.206  1.00  0.00     0.124 S 
ATOM     74  O   UNL     1     -10.085  -0.701   9.937  1.00  0.00    -0.237 OA
ATOM     75  O   UNL     1     -11.501   0.750  11.365  1.00  0.00    -0.237 OA
ATOM     76  O   UNL     1     -12.520  -1.057  10.038  1.00  0.00    -0.744 OA
ENDBRANCH  69  73
ENDBRANCH  52  66
BRANCH  53  77
ATOM     77  C   UNL     1      -3.022   8.366   5.127  1.00  0.00     0.023 A 
ATOM     78  C   UNL     1      -2.072   8.082   4.115  1.00  0.00     0.031 A 
ATOM     79  C   UNL     1      -4.056   9.258   4.811  1.00  0.00     0.131 A 
ATOM     80  C   UNL     1      -2.341   8.430   2.782  1.00  0.00     0.055 A 
ATOM     81  C   UNL     1      -4.241   9.713   3.495  1.00  0.00     0.041 A 
ATOM     82  F   UNL     1      -4.990   9.575   5.720  1.00  0.00    -0.206 F 
ATOM     83  C   UNL     1      -3.431   9.236   2.461  1.00  0.00     0.022 A 
BRANCH  80  84
ATOM     84  S   UNL     1      -1.438   7.529   1.482  1.00  0.00     0.124 S 
ATOM     85  O   UNL     1      -0.100   8.102   1.585  1.00  0.00    -0.237 OA
ATOM     86  O   UNL     1      -1.569   6.137   1.915  1.00  0.00    -0.237 OA
ATOM     87  O   UNL     1      -2.163   7.844   0.254  1.00  0.00    -0.744 OA
ENDBRANCH  80  84
ENDBRANCH  53  77
BRANCH  65  88
ATOM     88  C   UNL     1      -6.681   6.902  11.276  1.00  0.00     0.023 A 
ATOM     89  C   UNL     1      -6.290   8.124  11.833  1.00  0.00     0.031 A 
ATOM     90  C   UNL     1      -7.641   6.173  12.023  1.00  0.00     0.131 A 
ATOM     91  C   UNL     1      -6.717   8.512  13.111  1.00  0.00     0.055 A 
ATOM     92  C   UNL     1      -8.162   6.622  13.239  1.00  0.00     0.041 A 
ATOM     93  F   UNL     1      -8.129   4.997  11.603  1.00  0.00    -0.206 F 
ATOM     94  C   UNL     1      -7.676   7.787  13.808  1.00  0.00     0.022 A 
BRANCH  91  95
ATOM     95  S   UNL     1      -5.885   9.924  13.874  1.00  0.00     0.124 S 
ATOM     96  O   UNL     1      -4.505   9.451  13.945  1.00  0.00    -0.237 OA
ATOM     97  O   UNL     1      -6.136  10.995  12.915  1.00  0.00    -0.237 OA
ATOM     98  O   UNL     1      -6.560  10.067  15.161  1.00  0.00    -0.744 OA
ENDBRANCH  91  95
ENDBRANCH  65  88
ENDBRANCH  39  40
ENDBRANCH  31  34
ENDBRANCH  29  30
ENDBRANCH  28  29
ENDBRANCH   1  28
TORSDOF 18
