REMARK SMILES C=CCN(CC(=O)NCCCCNC(=O)c1ccc(-c2c3nc(c(-c4cc(S(=O)(=O)[O-])ccc4F)c4ccc([nH]4)c(-c4cc(S(=O)(=O)[O-])ccc4F)c4nc(c(-c5cc(S(=O)(=O)[O-])ccc5F)c5ccc2[nH]5)C=C4)C=C3)cc1)S(=O)(=O)c1ccccc1OC
REMARK SMILES IDX 10 1 9 2 8 3 6 4 7 5 5 7 4 8 3 9 2 10 1 11 79 12 80 13 81 14
REMARK SMILES IDX 82 15 83 16 87 17 84 18 86 19 85 20 88 21 89 22 11 23 12 24
REMARK SMILES IDX 13 25 14 26 15 28 16 29 17 30 78 31 18 32 77 33 19 34 20 35
REMARK SMILES IDX 21 36 71 37 22 38 76 39 70 40 72 41 23 42 75 43 69 44 68 45
REMARK SMILES IDX 24 47 56 48 36 49 55 50 37 51 40 52 54 53 73 54 38 55 39 56
REMARK SMILES IDX 53 58 74 59 41 60 25 61 26 62 34 63 27 64 33 65 35 66 32 67
REMARK SMILES IDX 28 68 29 69 30 70 31 71 57 72 58 73 66 74 59 75 65 76 67 77
REMARK SMILES IDX 64 78 60 79 61 80 62 81 63 82 42 83 43 84 51 85 44 86 50 87
REMARK SMILES IDX 52 88 49 89 45 90 46 91 47 92 48 93
REMARK H PARENT 8 6 13 27 72 46 40 57
REMARK Flexibility Score: inf
ROOT
ATOM      1  C   UNL     1      -1.695   1.274   0.990  1.00  0.00     0.023 C 
ENDROOT
BRANCH   1   2
ATOM      2  C   UNL     1      -3.002   0.482   1.051  1.00  0.00     0.116 C 
BRANCH   2   3
ATOM      3  N   UNL     1      -3.654   0.425  -0.242  1.00  0.00    -0.355 N 
ATOM      4  C   UNL     1      -3.594  -0.529  -1.218  1.00  0.00     0.235 C 
ATOM      5  O   UNL     1      -4.290  -0.369  -2.225  1.00  0.00    -0.274 OA
ATOM      6  H   UNL     1      -4.231   1.196  -0.450  1.00  0.00     0.163 HD
BRANCH   4   7
ATOM      7  C   UNL     1      -2.769  -1.801  -1.040  1.00  0.00     0.202 C 
BRANCH   7   8
ATOM      8  N   UNL     1      -1.292  -1.791  -1.291  1.00  0.00    -0.185 NA
BRANCH   8   9
ATOM      9  C   UNL     1      -0.508  -1.725  -0.046  1.00  0.00     0.130 C 
BRANCH   9  10
ATOM     10  C   UNL     1       0.968  -1.587  -0.173  1.00  0.00    -0.018 C 
ATOM     11  C   UNL     1       1.640  -0.429  -0.088  1.00  0.00     0.005 C 
ENDBRANCH   9  10
ENDBRANCH   8   9
BRANCH   8  12
ATOM     12  S   UNL     1      -0.779  -1.091  -2.752  1.00  0.00     0.247 S 
ATOM     13  O   UNL     1      -1.390   0.209  -2.836  1.00  0.00    -0.207 OA
ATOM     14  O   UNL     1       0.653  -1.209  -2.935  1.00  0.00    -0.207 OA
BRANCH  12  15
ATOM     15  C   UNL     1      -1.497  -2.169  -3.993  1.00  0.00     0.124 A 
ATOM     16  C   UNL     1      -2.427  -1.547  -4.858  1.00  0.00     0.026 A 
ATOM     17  C   UNL     1      -1.133  -3.504  -4.226  1.00  0.00     0.138 A 
ATOM     18  C   UNL     1      -2.997  -2.231  -5.934  1.00  0.00     0.002 A 
ATOM     19  C   UNL     1      -1.740  -4.173  -5.312  1.00  0.00     0.048 A 
ATOM     20  C   UNL     1      -2.655  -3.554  -6.159  1.00  0.00     0.004 A 
BRANCH  17  21
ATOM     21  O   UNL     1      -0.254  -4.372  -3.648  1.00  0.00    -0.495 OA
ATOM     22  C   UNL     1       0.361  -4.161  -2.402  1.00  0.00     0.278 C 
ENDBRANCH  17  21
ENDBRANCH  12  15
ENDBRANCH   8  12
ENDBRANCH   7   8
ENDBRANCH   4   7
ENDBRANCH   2   3
ENDBRANCH   1   2
BRANCH   1  23
ATOM     23  C   UNL     1      -1.820   2.772   1.211  1.00  0.00     0.023 C 
BRANCH  23  24
ATOM     24  C   UNL     1      -2.350   3.168   2.579  1.00  0.00     0.116 C 
BRANCH  24  25
ATOM     25  N   UNL     1      -1.575   2.646   3.700  1.00  0.00    -0.352 N 
ATOM     26  C   UNL     1      -1.246   3.289   4.875  1.00  0.00     0.251 C 
ATOM     27  H   UNL     1      -1.246   1.723   3.606  1.00  0.00     0.163 HD
ATOM     28  O   UNL     1      -0.522   2.748   5.702  1.00  0.00    -0.269 OA
BRANCH  26  29
ATOM     29  C   UNL     1      -1.746   4.664   5.081  1.00  0.00     0.039 A 
ATOM     30  C   UNL     1      -0.840   5.683   5.378  1.00  0.00     0.014 A 
ATOM     31  C   UNL     1      -3.089   4.955   4.831  1.00  0.00     0.014 A 
ATOM     32  C   UNL     1      -1.267   7.011   5.326  1.00  0.00     0.010 A 
ATOM     33  C   UNL     1      -3.477   6.275   4.662  1.00  0.00     0.010 A 
ATOM     34  C   UNL     1      -2.574   7.320   4.912  1.00  0.00    -0.014 A 
BRANCH  34  35
ATOM     35  C   UNL     1      -3.032   8.725   4.749  1.00  0.00     0.031 A 
ATOM     36  C   UNL     1      -4.209   9.215   5.551  1.00  0.00     0.074 A 
ATOM     37  C   UNL     1      -2.453   9.525   3.831  1.00  0.00     0.049 A 
ATOM     38  N   UNL     1      -4.838  10.359   5.486  1.00  0.00    -0.248 NA
ATOM     39  C   UNL     1      -4.783   8.270   6.522  1.00  0.00     0.031 C 
ATOM     40  C   UNL     1      -1.346   9.143   2.950  1.00  0.00     0.029 A 
ATOM     41  N   UNL     1      -2.719  10.825   3.478  1.00  0.00    -0.354 N 
ATOM     42  C   UNL     1      -5.894  10.259   6.386  1.00  0.00     0.074 A 
ATOM     43  C   UNL     1      -5.868   8.914   6.917  1.00  0.00     0.031 C 
ATOM     44  C   UNL     1      -1.005  10.196   2.188  1.00  0.00     0.029 A 
ATOM     45  C   UNL     1      -1.897  11.311   2.487  1.00  0.00     0.049 A 
ATOM     46  H   UNL     1      -3.432  11.360   3.896  1.00  0.00     0.167 HD
ATOM     47  C   UNL     1      -6.783  11.211   6.763  1.00  0.00     0.034 A 
ATOM     48  C   UNL     1      -1.872  12.517   1.884  1.00  0.00     0.034 A 
ATOM     49  C   UNL     1      -6.772  12.556   6.245  1.00  0.00     0.049 A 
ATOM     50  C   UNL     1      -2.868  13.563   2.318  1.00  0.00     0.074 A 
ATOM     51  C   UNL     1      -7.577  13.623   6.598  1.00  0.00     0.029 A 
ATOM     52  N   UNL     1      -5.910  13.019   5.257  1.00  0.00    -0.354 N 
ATOM     53  N   UNL     1      -3.825  13.472   3.214  1.00  0.00    -0.248 NA
ATOM     54  C   UNL     1      -2.774  14.877   1.669  1.00  0.00     0.031 C 
ATOM     55  C   UNL     1      -7.249  14.709   5.780  1.00  0.00     0.029 A 
ATOM     56  C   UNL     1      -6.184  14.347   4.971  1.00  0.00     0.049 A 
ATOM     57  H   UNL     1      -5.208  12.481   4.824  1.00  0.00     0.167 HD
ATOM     58  C   UNL     1      -4.423  14.728   3.259  1.00  0.00     0.074 A 
ATOM     59  C   UNL     1      -3.711  15.560   2.310  1.00  0.00     0.031 C 
ATOM     60  C   UNL     1      -5.464  15.159   4.017  1.00  0.00     0.034 A 
BRANCH  47  61
ATOM     61  C   UNL     1      -7.839  10.815   7.769  1.00  0.00     0.023 A 
ATOM     62  C   UNL     1      -7.500  10.366   9.058  1.00  0.00     0.031 A 
ATOM     63  C   UNL     1      -9.200  10.839   7.421  1.00  0.00     0.131 A 
ATOM     64  C   UNL     1      -8.495   9.872   9.914  1.00  0.00     0.055 A 
ATOM     65  C   UNL     1     -10.196  10.435   8.313  1.00  0.00     0.041 A 
ATOM     66  F   UNL     1      -9.588  11.236   6.198  1.00  0.00    -0.206 F 
ATOM     67  C   UNL     1      -9.844   9.930   9.562  1.00  0.00     0.022 A 
BRANCH  64  68
ATOM     68  S   UNL     1      -7.984   9.001  11.421  1.00  0.00     0.124 S 
ATOM     69  O   UNL     1      -7.175   7.915  10.872  1.00  0.00    -0.237 OA
ATOM     70  O   UNL     1      -7.256  10.033  12.151  1.00  0.00    -0.237 OA
ATOM     71  O   UNL     1      -9.249   8.584  12.022  1.00  0.00    -0.744 OA
ENDBRANCH  64  68
ENDBRANCH  47  61
BRANCH  48  72
ATOM     72  C   UNL     1      -0.875  12.809   0.812  1.00  0.00     0.023 A 
ATOM     73  C   UNL     1       0.115  13.788   0.992  1.00  0.00     0.031 A 
ATOM     74  C   UNL     1      -0.922  12.142  -0.425  1.00  0.00     0.131 A 
ATOM     75  C   UNL     1       0.988  14.105  -0.061  1.00  0.00     0.055 A 
ATOM     76  C   UNL     1      -0.018  12.423  -1.451  1.00  0.00     0.041 A 
ATOM     77  F   UNL     1      -1.846  11.193  -0.650  1.00  0.00    -0.206 F 
ATOM     78  C   UNL     1       0.937  13.420  -1.276  1.00  0.00     0.022 A 
BRANCH  75  79
ATOM     79  S   UNL     1       2.141  15.490   0.153  1.00  0.00     0.124 S 
ATOM     80  O   UNL     1       1.230  16.594   0.436  1.00  0.00    -0.237 OA
ATOM     81  O   UNL     1       2.961  15.032   1.270  1.00  0.00    -0.237 OA
ATOM     82  O   UNL     1       2.829  15.562  -1.134  1.00  0.00    -0.744 OA
ENDBRANCH  75  79
ENDBRANCH  48  72
BRANCH  60  83
ATOM     83  C   UNL     1      -5.856  16.610   3.886  1.00  0.00     0.023 A 
ATOM     84  C   UNL     1      -6.410  17.125   2.702  1.00  0.00     0.031 A 
ATOM     85  C   UNL     1      -5.668  17.489   4.968  1.00  0.00     0.131 A 
ATOM     86  C   UNL     1      -6.707  18.493   2.609  1.00  0.00     0.055 A 
ATOM     87  C   UNL     1      -6.025  18.836   4.890  1.00  0.00     0.041 A 
ATOM     88  F   UNL     1      -5.141  17.050   6.122  1.00  0.00    -0.206 F 
ATOM     89  C   UNL     1      -6.536  19.347   3.701  1.00  0.00     0.022 A 
BRANCH  86  90
ATOM     90  S   UNL     1      -7.237  19.161   1.008  1.00  0.00     0.124 S 
ATOM     91  O   UNL     1      -6.112  18.813   0.147  1.00  0.00    -0.237 OA
ATOM     92  O   UNL     1      -8.478  18.433   0.762  1.00  0.00    -0.237 OA
ATOM     93  O   UNL     1      -7.400  20.590   1.270  1.00  0.00    -0.744 OA
ENDBRANCH  86  90
ENDBRANCH  60  83
ENDBRANCH  34  35
ENDBRANCH  26  29
ENDBRANCH  24  25
ENDBRANCH  23  24
ENDBRANCH   1  23
TORSDOF 20
