REMARK SMILES O=C(NCCCCNC(=O)[C@H](c1ccccc1)C(c1ccccc1)c1ccccc1)c1ccc(-c2c3nc(c(-c4cc(S(=O)(=O)[O-])ccc4F)c4ccc([nH]4)c(-c4cc(S(=O)(=O)[O-])ccc4F)c4nc(c(-c5cc(S(=O)(=O)[O-])ccc5F)c5ccc2[nH]5)C=C4)C=C3)cc1
REMARK SMILES IDX 5 1 4 2 3 3 1 4 2 5 31 7 32 8 93 9 33 10 92 11 34 12 35 13
REMARK SMILES IDX 36 14 86 15 37 16 91 17 85 18 87 19 38 20 90 21 84 22 83 23
REMARK SMILES IDX 39 25 71 26 51 27 70 28 52 29 55 30 69 31 88 32 53 33 54 34
REMARK SMILES IDX 68 36 89 37 56 38 40 39 41 40 49 41 42 42 48 43 50 44 47 45
REMARK SMILES IDX 43 46 44 47 45 48 46 49 72 50 73 51 81 52 74 53 80 54 82 55
REMARK SMILES IDX 79 56 75 57 76 58 77 59 78 60 57 61 58 62 66 63 59 64 65 65
REMARK SMILES IDX 67 66 64 67 60 68 61 69 62 70 63 71 6 72 7 73 8 74 9 75
REMARK SMILES IDX 10 77 11 78 18 79 19 80 20 81 24 82 21 83 23 84 22 85 25 86
REMARK SMILES IDX 26 87 30 88 27 89 29 90 28 91 12 92 13 93 17 94 14 95 16 96
REMARK SMILES IDX 15 97
REMARK H PARENT 3 6 87 24 55 35 8 76
REMARK Flexibility Score: inf
ROOT
ATOM      1  C   UNL     1       4.356  -4.195  10.430  1.00  0.00     0.023 C 
ENDROOT
BRANCH   1   2
ATOM      2  C   UNL     1       2.995  -4.783  10.057  1.00  0.00     0.116 C 
BRANCH   2   3
ATOM      3  N   UNL     1       2.907  -6.230  10.177  1.00  0.00    -0.352 N 
ATOM      4  O   UNL     1       2.075  -8.230  10.796  1.00  0.00    -0.269 OA
ATOM      5  C   UNL     1       1.968  -7.009  10.815  1.00  0.00     0.251 C 
ATOM      6  H   UNL     1       3.631  -6.729   9.733  1.00  0.00     0.163 HD
BRANCH   5   7
ATOM      7  C   UNL     1       0.853  -6.378  11.560  1.00  0.00     0.039 A 
ATOM      8  C   UNL     1       0.044  -5.400  10.975  1.00  0.00     0.014 A 
ATOM      9  C   UNL     1       0.624  -6.777  12.880  1.00  0.00     0.014 A 
ATOM     10  C   UNL     1      -0.895  -4.719  11.752  1.00  0.00     0.010 A 
ATOM     11  C   UNL     1      -0.355  -6.131  13.642  1.00  0.00     0.010 A 
ATOM     12  C   UNL     1      -1.091  -5.065  13.098  1.00  0.00    -0.014 A 
BRANCH  12  13
ATOM     13  C   UNL     1      -2.042  -4.302  13.949  1.00  0.00     0.031 A 
ATOM     14  C   UNL     1      -1.532  -3.462  15.089  1.00  0.00     0.074 A 
ATOM     15  C   UNL     1      -3.365  -4.384  13.716  1.00  0.00     0.049 A 
ATOM     16  N   UNL     1      -2.201  -2.805  16.003  1.00  0.00    -0.248 NA
ATOM     17  C   UNL     1      -0.072  -3.363  15.225  1.00  0.00     0.031 C 
ATOM     18  C   UNL     1      -3.982  -5.160  12.640  1.00  0.00     0.029 A 
ATOM     19  N   UNL     1      -4.429  -3.829  14.382  1.00  0.00    -0.354 N 
ATOM     20  C   UNL     1      -1.246  -2.229  16.835  1.00  0.00     0.074 A 
ATOM     21  C   UNL     1       0.047  -2.649  16.334  1.00  0.00     0.031 C 
ATOM     22  C   UNL     1      -5.315  -5.043  12.726  1.00  0.00     0.029 A 
ATOM     23  C   UNL     1      -5.649  -4.229  13.892  1.00  0.00     0.049 A 
ATOM     24  H   UNL     1      -4.328  -3.204  15.136  1.00  0.00     0.167 HD
ATOM     25  C   UNL     1      -1.431  -1.421  17.911  1.00  0.00     0.034 A 
ATOM     26  C   UNL     1      -6.896  -4.007  14.352  1.00  0.00     0.034 A 
ATOM     27  C   UNL     1      -2.730  -1.016  18.396  1.00  0.00     0.049 A 
ATOM     28  C   UNL     1      -7.087  -3.158  15.579  1.00  0.00     0.074 A 
ATOM     29  C   UNL     1      -3.035  -0.163  19.444  1.00  0.00     0.029 A 
ATOM     30  N   UNL     1      -3.945  -1.453  17.879  1.00  0.00    -0.354 N 
ATOM     31  N   UNL     1      -6.177  -2.598  16.341  1.00  0.00    -0.248 NA
ATOM     32  C   UNL     1      -8.470  -2.904  16.003  1.00  0.00     0.031 C 
ATOM     33  C   UNL     1      -4.426  -0.141  19.604  1.00  0.00     0.029 A 
ATOM     34  C   UNL     1      -4.996  -0.919  18.609  1.00  0.00     0.049 A 
ATOM     35  H   UNL     1      -4.044  -2.055  17.106  1.00  0.00     0.167 HD
ATOM     36  C   UNL     1      -6.878  -1.906  17.324  1.00  0.00     0.074 A 
ATOM     37  C   UNL     1      -8.287  -2.119  17.056  1.00  0.00     0.031 C 
ATOM     38  C   UNL     1      -6.398  -1.151  18.344  1.00  0.00     0.034 A 
BRANCH  25  39
ATOM     39  C   UNL     1      -0.197  -0.972  18.661  1.00  0.00     0.023 A 
ATOM     40  C   UNL     1       0.798  -0.187  18.050  1.00  0.00     0.031 A 
ATOM     41  C   UNL     1       0.012  -1.375  19.992  1.00  0.00     0.131 A 
ATOM     42  C   UNL     1       1.993   0.087  18.734  1.00  0.00     0.055 A 
ATOM     43  C   UNL     1       1.165  -1.024  20.697  1.00  0.00     0.041 A 
ATOM     44  F   UNL     1      -0.892  -2.140  20.625  1.00  0.00    -0.206 F 
ATOM     45  C   UNL     1       2.174  -0.306  20.062  1.00  0.00     0.022 A 
BRANCH  42  46
ATOM     46  S   UNL     1       3.375   0.807  17.805  1.00  0.00     0.124 S 
ATOM     47  O   UNL     1       3.503  -0.128  16.688  1.00  0.00    -0.237 OA
ATOM     48  O   UNL     1       2.873   2.134  17.471  1.00  0.00    -0.237 OA
ATOM     49  O   UNL     1       4.482   0.777  18.758  1.00  0.00    -0.744 OA
ENDBRANCH  42  46
ENDBRANCH  25  39
BRANCH  26  50
ATOM     50  C   UNL     1      -8.049  -4.655  13.670  1.00  0.00     0.023 A 
ATOM     51  C   UNL     1      -8.974  -3.908  12.927  1.00  0.00     0.031 A 
ATOM     52  C   UNL     1      -8.217  -6.051  13.731  1.00  0.00     0.131 A 
ATOM     53  C   UNL     1     -10.037  -4.561  12.283  1.00  0.00     0.055 A 
ATOM     54  C   UNL     1      -9.251  -6.699  13.056  1.00  0.00     0.041 A 
ATOM     55  F   UNL     1      -7.349  -6.808  14.421  1.00  0.00    -0.206 F 
ATOM     56  C   UNL     1     -10.172  -5.952  12.330  1.00  0.00     0.022 A 
BRANCH  53  57
ATOM     57  S   UNL     1     -11.262  -3.562  11.394  1.00  0.00     0.124 S 
ATOM     58  O   UNL     1     -11.824  -2.754  12.470  1.00  0.00    -0.237 OA
ATOM     59  O   UNL     1     -10.433  -2.854  10.425  1.00  0.00    -0.237 OA
ATOM     60  O   UNL     1     -12.166  -4.559  10.825  1.00  0.00    -0.744 OA
ENDBRANCH  53  57
ENDBRANCH  26  50
BRANCH  38  61
ATOM     61  C   UNL     1      -7.408  -0.458  19.223  1.00  0.00     0.023 A 
ATOM     62  C   UNL     1      -8.208  -1.164  20.137  1.00  0.00     0.031 A 
ATOM     63  C   UNL     1      -7.553   0.940  19.154  1.00  0.00     0.131 A 
ATOM     64  C   UNL     1      -9.143  -0.473  20.924  1.00  0.00     0.055 A 
ATOM     65  C   UNL     1      -8.451   1.626  19.971  1.00  0.00     0.041 A 
ATOM     66  F   UNL     1      -6.813   1.660  18.296  1.00  0.00    -0.206 F 
ATOM     67  C   UNL     1      -9.257   0.919  20.858  1.00  0.00     0.022 A 
BRANCH  64  68
ATOM     68  S   UNL     1     -10.246  -1.419  22.010  1.00  0.00     0.124 S 
ATOM     69  O   UNL     1     -11.004  -2.215  21.050  1.00  0.00    -0.237 OA
ATOM     70  O   UNL     1      -9.307  -2.155  22.849  1.00  0.00    -0.237 OA
ATOM     71  O   UNL     1     -11.015  -0.386  22.702  1.00  0.00    -0.744 OA
ENDBRANCH  64  68
ENDBRANCH  38  61
ENDBRANCH  12  13
ENDBRANCH   5   7
ENDBRANCH   2   3
ENDBRANCH   1   2
BRANCH   1  72
ATOM     72  C   UNL     1       5.588  -4.709   9.681  1.00  0.00     0.023 C 
BRANCH  72  73
ATOM     73  C   UNL     1       5.460  -4.861   8.171  1.00  0.00     0.116 C 
BRANCH  73  74
ATOM     74  N   UNL     1       5.166  -3.656   7.424  1.00  0.00    -0.356 N 
ATOM     75  C   UNL     1       5.244  -3.492   6.059  1.00  0.00     0.228 C 
ATOM     76  H   UNL     1       4.881  -2.872   7.946  1.00  0.00     0.163 HD
ATOM     77  O   UNL     1       4.513  -2.638   5.550  1.00  0.00    -0.274 OA
BRANCH  75  78
ATOM     78  C   UNL     1       6.251  -4.315   5.216  1.00  0.00     0.120 C 
BRANCH  78  79
ATOM     79  C   UNL     1       5.568  -5.528   4.473  1.00  0.00     0.066 C 
BRANCH  79  80
ATOM     80  C   UNL     1       6.480  -6.410   3.579  1.00  0.00    -0.039 A 
ATOM     81  C   UNL     1       5.885  -7.451   2.835  1.00  0.00     0.004 A 
ATOM     82  C   UNL     1       7.875  -6.277   3.500  1.00  0.00     0.004 A 
ATOM     83  C   UNL     1       6.654  -8.334   2.075  1.00  0.00     0.000 A 
ATOM     84  C   UNL     1       8.641  -7.135   2.704  1.00  0.00     0.000 A 
ATOM     85  C   UNL     1       8.033  -8.171   2.003  1.00  0.00     0.000 A 
ENDBRANCH  79  80
BRANCH  79  86
ATOM     86  C   UNL     1       4.770  -6.433   5.428  1.00  0.00    -0.039 A 
ATOM     87  C   UNL     1       3.389  -6.229   5.596  1.00  0.00     0.004 A 
ATOM     88  C   UNL     1       5.383  -7.490   6.129  1.00  0.00     0.004 A 
ATOM     89  C   UNL     1       2.647  -7.055   6.442  1.00  0.00     0.000 A 
ATOM     90  C   UNL     1       4.636  -8.320   6.966  1.00  0.00     0.000 A 
ATOM     91  C   UNL     1       3.269  -8.101   7.123  1.00  0.00     0.000 A 
ENDBRANCH  79  86
ENDBRANCH  78  79
BRANCH  78  92
ATOM     92  C   UNL     1       7.005  -3.341   4.280  1.00  0.00    -0.035 A 
ATOM     93  C   UNL     1       6.596  -3.087   2.959  1.00  0.00     0.004 A 
ATOM     94  C   UNL     1       8.162  -2.692   4.748  1.00  0.00     0.004 A 
ATOM     95  C   UNL     1       7.357  -2.278   2.112  1.00  0.00     0.000 A 
ATOM     96  C   UNL     1       8.917  -1.874   3.902  1.00  0.00     0.000 A 
ATOM     97  C   UNL     1       8.524  -1.680   2.580  1.00  0.00     0.000 A 
ENDBRANCH  78  92
ENDBRANCH  75  78
ENDBRANCH  73  74
ENDBRANCH  72  73
ENDBRANCH   1  72
TORSDOF 18
