REMARK SMILES CC(C)(C[N@H+]1C[C@@H]2C[NH2+]C[C@H]2C1(C)C)C(=O)NCCCCNC(=O)c1ccc(-c2c3nc(c(-c4cc(S(=O)(=O)[O-])ccc4F)c4ccc([nH]4)c(-c4cc(S(=O)(=O)[O-])ccc4F)c4nc(c(-c5cc(S(=O)(=O)[O-])ccc5F)c5ccc2[nH]5)C=C4)C=C3)cc1
REMARK SMILES IDX 20 1 19 2 18 3 17 4 15 5 16 6 2 8 1 9 3 10 4 11 5 12 6 13
REMARK SMILES IDX 12 14 7 16 11 17 13 18 14 19 8 20 10 21 9 22 21 25 22 26
REMARK SMILES IDX 23 27 24 29 25 30 26 31 87 32 27 33 86 34 28 35 29 36 30 37
REMARK SMILES IDX 80 38 31 39 85 40 79 41 81 42 32 43 84 44 78 45 77 46 33 48
REMARK SMILES IDX 65 49 45 50 64 51 46 52 49 53 63 54 82 55 47 56 48 57 62 59
REMARK SMILES IDX 83 60 50 61 34 62 35 63 43 64 36 65 42 66 44 67 41 68 37 69
REMARK SMILES IDX 38 70 39 71 40 72 66 73 67 74 75 75 68 76 74 77 76 78 73 79
REMARK SMILES IDX 69 80 70 81 71 82 72 83 51 84 52 85 60 86 53 87 59 88 61 89
REMARK SMILES IDX 58 90 54 91 55 92 56 93 57 94
REMARK H PARENT 17 7 5 15 9 23 9 24 22 28 81 47 49 58
REMARK Flexibility Score: inf
ROOT
ATOM      1  C   UNL     1      -1.224   3.710  -4.784  1.00  0.00     0.023 C 
ENDROOT
BRANCH   1   2
ATOM      2  C   UNL     1      -1.365   2.238  -4.419  1.00  0.00     0.023 C 
BRANCH   2   3
ATOM      3  C   UNL     1      -0.062   1.458  -4.267  1.00  0.00     0.116 C 
BRANCH   3   4
ATOM      4  N   UNL     1       0.810   1.964  -3.219  1.00  0.00    -0.355 N 
ATOM      5  C   UNL     1       1.178   1.498  -1.993  1.00  0.00     0.231 C 
ATOM      6  O   UNL     1       2.082   2.131  -1.435  1.00  0.00    -0.274 OA
ATOM      7  H   UNL     1       1.224   2.829  -3.444  1.00  0.00     0.163 HD
BRANCH   5   8
ATOM      8  C   UNL     1       0.548   0.259  -1.315  1.00  0.00     0.092 C 
ATOM      9  C   UNL     1       1.154   0.056   0.095  1.00  0.00     0.027 C 
ATOM     10  C   UNL     1       0.972  -0.994  -2.118  1.00  0.00     0.027 C 
BRANCH   8  11
ATOM     11  C   UNL     1      -1.006   0.354  -1.215  1.00  0.00     0.279 C 
BRANCH  11  12
ATOM     12  N   UNL     1      -1.665   1.182  -0.182  1.00  0.00    -0.329 N 
ATOM     13  C   UNL     1      -1.107   2.543   0.048  1.00  0.00     0.272 C 
ATOM     14  C   UNL     1      -3.171   1.339  -0.353  1.00  0.00     0.101 C 
ATOM     15  H   UNL     1      -1.456   0.611   0.637  1.00  0.00     0.348 HD
ATOM     16  C   UNL     1      -2.056   3.408  -0.716  1.00  0.00     0.114 C 
ATOM     17  C   UNL     1      -3.377   2.858  -0.249  1.00  0.00     0.119 C 
ATOM     18  C   UNL     1      -3.832   0.748  -1.611  1.00  0.00     0.079 C 
ATOM     19  C   UNL     1      -3.816   0.641   0.859  1.00  0.00     0.079 C 
ATOM     20  C   UNL     1      -2.263   4.880  -0.513  1.00  0.00     0.270 C 
ATOM     21  C   UNL     1      -4.308   3.727  -1.062  1.00  0.00     0.271 C 
ATOM     22  N   UNL     1      -3.645   5.061  -1.034  1.00  0.00    -0.345 N 
ATOM     23  H   UNL     1      -3.611   5.450  -1.976  1.00  0.00     0.346 HD
ATOM     24  H   UNL     1      -4.167   5.701  -0.436  1.00  0.00     0.346 HD
ENDBRANCH  11  12
ENDBRANCH   8  11
ENDBRANCH   5   8
ENDBRANCH   3   4
ENDBRANCH   2   3
ENDBRANCH   1   2
BRANCH   1  25
ATOM     25  C   UNL     1      -0.523   3.957  -6.109  1.00  0.00     0.116 C 
BRANCH  25  26
ATOM     26  N   UNL     1      -1.165   3.267  -7.219  1.00  0.00    -0.352 N 
ATOM     27  C   UNL     1      -1.445   3.739  -8.478  1.00  0.00     0.251 C 
ATOM     28  H   UNL     1      -1.434   2.337  -7.044  1.00  0.00     0.163 HD
ATOM     29  O   UNL     1      -2.133   3.071  -9.244  1.00  0.00    -0.269 OA
BRANCH  27  30
ATOM     30  C   UNL     1      -0.934   5.064  -8.877  1.00  0.00     0.039 A 
ATOM     31  C   UNL     1      -1.798   5.968  -9.499  1.00  0.00     0.014 A 
ATOM     32  C   UNL     1       0.388   5.422  -8.600  1.00  0.00     0.014 A 
ATOM     33  C   UNL     1      -1.350   7.258  -9.787  1.00  0.00     0.010 A 
ATOM     34  C   UNL     1       0.804   6.729  -8.809  1.00  0.00     0.010 A 
ATOM     35  C   UNL     1      -0.057   7.658  -9.413  1.00  0.00    -0.014 A 
BRANCH  35  36
ATOM     36  C   UNL     1       0.441   9.031  -9.676  1.00  0.00     0.031 A 
ATOM     37  C   UNL     1       1.613   9.224 -10.599  1.00  0.00     0.074 A 
ATOM     38  C   UNL     1      -0.106  10.080  -9.032  1.00  0.00     0.049 A 
ATOM     39  N   UNL     1       2.292  10.309 -10.862  1.00  0.00    -0.248 NA
ATOM     40  C   UNL     1       2.110   8.022 -11.287  1.00  0.00     0.031 C 
ATOM     41  C   UNL     1      -1.224  10.007  -8.089  1.00  0.00     0.029 A 
ATOM     42  N   UNL     1       0.214  11.414  -9.062  1.00  0.00    -0.354 N 
ATOM     43  C   UNL     1       3.307   9.918 -11.729  1.00  0.00     0.074 A 
ATOM     44  C   UNL     1       3.193   8.485 -11.892  1.00  0.00     0.031 C 
ATOM     45  C   UNL     1      -1.510  11.244  -7.649  1.00  0.00     0.029 A 
ATOM     46  C   UNL     1      -0.568  12.190  -8.238  1.00  0.00     0.049 A 
ATOM     47  H   UNL     1       0.936  11.782  -9.622  1.00  0.00     0.167 HD
ATOM     48  C   UNL     1       4.232  10.689 -12.353  1.00  0.00     0.034 A 
ATOM     49  C   UNL     1      -0.518  13.511  -7.978  1.00  0.00     0.034 A 
ATOM     50  C   UNL     1       4.314  12.119 -12.195  1.00  0.00     0.049 A 
ATOM     51  C   UNL     1       0.530  14.346  -8.672  1.00  0.00     0.074 A 
ATOM     52  C   UNL     1       5.184  13.007 -12.803  1.00  0.00     0.029 A 
ATOM     53  N   UNL     1       3.490  12.874 -11.368  1.00  0.00    -0.354 N 
ATOM     54  N   UNL     1       1.466  13.966  -9.513  1.00  0.00    -0.248 NA
ATOM     55  C   UNL     1       0.522  15.787  -8.392  1.00  0.00     0.031 C 
ATOM     56  C   UNL     1       4.922  14.288 -12.305  1.00  0.00     0.029 A 
ATOM     57  C   UNL     1       3.842  14.212 -11.439  1.00  0.00     0.049 A 
ATOM     58  H   UNL     1       2.762  12.511 -10.813  1.00  0.00     0.167 HD
ATOM     59  C   UNL     1       2.130  15.130  -9.891  1.00  0.00     0.074 A 
ATOM     60  C   UNL     1       1.482  16.222  -9.194  1.00  0.00     0.031 C 
ATOM     61  C   UNL     1       3.177  15.285 -10.740  1.00  0.00     0.034 A 
BRANCH  48  62
ATOM     62  C   UNL     1       5.229   9.989 -13.244  1.00  0.00     0.023 A 
ATOM     63  C   UNL     1       4.824   9.286 -14.393  1.00  0.00     0.031 A 
ATOM     64  C   UNL     1       6.599   9.994 -12.926  1.00  0.00     0.131 A 
ATOM     65  C   UNL     1       5.763   8.554 -15.134  1.00  0.00     0.055 A 
ATOM     66  C   UNL     1       7.541   9.333 -13.717  1.00  0.00     0.041 A 
ATOM     67  F   UNL     1       7.044  10.630 -11.830  1.00  0.00    -0.206 F 
ATOM     68  C   UNL     1       7.123   8.594 -14.820  1.00  0.00     0.022 A 
BRANCH  65  69
ATOM     69  S   UNL     1       5.160   7.435 -16.428  1.00  0.00     0.124 S 
ATOM     70  O   UNL     1       4.325   6.517 -15.657  1.00  0.00    -0.237 OA
ATOM     71  O   UNL     1       4.453   8.341 -17.326  1.00  0.00    -0.237 OA
ATOM     72  O   UNL     1       6.383   6.848 -16.970  1.00  0.00    -0.744 OA
ENDBRANCH  65  69
ENDBRANCH  48  62
BRANCH  49  73
ATOM     73  C   UNL     1      -1.476  14.137  -7.022  1.00  0.00     0.023 A 
ATOM     74  C   UNL     1      -2.399  15.102  -7.456  1.00  0.00     0.031 A 
ATOM     75  C   UNL     1      -1.447  13.824  -5.651  1.00  0.00     0.131 A 
ATOM     76  C   UNL     1      -3.215  15.762  -6.524  1.00  0.00     0.055 A 
ATOM     77  C   UNL     1      -2.300  14.443  -4.735  1.00  0.00     0.041 A 
ATOM     78  F   UNL     1      -0.588  12.905  -5.182  1.00  0.00    -0.206 F 
ATOM     79  C   UNL     1      -3.180  15.431  -5.168  1.00  0.00     0.022 A 
BRANCH  76  80
ATOM     80  S   UNL     1      -4.250  17.136  -7.098  1.00  0.00     0.124 S 
ATOM     81  O   UNL     1      -3.261  18.019  -7.707  1.00  0.00    -0.237 OA
ATOM     82  O   UNL     1      -5.162  16.463  -8.017  1.00  0.00    -0.237 OA
ATOM     83  O   UNL     1      -4.863  17.636  -5.870  1.00  0.00    -0.744 OA
ENDBRANCH  76  80
ENDBRANCH  49  73
BRANCH  61  84
ATOM     84  C   UNL     1       3.637  16.696 -11.008  1.00  0.00     0.023 A 
ATOM     85  C   UNL     1       4.257  17.476 -10.018  1.00  0.00     0.031 A 
ATOM     86  C   UNL     1       3.446  17.265 -12.280  1.00  0.00     0.131 A 
ATOM     87  C   UNL     1       4.616  18.803 -10.300  1.00  0.00     0.055 A 
ATOM     88  C   UNL     1       3.858  18.566 -12.571  1.00  0.00     0.041 A 
ATOM     89  F   UNL     1       2.859  16.563 -13.262  1.00  0.00    -0.206 F 
ATOM     90  C   UNL     1       4.435  19.347 -11.574  1.00  0.00     0.022 A 
BRANCH  87  91
ATOM     91  S   UNL     1       5.250  19.838  -8.952  1.00  0.00     0.124 S 
ATOM     92  O   UNL     1       4.148  19.804  -7.997  1.00  0.00    -0.237 OA
ATOM     93  O   UNL     1       6.460  19.126  -8.554  1.00  0.00    -0.237 OA
ATOM     94  O   UNL     1       5.477  21.133  -9.592  1.00  0.00    -0.744 OA
ENDBRANCH  87  91
ENDBRANCH  61  84
ENDBRANCH  35  36
ENDBRANCH  27  30
ENDBRANCH  25  26
ENDBRANCH   1  25
TORSDOF 16
