REMARK SMILES O=C(NCCCCNC(=O)[C@@H]1CCCC[C@@H]1C(=O)Nc1cccc(C(F)(F)F)c1)c1ccc(-c2c3nc(c(-c4cc(S(=O)(=O)[O-])ccc4F)c4ccc([nH]4)c(-c4cc(S(=O)(=O)[O-])ccc4F)c4nc(c(-c5cc(S(=O)(=O)[O-])ccc5F)c5ccc2[nH]5)C=C4)C=C3)cc1
REMARK SMILES IDX 5 1 4 2 3 3 1 4 2 5 30 7 31 8 92 9 32 10 91 11 33 12 34 13
REMARK SMILES IDX 35 14 85 15 36 16 90 17 84 18 86 19 37 20 89 21 83 22 82 23
REMARK SMILES IDX 38 25 70 26 50 27 69 28 51 29 54 30 68 31 87 32 52 33 53 34
REMARK SMILES IDX 67 36 88 37 55 38 39 39 40 40 48 41 41 42 47 43 49 44 46 45
REMARK SMILES IDX 42 46 43 47 44 48 45 49 71 50 72 51 80 52 73 53 79 54 81 55
REMARK SMILES IDX 78 56 74 57 75 58 76 59 77 60 56 61 57 62 65 63 58 64 64 65
REMARK SMILES IDX 66 66 63 67 59 68 60 69 61 70 62 71 6 72 7 73 8 74 9 75
REMARK SMILES IDX 10 77 11 78 12 79 16 80 13 81 15 82 14 83 17 84 18 85 19 86
REMARK SMILES IDX 20 88 21 89 29 90 22 91 24 92 23 93 25 94 26 95 27 96 28 97
REMARK H PARENT 3 6 86 24 54 35 8 76 19 87
REMARK Flexibility Score: inf
ROOT
ATOM      1  C   UNL     1       4.897  -0.653   2.517  1.00  0.00     0.023 C 
ENDROOT
BRANCH   1   2
ATOM      2  C   UNL     1       4.553  -0.711   1.032  1.00  0.00     0.116 C 
BRANCH   2   3
ATOM      3  N   UNL     1       3.125  -0.856   0.797  1.00  0.00    -0.352 N 
ATOM      4  O   UNL     1       1.093  -0.261   0.026  1.00  0.00    -0.269 OA
ATOM      5  C   UNL     1       2.305  -0.107  -0.015  1.00  0.00     0.251 C 
ATOM      6  H   UNL     1       2.685  -1.588   1.286  1.00  0.00     0.163 HD
BRANCH   5   7
ATOM      7  C   UNL     1       2.907   0.897  -0.918  1.00  0.00     0.039 A 
ATOM      8  C   UNL     1       4.004   0.568  -1.720  1.00  0.00     0.014 A 
ATOM      9  C   UNL     1       2.367   2.183  -0.952  1.00  0.00     0.014 A 
ATOM     10  C   UNL     1       4.636   1.556  -2.468  1.00  0.00     0.010 A 
ATOM     11  C   UNL     1       2.959   3.156  -1.759  1.00  0.00     0.010 A 
ATOM     12  C   UNL     1       4.112   2.857  -2.505  1.00  0.00    -0.014 A 
BRANCH  12  13
ATOM     13  C   UNL     1       4.743   3.897  -3.355  1.00  0.00     0.031 A 
ATOM     14  C   UNL     1       5.354   5.121  -2.736  1.00  0.00     0.074 A 
ATOM     15  C   UNL     1       4.724   3.750  -4.693  1.00  0.00     0.049 A 
ATOM     16  N   UNL     1       5.833   6.191  -3.317  1.00  0.00    -0.248 NA
ATOM     17  C   UNL     1       5.418   5.149  -1.269  1.00  0.00     0.031 C 
ATOM     18  C   UNL     1       4.170   2.596  -5.404  1.00  0.00     0.029 A 
ATOM     19  N   UNL     1       5.165   4.579  -5.694  1.00  0.00    -0.354 N 
ATOM     20  C   UNL     1       6.237   7.034  -2.287  1.00  0.00     0.074 A 
ATOM     21  C   UNL     1       5.908   6.360  -1.047  1.00  0.00     0.031 C 
ATOM     22  C   UNL     1       4.303   2.790  -6.724  1.00  0.00     0.029 A 
ATOM     23  C   UNL     1       4.880   4.110  -6.954  1.00  0.00     0.049 A 
ATOM     24  H   UNL     1       5.637   5.426  -5.526  1.00  0.00     0.167 HD
ATOM     25  C   UNL     1       6.828   8.253  -2.374  1.00  0.00     0.034 A 
ATOM     26  C   UNL     1       5.018   4.693  -8.161  1.00  0.00     0.034 A 
ATOM     27  C   UNL     1       7.130   8.906  -3.628  1.00  0.00     0.049 A 
ATOM     28  C   UNL     1       5.603   6.076  -8.238  1.00  0.00     0.074 A 
ATOM     29  C   UNL     1       7.756  10.123  -3.837  1.00  0.00     0.029 A 
ATOM     30  N   UNL     1       6.808   8.408  -4.886  1.00  0.00    -0.354 N 
ATOM     31  N   UNL     1       5.992   6.861  -7.260  1.00  0.00    -0.248 NA
ATOM     32  C   UNL     1       5.773   6.652  -9.578  1.00  0.00     0.031 C 
ATOM     33  C   UNL     1       7.732  10.400  -5.209  1.00  0.00     0.029 A 
ATOM     34  C   UNL     1       7.184   9.311  -5.869  1.00  0.00     0.049 A 
ATOM     35  H   UNL     1       6.375   7.540  -5.054  1.00  0.00     0.167 HD
ATOM     36  C   UNL     1       6.486   8.011  -7.869  1.00  0.00     0.074 A 
ATOM     37  C   UNL     1       6.340   7.818  -9.298  1.00  0.00     0.031 C 
ATOM     38  C   UNL     1       7.028   9.114  -7.294  1.00  0.00     0.034 A 
BRANCH  25  39
ATOM     39  C   UNL     1       7.120   8.977  -1.078  1.00  0.00     0.023 A 
ATOM     40  C   UNL     1       7.970   8.433  -0.099  1.00  0.00     0.031 A 
ATOM     41  C   UNL     1       6.494  10.204  -0.791  1.00  0.00     0.131 A 
ATOM     42  C   UNL     1       8.086   9.055   1.154  1.00  0.00     0.055 A 
ATOM     43  C   UNL     1       6.693  10.869   0.421  1.00  0.00     0.041 A 
ATOM     44  F   UNL     1       5.655  10.768  -1.674  1.00  0.00    -0.206 F 
ATOM     45  C   UNL     1       7.475  10.284   1.412  1.00  0.00     0.022 A 
BRANCH  42  46
ATOM     46  S   UNL     1       8.880   8.136   2.503  1.00  0.00     0.124 S 
ATOM     47  O   UNL     1       8.110   6.894   2.507  1.00  0.00    -0.237 OA
ATOM     48  O   UNL     1      10.259   8.032   2.043  1.00  0.00    -0.237 OA
ATOM     49  O   UNL     1       8.671   8.991   3.670  1.00  0.00    -0.744 OA
ENDBRANCH  42  46
ENDBRANCH  25  39
BRANCH  26  50
ATOM     50  C   UNL     1       4.540   3.978  -9.376  1.00  0.00     0.023 A 
ATOM     51  C   UNL     1       5.436   3.522 -10.354  1.00  0.00     0.031 A 
ATOM     52  C   UNL     1       3.169   3.716  -9.560  1.00  0.00     0.131 A 
ATOM     53  C   UNL     1       4.949   2.845 -11.483  1.00  0.00     0.055 A 
ATOM     54  C   UNL     1       2.695   2.999 -10.659  1.00  0.00     0.041 A 
ATOM     55  F   UNL     1       2.272   4.125  -8.649  1.00  0.00    -0.206 F 
ATOM     56  C   UNL     1       3.588   2.566 -11.633  1.00  0.00     0.022 A 
BRANCH  53  57
ATOM     57  S   UNL     1       6.119   2.374 -12.786  1.00  0.00     0.124 S 
ATOM     58  O   UNL     1       6.648   3.672 -13.191  1.00  0.00    -0.237 OA
ATOM     59  O   UNL     1       7.040   1.501 -12.066  1.00  0.00    -0.237 OA
ATOM     60  O   UNL     1       5.276   1.707 -13.775  1.00  0.00    -0.744 OA
ENDBRANCH  53  57
ENDBRANCH  26  50
BRANCH  38  61
ATOM     61  C   UNL     1       7.574  10.180  -8.213  1.00  0.00     0.023 A 
ATOM     62  C   UNL     1       6.743  10.982  -9.014  1.00  0.00     0.031 A 
ATOM     63  C   UNL     1       8.961  10.416  -8.254  1.00  0.00     0.131 A 
ATOM     64  C   UNL     1       7.310  11.964  -9.843  1.00  0.00     0.055 A 
ATOM     65  C   UNL     1       9.513  11.429  -9.037  1.00  0.00     0.041 A 
ATOM     66  F   UNL     1       9.801   9.674  -7.515  1.00  0.00    -0.206 F 
ATOM     67  C   UNL     1       8.687  12.206  -9.843  1.00  0.00     0.022 A 
BRANCH  64  68
ATOM     68  S   UNL     1       6.233  12.889 -10.972  1.00  0.00     0.124 S 
ATOM     69  O   UNL     1       5.684  11.825 -11.807  1.00  0.00    -0.237 OA
ATOM     70  O   UNL     1       5.295  13.530 -10.057  1.00  0.00    -0.237 OA
ATOM     71  O   UNL     1       7.152  13.800 -11.654  1.00  0.00    -0.744 OA
ENDBRANCH  64  68
ENDBRANCH  38  61
ENDBRANCH  12  13
ENDBRANCH   5   7
ENDBRANCH   2   3
ENDBRANCH   1   2
BRANCH   1  72
ATOM     72  C   UNL     1       4.473  -1.885   3.322  1.00  0.00     0.023 C 
BRANCH  72  73
ATOM     73  C   UNL     1       4.987  -3.208   2.750  1.00  0.00     0.116 C 
BRANCH  73  74
ATOM     74  N   UNL     1       6.437  -3.298   2.846  1.00  0.00    -0.356 N 
ATOM     75  C   UNL     1       7.222  -3.881   3.804  1.00  0.00     0.223 C 
ATOM     76  H   UNL     1       6.930  -2.873   2.108  1.00  0.00     0.163 HD
ATOM     77  O   UNL     1       8.408  -3.569   3.870  1.00  0.00    -0.275 OA
BRANCH  75  78
ATOM     78  C   UNL     1       6.582  -4.852   4.778  1.00  0.00     0.091 C 
ATOM     79  C   UNL     1       6.859  -4.464   6.231  1.00  0.00     0.014 C 
ATOM     80  C   UNL     1       6.833  -6.360   4.505  1.00  0.00     0.091 C 
ATOM     81  C   UNL     1       5.897  -5.220   7.148  1.00  0.00     0.001 C 
ATOM     82  C   UNL     1       5.830  -7.085   5.420  1.00  0.00     0.014 C 
ATOM     83  C   UNL     1       5.957  -6.723   6.904  1.00  0.00     0.001 C 
BRANCH  80  84
ATOM     84  C   UNL     1       8.349  -6.734   4.460  1.00  0.00     0.228 C 
ATOM     85  O   UNL     1       9.053  -6.291   3.546  1.00  0.00    -0.274 OA
ATOM     86  N   UNL     1       9.004  -7.447   5.423  1.00  0.00    -0.326 N 
ATOM     87  H   UNL     1       9.908  -7.121   5.635  1.00  0.00     0.169 HD
BRANCH  86  88
ATOM     88  C   UNL     1       8.597  -8.565   6.157  1.00  0.00     0.041 A 
ATOM     89  C   UNL     1       9.058  -8.710   7.466  1.00  0.00     0.026 A 
ATOM     90  C   UNL     1       7.701  -9.492   5.634  1.00  0.00     0.039 A 
ATOM     91  C   UNL     1       8.462  -9.654   8.305  1.00  0.00     0.003 A 
ATOM     92  C   UNL     1       7.056 -10.409   6.476  1.00  0.00     0.058 A 
ATOM     93  C   UNL     1       7.437 -10.472   7.823  1.00  0.00     0.013 A 
BRANCH  92  94
ATOM     94  C   UNL     1       5.888 -11.216   5.967  1.00  0.00     0.416 C 
ATOM     95  F   UNL     1       6.069 -12.557   6.103  1.00  0.00    -0.166 F 
ATOM     96  F   UNL     1       4.736 -10.924   6.636  1.00  0.00    -0.166 F 
ATOM     97  F   UNL     1       5.609 -11.004   4.650  1.00  0.00    -0.166 F 
ENDBRANCH  92  94
ENDBRANCH  86  88
ENDBRANCH  80  84
ENDBRANCH  75  78
ENDBRANCH  73  74
ENDBRANCH  72  73
ENDBRANCH   1  72
TORSDOF 17
