REMARK SMILES O=C(NCCCCNC(=O)[C@H]1CCCN(c2cc(-c3ccccn3)nc(-c3ccccc3F)n2)C1)c1ccc(-c2c3nc(c(-c4cc(S(=O)(=O)[O-])ccc4F)c4ccc([nH]4)c(-c4cc(S(=O)(=O)[O-])ccc4F)c4nc(c(-c5cc(S(=O)(=O)[O-])ccc5F)c5ccc2[nH]5)C=C4)C=C3)cc1
REMARK SMILES IDX 5 1 4 2 3 3 1 4 2 5 36 7 37 8 98 9 38 10 97 11 39 12 40 13
REMARK SMILES IDX 41 14 91 15 42 16 96 17 90 18 92 19 43 20 95 21 89 22 88 23
REMARK SMILES IDX 44 25 76 26 56 27 75 28 57 29 60 30 74 31 93 32 58 33 59 34
REMARK SMILES IDX 73 36 94 37 61 38 45 39 46 40 54 41 47 42 53 43 55 44 52 45
REMARK SMILES IDX 48 46 49 47 50 48 51 49 77 50 78 51 86 52 79 53 85 54 87 55
REMARK SMILES IDX 84 56 80 57 81 58 82 59 83 60 62 61 63 62 71 63 64 64 70 65
REMARK SMILES IDX 72 66 69 67 65 68 66 69 67 70 68 71 6 72 7 73 8 74 9 75
REMARK SMILES IDX 10 77 11 78 12 79 35 80 13 81 15 82 14 83 16 84 17 85 34 86
REMARK SMILES IDX 18 87 26 88 25 89 19 90 20 91 24 92 21 93 23 94 22 95 27 96
REMARK SMILES IDX 28 97 32 98 29 99 31 100 33 101 30 102
REMARK H PARENT 3 6 92 24 60 35 8 76
REMARK Flexibility Score: inf
ROOT
ATOM      1  C   UNL     1       5.811   6.048  -6.984  1.00  0.00     0.023 C 
ENDROOT
BRANCH   1   2
ATOM      2  C   UNL     1       6.946   5.954  -7.992  1.00  0.00     0.116 C 
BRANCH   2   3
ATOM      3  N   UNL     1       7.149   4.604  -8.492  1.00  0.00    -0.352 N 
ATOM      4  O   UNL     1       7.508   3.023 -10.063  1.00  0.00    -0.269 OA
ATOM      5  C   UNL     1       7.497   4.213  -9.764  1.00  0.00     0.251 C 
ATOM      6  H   UNL     1       7.022   3.878  -7.839  1.00  0.00     0.163 HD
BRANCH   5   7
ATOM      7  C   UNL     1       7.828   5.243 -10.771  1.00  0.00     0.039 A 
ATOM      8  C   UNL     1       8.687   6.296 -10.450  1.00  0.00     0.014 A 
ATOM      9  C   UNL     1       7.260   5.158 -12.046  1.00  0.00     0.014 A 
ATOM     10  C   UNL     1       8.880   7.328 -11.359  1.00  0.00     0.010 A 
ATOM     11  C   UNL     1       7.519   6.158 -12.987  1.00  0.00     0.010 A 
ATOM     12  C   UNL     1       8.314   7.261 -12.643  1.00  0.00    -0.014 A 
BRANCH  12  13
ATOM     13  C   UNL     1       8.643   8.323 -13.626  1.00  0.00     0.031 A 
ATOM     14  C   UNL     1       7.598   9.279 -14.122  1.00  0.00     0.074 A 
ATOM     15  C   UNL     1       9.924   8.442 -14.025  1.00  0.00     0.049 A 
ATOM     16  N   UNL     1       7.735  10.288 -14.944  1.00  0.00    -0.248 NA
ATOM     17  C   UNL     1       6.223   9.077 -13.642  1.00  0.00     0.031 C 
ATOM     18  C   UNL     1      11.018   7.563 -13.602  1.00  0.00     0.029 A 
ATOM     19  N   UNL     1      10.532   9.361 -14.839  1.00  0.00    -0.354 N 
ATOM     20  C   UNL     1       6.465  10.833 -15.096  1.00  0.00     0.074 A 
ATOM     21  C   UNL     1       5.566  10.027 -14.295  1.00  0.00     0.031 C 
ATOM     22  C   UNL     1      12.171   8.026 -14.102  1.00  0.00     0.029 A 
ATOM     23  C   UNL     1      11.892   9.191 -14.934  1.00  0.00     0.049 A 
ATOM     24  H   UNL     1      10.042  10.073 -15.310  1.00  0.00     0.167 HD
ATOM     25  C   UNL     1       6.092  11.908 -15.833  1.00  0.00     0.034 A 
ATOM     26  C   UNL     1      12.817   9.886 -15.622  1.00  0.00     0.034 A 
ATOM     27  C   UNL     1       7.006  12.704 -16.616  1.00  0.00     0.049 A 
ATOM     28  C   UNL     1      12.376  11.054 -16.452  1.00  0.00     0.074 A 
ATOM     29  C   UNL     1       6.735  13.831 -17.374  1.00  0.00     0.029 A 
ATOM     30  N   UNL     1       8.367  12.456 -16.747  1.00  0.00    -0.354 N 
ATOM     31  N   UNL     1      11.167  11.542 -16.602  1.00  0.00    -0.248 NA
ATOM     32  C   UNL     1      13.414  11.755 -17.216  1.00  0.00     0.031 C 
ATOM     33  C   UNL     1       7.917  14.229 -18.008  1.00  0.00     0.029 A 
ATOM     34  C   UNL     1       8.941  13.390 -17.596  1.00  0.00     0.049 A 
ATOM     35  H   UNL     1       8.852  11.724 -16.303  1.00  0.00     0.167 HD
ATOM     36  C   UNL     1      11.298  12.614 -17.476  1.00  0.00     0.074 A 
ATOM     37  C   UNL     1      12.706  12.705 -17.814  1.00  0.00     0.031 C 
ATOM     38  C   UNL     1      10.340  13.448 -17.948  1.00  0.00     0.034 A 
BRANCH  25  39
ATOM     39  C   UNL     1       4.626  12.260 -15.864  1.00  0.00     0.023 A 
ATOM     40  C   UNL     1       3.957  12.756 -14.733  1.00  0.00     0.031 A 
ATOM     41  C   UNL     1       3.890  12.106 -17.053  1.00  0.00     0.131 A 
ATOM     42  C   UNL     1       2.583  13.039 -14.802  1.00  0.00     0.055 A 
ATOM     43  C   UNL     1       2.539  12.447 -17.132  1.00  0.00     0.041 A 
ATOM     44  F   UNL     1       4.475  11.619 -18.159  1.00  0.00    -0.206 F 
ATOM     45  C   UNL     1       1.876  12.909 -16.000  1.00  0.00     0.022 A 
BRANCH  42  46
ATOM     46  S   UNL     1       1.710  13.494 -13.279  1.00  0.00     0.124 S 
ATOM     47  O   UNL     1       1.879  12.289 -12.470  1.00  0.00    -0.237 OA
ATOM     48  O   UNL     1       2.446  14.671 -12.831  1.00  0.00    -0.237 OA
ATOM     49  O   UNL     1       0.343  13.748 -13.730  1.00  0.00    -0.744 OA
ENDBRANCH  42  46
ENDBRANCH  25  39
BRANCH  26  50
ATOM     50  C   UNL     1      14.239   9.461 -15.557  1.00  0.00     0.023 A 
ATOM     51  C   UNL     1      15.182  10.199 -14.827  1.00  0.00     0.031 A 
ATOM     52  C   UNL     1      14.654   8.263 -16.165  1.00  0.00     0.131 A 
ATOM     53  C   UNL     1      16.500   9.729 -14.723  1.00  0.00     0.055 A 
ATOM     54  C   UNL     1      15.957   7.784 -16.032  1.00  0.00     0.041 A 
ATOM     55  F   UNL     1      13.778   7.516 -16.856  1.00  0.00    -0.206 F 
ATOM     56  C   UNL     1      16.889   8.520 -15.307  1.00  0.00     0.022 A 
BRANCH  53  57
ATOM     57  S   UNL     1      17.708  10.710 -13.791  1.00  0.00     0.124 S 
ATOM     58  O   UNL     1      17.850  11.888 -14.640  1.00  0.00    -0.237 OA
ATOM     59  O   UNL     1      17.024  10.914 -12.518  1.00  0.00    -0.237 OA
ATOM     60  O   UNL     1      18.879   9.838 -13.730  1.00  0.00    -0.744 OA
ENDBRANCH  53  57
ENDBRANCH  26  50
BRANCH  38  61
ATOM     61  C   UNL     1      10.785  14.547 -18.872  1.00  0.00     0.023 A 
ATOM     62  C   UNL     1      11.135  14.285 -20.206  1.00  0.00     0.031 A 
ATOM     63  C   UNL     1      10.822  15.877 -18.418  1.00  0.00     0.131 A 
ATOM     64  C   UNL     1      11.534  15.341 -21.039  1.00  0.00     0.055 A 
ATOM     65  C   UNL     1      11.181  16.927 -19.262  1.00  0.00     0.041 A 
ATOM     66  F   UNL     1      10.494  16.174 -17.151  1.00  0.00    -0.206 F 
ATOM     67  C   UNL     1      11.543  16.661 -20.580  1.00  0.00     0.022 A 
BRANCH  64  68
ATOM     68  S   UNL     1      12.062  14.968 -22.734  1.00  0.00     0.124 S 
ATOM     69  O   UNL     1      13.308  14.243 -22.508  1.00  0.00    -0.237 OA
ATOM     70  O   UNL     1      10.948  14.178 -23.248  1.00  0.00    -0.237 OA
ATOM     71  O   UNL     1      12.214  16.289 -23.343  1.00  0.00    -0.744 OA
ENDBRANCH  64  68
ENDBRANCH  38  61
ENDBRANCH  12  13
ENDBRANCH   5   7
ENDBRANCH   2   3
ENDBRANCH   1   2
BRANCH   1  72
ATOM     72  C   UNL     1       5.994   5.199  -5.724  1.00  0.00     0.023 C 
BRANCH  72  73
ATOM     73  C   UNL     1       7.239   5.532  -4.895  1.00  0.00     0.116 C 
BRANCH  73  74
ATOM     74  N   UNL     1       7.160   6.873  -4.349  1.00  0.00    -0.356 N 
ATOM     75  C   UNL     1       6.795   7.305  -3.112  1.00  0.00     0.224 C 
ATOM     76  H   UNL     1       7.412   7.588  -4.977  1.00  0.00     0.163 HD
ATOM     77  O   UNL     1       6.746   8.525  -2.940  1.00  0.00    -0.275 OA
BRANCH  75  78
ATOM     78  C   UNL     1       6.509   6.319  -1.979  1.00  0.00     0.098 C 
ATOM     79  C   UNL     1       6.286   7.102  -0.666  1.00  0.00     0.017 C 
ATOM     80  C   UNL     1       5.277   5.465  -2.271  1.00  0.00     0.131 C 
ATOM     81  C   UNL     1       5.882   6.190   0.490  1.00  0.00     0.022 C 
ATOM     82  N   UNL     1       4.878   4.665  -1.117  1.00  0.00    -0.356 N 
ATOM     83  C   UNL     1       4.647   5.365   0.136  1.00  0.00     0.118 C 
BRANCH  82  84
ATOM     84  C   UNL     1       5.181   3.313  -1.094  1.00  0.00     0.133 A 
ATOM     85  C   UNL     1       4.206   2.435  -0.666  1.00  0.00     0.077 A 
ATOM     86  N   UNL     1       6.370   2.874  -1.542  1.00  0.00    -0.211 NA
ATOM     87  C   UNL     1       4.476   1.085  -0.747  1.00  0.00     0.095 A 
ATOM     88  C   UNL     1       6.566   1.537  -1.550  1.00  0.00     0.165 A 
ATOM     89  N   UNL     1       5.662   0.618  -1.177  1.00  0.00    -0.226 NA
BRANCH  87  90
ATOM     90  C   UNL     1       3.443   0.093  -0.429  1.00  0.00     0.089 A 
ATOM     91  C   UNL     1       2.289  -0.016  -1.208  1.00  0.00     0.030 A 
ATOM     92  N   UNL     1       3.643  -0.668   0.678  1.00  0.00    -0.255 NA
ATOM     93  C   UNL     1       1.310  -0.935  -0.844  1.00  0.00     0.004 A 
ATOM     94  C   UNL     1       2.682  -1.561   0.998  1.00  0.00     0.112 A 
ATOM     95  C   UNL     1       1.508  -1.725   0.280  1.00  0.00     0.020 A 
ENDBRANCH  87  90
BRANCH  88  96
ATOM     96  C   UNL     1       7.890   1.033  -1.909  1.00  0.00     0.055 A 
ATOM     97  C   UNL     1       9.039   1.435  -1.203  1.00  0.00     0.015 A 
ATOM     98  C   UNL     1       8.054   0.083  -2.925  1.00  0.00     0.134 A 
ATOM     99  C   UNL     1      10.294   0.885  -1.492  1.00  0.00     0.001 A 
ATOM    100  C   UNL     1       9.303  -0.462  -3.225  1.00  0.00     0.040 A 
ATOM    101  F   UNL     1       7.001  -0.324  -3.651  1.00  0.00    -0.206 F 
ATOM    102  C   UNL     1      10.425  -0.066  -2.502  1.00  0.00     0.003 A 
ENDBRANCH  88  96
ENDBRANCH  82  84
ENDBRANCH  75  78
ENDBRANCH  73  74
ENDBRANCH  72  73
ENDBRANCH   1  72
TORSDOF 17
