REMARK SMILES Nc1c(Cl)ccc2c1C=C(C(=O)NCCCCNC(=O)c1ccc(-c3c4nc(c(-c5cc(S(=O)(=O)[O-])ccc5F)c5ccc([nH]5)c(-c5cc(S(=O)(=O)[O-])ccc5F)c5nc(c(-c6cc(S(=O)(=O)[O-])ccc6F)c6ccc3[nH]6)C=C5)C=C4)cc1)[C@@H](C(F)(F)F)O2
REMARK SMILES IDX 16 1 15 2 14 3 13 4 11 5 12 6 10 8 2 9 3 10 8 11 4 12 5 13
REMARK SMILES IDX 7 14 9 15 6 16 89 17 84 18 1 19 85 22 86 23 87 24 88 25
REMARK SMILES IDX 17 26 18 27 19 28 20 30 21 31 22 32 83 33 23 34 82 35 24 36
REMARK SMILES IDX 25 37 26 38 76 39 27 40 81 41 75 42 77 43 28 44 80 45 74 46
REMARK SMILES IDX 73 47 29 49 61 50 41 51 60 52 42 53 45 54 59 55 78 56 43 57
REMARK SMILES IDX 44 58 58 60 79 61 46 62 30 63 31 64 39 65 32 66 38 67 40 68
REMARK SMILES IDX 37 69 33 70 34 71 35 72 36 73 62 74 63 75 71 76 64 77 70 78
REMARK SMILES IDX 72 79 69 80 65 81 66 82 67 83 68 84 47 85 48 86 56 87 49 88
REMARK SMILES IDX 55 89 57 90 54 91 50 92 51 93 52 94 53 95
REMARK H PARENT 13 7 1 20 1 21 18 29 77 48 45 59
REMARK Flexibility Score: inf
ROOT
ATOM      1  C   UNL     1      -6.495   1.937   4.652  1.00  0.00     0.023 C 
ENDROOT
BRANCH   1   2
ATOM      2  C   UNL     1      -5.676   2.474   3.475  1.00  0.00     0.023 C 
BRANCH   2   3
ATOM      3  C   UNL     1      -4.263   2.912   3.848  1.00  0.00     0.116 C 
BRANCH   3   4
ATOM      4  N   UNL     1      -3.345   1.790   3.899  1.00  0.00    -0.352 N 
ATOM      5  C   UNL     1      -2.369   1.275   3.116  1.00  0.00     0.251 C 
ATOM      6  O   UNL     1      -1.819   0.260   3.556  1.00  0.00    -0.270 OA
ATOM      7  H   UNL     1      -3.463   1.263   4.722  1.00  0.00     0.163 HD
BRANCH   5   8
ATOM      8  C   UNL     1      -1.924   1.837   1.805  1.00  0.00     0.067 C 
ATOM      9  C   UNL     1       0.600   0.942  -0.799  1.00  0.00     0.061 A 
ATOM     10  C   UNL     1       1.035   1.488  -2.029  1.00  0.00     0.064 A 
ATOM     11  C   UNL     1      -0.491   1.560  -0.147  1.00  0.00     0.042 A 
ATOM     12  Cl  UNL     1       2.388   0.805  -2.871  1.00  0.00    -0.082 Cl
ATOM     13  C   UNL     1       0.391   2.579  -2.615  1.00  0.00     0.026 A 
ATOM     14  C   UNL     1      -1.117   2.665  -0.743  1.00  0.00     0.130 A 
ATOM     15  C   UNL     1      -1.042   1.081   1.125  1.00  0.00     0.027 C 
ATOM     16  C   UNL     1      -0.694   3.164  -1.973  1.00  0.00     0.049 A 
ATOM     17  O   UNL     1      -2.195   3.298  -0.188  1.00  0.00    -0.475 OA
ATOM     18  C   UNL     1      -2.352   3.163   1.252  1.00  0.00     0.314 C 
BRANCH   9  19
ATOM     19  N   UNL     1       1.311  -0.111  -0.217  1.00  0.00    -0.397 N 
ATOM     20  H   UNL     1       2.067  -0.520  -0.697  1.00  0.00     0.156 HD
ATOM     21  H   UNL     1       1.056  -0.443   0.674  1.00  0.00     0.156 HD
ENDBRANCH   9  19
BRANCH  18  22
ATOM     22  C   UNL     1      -1.672   4.352   1.954  1.00  0.00     0.429 C 
ATOM     23  F   UNL     1      -2.300   5.512   1.632  1.00  0.00    -0.167 F 
ATOM     24  F   UNL     1      -1.712   4.256   3.303  1.00  0.00    -0.167 F 
ATOM     25  F   UNL     1      -0.372   4.489   1.605  1.00  0.00    -0.167 F 
ENDBRANCH  18  22
ENDBRANCH   5   8
ENDBRANCH   3   4
ENDBRANCH   2   3
ENDBRANCH   1   2
BRANCH   1  26
ATOM     26  C   UNL     1      -6.611   2.874   5.852  1.00  0.00     0.116 C 
BRANCH  26  27
ATOM     27  N   UNL     1      -7.056   4.218   5.503  1.00  0.00    -0.352 N 
ATOM     28  C   UNL     1      -7.816   5.070   6.268  1.00  0.00     0.251 C 
ATOM     29  H   UNL     1      -6.781   4.553   4.619  1.00  0.00     0.163 HD
ATOM     30  O   UNL     1      -8.173   6.162   5.842  1.00  0.00    -0.269 OA
BRANCH  28  31
ATOM     31  C   UNL     1      -8.221   4.609   7.606  1.00  0.00     0.039 A 
ATOM     32  C   UNL     1      -9.574   4.375   7.854  1.00  0.00     0.014 A 
ATOM     33  C   UNL     1      -7.242   4.287   8.551  1.00  0.00     0.014 A 
ATOM     34  C   UNL     1      -9.946   3.751   9.043  1.00  0.00     0.010 A 
ATOM     35  C   UNL     1      -7.613   3.622   9.714  1.00  0.00     0.010 A 
ATOM     36  C   UNL     1      -8.966   3.344   9.964  1.00  0.00    -0.014 A 
BRANCH  36  37
ATOM     37  C   UNL     1      -9.349   2.607  11.188  1.00  0.00     0.031 A 
ATOM     38  C   UNL     1      -9.248   3.273  12.526  1.00  0.00     0.074 A 
ATOM     39  C   UNL     1      -9.736   1.321  11.092  1.00  0.00     0.049 A 
ATOM     40  N   UNL     1      -9.590   2.812  13.699  1.00  0.00    -0.248 NA
ATOM     41  C   UNL     1      -8.666   4.624  12.554  1.00  0.00     0.031 C 
ATOM     42  C   UNL     1      -9.795   0.551   9.848  1.00  0.00     0.029 A 
ATOM     43  N   UNL     1     -10.150   0.434  12.053  1.00  0.00    -0.354 N 
ATOM     44  C   UNL     1      -9.261   3.810  14.605  1.00  0.00     0.074 A 
ATOM     45  C   UNL     1      -8.644   4.880  13.854  1.00  0.00     0.031 C 
ATOM     46  C   UNL     1     -10.244  -0.685  10.119  1.00  0.00     0.029 A 
ATOM     47  C   UNL     1     -10.498  -0.799  11.554  1.00  0.00     0.049 A 
ATOM     48  H   UNL     1     -10.193   0.659  13.011  1.00  0.00     0.167 HD
ATOM     49  C   UNL     1      -9.480   3.841  15.940  1.00  0.00     0.034 A 
ATOM     50  C   UNL     1     -10.992  -1.887  12.178  1.00  0.00     0.034 A 
ATOM     51  C   UNL     1     -10.117   2.779  16.670  1.00  0.00     0.049 A 
ATOM     52  C   UNL     1     -11.283  -1.810  13.654  1.00  0.00     0.074 A 
ATOM     53  C   UNL     1     -10.458   2.745  18.009  1.00  0.00     0.029 A 
ATOM     54  N   UNL     1     -10.511   1.567  16.122  1.00  0.00    -0.354 N 
ATOM     55  N   UNL     1     -11.093  -0.807  14.479  1.00  0.00    -0.248 NA
ATOM     56  C   UNL     1     -11.878  -2.998  14.283  1.00  0.00     0.031 C 
ATOM     57  C   UNL     1     -11.031   1.500  18.279  1.00  0.00     0.029 A 
ATOM     58  C   UNL     1     -11.082   0.772  17.100  1.00  0.00     0.049 A 
ATOM     59  H   UNL     1     -10.401   1.311  15.178  1.00  0.00     0.167 HD
ATOM     60  C   UNL     1     -11.577  -1.228  15.713  1.00  0.00     0.074 A 
ATOM     61  C   UNL     1     -12.075  -2.575  15.527  1.00  0.00     0.031 C 
ATOM     62  C   UNL     1     -11.606  -0.557  16.892  1.00  0.00     0.034 A 
BRANCH  49  63
ATOM     63  C   UNL     1      -9.057   5.071  16.694  1.00  0.00     0.023 A 
ATOM     64  C   UNL     1      -8.010   5.003  17.630  1.00  0.00     0.031 A 
ATOM     65  C   UNL     1      -9.735   6.292  16.532  1.00  0.00     0.131 A 
ATOM     66  C   UNL     1      -7.675   6.139  18.375  1.00  0.00     0.055 A 
ATOM     67  C   UNL     1      -9.379   7.428  17.258  1.00  0.00     0.041 A 
ATOM     68  F   UNL     1     -10.736   6.403  15.644  1.00  0.00    -0.206 F 
ATOM     69  C   UNL     1      -8.348   7.353  18.189  1.00  0.00     0.022 A 
BRANCH  66  70
ATOM     70  S   UNL     1      -6.362   6.088  19.623  1.00  0.00     0.124 S 
ATOM     71  O   UNL     1      -5.487   7.173  19.186  1.00  0.00    -0.237 OA
ATOM     72  O   UNL     1      -7.103   6.341  20.855  1.00  0.00    -0.237 OA
ATOM     73  O   UNL     1      -5.800   4.748  19.487  1.00  0.00    -0.744 OA
ENDBRANCH  66  70
ENDBRANCH  49  63
BRANCH  50  74
ATOM     74  C   UNL     1     -11.349  -3.085  11.369  1.00  0.00     0.023 A 
ATOM     75  C   UNL     1     -10.362  -3.864  10.741  1.00  0.00     0.031 A 
ATOM     76  C   UNL     1     -12.698  -3.400  11.130  1.00  0.00     0.131 A 
ATOM     77  C   UNL     1     -10.743  -4.892   9.867  1.00  0.00     0.055 A 
ATOM     78  C   UNL     1     -13.072  -4.458  10.301  1.00  0.00     0.041 A 
ATOM     79  F   UNL     1     -13.671  -2.670  11.697  1.00  0.00    -0.206 F 
ATOM     80  C   UNL     1     -12.091  -5.205   9.656  1.00  0.00     0.022 A 
BRANCH  77  81
ATOM     81  S   UNL     1      -9.502  -5.811   8.915  1.00  0.00     0.124 S 
ATOM     82  O   UNL     1      -9.889  -7.198   9.158  1.00  0.00    -0.237 OA
ATOM     83  O   UNL     1      -9.746  -5.316   7.563  1.00  0.00    -0.237 OA
ATOM     84  O   UNL     1      -8.237  -5.400   9.513  1.00  0.00    -0.744 OA
ENDBRANCH  77  81
ENDBRANCH  50  74
BRANCH  62  85
ATOM     85  C   UNL     1     -12.216  -1.234  18.091  1.00  0.00     0.023 A 
ATOM     86  C   UNL     1     -13.400  -0.722  18.655  1.00  0.00     0.031 A 
ATOM     87  C   UNL     1     -11.549  -2.272  18.761  1.00  0.00     0.131 A 
ATOM     88  C   UNL     1     -13.862  -1.227  19.875  1.00  0.00     0.055 A 
ATOM     89  C   UNL     1     -12.033  -2.796  19.959  1.00  0.00     0.041 A 
ATOM     90  F   UNL     1     -10.411  -2.783  18.263  1.00  0.00    -0.206 F 
ATOM     91  C   UNL     1     -13.188  -2.265  20.528  1.00  0.00     0.022 A 
BRANCH  88  92
ATOM     92  S   UNL     1     -15.311  -0.509  20.696  1.00  0.00     0.124 S 
ATOM     93  O   UNL     1     -16.200  -1.664  20.805  1.00  0.00    -0.237 OA
ATOM     94  O   UNL     1     -14.747  -0.035  21.957  1.00  0.00    -0.237 OA
ATOM     95  O   UNL     1     -15.758   0.532  19.777  1.00  0.00    -0.744 OA
ENDBRANCH  88  92
ENDBRANCH  62  85
ENDBRANCH  36  37
ENDBRANCH  28  31
ENDBRANCH  26  27
ENDBRANCH   1  26
TORSDOF 16
