REMARK SMILES COc1ccccc1C[N@@H+](C)[C@@H](C)c1ccc(C(=O)NCCCCNC(=O)c2ccc(-c3c4nc(c(-c5cc(S(=O)(=O)[O-])ccc5F)c5ccc([nH]5)c(-c5cc(S(=O)(=O)[O-])ccc5F)c5nc(c(-c6cc(S(=O)(=O)[O-])ccc6F)c6ccc3[nH]6)C=C5)C=C4)cc2)o1
REMARK SMILES IDX 21 1 20 2 18 3 19 4 17 6 14 7 15 8 91 9 16 10 12 11 13 12
REMARK SMILES IDX 10 13 11 14 9 16 8 17 3 18 4 19 5 20 7 21 6 22 2 23 1 24
REMARK SMILES IDX 22 25 23 26 24 27 25 28 26 29 27 31 28 32 29 33 90 34 30 35
REMARK SMILES IDX 89 36 31 37 32 38 33 39 83 40 34 41 88 42 82 43 84 44 35 45
REMARK SMILES IDX 87 46 81 47 80 48 36 50 68 51 48 52 67 53 49 54 52 55 66 56
REMARK SMILES IDX 85 57 50 58 51 59 65 61 86 62 53 63 37 64 38 65 46 66 39 67
REMARK SMILES IDX 45 68 47 69 44 70 40 71 41 72 42 73 43 74 69 75 70 76 78 77
REMARK SMILES IDX 71 78 77 79 79 80 76 81 72 82 73 83 74 84 75 85 54 86 55 87
REMARK SMILES IDX 63 88 56 89 62 90 64 91 61 92 57 93 58 94 59 95 60 96
REMARK H PARENT 20 5 10 15 25 30 84 49 52 60
REMARK Flexibility Score: inf
ROOT
ATOM      1  C   UNL     1      -0.007   6.212   3.412  1.00  0.00     0.116 C 
ENDROOT
BRANCH   1   2
ATOM      2  N   UNL     1       1.053   7.056   2.895  1.00  0.00    -0.349 N 
ATOM      3  C   UNL     1       2.011   6.751   1.951  1.00  0.00     0.287 C 
ATOM      4  O   UNL     1       2.951   7.542   1.828  1.00  0.00    -0.266 OA
ATOM      5  H   UNL     1       1.093   7.967   3.267  1.00  0.00     0.163 HD
BRANCH   3   6
ATOM      6  C   UNL     1       1.866   5.556   1.152  1.00  0.00     0.191 A 
ATOM      7  C   UNL     1       2.605   3.746   0.120  1.00  0.00     0.161 A 
ATOM      8  C   UNL     1       1.249   3.818  -0.129  1.00  0.00     0.053 A 
ATOM      9  O   UNL     1       2.990   4.825   0.866  1.00  0.00    -0.450 OA
ATOM     10  C   UNL     1       0.775   4.970   0.538  1.00  0.00     0.057 A 
BRANCH   7  11
ATOM     11  C   UNL     1       3.694   2.791  -0.290  1.00  0.00     0.248 C 
ATOM     12  C   UNL     1       3.355   2.123  -1.635  1.00  0.00     0.084 C 
BRANCH  11  13
ATOM     13  N   UNL     1       4.106   1.861   0.795  1.00  0.00    -0.325 N 
ATOM     14  C   UNL     1       5.375   1.205   0.475  1.00  0.00     0.333 C 
ATOM     15  H   UNL     1       4.214   2.464   1.612  1.00  0.00     0.348 HD
BRANCH  13  16
ATOM     16  C   UNL     1       3.105   0.850   1.174  1.00  0.00     0.303 C 
BRANCH  16  17
ATOM     17  C   UNL     1       2.037   1.335   2.129  1.00  0.00     0.048 A 
ATOM     18  C   UNL     1       0.663   1.214   1.870  1.00  0.00     0.127 A 
ATOM     19  C   UNL     1      -0.279   1.700   2.783  1.00  0.00     0.047 A 
ATOM     20  C   UNL     1       0.134   2.273   3.985  1.00  0.00     0.004 A 
ATOM     21  C   UNL     1       2.433   1.918   3.348  1.00  0.00     0.013 A 
ATOM     22  C   UNL     1       1.492   2.385   4.268  1.00  0.00     0.001 A 
BRANCH  18  23
ATOM     23  O   UNL     1       0.169   0.765   0.672  1.00  0.00    -0.496 OA
ATOM     24  C   UNL     1       0.299  -0.643   0.503  1.00  0.00     0.278 C 
ENDBRANCH  18  23
ENDBRANCH  16  17
ENDBRANCH  13  16
ENDBRANCH  11  13
ENDBRANCH   7  11
ENDBRANCH   3   6
ENDBRANCH   1   2
BRANCH   1  25
ATOM     25  C   UNL     1      -0.059   6.230   4.940  1.00  0.00     0.023 C 
BRANCH  25  26
ATOM     26  C   UNL     1      -0.504   7.554   5.566  1.00  0.00     0.023 C 
BRANCH  26  27
ATOM     27  C   UNL     1      -1.899   8.038   5.174  1.00  0.00     0.116 C 
BRANCH  27  28
ATOM     28  N   UNL     1      -2.949   7.095   5.525  1.00  0.00    -0.352 N 
ATOM     29  C   UNL     1      -4.153   7.313   6.154  1.00  0.00     0.251 C 
ATOM     30  H   UNL     1      -2.772   6.160   5.274  1.00  0.00     0.163 HD
ATOM     31  O   UNL     1      -4.846   6.349   6.470  1.00  0.00    -0.269 OA
BRANCH  29  32
ATOM     32  C   UNL     1      -4.595   8.688   6.484  1.00  0.00     0.039 A 
ATOM     33  C   UNL     1      -5.146   8.931   7.747  1.00  0.00     0.014 A 
ATOM     34  C   UNL     1      -4.476   9.734   5.565  1.00  0.00     0.014 A 
ATOM     35  C   UNL     1      -5.500  10.232   8.114  1.00  0.00     0.010 A 
ATOM     36  C   UNL     1      -4.770  11.040   5.955  1.00  0.00     0.010 A 
ATOM     37  C   UNL     1      -5.275  11.305   7.237  1.00  0.00    -0.014 A 
BRANCH  37  38
ATOM     38  C   UNL     1      -5.536  12.708   7.656  1.00  0.00     0.031 A 
ATOM     39  C   UNL     1      -6.601  13.523   6.975  1.00  0.00     0.074 A 
ATOM     40  C   UNL     1      -4.759  13.271   8.602  1.00  0.00     0.049 A 
ATOM     41  N   UNL     1      -6.923  14.780   7.152  1.00  0.00    -0.248 NA
ATOM     42  C   UNL     1      -7.387  12.841   5.937  1.00  0.00     0.031 C 
ATOM     43  C   UNL     1      -3.656  12.603   9.298  1.00  0.00     0.029 A 
ATOM     44  N   UNL     1      -4.768  14.535   9.135  1.00  0.00    -0.354 N 
ATOM     45  C   UNL     1      -7.936  15.046   6.237  1.00  0.00     0.074 A 
ATOM     46  C   UNL     1      -8.136  13.831   5.474  1.00  0.00     0.031 C 
ATOM     47  C   UNL     1      -3.108  13.458  10.176  1.00  0.00     0.029 A 
ATOM     48  C   UNL     1      -3.794  14.742  10.084  1.00  0.00     0.049 A 
ATOM     49  H   UNL     1      -5.412  15.229   8.864  1.00  0.00     0.167 HD
ATOM     50  C   UNL     1      -8.645  16.190   6.061  1.00  0.00     0.034 A 
ATOM     51  C   UNL     1      -3.483  15.844  10.795  1.00  0.00     0.034 A 
ATOM     52  C   UNL     1      -8.445  17.390   6.838  1.00  0.00     0.049 A 
ATOM     53  C   UNL     1      -4.296  17.096  10.598  1.00  0.00     0.074 A 
ATOM     54  C   UNL     1      -9.145  18.584   6.781  1.00  0.00     0.029 A 
ATOM     55  N   UNL     1      -7.469  17.552   7.814  1.00  0.00    -0.354 N 
ATOM     56  N   UNL     1      -5.284  17.316   9.763  1.00  0.00    -0.248 NA
ATOM     57  C   UNL     1      -3.959  18.242  11.452  1.00  0.00     0.031 C 
ATOM     58  C   UNL     1      -8.561  19.482   7.684  1.00  0.00     0.029 A 
ATOM     59  C   UNL     1      -7.536  18.831   8.350  1.00  0.00     0.049 A 
ATOM     60  H   UNL     1      -6.824  16.861   8.086  1.00  0.00     0.167 HD
ATOM     61  C   UNL     1      -5.703  18.620  10.009  1.00  0.00     0.074 A 
ATOM     62  C   UNL     1      -4.870  19.129  11.080  1.00  0.00     0.031 C 
ATOM     63  C   UNL     1      -6.689  19.331   9.406  1.00  0.00     0.034 A 
BRANCH  50  64
ATOM     64  C   UNL     1      -9.683  16.195   4.965  1.00  0.00     0.023 A 
ATOM     65  C   UNL     1     -10.806  15.350   5.010  1.00  0.00     0.031 A 
ATOM     66  C   UNL     1      -9.533  17.029   3.843  1.00  0.00     0.131 A 
ATOM     67  C   UNL     1     -11.688  15.296   3.920  1.00  0.00     0.055 A 
ATOM     68  C   UNL     1     -10.458  17.029   2.797  1.00  0.00     0.041 A 
ATOM     69  F   UNL     1      -8.472  17.845   3.735  1.00  0.00    -0.206 F 
ATOM     70  C   UNL     1     -11.534  16.148   2.824  1.00  0.00     0.022 A 
BRANCH  67  71
ATOM     71  S   UNL     1     -12.953  13.997   3.893  1.00  0.00     0.124 S 
ATOM     72  O   UNL     1     -12.134  12.788   3.945  1.00  0.00    -0.237 OA
ATOM     73  O   UNL     1     -13.733  14.292   5.090  1.00  0.00    -0.237 OA
ATOM     74  O   UNL     1     -13.645  14.219   2.626  1.00  0.00    -0.744 OA
ENDBRANCH  67  71
ENDBRANCH  50  64
BRANCH  51  75
ATOM     75  C   UNL     1      -2.351  15.819  11.762  1.00  0.00     0.023 A 
ATOM     76  C   UNL     1      -2.581  15.910  13.143  1.00  0.00     0.031 A 
ATOM     77  C   UNL     1      -1.022  15.736  11.314  1.00  0.00     0.131 A 
ATOM     78  C   UNL     1      -1.494  15.960  14.029  1.00  0.00     0.055 A 
ATOM     79  C   UNL     1       0.055  15.744  12.202  1.00  0.00     0.041 A 
ATOM     80  F   UNL     1      -0.752  15.636  10.003  1.00  0.00    -0.206 F 
ATOM     81  C   UNL     1      -0.178  15.868  13.569  1.00  0.00     0.022 A 
BRANCH  78  82
ATOM     82  S   UNL     1      -1.826  16.213  15.794  1.00  0.00     0.124 S 
ATOM     83  O   UNL     1      -2.546  17.482  15.784  1.00  0.00    -0.237 OA
ATOM     84  O   UNL     1      -2.613  15.031  16.126  1.00  0.00    -0.237 OA
ATOM     85  O   UNL     1      -0.491  16.257  16.388  1.00  0.00    -0.744 OA
ENDBRANCH  78  82
ENDBRANCH  51  75
BRANCH  63  86
ATOM     86  C   UNL     1      -6.936  20.724   9.929  1.00  0.00     0.023 A 
ATOM     87  C   UNL     1      -5.998  21.756   9.751  1.00  0.00     0.031 A 
ATOM     88  C   UNL     1      -8.110  21.010  10.647  1.00  0.00     0.131 A 
ATOM     89  C   UNL     1      -6.223  23.012  10.334  1.00  0.00     0.055 A 
ATOM     90  C   UNL     1      -8.353  22.276  11.181  1.00  0.00     0.041 A 
ATOM     91  F   UNL     1      -9.036  20.060  10.848  1.00  0.00    -0.206 F 
ATOM     92  C   UNL     1      -7.401  23.282  11.037  1.00  0.00     0.022 A 
BRANCH  89  93
ATOM     93  S   UNL     1      -4.912  24.262  10.244  1.00  0.00     0.124 S 
ATOM     94  O   UNL     1      -3.787  23.569  10.863  1.00  0.00    -0.237 OA
ATOM     95  O   UNL     1      -4.805  24.498   8.808  1.00  0.00    -0.237 OA
ATOM     96  O   UNL     1      -5.451  25.381  11.017  1.00  0.00    -0.744 OA
ENDBRANCH  89  93
ENDBRANCH  63  86
ENDBRANCH  37  38
ENDBRANCH  29  32
ENDBRANCH  27  28
ENDBRANCH  26  27
ENDBRANCH  25  26
ENDBRANCH   1  25
TORSDOF 19
