REMARK SMILES O=C(NCCCCNC(=O)c1cc(S(=O)(=O)NNC(=O)[C@H]2C=C(c3ccccc3)N=N2)ccc1F)c1ccc(-c2c3nc(c(-c4cc(S(=O)(=O)[O-])ccc4F)c4ccc([nH]4)c(-c4cc(S(=O)(=O)[O-])ccc4F)c4nc(c(-c5cc(S(=O)(=O)[O-])ccc5F)c5ccc2[nH]5)C=C4)C=C3)cc1
REMARK SMILES IDX 6 1 5 2 4 3 3 4 1 5 2 6 36 8 37 9 98 10 38 11 97 12 39 13
REMARK SMILES IDX 40 14 41 15 91 16 42 17 96 18 90 19 92 20 43 21 95 22 89 23
REMARK SMILES IDX 88 24 44 26 76 27 56 28 75 29 57 30 60 31 74 32 93 33 58 34
REMARK SMILES IDX 59 35 73 37 94 38 61 39 45 40 46 41 54 42 47 43 53 44 55 45
REMARK SMILES IDX 52 46 48 47 49 48 50 49 51 50 77 51 78 52 86 53 79 54 85 55
REMARK SMILES IDX 87 56 84 57 80 58 81 59 82 60 83 61 62 62 63 63 71 64 64 65
REMARK SMILES IDX 70 66 72 67 69 68 65 69 66 70 67 71 68 72 7 73 8 74 9 75
REMARK SMILES IDX 10 77 11 78 12 79 34 80 13 81 33 82 35 83 32 84 14 85 15 86
REMARK SMILES IDX 16 87 17 88 18 90 19 91 20 93 21 94 22 95 31 96 23 97 30 98
REMARK SMILES IDX 24 99 25 100 29 101 26 102 28 103 27 104
REMARK H PARENT 3 7 92 25 60 36 8 76 17 89 18 92
REMARK Flexibility Score: inf
ROOT
ATOM      1  C   UNL     1      14.083  18.232 -12.443  1.00  0.00     0.023 C 
ENDROOT
BRANCH   1   2
ATOM      2  C   UNL     1      15.107  19.232 -11.905  1.00  0.00     0.023 C 
BRANCH   2   3
ATOM      3  C   UNL     1      16.568  18.790 -11.982  1.00  0.00     0.116 C 
BRANCH   3   4
ATOM      4  N   UNL     1      17.025  18.426 -13.307  1.00  0.00    -0.352 N 
ATOM      5  O   UNL     1      18.083  18.423 -15.240  1.00  0.00    -0.269 OA
ATOM      6  C   UNL     1      17.585  19.117 -14.348  1.00  0.00     0.251 C 
ATOM      7  H   UNL     1      16.908  17.468 -13.503  1.00  0.00     0.163 HD
BRANCH   6   8
ATOM      8  C   UNL     1      17.575  20.600 -14.508  1.00  0.00     0.039 A 
ATOM      9  C   UNL     1      17.140  21.525 -13.559  1.00  0.00     0.014 A 
ATOM     10  C   UNL     1      17.992  21.081 -15.765  1.00  0.00     0.014 A 
ATOM     11  C   UNL     1      17.030  22.877 -13.886  1.00  0.00     0.010 A 
ATOM     12  C   UNL     1      17.896  22.430 -16.093  1.00  0.00     0.010 A 
ATOM     13  C   UNL     1      17.378  23.326 -15.162  1.00  0.00    -0.014 A 
BRANCH  13  14
ATOM     14  C   UNL     1      17.344  24.764 -15.431  1.00  0.00     0.031 A 
ATOM     15  C   UNL     1      18.322  25.568 -14.635  1.00  0.00     0.074 A 
ATOM     16  C   UNL     1      16.618  25.328 -16.420  1.00  0.00     0.049 A 
ATOM     17  N   UNL     1      18.087  26.554 -13.831  1.00  0.00    -0.248 NA
ATOM     18  C   UNL     1      19.736  25.153 -14.665  1.00  0.00     0.031 C 
ATOM     19  C   UNL     1      15.818  24.660 -17.447  1.00  0.00     0.029 A 
ATOM     20  N   UNL     1      16.530  26.643 -16.777  1.00  0.00    -0.354 N 
ATOM     21  C   UNL     1      19.330  27.002 -13.387  1.00  0.00     0.074 A 
ATOM     22  C   UNL     1      20.295  26.030 -13.831  1.00  0.00     0.031 C 
ATOM     23  C   UNL     1      15.521  25.543 -18.430  1.00  0.00     0.029 A 
ATOM     24  C   UNL     1      15.998  26.863 -18.047  1.00  0.00     0.049 A 
ATOM     25  H   UNL     1      16.819  27.377 -16.187  1.00  0.00     0.167 HD
ATOM     26  C   UNL     1      19.508  28.231 -12.825  1.00  0.00     0.034 A 
ATOM     27  C   UNL     1      16.008  28.029 -18.753  1.00  0.00     0.034 A 
ATOM     28  C   UNL     1      18.268  28.802 -12.376  1.00  0.00     0.049 A 
ATOM     29  C   UNL     1      16.163  29.120 -17.760  1.00  0.00     0.074 A 
ATOM     30  C   UNL     1      17.326  28.442 -11.431  1.00  0.00     0.029 A 
ATOM     31  N   UNL     1      17.644  29.720 -13.185  1.00  0.00    -0.354 N 
ATOM     32  N   UNL     1      15.275  29.396 -16.845  1.00  0.00    -0.248 NA
ATOM     33  C   UNL     1      17.509  29.600 -17.488  1.00  0.00     0.031 C 
ATOM     34  C   UNL     1      16.071  28.753 -12.031  1.00  0.00     0.029 A 
ATOM     35  C   UNL     1      16.325  29.345 -13.270  1.00  0.00     0.049 A 
ATOM     36  H   UNL     1      18.062  30.498 -13.620  1.00  0.00     0.167 HD
ATOM     37  C   UNL     1      16.014  29.691 -15.710  1.00  0.00     0.074 A 
ATOM     38  C   UNL     1      17.383  29.880 -16.188  1.00  0.00     0.031 C 
ATOM     39  C   UNL     1      15.509  29.491 -14.458  1.00  0.00     0.034 A 
BRANCH  26  40
ATOM     40  C   UNL     1      20.777  29.035 -12.932  1.00  0.00     0.023 A 
ATOM     41  C   UNL     1      20.951  30.163 -12.107  1.00  0.00     0.031 A 
ATOM     42  C   UNL     1      21.698  28.890 -13.995  1.00  0.00     0.131 A 
ATOM     43  C   UNL     1      21.977  31.092 -12.370  1.00  0.00     0.055 A 
ATOM     44  C   UNL     1      22.747  29.784 -14.218  1.00  0.00     0.041 A 
ATOM     45  F   UNL     1      21.569  27.930 -14.921  1.00  0.00    -0.206 F 
ATOM     46  C   UNL     1      22.880  30.904 -13.415  1.00  0.00     0.022 A 
BRANCH  43  47
ATOM     47  S   UNL     1      22.045  32.623 -11.399  1.00  0.00     0.124 S 
ATOM     48  O   UNL     1      20.741  33.214 -11.675  1.00  0.00    -0.237 OA
ATOM     49  O   UNL     1      22.250  32.116 -10.046  1.00  0.00    -0.237 OA
ATOM     50  O   UNL     1      23.185  33.338 -11.972  1.00  0.00    -0.744 OA
ENDBRANCH  43  47
ENDBRANCH  26  40
BRANCH  27  51
ATOM     51  C   UNL     1      16.255  28.224 -20.215  1.00  0.00     0.023 A 
ATOM     52  C   UNL     1      16.057  29.470 -20.858  1.00  0.00     0.031 A 
ATOM     53  C   UNL     1      16.955  27.246 -20.956  1.00  0.00     0.131 A 
ATOM     54  C   UNL     1      16.554  29.693 -22.166  1.00  0.00     0.055 A 
ATOM     55  C   UNL     1      17.440  27.470 -22.247  1.00  0.00     0.041 A 
ATOM     56  F   UNL     1      17.278  26.061 -20.417  1.00  0.00    -0.206 F 
ATOM     57  C   UNL     1      17.253  28.701 -22.854  1.00  0.00     0.022 A 
BRANCH  54  58
ATOM     58  S   UNL     1      16.413  31.332 -22.956  1.00  0.00     0.124 S 
ATOM     59  O   UNL     1      15.029  31.332 -23.416  1.00  0.00    -0.237 OA
ATOM     60  O   UNL     1      16.733  32.244 -21.863  1.00  0.00    -0.237 OA
ATOM     61  O   UNL     1      17.416  31.282 -24.021  1.00  0.00    -0.744 OA
ENDBRANCH  54  58
ENDBRANCH  27  51
BRANCH  39  62
ATOM     62  C   UNL     1      14.031  29.197 -14.306  1.00  0.00     0.023 A 
ATOM     63  C   UNL     1      13.375  28.050 -14.812  1.00  0.00     0.031 A 
ATOM     64  C   UNL     1      13.298  30.053 -13.465  1.00  0.00     0.131 A 
ATOM     65  C   UNL     1      12.031  27.799 -14.464  1.00  0.00     0.055 A 
ATOM     66  C   UNL     1      11.977  29.791 -13.109  1.00  0.00     0.041 A 
ATOM     67  F   UNL     1      13.879  31.141 -12.931  1.00  0.00    -0.206 F 
ATOM     68  C   UNL     1      11.338  28.662 -13.607  1.00  0.00     0.022 A 
BRANCH  65  69
ATOM     69  S   UNL     1      11.165  26.320 -15.090  1.00  0.00     0.124 S 
ATOM     70  O   UNL     1      11.239  26.477 -16.538  1.00  0.00    -0.237 OA
ATOM     71  O   UNL     1      11.942  25.223 -14.521  1.00  0.00    -0.237 OA
ATOM     72  O   UNL     1       9.815  26.452 -14.535  1.00  0.00    -0.744 OA
ENDBRANCH  65  69
ENDBRANCH  39  62
ENDBRANCH  13  14
ENDBRANCH   6   8
ENDBRANCH   3   4
ENDBRANCH   2   3
ENDBRANCH   1   2
BRANCH   1  73
ATOM     73  C   UNL     1      14.173  16.821 -11.878  1.00  0.00     0.116 C 
BRANCH  73  74
ATOM     74  N   UNL     1      13.939  16.753 -10.443  1.00  0.00    -0.352 N 
ATOM     75  C   UNL     1      13.176  15.852  -9.742  1.00  0.00     0.254 C 
ATOM     76  H   UNL     1      14.386  17.445  -9.904  1.00  0.00     0.163 HD
ATOM     77  O   UNL     1      13.040  15.949  -8.526  1.00  0.00    -0.269 OA
BRANCH  75  78
ATOM     78  C   UNL     1      12.448  14.793 -10.459  1.00  0.00     0.076 A 
ATOM     79  C   UNL     1      11.072  14.670 -10.251  1.00  0.00     0.038 A 
ATOM     80  C   UNL     1      13.101  13.918 -11.325  1.00  0.00     0.136 A 
ATOM     81  C   UNL     1      10.354  13.723 -10.988  1.00  0.00     0.085 A 
ATOM     82  C   UNL     1      12.379  12.999 -12.082  1.00  0.00     0.041 A 
ATOM     83  F   UNL     1      14.433  13.955 -11.471  1.00  0.00    -0.206 F 
ATOM     84  C   UNL     1      10.995  12.912 -11.932  1.00  0.00     0.025 A 
BRANCH  81  85
ATOM     85  S   UNL     1       8.643  13.510 -10.597  1.00  0.00     0.257 S 
ATOM     86  O   UNL     1       8.543  13.262  -9.177  1.00  0.00    -0.205 OA
ATOM     87  O   UNL     1       7.897  14.557 -11.259  1.00  0.00    -0.205 OA
BRANCH  85  88
ATOM     88  N   UNL     1       8.198  12.061 -11.367  1.00  0.00    -0.123 NA
ATOM     89  H   UNL     1       8.571  12.099 -12.316  1.00  0.00     0.167 HD
BRANCH  88  90
ATOM     90  N   UNL     1       8.625  10.814 -10.794  1.00  0.00    -0.275 N 
ATOM     91  C   UNL     1       7.888   9.678 -10.600  1.00  0.00     0.265 C 
ATOM     92  H   UNL     1       9.565  10.773 -10.505  1.00  0.00     0.186 HD
ATOM     93  O   UNL     1       8.513   8.657 -10.284  1.00  0.00    -0.271 OA
BRANCH  91  94
ATOM     94  C   UNL     1       6.347   9.663 -10.658  1.00  0.00     0.244 C 
ATOM     95  C   UNL     1       5.584  10.857 -11.090  1.00  0.00     0.042 C 
ATOM     96  N   UNL     1       5.968   8.654 -11.691  1.00  0.00    -0.171 NA
ATOM     97  C   UNL     1       4.987  10.496 -12.225  1.00  0.00     0.091 C 
ATOM     98  N   UNL     1       5.215   9.187 -12.553  1.00  0.00    -0.155 NA
BRANCH  97  99
ATOM     99  C   UNL     1       4.207  11.386 -13.076  1.00  0.00     0.002 A 
ATOM    100  C   UNL     1       2.810  11.335 -13.070  1.00  0.00     0.010 A 
ATOM    101  C   UNL     1       4.861  12.294 -13.920  1.00  0.00     0.010 A 
ATOM    102  C   UNL     1       2.075  12.184 -13.900  1.00  0.00     0.001 A 
ATOM    103  C   UNL     1       4.125  13.141 -14.747  1.00  0.00     0.001 A 
ATOM    104  C   UNL     1       2.733  13.086 -14.737  1.00  0.00     0.000 A 
ENDBRANCH  97  99
ENDBRANCH  91  94
ENDBRANCH  88  90
ENDBRANCH  85  88
ENDBRANCH  81  85
ENDBRANCH  75  78
ENDBRANCH  73  74
ENDBRANCH   1  73
TORSDOF 19
