REMARK SMILES O=C(NCCCCNC(=O)c1cc(NC(=O)c2cccc(Cl)c2)ccc1N1CC[NH+](CC(=O)N2CCOCC2)CC1)c1ccc(-c2c3nc(c(-c4cc(S(=O)(=O)[O-])ccc4F)c4ccc([nH]4)c(-c4cc(S(=O)(=O)[O-])ccc4F)c4nc(c(-c5cc(S(=O)(=O)[O-])ccc5F)c5ccc2[nH]5)C=C4)C=C3)cc1
REMARK SMILES IDX 5 1 4 2 3 3 1 4 2 5 42 7 43 8 104 9 44 10 103 11 45 12 46 13
REMARK SMILES IDX 47 14 97 15 48 16 102 17 96 18 98 19 49 20 101 21 95 22
REMARK SMILES IDX 94 23 50 25 82 26 62 27 81 28 63 29 66 30 80 31 99 32 64 33
REMARK SMILES IDX 65 34 79 36 100 37 67 38 51 39 52 40 60 41 53 42 59 43 61 44
REMARK SMILES IDX 58 45 54 46 55 47 56 48 57 49 83 50 84 51 92 52 85 53 91 54
REMARK SMILES IDX 93 55 90 56 86 57 87 58 88 59 89 60 68 61 69 62 77 63 70 64
REMARK SMILES IDX 76 65 78 66 75 67 71 68 72 69 73 70 74 71 6 72 7 73 8 74
REMARK SMILES IDX 9 75 10 77 11 78 12 79 26 80 13 81 25 82 24 83 27 84 28 85
REMARK SMILES IDX 41 86 29 87 40 88 30 89 31 91 32 92 33 93 34 94 35 95 39 96
REMARK SMILES IDX 36 97 38 98 37 99 14 100 15 101 16 103 17 104 18 105 23 106
REMARK SMILES IDX 19 107 21 108 20 109 22 110
REMARK H PARENT 3 6 98 24 66 35 8 76 30 90 14 102
REMARK Flexibility Score: inf
ROOT
ATOM      1  C   UNL     1       5.095  -1.242  -2.679  1.00  0.00     0.023 C 
ENDROOT
BRANCH   1   2
ATOM      2  C   UNL     1       4.732  -0.362  -1.490  1.00  0.00     0.116 C 
BRANCH   2   3
ATOM      3  N   UNL     1       3.302  -0.160  -1.304  1.00  0.00    -0.352 N 
ATOM      4  O   UNL     1       1.329  -0.195  -0.196  1.00  0.00    -0.269 OA
ATOM      5  C   UNL     1       2.537  -0.367  -0.173  1.00  0.00     0.251 C 
ATOM      6  H   UNL     1       2.814   0.170  -2.092  1.00  0.00     0.163 HD
BRANCH   5   7
ATOM      7  C   UNL     1       3.202  -0.852   1.059  1.00  0.00     0.039 A 
ATOM      8  C   UNL     1       4.333  -0.199   1.550  1.00  0.00     0.014 A 
ATOM      9  C   UNL     1       2.739  -2.021   1.669  1.00  0.00     0.014 A 
ATOM     10  C   UNL     1       5.110  -0.821   2.522  1.00  0.00     0.010 A 
ATOM     11  C   UNL     1       3.476  -2.595   2.711  1.00  0.00     0.010 A 
ATOM     12  C   UNL     1       4.698  -2.032   3.108  1.00  0.00    -0.014 A 
BRANCH  12  13
ATOM     13  C   UNL     1       5.568  -2.674   4.131  1.00  0.00     0.031 A 
ATOM     14  C   UNL     1       6.205  -4.019   3.885  1.00  0.00     0.074 A 
ATOM     15  C   UNL     1       5.834  -2.002   5.269  1.00  0.00     0.049 A 
ATOM     16  N   UNL     1       7.018  -4.701   4.654  1.00  0.00    -0.248 NA
ATOM     17  C   UNL     1       5.881  -4.690   2.617  1.00  0.00     0.031 C 
ATOM     18  C   UNL     1       5.268  -0.698   5.623  1.00  0.00     0.029 A 
ATOM     19  N   UNL     1       6.659  -2.301   6.322  1.00  0.00    -0.354 N 
ATOM     20  C   UNL     1       7.296  -5.882   3.971  1.00  0.00     0.074 A 
ATOM     21  C   UNL     1       6.532  -5.839   2.742  1.00  0.00     0.031 C 
ATOM     22  C   UNL     1       5.799  -0.288   6.783  1.00  0.00     0.029 A 
ATOM     23  C   UNL     1       6.690  -1.325   7.290  1.00  0.00     0.049 A 
ATOM     24  H   UNL     1       7.180  -3.135   6.379  1.00  0.00     0.167 HD
ATOM     25  C   UNL     1       8.121  -6.899   4.331  1.00  0.00     0.034 A 
ATOM     26  C   UNL     1       7.346  -1.273   8.465  1.00  0.00     0.034 A 
ATOM     27  C   UNL     1       8.878  -6.928   5.562  1.00  0.00     0.049 A 
ATOM     28  C   UNL     1       8.242  -2.419   8.845  1.00  0.00     0.074 A 
ATOM     29  C   UNL     1       9.742  -7.908   6.023  1.00  0.00     0.029 A 
ATOM     30  N   UNL     1       8.864  -5.931   6.530  1.00  0.00    -0.354 N 
ATOM     31  N   UNL     1       8.490  -3.527   8.185  1.00  0.00    -0.248 NA
ATOM     32  C   UNL     1       8.954  -2.304  10.123  1.00  0.00     0.031 C 
ATOM     33  C   UNL     1      10.204  -7.531   7.290  1.00  0.00     0.029 A 
ATOM     34  C   UNL     1       9.686  -6.283   7.592  1.00  0.00     0.049 A 
ATOM     35  H   UNL     1       8.345  -5.097   6.472  1.00  0.00     0.167 HD
ATOM     36  C   UNL     1       9.393  -4.238   8.968  1.00  0.00     0.074 A 
ATOM     37  C   UNL     1       9.675  -3.414  10.127  1.00  0.00     0.031 C 
ATOM     38  C   UNL     1       9.936  -5.464   8.754  1.00  0.00     0.034 A 
BRANCH  25  39
ATOM     39  C   UNL     1       8.220  -8.083   3.396  1.00  0.00     0.023 A 
ATOM     40  C   UNL     1       8.775  -7.964   2.109  1.00  0.00     0.031 A 
ATOM     41  C   UNL     1       7.754  -9.348   3.795  1.00  0.00     0.131 A 
ATOM     42  C   UNL     1       8.798  -9.074   1.249  1.00  0.00     0.055 A 
ATOM     43  C   UNL     1       7.845 -10.466   2.961  1.00  0.00     0.041 A 
ATOM     44  F   UNL     1       7.198  -9.521   5.005  1.00  0.00    -0.206 F 
ATOM     45  C   UNL     1       8.359 -10.330   1.675  1.00  0.00     0.022 A 
BRANCH  42  46
ATOM     46  S   UNL     1       9.303  -8.828  -0.476  1.00  0.00     0.124 S 
ATOM     47  O   UNL     1       8.318  -7.851  -0.935  1.00  0.00    -0.237 OA
ATOM     48  O   UNL     1      10.670  -8.340  -0.338  1.00  0.00    -0.237 OA
ATOM     49  O   UNL     1       9.171 -10.158  -1.066  1.00  0.00    -0.744 OA
ENDBRANCH  42  46
ENDBRANCH  25  39
BRANCH  26  50
ATOM     50  C   UNL     1       7.148  -0.114   9.380  1.00  0.00     0.023 A 
ATOM     51  C   UNL     1       8.206   0.747   9.708  1.00  0.00     0.031 A 
ATOM     52  C   UNL     1       5.891   0.133   9.962  1.00  0.00     0.131 A 
ATOM     53  C   UNL     1       7.999   1.788  10.626  1.00  0.00     0.055 A 
ATOM     54  C   UNL     1       5.676   1.203  10.829  1.00  0.00     0.041 A 
ATOM     55  F   UNL     1       4.844  -0.658   9.676  1.00  0.00    -0.206 F 
ATOM     56  C   UNL     1       6.738   2.031  11.177  1.00  0.00     0.022 A 
BRANCH  53  57
ATOM     57  S   UNL     1       9.426   2.773  11.158  1.00  0.00     0.124 S 
ATOM     58  O   UNL     1      10.335   1.742  11.646  1.00  0.00    -0.237 OA
ATOM     59  O   UNL     1       9.814   3.436   9.917  1.00  0.00    -0.237 OA
ATOM     60  O   UNL     1       8.868   3.652  12.184  1.00  0.00    -0.744 OA
ENDBRANCH  53  57
ENDBRANCH  26  50
BRANCH  38  61
ATOM     61  C   UNL     1      10.902  -5.963   9.800  1.00  0.00     0.023 A 
ATOM     62  C   UNL     1      10.477  -6.261  11.108  1.00  0.00     0.031 A 
ATOM     63  C   UNL     1      12.269  -6.090   9.503  1.00  0.00     0.131 A 
ATOM     64  C   UNL     1      11.420  -6.600  12.089  1.00  0.00     0.055 A 
ATOM     65  C   UNL     1      13.195  -6.489  10.468  1.00  0.00     0.041 A 
ATOM     66  F   UNL     1      12.730  -5.816   8.272  1.00  0.00    -0.206 F 
ATOM     67  C   UNL     1      12.775  -6.729  11.774  1.00  0.00     0.022 A 
BRANCH  64  68
ATOM     68  S   UNL     1      10.867  -6.756  13.809  1.00  0.00     0.124 S 
ATOM     69  O   UNL     1      10.265  -5.450  14.054  1.00  0.00    -0.237 OA
ATOM     70  O   UNL     1       9.941  -7.882  13.738  1.00  0.00    -0.237 OA
ATOM     71  O   UNL     1      12.103  -7.017  14.545  1.00  0.00    -0.744 OA
ENDBRANCH  64  68
ENDBRANCH  38  61
ENDBRANCH  12  13
ENDBRANCH   5   7
ENDBRANCH   2   3
ENDBRANCH   1   2
BRANCH   1  72
ATOM     72  C   UNL     1       4.670  -0.740  -4.057  1.00  0.00     0.023 C 
BRANCH  72  73
ATOM     73  C   UNL     1       4.990   0.717  -4.371  1.00  0.00     0.116 C 
BRANCH  73  74
ATOM     74  N   UNL     1       6.394   1.060  -4.238  1.00  0.00    -0.352 N 
ATOM     75  C   UNL     1       7.061   2.113  -4.816  1.00  0.00     0.253 C 
ATOM     76  H   UNL     1       6.933   0.467  -3.665  1.00  0.00     0.163 HD
ATOM     77  O   UNL     1       8.250   2.301  -4.566  1.00  0.00    -0.269 OA
BRANCH  75  78
ATOM     78  C   UNL     1       6.376   2.996  -5.800  1.00  0.00     0.065 A 
ATOM     79  C   UNL     1       7.044   3.104  -7.021  1.00  0.00     0.042 A 
ATOM     80  C   UNL     1       5.168   3.686  -5.564  1.00  0.00     0.050 A 
ATOM     81  C   UNL     1       6.430   3.658  -8.131  1.00  0.00     0.042 A 
ATOM     82  C   UNL     1       4.571   4.289  -6.680  1.00  0.00     0.029 A 
ATOM     83  C   UNL     1       5.184   4.262  -7.949  1.00  0.00     0.028 A 
BRANCH  80  84
ATOM     84  N   UNL     1       4.661   3.837  -4.278  1.00  0.00    -0.360 N 
ATOM     85  C   UNL     1       3.288   4.269  -3.953  1.00  0.00     0.178 C 
ATOM     86  C   UNL     1       5.646   4.358  -3.322  1.00  0.00     0.178 C 
ATOM     87  C   UNL     1       2.965   4.048  -2.434  1.00  0.00     0.284 C 
ATOM     88  C   UNL     1       5.329   3.851  -1.918  1.00  0.00     0.284 C 
ATOM     89  N   UNL     1       4.027   4.303  -1.434  1.00  0.00    -0.324 N 
ATOM     90  H   UNL     1       3.763   3.722  -0.639  1.00  0.00     0.348 HD
BRANCH  89  91
ATOM     91  C   UNL     1       4.051   5.631  -0.799  1.00  0.00     0.363 C 
BRANCH  91  92
ATOM     92  C   UNL     1       4.164   6.843  -1.732  1.00  0.00     0.277 C 
ATOM     93  O   UNL     1       3.166   7.220  -2.359  1.00  0.00    -0.268 OA
ATOM     94  N   UNL     1       5.370   7.546  -1.813  1.00  0.00    -0.333 N 
ATOM     95  C   UNL     1       6.713   6.975  -1.610  1.00  0.00     0.148 C 
ATOM     96  C   UNL     1       5.356   8.800  -2.568  1.00  0.00     0.148 C 
ATOM     97  C   UNL     1       7.800   8.006  -1.295  1.00  0.00     0.181 C 
ATOM     98  C   UNL     1       6.462   9.752  -2.112  1.00  0.00     0.181 C 
ATOM     99  O   UNL     1       7.744   9.119  -2.196  1.00  0.00    -0.378 OA
ENDBRANCH  91  92
ENDBRANCH  89  91
ENDBRANCH  80  84
BRANCH  81 100
ATOM    100  N   UNL     1       6.994   3.636  -9.424  1.00  0.00    -0.322 N 
ATOM    101  C   UNL     1       8.070   2.942  -9.949  1.00  0.00     0.255 C 
ATOM    102  H   UNL     1       6.539   4.223 -10.071  1.00  0.00     0.170 HD
ATOM    103  O   UNL     1       8.488   3.215 -11.073  1.00  0.00    -0.269 OA
BRANCH 101 104
ATOM    104  C   UNL     1       8.727   1.847  -9.202  1.00  0.00     0.041 A 
ATOM    105  C   UNL     1      10.089   1.966  -8.899  1.00  0.00     0.014 A 
ATOM    106  C   UNL     1       7.983   0.764  -8.716  1.00  0.00     0.034 A 
ATOM    107  C   UNL     1      10.686   1.050  -8.030  1.00  0.00     0.002 A 
ATOM    108  C   UNL     1       8.583  -0.127  -7.828  1.00  0.00     0.041 A 
ATOM    109  C   UNL     1       9.926   0.016  -7.476  1.00  0.00     0.020 A 
ATOM    110  Cl  UNL     1       7.634  -1.363  -7.099  1.00  0.00    -0.084 Cl
ENDBRANCH 101 104
ENDBRANCH  81 100
ENDBRANCH  75  78
ENDBRANCH  73  74
ENDBRANCH  72  73
ENDBRANCH   1  72
TORSDOF 19
