REMARK SMILES Cc1cccc(C)c1Nc1ccccc1CC(=O)NCCCCNC(=O)c1ccc(-c2c3nc(c(-c4cc(S(=O)(=O)[O-])ccc4F)c4ccc([nH]4)c(-c4cc(S(=O)(=O)[O-])ccc4F)c4nc(c(-c5cc(S(=O)(=O)[O-])ccc5F)c5ccc2[nH]5)C=C4)C=C3)cc1
REMARK SMILES IDX 21 1 20 2 19 3 17 4 18 5 16 7 15 8 10 9 11 10 12 11 14 12
REMARK SMILES IDX 13 13 9 14 8 16 1 17 2 18 3 19 4 20 6 21 5 22 7 23 22 24
REMARK SMILES IDX 23 25 24 26 25 27 26 29 27 30 28 31 89 32 29 33 88 34 30 35
REMARK SMILES IDX 31 36 32 37 82 38 33 39 87 40 81 41 83 42 34 43 86 44 80 45
REMARK SMILES IDX 79 46 35 48 67 49 47 50 66 51 48 52 51 53 65 54 84 55 49 56
REMARK SMILES IDX 50 57 64 59 85 60 52 61 36 62 37 63 45 64 38 65 44 66 46 67
REMARK SMILES IDX 43 68 39 69 40 70 41 71 42 72 68 73 69 74 77 75 70 76 76 77
REMARK SMILES IDX 78 78 75 79 71 80 72 81 73 82 74 83 53 84 54 85 62 86 55 87
REMARK SMILES IDX 61 88 63 89 60 90 56 91 57 92 58 93 59 94
REMARK H PARENT 19 6 9 15 24 28 83 47 51 58
REMARK Flexibility Score: inf
ROOT
ATOM      1  C   UNL     1       0.224   5.356   2.281  1.00  0.00     0.023 C 
ENDROOT
BRANCH   1   2
ATOM      2  C   UNL     1       0.464   3.954   2.842  1.00  0.00     0.116 C 
BRANCH   2   3
ATOM      3  N   UNL     1      -0.568   3.578   3.786  1.00  0.00    -0.356 N 
ATOM      4  C   UNL     1      -1.698   2.847   3.547  1.00  0.00     0.224 C 
ATOM      5  O   UNL     1      -2.531   2.734   4.448  1.00  0.00    -0.275 OA
ATOM      6  H   UNL     1      -0.441   3.887   4.712  1.00  0.00     0.163 HD
BRANCH   4   7
ATOM      7  C   UNL     1      -1.881   2.156   2.206  1.00  0.00     0.137 C 
BRANCH   7   8
ATOM      8  C   UNL     1      -2.184   3.095   1.054  1.00  0.00    -0.015 A 
ATOM      9  C   UNL     1      -1.402   3.151  -0.120  1.00  0.00     0.042 A 
ATOM     10  C   UNL     1      -1.689   4.146  -1.074  1.00  0.00     0.026 A 
ATOM     11  C   UNL     1      -2.743   5.042  -0.901  1.00  0.00     0.002 A 
ATOM     12  C   UNL     1      -3.267   3.988   1.198  1.00  0.00     0.006 A 
ATOM     13  C   UNL     1      -3.542   4.953   0.231  1.00  0.00     0.000 A 
BRANCH   9  14
ATOM     14  N   UNL     1      -0.369   2.248  -0.439  1.00  0.00    -0.355 N 
ATOM     15  H   UNL     1       0.438   2.686  -0.793  1.00  0.00     0.167 HD
BRANCH  14  16
ATOM     16  C   UNL     1      -0.255   0.841  -0.354  1.00  0.00     0.044 A 
ATOM     17  C   UNL     1       2.266   1.148  -0.014  1.00  0.00     0.046 C 
ATOM     18  C   UNL     1       1.032   0.286  -0.114  1.00  0.00    -0.027 A 
ATOM     19  C   UNL     1       1.182  -1.098   0.072  1.00  0.00     0.005 A 
ATOM     20  C   UNL     1       0.080  -1.941   0.028  1.00  0.00     0.001 A 
ATOM     21  C   UNL     1      -1.363  -0.035  -0.444  1.00  0.00    -0.027 A 
ATOM     22  C   UNL     1      -1.180  -1.414  -0.227  1.00  0.00     0.005 A 
ATOM     23  C   UNL     1      -2.755   0.418  -0.795  1.00  0.00     0.046 C 
ENDBRANCH  14  16
ENDBRANCH   9  14
ENDBRANCH   7   8
ENDBRANCH   4   7
ENDBRANCH   2   3
ENDBRANCH   1   2
BRANCH   1  24
ATOM     24  C   UNL     1       0.415   6.485   3.297  1.00  0.00     0.023 C 
BRANCH  24  25
ATOM     25  C   UNL     1       1.788   6.530   3.952  1.00  0.00     0.116 C 
BRANCH  25  26
ATOM     26  N   UNL     1       2.871   6.641   2.988  1.00  0.00    -0.352 N 
ATOM     27  C   UNL     1       4.054   7.328   3.107  1.00  0.00     0.251 C 
ATOM     28  H   UNL     1       2.738   6.162   2.139  1.00  0.00     0.163 HD
ATOM     29  O   UNL     1       4.799   7.429   2.137  1.00  0.00    -0.269 OA
BRANCH  27  30
ATOM     30  C   UNL     1       4.395   7.973   4.392  1.00  0.00     0.039 A 
ATOM     31  C   UNL     1       4.863   9.289   4.380  1.00  0.00     0.014 A 
ATOM     32  C   UNL     1       4.235   7.293   5.603  1.00  0.00     0.014 A 
ATOM     33  C   UNL     1       5.122   9.938   5.588  1.00  0.00     0.010 A 
ATOM     34  C   UNL     1       4.419   7.967   6.807  1.00  0.00     0.010 A 
ATOM     35  C   UNL     1       4.875   9.293   6.812  1.00  0.00    -0.014 A 
BRANCH  35  36
ATOM     36  C   UNL     1       5.116   9.992   8.101  1.00  0.00     0.031 A 
ATOM     37  C   UNL     1       6.180   9.495   9.041  1.00  0.00     0.074 A 
ATOM     38  C   UNL     1       4.355  11.053   8.435  1.00  0.00     0.049 A 
ATOM     39  N   UNL     1       6.538   9.963  10.210  1.00  0.00    -0.248 NA
ATOM     40  C   UNL     1       6.917   8.292   8.626  1.00  0.00     0.031 C 
ATOM     41  C   UNL     1       3.257  11.593   7.629  1.00  0.00     0.029 A 
ATOM     42  N   UNL     1       4.389  11.870   9.536  1.00  0.00    -0.354 N 
ATOM     43  C   UNL     1       7.537   9.111  10.670  1.00  0.00     0.074 A 
ATOM     44  C   UNL     1       7.670   8.056   9.689  1.00  0.00     0.031 C 
ATOM     45  C   UNL     1       2.749  12.673   8.244  1.00  0.00     0.029 A 
ATOM     46  C   UNL     1       3.458  12.882   9.503  1.00  0.00     0.049 A 
ATOM     47  H   UNL     1       5.020  11.744  10.281  1.00  0.00     0.167 HD
ATOM     48  C   UNL     1       8.293   9.215  11.791  1.00  0.00     0.034 A 
ATOM     49  C   UNL     1       3.209  13.870  10.385  1.00  0.00     0.034 A 
ATOM     50  C   UNL     1       8.149  10.278  12.757  1.00  0.00     0.049 A 
ATOM     51  C   UNL     1       4.062  13.966  11.624  1.00  0.00     0.074 A 
ATOM     52  C   UNL     1       8.882  10.505  13.909  1.00  0.00     0.029 A 
ATOM     53  N   UNL     1       7.202  11.293  12.686  1.00  0.00    -0.354 N 
ATOM     54  N   UNL     1       5.041  13.184  12.019  1.00  0.00    -0.248 NA
ATOM     55  C   UNL     1       3.789  15.092  12.524  1.00  0.00     0.031 C 
ATOM     56  C   UNL     1       8.341  11.618  14.564  1.00  0.00     0.029 A 
ATOM     57  C   UNL     1       7.319  12.135  13.783  1.00  0.00     0.049 A 
ATOM     58  H   UNL     1       6.544  11.400  11.962  1.00  0.00     0.167 HD
ATOM     59  C   UNL     1       5.523  13.748  13.198  1.00  0.00     0.074 A 
ATOM     60  C   UNL     1       4.741  14.945  13.432  1.00  0.00     0.031 C 
ATOM     61  C   UNL     1       6.523  13.318  14.011  1.00  0.00     0.034 A 
BRANCH  48  62
ATOM     62  C   UNL     1       9.323   8.135  12.032  1.00  0.00     0.023 A 
ATOM     63  C   UNL     1      10.383   7.913  11.132  1.00  0.00     0.031 A 
ATOM     64  C   UNL     1       9.225   7.287  13.149  1.00  0.00     0.131 A 
ATOM     65  C   UNL     1      11.244   6.821  11.317  1.00  0.00     0.055 A 
ATOM     66  C   UNL     1      10.140   6.256  13.375  1.00  0.00     0.041 A 
ATOM     67  F   UNL     1       8.226   7.434  14.033  1.00  0.00    -0.206 F 
ATOM     68  C   UNL     1      11.147   6.006  12.447  1.00  0.00     0.022 A 
BRANCH  65  69
ATOM     69  S   UNL     1      12.389   6.386   9.979  1.00  0.00     0.124 S 
ATOM     70  O   UNL     1      11.469   6.146   8.870  1.00  0.00    -0.237 OA
ATOM     71  O   UNL     1      13.220   7.580   9.873  1.00  0.00    -0.237 OA
ATOM     72  O   UNL     1      13.069   5.194  10.483  1.00  0.00    -0.744 OA
ENDBRANCH  65  69
ENDBRANCH  48  62
BRANCH  49  73
ATOM     73  C   UNL     1       2.121  14.857  10.130  1.00  0.00     0.023 A 
ATOM     74  C   UNL     1       2.410  16.217   9.930  1.00  0.00     0.031 A 
ATOM     75  C   UNL     1       0.771  14.464  10.129  1.00  0.00     0.131 A 
ATOM     76  C   UNL     1       1.365  17.143   9.790  1.00  0.00     0.055 A 
ATOM     77  C   UNL     1      -0.264  15.381   9.936  1.00  0.00     0.041 A 
ATOM     78  F   UNL     1       0.439  13.176  10.307  1.00  0.00    -0.206 F 
ATOM     79  C   UNL     1       0.030  16.732   9.780  1.00  0.00     0.022 A 
BRANCH  76  80
ATOM     80  S   UNL     1       1.774  18.908   9.709  1.00  0.00     0.124 S 
ATOM     81  O   UNL     1       2.495  19.105  10.961  1.00  0.00    -0.237 OA
ATOM     82  O   UNL     1       2.572  18.977   8.489  1.00  0.00    -0.237 OA
ATOM     83  O   UNL     1       0.466  19.556   9.632  1.00  0.00    -0.744 OA
ENDBRANCH  76  80
ENDBRANCH  49  73
BRANCH  61  84
ATOM     84  C   UNL     1       6.848  14.187  15.204  1.00  0.00     0.023 A 
ATOM     85  C   UNL     1       5.923  14.398  16.242  1.00  0.00     0.031 A 
ATOM     86  C   UNL     1       8.087  14.848  15.280  1.00  0.00     0.131 A 
ATOM     87  C   UNL     1       6.218  15.310  17.267  1.00  0.00     0.055 A 
ATOM     88  C   UNL     1       8.402  15.700  16.340  1.00  0.00     0.041 A 
ATOM     89  F   UNL     1       9.009  14.686  14.318  1.00  0.00    -0.206 F 
ATOM     90  C   UNL     1       7.458  15.950  17.331  1.00  0.00     0.022 A 
BRANCH  87  91
ATOM     91  S   UNL     1       4.907  15.750  18.441  1.00  0.00     0.124 S 
ATOM     92  O   UNL     1       3.837  16.192  17.552  1.00  0.00    -0.237 OA
ATOM     93  O   UNL     1       4.676  14.488  19.137  1.00  0.00    -0.237 OA
ATOM     94  O   UNL     1       5.513  16.804  19.253  1.00  0.00    -0.744 OA
ENDBRANCH  87  91
ENDBRANCH  61  84
ENDBRANCH  35  36
ENDBRANCH  27  30
ENDBRANCH  25  26
ENDBRANCH  24  25
ENDBRANCH   1  24
TORSDOF 17
