REMARK SMILES O=C(NCCCCNC(=O)c1cc(O)ccc1NC(=O)c1ccc(Br)nc1)c1ccc(-c2c3nc(c(-c4cc(S(=O)(=O)[O-])ccc4F)c4ccc([nH]4)c(-c4cc(S(=O)(=O)[O-])ccc4F)c4nc(c(-c5cc(S(=O)(=O)[O-])ccc5F)c5ccc2[nH]5)C=C4)C=C3)cc1
REMARK SMILES IDX 5 1 4 2 3 3 1 4 2 5 28 7 29 8 90 9 30 10 89 11 31 12 32 13
REMARK SMILES IDX 33 14 83 15 34 16 88 17 82 18 84 19 35 20 87 21 81 22 80 23
REMARK SMILES IDX 36 25 68 26 48 27 67 28 49 29 52 30 66 31 85 32 50 33 51 34
REMARK SMILES IDX 65 36 86 37 53 38 37 39 38 40 46 41 39 42 45 43 47 44 44 45
REMARK SMILES IDX 40 46 41 47 42 48 43 49 69 50 70 51 78 52 71 53 77 54 79 55
REMARK SMILES IDX 76 56 72 57 73 58 74 59 75 60 54 61 55 62 63 63 56 64 62 65
REMARK SMILES IDX 64 66 61 67 57 68 58 69 59 70 60 71 6 72 7 73 8 74 9 75
REMARK SMILES IDX 10 77 11 78 12 79 17 80 13 81 16 82 15 83 18 84 19 85 20 87
REMARK SMILES IDX 21 88 22 89 27 90 23 91 26 92 24 93 25 94 14 95
REMARK H PARENT 3 6 84 24 52 35 8 76 18 86 14 96
REMARK Flexibility Score: inf
ROOT
ATOM      1  C   UNL     1       4.878  -2.494  -1.008  1.00  0.00     0.023 C 
ENDROOT
BRANCH   1   2
ATOM      2  C   UNL     1       4.556  -1.018  -0.813  1.00  0.00     0.116 C 
BRANCH   2   3
ATOM      3  N   UNL     1       3.131  -0.719  -0.846  1.00  0.00    -0.352 N 
ATOM      4  O   UNL     1       1.160   0.088  -0.100  1.00  0.00    -0.269 OA
ATOM      5  C   UNL     1       2.377   0.015   0.043  1.00  0.00     0.251 C 
ATOM      6  H   UNL     1       2.637  -1.095  -1.610  1.00  0.00     0.163 HD
BRANCH   5   7
ATOM      7  C   UNL     1       3.037   0.681   1.189  1.00  0.00     0.039 A 
ATOM      8  C   UNL     1       4.211   1.412   1.006  1.00  0.00     0.014 A 
ATOM      9  C   UNL     1       2.493   0.535   2.468  1.00  0.00     0.014 A 
ATOM     10  C   UNL     1       4.933   1.840   2.114  1.00  0.00     0.010 A 
ATOM     11  C   UNL     1       3.176   1.050   3.576  1.00  0.00     0.010 A 
ATOM     12  C   UNL     1       4.428   1.663   3.413  1.00  0.00    -0.014 A 
BRANCH  12  13
ATOM     13  C   UNL     1       5.229   2.140   4.572  1.00  0.00     0.031 A 
ATOM     14  C   UNL     1       5.782   1.174   5.586  1.00  0.00     0.074 A 
ATOM     15  C   UNL     1       5.506   3.455   4.671  1.00  0.00     0.049 A 
ATOM     16  N   UNL     1       6.548   1.413   6.621  1.00  0.00    -0.248 NA
ATOM     17  C   UNL     1       5.418  -0.241   5.426  1.00  0.00     0.031 C 
ATOM     18  C   UNL     1       5.018   4.487   3.753  1.00  0.00     0.029 A 
ATOM     19  N   UNL     1       6.284   4.147   5.563  1.00  0.00    -0.354 N 
ATOM     20  C   UNL     1       6.739   0.186   7.251  1.00  0.00     0.074 A 
ATOM     21  C   UNL     1       5.980  -0.789   6.495  1.00  0.00     0.031 C 
ATOM     22  C   UNL     1       5.558   5.667   4.090  1.00  0.00     0.029 A 
ATOM     23  C   UNL     1       6.378   5.490   5.283  1.00  0.00     0.049 A 
ATOM     24  H   UNL     1       6.732   3.723   6.330  1.00  0.00     0.167 HD
ATOM     25  C   UNL     1       7.482  -0.100   8.350  1.00  0.00     0.034 A 
ATOM     26  C   UNL     1       7.043   6.474   5.918  1.00  0.00     0.034 A 
ATOM     27  C   UNL     1       8.249   0.882   9.082  1.00  0.00     0.049 A 
ATOM     28  C   UNL     1       7.851   6.132   7.139  1.00  0.00     0.074 A 
ATOM     29  C   UNL     1       9.074   0.692  10.178  1.00  0.00     0.029 A 
ATOM     30  N   UNL     1       8.282   2.241   8.797  1.00  0.00    -0.354 N 
ATOM     31  N   UNL     1       8.035   4.963   7.707  1.00  0.00    -0.248 NA
ATOM     32  C   UNL     1       8.540   7.244   7.803  1.00  0.00     0.031 C 
ATOM     33  C   UNL     1       9.553   1.940  10.592  1.00  0.00     0.029 A 
ATOM     34  C   UNL     1       9.085   2.904   9.714  1.00  0.00     0.049 A 
ATOM     35  H   UNL     1       7.804   2.672   8.052  1.00  0.00     0.167 HD
ATOM     36  C   UNL     1       8.878   5.198   8.788  1.00  0.00     0.074 A 
ATOM     37  C   UNL     1       9.181   6.616   8.777  1.00  0.00     0.031 C 
ATOM     38  C   UNL     1       9.359   4.322   9.706  1.00  0.00     0.034 A 
BRANCH  25  39
ATOM     39  C   UNL     1       7.460  -1.525   8.854  1.00  0.00     0.023 A 
ATOM     40  C   UNL     1       7.975  -2.592   8.097  1.00  0.00     0.031 A 
ATOM     41  C   UNL     1       6.889  -1.823  10.104  1.00  0.00     0.131 A 
ATOM     42  C   UNL     1       7.844  -3.910   8.562  1.00  0.00     0.055 A 
ATOM     43  C   UNL     1       6.830  -3.129  10.597  1.00  0.00     0.041 A 
ATOM     44  F   UNL     1       6.364  -0.850  10.865  1.00  0.00    -0.206 F 
ATOM     45  C   UNL     1       7.295  -4.184   9.818  1.00  0.00     0.022 A 
BRANCH  42  46
ATOM     46  S   UNL     1       8.266  -5.272   7.441  1.00  0.00     0.124 S 
ATOM     47  O   UNL     1       7.409  -4.988   6.293  1.00  0.00    -0.237 OA
ATOM     48  O   UNL     1       9.696  -5.077   7.235  1.00  0.00    -0.237 OA
ATOM     49  O   UNL     1       7.901  -6.467   8.200  1.00  0.00    -0.744 OA
ENDBRANCH  42  46
ENDBRANCH  25  39
BRANCH  26  50
ATOM     50  C   UNL     1       6.960   7.874   5.420  1.00  0.00     0.023 A 
ATOM     51  C   UNL     1       8.091   8.528   4.908  1.00  0.00     0.031 A 
ATOM     52  C   UNL     1       5.747   8.584   5.463  1.00  0.00     0.131 A 
ATOM     53  C   UNL     1       7.995   9.864   4.490  1.00  0.00     0.055 A 
ATOM     54  C   UNL     1       5.645   9.897   5.002  1.00  0.00     0.041 A 
ATOM     55  F   UNL     1       4.635   8.000   5.936  1.00  0.00    -0.206 F 
ATOM     56  C   UNL     1       6.777  10.548   4.521  1.00  0.00     0.022 A 
BRANCH  53  57
ATOM     57  S   UNL     1       9.503  10.719   3.958  1.00  0.00     0.124 S 
ATOM     58  O   UNL     1      10.342  10.608   5.146  1.00  0.00    -0.237 OA
ATOM     59  O   UNL     1       9.912   9.921   2.807  1.00  0.00    -0.237 OA
ATOM     60  O   UNL     1       9.037  12.068   3.645  1.00  0.00    -0.744 OA
ENDBRANCH  53  57
ENDBRANCH  26  50
BRANCH  38  61
ATOM     61  C   UNL     1      10.289   4.885  10.751  1.00  0.00     0.023 A 
ATOM     62  C   UNL     1       9.835   5.784  11.733  1.00  0.00     0.031 A 
ATOM     63  C   UNL     1      11.654   4.552  10.737  1.00  0.00     0.131 A 
ATOM     64  C   UNL     1      10.750   6.369  12.620  1.00  0.00     0.055 A 
ATOM     65  C   UNL     1      12.551   5.094  11.659  1.00  0.00     0.041 A 
ATOM     66  F   UNL     1      12.141   3.701   9.819  1.00  0.00    -0.206 F 
ATOM     67  C   UNL     1      12.103   6.020  12.598  1.00  0.00     0.022 A 
BRANCH  64  68
ATOM     68  S   UNL     1      10.167   7.675  13.737  1.00  0.00     0.124 S 
ATOM     69  O   UNL     1       9.620   8.653  12.802  1.00  0.00    -0.237 OA
ATOM     70  O   UNL     1       9.194   6.967  14.562  1.00  0.00    -0.237 OA
ATOM     71  O   UNL     1      11.381   8.097  14.434  1.00  0.00    -0.744 OA
ENDBRANCH  64  68
ENDBRANCH  38  61
ENDBRANCH  12  13
ENDBRANCH   5   7
ENDBRANCH   2   3
ENDBRANCH   1   2
BRANCH   1  72
ATOM     72  C   UNL     1       4.399  -3.107  -2.320  1.00  0.00     0.023 C 
BRANCH  72  73
ATOM     73  C   UNL     1       4.782  -2.339  -3.580  1.00  0.00     0.116 C 
BRANCH  73  74
ATOM     74  N   UNL     1       6.222  -2.255  -3.792  1.00  0.00    -0.352 N 
ATOM     75  C   UNL     1       6.967  -2.718  -4.851  1.00  0.00     0.253 C 
ATOM     76  H   UNL     1       6.731  -1.805  -3.079  1.00  0.00     0.163 HD
ATOM     77  O   UNL     1       8.194  -2.685  -4.831  1.00  0.00    -0.269 OA
BRANCH  75  78
ATOM     78  C   UNL     1       6.273  -3.326  -6.003  1.00  0.00     0.067 A 
ATOM     79  C   UNL     1       5.314  -2.552  -6.676  1.00  0.00     0.062 A 
ATOM     80  C   UNL     1       6.525  -4.663  -6.364  1.00  0.00     0.054 A 
ATOM     81  C   UNL     1       4.491  -3.160  -7.609  1.00  0.00     0.116 A 
ATOM     82  C   UNL     1       5.612  -5.264  -7.237  1.00  0.00     0.031 A 
ATOM     83  C   UNL     1       4.607  -4.518  -7.862  1.00  0.00     0.048 A 
BRANCH  80  84
ATOM     84  N   UNL     1       7.655  -5.332  -5.829  1.00  0.00    -0.321 N 
ATOM     85  C   UNL     1       8.295  -6.502  -6.176  1.00  0.00     0.257 C 
ATOM     86  H   UNL     1       8.061  -4.871  -5.060  1.00  0.00     0.170 HD
ATOM     87  O   UNL     1       9.179  -6.980  -5.469  1.00  0.00    -0.269 OA
BRANCH  85  88
ATOM     88  C   UNL     1       7.984  -7.197  -7.429  1.00  0.00     0.058 A 
ATOM     89  C   UNL     1       8.069  -6.565  -8.671  1.00  0.00     0.018 A 
ATOM     90  C   UNL     1       7.549  -8.512  -7.376  1.00  0.00     0.126 A 
ATOM     91  C   UNL     1       7.622  -7.246  -9.802  1.00  0.00     0.037 A 
ATOM     92  N   UNL     1       7.108  -9.193  -8.461  1.00  0.00    -0.249 NA
ATOM     93  C   UNL     1       7.138  -8.540  -9.646  1.00  0.00     0.106 A 
ATOM     94  Br  UNL     1       6.432  -9.439 -11.159  1.00  0.00    -0.029 Br
ENDBRANCH  85  88
ENDBRANCH  80  84
BRANCH  81  95
ATOM     95  O   UNL     1       3.517  -2.470  -8.263  1.00  0.00    -0.508 OA
ATOM     96  H   UNL     1       3.413  -1.551  -8.113  1.00  0.00     0.293 HD
ENDBRANCH  81  95
ENDBRANCH  75  78
ENDBRANCH  73  74
ENDBRANCH  72  73
ENDBRANCH   1  72
TORSDOF 17
