REMARK SMILES [NH3+][C@]1(C(=O)NCCCCNC(=O)c2ccc(-c3c4nc(c(-c5cc(S(=O)(=O)[O-])ccc5F)c5ccc([nH]5)c(-c5cc(S(=O)(=O)[O-])ccc5F)c5nc(c(-c6cc(S(=O)(=O)[O-])ccc6F)c6ccc3[nH]6)C=C5)C=C4)cc2)CCC[C@@H](Oc2ccc3c(c2)CCC3)C1
REMARK SMILES IDX 8 1 7 2 6 3 5 4 3 5 4 6 2 8 76 9 90 10 77 11 79 12 78 13
REMARK SMILES IDX 1 14 80 18 81 19 82 20 86 21 83 22 85 23 84 24 87 25 89 26
REMARK SMILES IDX 88 27 9 28 10 29 11 30 12 32 13 33 14 34 75 35 15 36 74 37
REMARK SMILES IDX 16 38 17 39 18 40 68 41 19 42 73 43 67 44 69 45 20 46 72 47
REMARK SMILES IDX 66 48 65 49 21 51 53 52 33 53 52 54 34 55 37 56 51 57 70 58
REMARK SMILES IDX 35 59 36 60 50 62 71 63 38 64 22 65 23 66 31 67 24 68 30 69
REMARK SMILES IDX 32 70 29 71 25 72 26 73 27 74 28 75 54 76 55 77 63 78 56 79
REMARK SMILES IDX 62 80 64 81 61 82 57 83 58 84 59 85 60 86 39 87 40 88 48 89
REMARK SMILES IDX 41 90 47 91 49 92 46 93 42 94 43 95 44 96 45 97
REMARK H PARENT 5 7 1 15 1 16 1 17 10 31 69 50 37 61
REMARK Flexibility Score: inf
ROOT
ATOM      1  C   UNL     1      -1.879   3.622  -3.431  1.00  0.00     0.023 C 
ENDROOT
BRANCH   1   2
ATOM      2  C   UNL     1      -1.788   3.511  -1.905  1.00  0.00     0.023 C 
BRANCH   2   3
ATOM      3  C   UNL     1      -2.698   2.550  -1.111  1.00  0.00     0.116 C 
BRANCH   3   4
ATOM      4  N   UNL     1      -2.580   1.116  -1.349  1.00  0.00    -0.351 N 
ATOM      5  C   UNL     1      -1.940   0.073  -0.718  1.00  0.00     0.281 C 
ATOM      6  O   UNL     1      -2.265  -1.062  -1.085  1.00  0.00    -0.268 OA
ATOM      7  H   UNL     1      -3.075   0.825  -2.149  1.00  0.00     0.163 HD
BRANCH   5   8
ATOM      8  C   UNL     1      -0.952   0.278   0.483  1.00  0.00     0.177 C 
ATOM      9  C   UNL     1      -0.304  -1.059   0.942  1.00  0.00     0.079 C 
ATOM     10  C   UNL     1       0.147   1.334   0.249  1.00  0.00     0.124 C 
ATOM     11  C   UNL     1       0.926  -1.504   0.149  1.00  0.00     0.011 C 
ATOM     12  C   UNL     1       1.427   0.893  -0.502  1.00  0.00     0.180 C 
ATOM     13  C   UNL     1       1.984  -0.414   0.052  1.00  0.00     0.046 C 
BRANCH   8  14
ATOM     14  N   UNL     1      -1.826   0.665   1.634  1.00  0.00    -0.345 N 
ATOM     15  H   UNL     1      -2.544  -0.047   1.770  1.00  0.00     0.345 HD
ATOM     16  H   UNL     1      -2.270   1.562   1.438  1.00  0.00     0.345 HD
ATOM     17  H   UNL     1      -1.261   0.743   2.480  1.00  0.00     0.345 HD
ENDBRANCH   8  14
BRANCH  12  18
ATOM     18  O   UNL     1       1.464   1.063  -1.934  1.00  0.00    -0.490 OA
BRANCH  18  19
ATOM     19  C   UNL     1       0.950   0.095  -2.742  1.00  0.00     0.120 A 
ATOM     20  C   UNL     1       1.690  -1.001  -3.194  1.00  0.00     0.047 A 
ATOM     21  C   UNL     1      -0.328   0.289  -3.234  1.00  0.00     0.050 A 
ATOM     22  C   UNL     1       1.085  -1.979  -4.006  1.00  0.00     0.008 A 
ATOM     23  C   UNL     1      -0.945  -0.685  -3.993  1.00  0.00    -0.041 A 
ATOM     24  C   UNL     1      -0.247  -1.825  -4.368  1.00  0.00    -0.045 A 
ATOM     25  C   UNL     1      -2.385  -0.759  -4.388  1.00  0.00     0.036 C 
ATOM     26  C   UNL     1      -1.157  -2.779  -5.078  1.00  0.00     0.036 C 
ATOM     27  C   UNL     1      -2.355  -1.878  -5.430  1.00  0.00     0.010 C 
ENDBRANCH  18  19
ENDBRANCH  12  18
ENDBRANCH   5   8
ENDBRANCH   3   4
ENDBRANCH   2   3
ENDBRANCH   1   2
BRANCH   1  28
ATOM     28  C   UNL     1      -3.259   3.621  -4.056  1.00  0.00     0.116 C 
BRANCH  28  29
ATOM     29  N   UNL     1      -4.048   4.763  -3.640  1.00  0.00    -0.352 N 
ATOM     30  C   UNL     1      -4.599   5.780  -4.383  1.00  0.00     0.251 C 
ATOM     31  H   UNL     1      -4.215   4.820  -2.672  1.00  0.00     0.163 HD
ATOM     32  O   UNL     1      -5.062   6.751  -3.792  1.00  0.00    -0.269 OA
BRANCH  30  33
ATOM     33  C   UNL     1      -4.616   5.735  -5.868  1.00  0.00     0.039 A 
ATOM     34  C   UNL     1      -4.419   6.928  -6.572  1.00  0.00     0.014 A 
ATOM     35  C   UNL     1      -4.861   4.555  -6.575  1.00  0.00     0.014 A 
ATOM     36  C   UNL     1      -4.405   6.925  -7.971  1.00  0.00     0.010 A 
ATOM     37  C   UNL     1      -4.767   4.538  -7.968  1.00  0.00     0.010 A 
ATOM     38  C   UNL     1      -4.541   5.723  -8.684  1.00  0.00    -0.014 A 
BRANCH  38  39
ATOM     39  C   UNL     1      -4.451   5.691 -10.171  1.00  0.00     0.031 A 
ATOM     40  C   UNL     1      -5.632   5.252 -10.996  1.00  0.00     0.074 A 
ATOM     41  C   UNL     1      -3.288   6.005 -10.778  1.00  0.00     0.049 A 
ATOM     42  N   UNL     1      -5.722   5.082 -12.291  1.00  0.00    -0.248 NA
ATOM     43  C   UNL     1      -6.868   4.940 -10.264  1.00  0.00     0.031 C 
ATOM     44  C   UNL     1      -2.063   6.419 -10.091  1.00  0.00     0.029 A 
ATOM     45  N   UNL     1      -2.941   6.016 -12.107  1.00  0.00    -0.354 N 
ATOM     46  C   UNL     1      -7.017   4.634 -12.529  1.00  0.00     0.074 A 
ATOM     47  C   UNL     1      -7.655   4.501 -11.235  1.00  0.00     0.031 C 
ATOM     48  C   UNL     1      -1.109   6.667 -11.002  1.00  0.00     0.029 A 
ATOM     49  C   UNL     1      -1.631   6.377 -12.334  1.00  0.00     0.049 A 
ATOM     50  H   UNL     1      -3.569   5.788 -12.830  1.00  0.00     0.167 HD
ATOM     51  C   UNL     1      -7.625   4.376 -13.715  1.00  0.00     0.034 A 
ATOM     52  C   UNL     1      -0.923   6.447 -13.480  1.00  0.00     0.034 A 
ATOM     53  C   UNL     1      -6.977   4.518 -14.997  1.00  0.00     0.049 A 
ATOM     54  C   UNL     1      -1.606   6.107 -14.782  1.00  0.00     0.074 A 
ATOM     55  C   UNL     1      -7.516   4.331 -16.259  1.00  0.00     0.029 A 
ATOM     56  N   UNL     1      -5.646   4.869 -15.186  1.00  0.00    -0.354 N 
ATOM     57  N   UNL     1      -2.845   5.727 -14.992  1.00  0.00    -0.248 NA
ATOM     58  C   UNL     1      -0.795   6.213 -16.003  1.00  0.00     0.031 C 
ATOM     59  C   UNL     1      -6.495   4.489 -17.202  1.00  0.00     0.029 A 
ATOM     60  C   UNL     1      -5.338   4.865 -16.538  1.00  0.00     0.049 A 
ATOM     61  H   UNL     1      -5.013   5.088 -14.464  1.00  0.00     0.167 HD
ATOM     62  C   UNL     1      -2.970   5.583 -16.371  1.00  0.00     0.074 A 
ATOM     63  C   UNL     1      -1.685   5.930 -16.942  1.00  0.00     0.031 C 
ATOM     64  C   UNL     1      -4.050   5.203 -17.100  1.00  0.00     0.034 A 
BRANCH  51  65
ATOM     65  C   UNL     1      -9.054   3.886 -13.675  1.00  0.00     0.023 A 
ATOM     66  C   UNL     1     -10.092   4.671 -13.143  1.00  0.00     0.031 A 
ATOM     67  C   UNL     1      -9.383   2.607 -14.159  1.00  0.00     0.131 A 
ATOM     68  C   UNL     1     -11.388   4.144 -13.037  1.00  0.00     0.055 A 
ATOM     69  C   UNL     1     -10.692   2.121 -14.131  1.00  0.00     0.041 A 
ATOM     70  F   UNL     1      -8.434   1.800 -14.660  1.00  0.00    -0.206 F 
ATOM     71  C   UNL     1     -11.702   2.885 -13.552  1.00  0.00     0.022 A 
BRANCH  68  72
ATOM     72  S   UNL     1     -12.621   5.066 -12.078  1.00  0.00     0.124 S 
ATOM     73  O   UNL     1     -11.968   5.165 -10.775  1.00  0.00    -0.237 OA
ATOM     74  O   UNL     1     -12.740   6.310 -12.830  1.00  0.00    -0.237 OA
ATOM     75  O   UNL     1     -13.799   4.201 -12.112  1.00  0.00    -0.744 OA
ENDBRANCH  68  72
ENDBRANCH  51  65
BRANCH  52  76
ATOM     76  C   UNL     1       0.518   6.833 -13.457  1.00  0.00     0.023 A 
ATOM     77  C   UNL     1       0.966   7.997 -14.102  1.00  0.00     0.031 A 
ATOM     78  C   UNL     1       1.477   6.018 -12.830  1.00  0.00     0.131 A 
ATOM     79  C   UNL     1       2.339   8.286 -14.151  1.00  0.00     0.055 A 
ATOM     80  C   UNL     1       2.835   6.342 -12.829  1.00  0.00     0.041 A 
ATOM     81  F   UNL     1       1.105   4.893 -12.198  1.00  0.00    -0.206 F 
ATOM     82  C   UNL     1       3.275   7.475 -13.505  1.00  0.00     0.022 A 
BRANCH  79  83
ATOM     83  S   UNL     1       2.896   9.690 -15.156  1.00  0.00     0.124 S 
ATOM     84  O   UNL     1       2.377   9.335 -16.472  1.00  0.00    -0.237 OA
ATOM     85  O   UNL     1       2.246  10.815 -14.492  1.00  0.00    -0.237 OA
ATOM     86  O   UNL     1       4.350   9.646 -15.025  1.00  0.00    -0.744 OA
ENDBRANCH  79  83
ENDBRANCH  52  76
BRANCH  64  87
ATOM     87  C   UNL     1      -3.901   5.194 -18.603  1.00  0.00     0.023 A 
ATOM     88  C   UNL     1      -3.035   4.302 -19.261  1.00  0.00     0.031 A 
ATOM     89  C   UNL     1      -4.636   6.100 -19.390  1.00  0.00     0.131 A 
ATOM     90  C   UNL     1      -2.885   4.372 -20.654  1.00  0.00     0.055 A 
ATOM     91  C   UNL     1      -4.532   6.120 -20.782  1.00  0.00     0.041 A 
ATOM     92  F   UNL     1      -5.475   6.979 -18.818  1.00  0.00    -0.206 F 
ATOM     93  C   UNL     1      -3.642   5.262 -21.420  1.00  0.00     0.022 A 
BRANCH  90  94
ATOM     94  S   UNL     1      -1.614   3.349 -21.447  1.00  0.00     0.124 S 
ATOM     95  O   UNL     1      -0.400   3.795 -20.771  1.00  0.00    -0.237 OA
ATOM     96  O   UNL     1      -2.060   1.996 -21.130  1.00  0.00    -0.237 OA
ATOM     97  O   UNL     1      -1.709   3.716 -22.859  1.00  0.00    -0.744 OA
ENDBRANCH  90  94
ENDBRANCH  64  87
ENDBRANCH  38  39
ENDBRANCH  30  33
ENDBRANCH  28  29
ENDBRANCH   1  28
TORSDOF 17
