REMARK SMILES C[C@]12C(=O)N(c3ccc(C(=O)NCCCCNC(=O)c4ccc(-c5c6nc(c(-c7cc(S(=O)(=O)[O-])ccc7F)c7ccc([nH]7)c(-c7cc(S(=O)(=O)[O-])ccc7F)c7nc(c(-c8cc(S(=O)(=O)[O-])ccc8F)c8ccc5[nH]8)C=C7)C=C6)cc4)cc3)C(=O)[C@H]1[C@H]1c3ccccc3[C@@H]2c2ccccc21
REMARK SMILES IDX 15 1 14 2 13 3 12 4 10 5 11 6 9 8 6 9 7 10 84 11 8 12 83 13
REMARK SMILES IDX 5 14 1 15 2 16 3 17 87 18 95 19 4 20 85 21 88 22 94 23 96 24
REMARK SMILES IDX 86 25 89 26 101 27 93 28 97 29 90 30 100 31 92 32 98 33
REMARK SMILES IDX 91 34 99 35 16 36 17 37 18 38 19 40 20 41 21 42 82 43 22 44
REMARK SMILES IDX 81 45 23 46 24 47 25 48 75 49 26 50 80 51 74 52 76 53 27 54
REMARK SMILES IDX 79 55 73 56 72 57 28 59 60 60 40 61 59 62 41 63 44 64 58 65
REMARK SMILES IDX 77 66 42 67 43 68 57 70 78 71 45 72 29 73 30 74 38 75 31 76
REMARK SMILES IDX 37 77 39 78 36 79 32 80 33 81 34 82 35 83 61 84 62 85 70 86
REMARK SMILES IDX 63 87 69 88 71 89 68 90 64 91 65 92 66 93 67 94 46 95 47 96
REMARK SMILES IDX 55 97 48 98 54 99 56 100 53 101 49 102 50 103 51 104 52 105
REMARK H PARENT 12 7 17 39 76 58 44 69
REMARK Flexibility Score: inf
ROOT
ATOM      1  C   UNL     1       4.818  11.350   0.269  1.00  0.00     0.023 C 
ENDROOT
BRANCH   1   2
ATOM      2  C   UNL     1       4.571   9.886   0.609  1.00  0.00     0.023 C 
BRANCH   2   3
ATOM      3  C   UNL     1       3.161   9.552   1.079  1.00  0.00     0.116 C 
BRANCH   3   4
ATOM      4  N   UNL     1       2.150   9.773   0.061  1.00  0.00    -0.352 N 
ATOM      5  C   UNL     1       1.359   8.876  -0.609  1.00  0.00     0.251 C 
ATOM      6  O   UNL     1       0.622   9.263  -1.513  1.00  0.00    -0.269 OA
ATOM      7  H   UNL     1       2.010  10.716  -0.186  1.00  0.00     0.163 HD
BRANCH   5   8
ATOM      8  C   UNL     1       1.396   7.436  -0.278  1.00  0.00     0.039 A 
ATOM      9  C   UNL     1       1.403   4.654   0.267  1.00  0.00     0.052 A 
ATOM     10  C   UNL     1       1.408   5.147  -1.052  1.00  0.00     0.027 A 
ATOM     11  C   UNL     1       1.395   5.599   1.303  1.00  0.00     0.027 A 
ATOM     12  C   UNL     1       1.403   6.519  -1.325  1.00  0.00     0.016 A 
ATOM     13  C   UNL     1       1.350   6.971   1.035  1.00  0.00     0.016 A 
BRANCH   9  14
ATOM     14  N   UNL     1       1.208   3.266   0.538  1.00  0.00    -0.250 N 
ATOM     15  C   UNL     1       0.827  -0.149  -0.259  1.00  0.00     0.024 C 
ATOM     16  C   UNL     1       0.201   1.199   0.121  1.00  0.00     0.071 C 
ATOM     17  C   UNL     1       1.043   2.313  -0.442  1.00  0.00     0.241 C 
ATOM     18  C   UNL     1       0.245   1.428   1.657  1.00  0.00     0.107 C 
ATOM     19  C   UNL     1      -1.267   1.395  -0.405  1.00  0.00     0.066 C 
ATOM     20  O   UNL     1       1.453   2.301  -1.592  1.00  0.00    -0.273 OA
ATOM     21  C   UNL     1       1.031   2.713   1.791  1.00  0.00     0.238 C 
ATOM     22  C   UNL     1      -1.202   1.594   2.226  1.00  0.00     0.063 C 
ATOM     23  C   UNL     1      -1.800   2.738   0.127  1.00  0.00    -0.036 A 
ATOM     24  C   UNL     1      -2.074   0.312   0.300  1.00  0.00    -0.036 A 
ATOM     25  O   UNL     1       1.405   3.126   2.883  1.00  0.00    -0.274 OA
ATOM     26  C   UNL     1      -1.789   2.832   1.545  1.00  0.00    -0.036 A 
ATOM     27  C   UNL     1      -2.016   0.398   1.719  1.00  0.00    -0.036 A 
ATOM     28  C   UNL     1      -2.188   3.828  -0.640  1.00  0.00     0.005 A 
ATOM     29  C   UNL     1      -2.807  -0.680  -0.334  1.00  0.00     0.005 A 
ATOM     30  C   UNL     1      -2.180   3.997   2.191  1.00  0.00     0.004 A 
ATOM     31  C   UNL     1      -2.704  -0.519   2.498  1.00  0.00     0.004 A 
ATOM     32  C   UNL     1      -2.569   5.005   0.013  1.00  0.00     0.000 A 
ATOM     33  C   UNL     1      -3.490  -1.601   0.455  1.00  0.00     0.000 A 
ATOM     34  C   UNL     1      -2.571   5.087   1.414  1.00  0.00     0.000 A 
ATOM     35  C   UNL     1      -3.439  -1.522   1.856  1.00  0.00     0.000 A 
ENDBRANCH   9  14
ENDBRANCH   5   8
ENDBRANCH   3   4
ENDBRANCH   2   3
ENDBRANCH   1   2
BRANCH   1  36
ATOM     36  C   UNL     1       4.309  12.362   1.286  1.00  0.00     0.116 C 
BRANCH  36  37
ATOM     37  N   UNL     1       4.778  12.132   2.648  1.00  0.00    -0.352 N 
ATOM     38  C   UNL     1       5.312  13.030   3.547  1.00  0.00     0.251 C 
ATOM     39  H   UNL     1       4.702  11.205   2.971  1.00  0.00     0.163 HD
ATOM     40  O   UNL     1       5.690  12.652   4.650  1.00  0.00    -0.269 OA
BRANCH  38  41
ATOM     41  C   UNL     1       5.484  14.437   3.130  1.00  0.00     0.039 A 
ATOM     42  C   UNL     1       4.428  15.125   2.533  1.00  0.00     0.014 A 
ATOM     43  C   UNL     1       6.751  15.016   3.218  1.00  0.00     0.014 A 
ATOM     44  C   UNL     1       4.696  16.287   1.821  1.00  0.00     0.010 A 
ATOM     45  C   UNL     1       6.992  16.238   2.586  1.00  0.00     0.010 A 
ATOM     46  C   UNL     1       5.987  16.844   1.817  1.00  0.00    -0.014 A 
BRANCH  46  47
ATOM     47  C   UNL     1       6.268  18.031   0.966  1.00  0.00     0.031 A 
ATOM     48  C   UNL     1       7.239  17.942  -0.183  1.00  0.00     0.074 A 
ATOM     49  C   UNL     1       5.585  19.171   1.186  1.00  0.00     0.049 A 
ATOM     50  N   UNL     1       7.585  18.868  -1.041  1.00  0.00    -0.248 NA
ATOM     51  C   UNL     1       7.912  16.651  -0.400  1.00  0.00     0.031 C 
ATOM     52  C   UNL     1       4.602  19.359   2.252  1.00  0.00     0.029 A 
ATOM     53  N   UNL     1       5.583  20.368   0.515  1.00  0.00    -0.354 N 
ATOM     54  C   UNL     1       8.523  18.281  -1.884  1.00  0.00     0.074 A 
ATOM     55  C   UNL     1       8.721  16.928  -1.414  1.00  0.00     0.031 C 
ATOM     56  C   UNL     1       4.042  20.568   2.123  1.00  0.00     0.029 A 
ATOM     57  C   UNL     1       4.683  21.277   1.019  1.00  0.00     0.049 A 
ATOM     58  H   UNL     1       6.170  20.557  -0.253  1.00  0.00     0.167 HD
ATOM     59  C   UNL     1       9.147  18.816  -2.961  1.00  0.00     0.034 A 
ATOM     60  C   UNL     1       4.409  22.544   0.646  1.00  0.00     0.034 A 
ATOM     61  C   UNL     1       8.921  20.160  -3.432  1.00  0.00     0.049 A 
ATOM     62  C   UNL     1       5.148  23.131  -0.527  1.00  0.00     0.074 A 
ATOM     63  C   UNL     1       9.500  20.793  -4.517  1.00  0.00     0.029 A 
ATOM     64  N   UNL     1       8.042  21.070  -2.862  1.00  0.00    -0.354 N 
ATOM     65  N   UNL     1       6.026  22.559  -1.316  1.00  0.00    -0.248 NA
ATOM     66  C   UNL     1       4.869  24.534  -0.859  1.00  0.00     0.031 C 
ATOM     67  C   UNL     1       9.014  22.100  -4.571  1.00  0.00     0.029 A 
ATOM     68  C   UNL     1       8.080  22.265  -3.561  1.00  0.00     0.049 A 
ATOM     69  H   UNL     1       7.475  20.892  -2.077  1.00  0.00     0.167 HD
ATOM     70  C   UNL     1       6.394  23.526  -2.246  1.00  0.00     0.074 A 
ATOM     71  C   UNL     1       5.622  24.711  -1.938  1.00  0.00     0.031 C 
ATOM     72  C   UNL     1       7.297  23.439  -3.255  1.00  0.00     0.034 A 
BRANCH  59  73
ATOM     73  C   UNL     1      10.128  17.963  -3.729  1.00  0.00     0.023 A 
ATOM     74  C   UNL     1      11.486  18.329  -3.790  1.00  0.00     0.031 A 
ATOM     75  C   UNL     1       9.700  16.867  -4.500  1.00  0.00     0.131 A 
ATOM     76  C   UNL     1      12.361  17.625  -4.628  1.00  0.00     0.055 A 
ATOM     77  C   UNL     1      10.584  16.145  -5.303  1.00  0.00     0.041 A 
ATOM     78  F   UNL     1       8.415  16.477  -4.475  1.00  0.00    -0.206 F 
ATOM     79  C   UNL     1      11.919  16.532  -5.380  1.00  0.00     0.022 A 
BRANCH  76  80
ATOM     80  S   UNL     1      14.091  18.136  -4.824  1.00  0.00     0.124 S 
ATOM     81  O   UNL     1      14.807  16.947  -4.368  1.00  0.00    -0.237 OA
ATOM     82  O   UNL     1      14.171  18.400  -6.258  1.00  0.00    -0.237 OA
ATOM     83  O   UNL     1      14.213  19.304  -3.959  1.00  0.00    -0.744 OA
ENDBRANCH  76  80
ENDBRANCH  59  73
BRANCH  60  84
ATOM     84  C   UNL     1       3.352  23.300   1.380  1.00  0.00     0.023 A 
ATOM     85  C   UNL     1       3.467  23.547   2.760  1.00  0.00     0.031 A 
ATOM     86  C   UNL     1       2.156  23.666   0.741  1.00  0.00     0.131 A 
ATOM     87  C   UNL     1       2.374  24.059   3.471  1.00  0.00     0.055 A 
ATOM     88  C   UNL     1       1.098  24.249   1.439  1.00  0.00     0.041 A 
ATOM     89  F   UNL     1       1.995  23.440  -0.572  1.00  0.00    -0.206 F 
ATOM     90  C   UNL     1       1.196  24.427   2.816  1.00  0.00     0.022 A 
BRANCH  87  91
ATOM     91  S   UNL     1       2.391  24.114   5.285  1.00  0.00     0.124 S 
ATOM     92  O   UNL     1       2.230  25.540   5.547  1.00  0.00    -0.237 OA
ATOM     93  O   UNL     1       1.242  23.276   5.619  1.00  0.00    -0.237 OA
ATOM     94  O   UNL     1       3.691  23.550   5.634  1.00  0.00    -0.744 OA
ENDBRANCH  87  91
ENDBRANCH  60  84
BRANCH  72  95
ATOM     95  C   UNL     1       7.524  24.651  -4.125  1.00  0.00     0.023 A 
ATOM     96  C   UNL     1       7.215  24.601  -5.497  1.00  0.00     0.031 A 
ATOM     97  C   UNL     1       8.188  25.787  -3.631  1.00  0.00     0.131 A 
ATOM     98  C   UNL     1       7.611  25.648  -6.338  1.00  0.00     0.055 A 
ATOM     99  C   UNL     1       8.540  26.849  -4.466  1.00  0.00     0.041 A 
ATOM    100  F   UNL     1       8.513  25.876  -2.332  1.00  0.00    -0.206 F 
ATOM    101  C   UNL     1       8.265  26.775  -5.829  1.00  0.00     0.022 A 
BRANCH  98 102
ATOM    102  S   UNL     1       7.372  25.549  -8.134  1.00  0.00     0.124 S 
ATOM    103  O   UNL     1       6.527  26.714  -8.391  1.00  0.00    -0.237 OA
ATOM    104  O   UNL     1       8.741  25.650  -8.632  1.00  0.00    -0.237 OA
ATOM    105  O   UNL     1       6.725  24.257  -8.333  1.00  0.00    -0.744 OA
ENDBRANCH  98 102
ENDBRANCH  72  95
ENDBRANCH  46  47
ENDBRANCH  38  41
ENDBRANCH  36  37
ENDBRANCH   1  36
TORSDOF 15
