REMARK SMILES CCc1cc(C(=O)c2[nH]c3cc(Cl)ccc3c2CC(=O)NCCCCNC(=O)c2ccc(-c3c4nc(c(-c5cc(S(=O)(=O)[O-])ccc5F)c5ccc([nH]5)c(-c5cc(S(=O)(=O)[O-])ccc5F)c5nc(c(-c6cc(S(=O)(=O)[O-])ccc6F)c6ccc3[nH]6)C=C5)C=C4)cc2)ncc1Cl
REMARK SMILES IDX 23 1 22 2 21 3 19 4 20 5 18 7 17 8 8 9 9 10 10 11 16 13
REMARK SMILES IDX 11 14 15 15 12 16 14 17 13 18 6 19 7 20 5 21 3 22 4 23 94 24
REMARK SMILES IDX 93 25 95 26 92 27 2 28 1 29 24 30 25 31 26 32 27 33 28 35
REMARK SMILES IDX 29 36 30 37 91 38 31 39 90 40 32 41 33 42 34 43 84 44 35 45
REMARK SMILES IDX 89 46 83 47 85 48 36 49 88 50 82 51 81 52 37 54 69 55 49 56
REMARK SMILES IDX 68 57 50 58 53 59 67 60 86 61 51 62 52 63 66 65 87 66 54 67
REMARK SMILES IDX 38 68 39 69 47 70 40 71 46 72 48 73 45 74 41 75 42 76 43 77
REMARK SMILES IDX 44 78 70 79 71 80 79 81 72 82 78 83 80 84 77 85 73 86 74 87
REMARK SMILES IDX 75 88 76 89 55 90 56 91 64 92 57 93 63 94 65 95 62 96 58 97
REMARK SMILES IDX 59 98 60 99 61 100
REMARK H PARENT 21 6 9 12 26 34 85 53 53 64
REMARK Flexibility Score: inf
ROOT
ATOM      1  C   UNL     1       2.386   4.662   6.843  1.00  0.00     0.023 C 
ENDROOT
BRANCH   1   2
ATOM      2  C   UNL     1       3.897   4.559   6.643  1.00  0.00     0.116 C 
BRANCH   2   3
ATOM      3  N   UNL     1       4.411   3.224   6.868  1.00  0.00    -0.356 N 
ATOM      4  C   UNL     1       4.740   2.261   5.957  1.00  0.00     0.224 C 
ATOM      5  O   UNL     1       5.333   1.254   6.355  1.00  0.00    -0.275 OA
ATOM      6  H   UNL     1       4.542   2.975   7.811  1.00  0.00     0.163 HD
BRANCH   4   7
ATOM      7  C   UNL     1       4.498   2.476   4.471  1.00  0.00     0.138 C 
BRANCH   7   8
ATOM      8  C   UNL     1       3.058   2.641   4.070  1.00  0.00    -0.002 A 
ATOM      9  C   UNL     1       2.017   1.735   4.255  1.00  0.00     0.093 A 
ATOM     10  N   UNL     1       0.861   2.344   3.822  1.00  0.00    -0.351 N 
ATOM     11  C   UNL     1       1.138   3.552   3.234  1.00  0.00     0.048 A 
ATOM     12  H   UNL     1      -0.042   1.963   3.920  1.00  0.00     0.167 HD
ATOM     13  C   UNL     1       2.509   3.765   3.363  1.00  0.00     0.004 A 
ATOM     14  C   UNL     1       0.277   4.473   2.624  1.00  0.00     0.047 A 
ATOM     15  C   UNL     1       3.051   4.960   2.843  1.00  0.00     0.012 A 
ATOM     16  C   UNL     1       0.844   5.646   2.120  1.00  0.00     0.043 A 
ATOM     17  C   UNL     1       2.209   5.892   2.223  1.00  0.00     0.021 A 
ATOM     18  Cl  UNL     1      -0.171   6.807   1.351  1.00  0.00    -0.084 Cl
BRANCH   9  19
ATOM     19  C   UNL     1       2.031   0.413   4.860  1.00  0.00     0.227 C 
ATOM     20  O   UNL     1       2.323   0.253   6.040  1.00  0.00    -0.285 OA
BRANCH  19  21
ATOM     21  C   UNL     1       1.632  -0.764   4.001  1.00  0.00     0.113 A 
ATOM     22  C   UNL     1       1.083  -1.760   1.853  1.00  0.00    -0.026 A 
ATOM     23  C   UNL     1       1.503  -0.654   2.612  1.00  0.00     0.037 A 
ATOM     24  C   UNL     1       0.855  -2.963   2.538  1.00  0.00     0.062 A 
ATOM     25  C   UNL     1       1.025  -2.993   3.917  1.00  0.00     0.132 A 
ATOM     26  Cl  UNL     1       0.373  -4.410   1.734  1.00  0.00    -0.082 Cl
ATOM     27  N   UNL     1       1.391  -1.924   4.659  1.00  0.00    -0.251 NA
BRANCH  22  28
ATOM     28  C   UNL     1       0.884  -1.678   0.352  1.00  0.00     0.034 C 
ATOM     29  C   UNL     1       1.022  -0.302  -0.293  1.00  0.00     0.009 C 
ENDBRANCH  22  28
ENDBRANCH  19  21
ENDBRANCH   9  19
ENDBRANCH   7   8
ENDBRANCH   4   7
ENDBRANCH   2   3
ENDBRANCH   1   2
BRANCH   1  30
ATOM     30  C   UNL     1       1.897   4.529   8.287  1.00  0.00     0.023 C 
BRANCH  30  31
ATOM     31  C   UNL     1       2.485   5.523   9.286  1.00  0.00     0.116 C 
BRANCH  31  32
ATOM     32  N   UNL     1       2.317   6.908   8.883  1.00  0.00    -0.352 N 
ATOM     33  C   UNL     1       2.156   8.032   9.656  1.00  0.00     0.251 C 
ATOM     34  H   UNL     1       2.318   7.065   7.911  1.00  0.00     0.163 HD
ATOM     35  O   UNL     1       1.935   9.107   9.104  1.00  0.00    -0.269 OA
BRANCH  33  36
ATOM     36  C   UNL     1       2.206   7.954  11.135  1.00  0.00     0.039 A 
ATOM     37  C   UNL     1       1.261   8.681  11.868  1.00  0.00     0.014 A 
ATOM     38  C   UNL     1       3.181   7.207  11.803  1.00  0.00     0.014 A 
ATOM     39  C   UNL     1       1.254   8.612  13.264  1.00  0.00     0.010 A 
ATOM     40  C   UNL     1       3.150   7.108  13.194  1.00  0.00     0.010 A 
ATOM     41  C   UNL     1       2.184   7.806  13.934  1.00  0.00    -0.014 A 
BRANCH  41  42
ATOM     42  C   UNL     1       2.161   7.675  15.410  1.00  0.00     0.031 A 
ATOM     43  C   UNL     1       3.238   8.309  16.241  1.00  0.00     0.074 A 
ATOM     44  C   UNL     1       1.214   6.916  15.992  1.00  0.00     0.049 A 
ATOM     45  N   UNL     1       3.461   8.205  17.526  1.00  0.00    -0.248 NA
ATOM     46  C   UNL     1       4.208   9.148  15.523  1.00  0.00     0.031 C 
ATOM     47  C   UNL     1       0.141   6.210  15.288  1.00  0.00     0.029 A 
ATOM     48  N   UNL     1       1.019   6.592  17.310  1.00  0.00    -0.354 N 
ATOM     49  C   UNL     1       4.617   8.937  17.769  1.00  0.00     0.074 A 
ATOM     50  C   UNL     1       5.050   9.471  16.494  1.00  0.00     0.031 C 
ATOM     51  C   UNL     1      -0.593   5.526  16.181  1.00  0.00     0.029 A 
ATOM     52  C   UNL     1      -0.032   5.731  17.513  1.00  0.00     0.049 A 
ATOM     53  H   UNL     1       1.578   6.943  18.040  1.00  0.00     0.167 HD
ATOM     54  C   UNL     1       5.260   9.141  18.946  1.00  0.00     0.034 A 
ATOM     55  C   UNL     1      -0.482   5.157  18.644  1.00  0.00     0.034 A 
ATOM     56  C   UNL     1       4.812   8.626  20.216  1.00  0.00     0.049 A 
ATOM     57  C   UNL     1       0.202   5.455  19.946  1.00  0.00     0.074 A 
ATOM     58  C   UNL     1       5.367   8.811  21.471  1.00  0.00     0.029 A 
ATOM     59  N   UNL     1       3.696   7.820  20.391  1.00  0.00    -0.354 N 
ATOM     60  N   UNL     1       1.288   6.157  20.162  1.00  0.00    -0.248 NA
ATOM     61  C   UNL     1      -0.408   4.887  21.155  1.00  0.00     0.031 C 
ATOM     62  C   UNL     1       4.598   8.098  22.402  1.00  0.00     0.029 A 
ATOM     63  C   UNL     1       3.547   7.495  21.731  1.00  0.00     0.049 A 
ATOM     64  H   UNL     1       3.096   7.523  19.669  1.00  0.00     0.167 HD
ATOM     65  C   UNL     1       1.490   6.121  21.536  1.00  0.00     0.074 A 
ATOM     66  C   UNL     1       0.413   5.330  22.098  1.00  0.00     0.031 C 
ATOM     67  C   UNL     1       2.476   6.695  22.268  1.00  0.00     0.034 A 
BRANCH  54  68
ATOM     68  C   UNL     1       6.545   9.920  18.887  1.00  0.00     0.023 A 
ATOM     69  C   UNL     1       6.559  11.297  18.610  1.00  0.00     0.031 A 
ATOM     70  C   UNL     1       7.776   9.261  19.049  1.00  0.00     0.131 A 
ATOM     71  C   UNL     1       7.784  11.960  18.439  1.00  0.00     0.055 A 
ATOM     72  C   UNL     1       8.991   9.938  18.935  1.00  0.00     0.041 A 
ATOM     73  F   UNL     1       7.816   7.941  19.291  1.00  0.00    -0.206 F 
ATOM     74  C   UNL     1       8.999  11.293  18.616  1.00  0.00     0.022 A 
BRANCH  71  75
ATOM     75  S   UNL     1       7.767  13.679  17.862  1.00  0.00     0.124 S 
ATOM     76  O   UNL     1       7.099  13.551  16.570  1.00  0.00    -0.237 OA
ATOM     77  O   UNL     1       7.012  14.357  18.909  1.00  0.00    -0.237 OA
ATOM     78  O   UNL     1       9.184  14.030  17.790  1.00  0.00    -0.744 OA
ENDBRANCH  71  75
ENDBRANCH  54  68
BRANCH  55  79
ATOM     79  C   UNL     1      -1.623   4.213  18.587  1.00  0.00     0.023 A 
ATOM     80  C   UNL     1      -2.922   4.631  18.904  1.00  0.00     0.031 A 
ATOM     81  C   UNL     1      -1.419   2.878  18.205  1.00  0.00     0.131 A 
ATOM     82  C   UNL     1      -3.978   3.709  18.849  1.00  0.00     0.055 A 
ATOM     83  C   UNL     1      -2.473   1.968  18.140  1.00  0.00     0.041 A 
ATOM     84  F   UNL     1      -0.190   2.447  17.880  1.00  0.00    -0.206 F 
ATOM     85  C   UNL     1      -3.762   2.381  18.467  1.00  0.00     0.022 A 
BRANCH  82  86
ATOM     86  S   UNL     1      -5.644   4.269  19.294  1.00  0.00     0.124 S 
ATOM     87  O   UNL     1      -5.460   4.695  20.677  1.00  0.00    -0.237 OA
ATOM     88  O   UNL     1      -5.876   5.332  18.321  1.00  0.00    -0.237 OA
ATOM     89  O   UNL     1      -6.465   3.074  19.113  1.00  0.00    -0.744 OA
ENDBRANCH  82  86
ENDBRANCH  55  79
BRANCH  67  90
ATOM     90  C   UNL     1       2.401   6.505  23.755  1.00  0.00     0.023 A 
ATOM     91  C   UNL     1       2.832   5.314  24.361  1.00  0.00     0.031 A 
ATOM     92  C   UNL     1       1.865   7.519  24.566  1.00  0.00     0.131 A 
ATOM     93  C   UNL     1       2.692   5.153  25.747  1.00  0.00     0.055 A 
ATOM     94  C   UNL     1       1.748   7.361  25.947  1.00  0.00     0.041 A 
ATOM     95  F   UNL     1       1.434   8.669  24.025  1.00  0.00    -0.206 F 
ATOM     96  C   UNL     1       2.157   6.170  26.544  1.00  0.00     0.022 A 
BRANCH  93  97
ATOM     97  S   UNL     1       3.174   3.573  26.497  1.00  0.00     0.124 S 
ATOM     98  O   UNL     1       2.305   2.627  25.802  1.00  0.00    -0.237 OA
ATOM     99  O   UNL     1       4.594   3.493  26.171  1.00  0.00    -0.237 OA
ATOM    100  O   UNL     1       2.874   3.760  27.915  1.00  0.00    -0.744 OA
ENDBRANCH  93  97
ENDBRANCH  67  90
ENDBRANCH  41  42
ENDBRANCH  33  36
ENDBRANCH  31  32
ENDBRANCH  30  31
ENDBRANCH   1  30
TORSDOF 18
