REMARK SMILES O=C(NCCCCNC(=O)[C@H](c1c[nH]c2ccc(Cl)cc12)[NH+]1CCN(c2cccc(Cl)c2)CC1)c1ccc(-c2c3nc(c(-c4cc(S(=O)(=O)[O-])ccc4F)c4ccc([nH]4)c(-c4cc(S(=O)(=O)[O-])ccc4F)c4nc(c(-c5cc(S(=O)(=O)[O-])ccc5F)c5ccc2[nH]5)C=C4)C=C3)cc1
REMARK SMILES IDX 5 1 4 2 3 3 1 4 2 5 35 7 36 8 97 9 37 10 96 11 38 12 39 13
REMARK SMILES IDX 40 14 90 15 41 16 95 17 89 18 91 19 42 20 94 21 88 22 87 23
REMARK SMILES IDX 43 25 75 26 55 27 74 28 56 29 59 30 73 31 92 32 57 33 58 34
REMARK SMILES IDX 72 36 93 37 60 38 44 39 45 40 53 41 46 42 52 43 54 44 51 45
REMARK SMILES IDX 47 46 48 47 49 48 50 49 76 50 77 51 85 52 78 53 84 54 86 55
REMARK SMILES IDX 83 56 79 57 80 58 81 59 82 60 61 61 62 62 70 63 63 64 69 65
REMARK SMILES IDX 71 66 68 67 64 68 65 69 66 70 67 71 6 72 7 73 8 74 9 75
REMARK SMILES IDX 10 77 11 78 22 79 23 80 34 81 24 83 33 84 25 85 26 86 27 87
REMARK SMILES IDX 32 88 28 89 30 90 29 91 31 92 12 93 13 94 21 95 14 96 15 97
REMARK SMILES IDX 20 98 16 100 18 101 17 102 19 103
REMARK H PARENT 3 6 91 24 59 35 8 76 22 82 14 99
REMARK Flexibility Score: inf
ROOT
ATOM      1  C   UNL     1       5.410  -9.642   6.437  1.00  0.00     0.023 C 
ENDROOT
BRANCH   1   2
ATOM      2  C   UNL     1       3.964  -9.994   6.099  1.00  0.00     0.116 C 
BRANCH   2   3
ATOM      3  N   UNL     1       3.800 -11.305   5.487  1.00  0.00    -0.352 N 
ATOM      4  O   UNL     1       3.059 -13.419   5.261  1.00  0.00    -0.269 OA
ATOM      5  C   UNL     1       2.976 -12.351   5.851  1.00  0.00     0.251 C 
ATOM      6  H   UNL     1       4.361 -11.470   4.694  1.00  0.00     0.163 HD
BRANCH   5   7
ATOM      7  C   UNL     1       2.017 -12.191   6.972  1.00  0.00     0.039 A 
ATOM      8  C   UNL     1       1.238 -11.039   7.092  1.00  0.00     0.014 A 
ATOM      9  C   UNL     1       1.897 -13.211   7.921  1.00  0.00     0.014 A 
ATOM     10  C   UNL     1       0.445 -10.840   8.216  1.00  0.00     0.010 A 
ATOM     11  C   UNL     1       1.061 -13.034   9.030  1.00  0.00     0.010 A 
ATOM     12  C   UNL     1       0.360 -11.829   9.203  1.00  0.00    -0.014 A 
BRANCH  12  13
ATOM     13  C   UNL     1      -0.443 -11.571  10.423  1.00  0.00     0.031 A 
ATOM     14  C   UNL     1       0.244 -11.332  11.738  1.00  0.00     0.074 A 
ATOM     15  C   UNL     1      -1.783 -11.498  10.330  1.00  0.00     0.049 A 
ATOM     16  N   UNL     1      -0.276 -11.104  12.916  1.00  0.00    -0.248 NA
ATOM     17  C   UNL     1       1.714 -11.352  11.722  1.00  0.00     0.031 C 
ATOM     18  C   UNL     1      -2.548 -11.662   9.092  1.00  0.00     0.029 A 
ATOM     19  N   UNL     1      -2.738 -11.262  11.285  1.00  0.00    -0.354 N 
ATOM     20  C   UNL     1       0.799 -10.958  13.786  1.00  0.00     0.074 A 
ATOM     21  C   UNL     1       2.000 -11.161  13.001  1.00  0.00     0.031 C 
ATOM     22  C   UNL     1      -3.854 -11.511   9.363  1.00  0.00     0.029 A 
ATOM     23  C   UNL     1      -4.023 -11.301  10.798  1.00  0.00     0.049 A 
ATOM     24  H   UNL     1      -2.524 -11.083  12.229  1.00  0.00     0.167 HD
ATOM     25  C   UNL     1       0.782 -10.673  15.113  1.00  0.00     0.034 A 
ATOM     26  C   UNL     1      -5.204 -11.211  11.440  1.00  0.00     0.034 A 
ATOM     27  C   UNL     1      -0.432 -10.497  15.876  1.00  0.00     0.049 A 
ATOM     28  C   UNL     1      -5.201 -10.996  12.932  1.00  0.00     0.074 A 
ATOM     29  C   UNL     1      -0.571 -10.210  17.223  1.00  0.00     0.029 A 
ATOM     30  N   UNL     1      -1.719 -10.606  15.361  1.00  0.00    -0.354 N 
ATOM     31  N   UNL     1      -4.178 -10.866  13.746  1.00  0.00    -0.248 NA
ATOM     32  C   UNL     1      -6.510 -10.911  13.590  1.00  0.00     0.031 C 
ATOM     33  C   UNL     1      -1.935 -10.227  17.537  1.00  0.00     0.029 A 
ATOM     34  C   UNL     1      -2.655 -10.432  16.371  1.00  0.00     0.049 A 
ATOM     35  H   UNL     1      -1.936 -10.782  14.417  1.00  0.00     0.167 HD
ATOM     36  C   UNL     1      -4.723 -10.651  15.009  1.00  0.00     0.074 A 
ATOM     37  C   UNL     1      -6.163 -10.661  14.844  1.00  0.00     0.031 C 
ATOM     38  C   UNL     1      -4.090 -10.456  16.195  1.00  0.00     0.034 A 
BRANCH  25  39
ATOM     39  C   UNL     1       2.115 -10.607  15.823  1.00  0.00     0.023 A 
ATOM     40  C   UNL     1       3.090  -9.650  15.487  1.00  0.00     0.031 A 
ATOM     41  C   UNL     1       2.435 -11.545  16.821  1.00  0.00     0.131 A 
ATOM     42  C   UNL     1       4.362  -9.707  16.078  1.00  0.00     0.055 A 
ATOM     43  C   UNL     1       3.672 -11.541  17.469  1.00  0.00     0.041 A 
ATOM     44  F   UNL     1       1.556 -12.497  17.171  1.00  0.00    -0.206 F 
ATOM     45  C   UNL     1       4.651 -10.630  17.086  1.00  0.00     0.022 A 
BRANCH  42  46
ATOM     46  S   UNL     1       5.683  -8.668  15.394  1.00  0.00     0.124 S 
ATOM     47  O   UNL     1       5.690  -9.082  13.993  1.00  0.00    -0.237 OA
ATOM     48  O   UNL     1       5.194  -7.320  15.659  1.00  0.00    -0.237 OA
ATOM     49  O   UNL     1       6.864  -9.067  16.158  1.00  0.00    -0.744 OA
ENDBRANCH  42  46
ENDBRANCH  25  39
BRANCH  26  50
ATOM     50  C   UNL     1      -6.480 -11.371  10.686  1.00  0.00     0.023 A 
ATOM     51  C   UNL     1      -7.411 -10.326  10.594  1.00  0.00     0.031 A 
ATOM     52  C   UNL     1      -6.798 -12.595  10.066  1.00  0.00     0.131 A 
ATOM     53  C   UNL     1      -8.631 -10.535   9.931  1.00  0.00     0.055 A 
ATOM     54  C   UNL     1      -7.987 -12.779   9.361  1.00  0.00     0.041 A 
ATOM     55  F   UNL     1      -5.943 -13.629  10.125  1.00  0.00    -0.206 F 
ATOM     56  C   UNL     1      -8.918 -11.748   9.300  1.00  0.00     0.022 A 
BRANCH  53  57
ATOM     57  S   UNL     1      -9.879  -9.219   9.970  1.00  0.00     0.124 S 
ATOM     58  O   UNL     1     -10.091  -9.054  11.404  1.00  0.00    -0.237 OA
ATOM     59  O   UNL     1      -9.188  -8.126   9.294  1.00  0.00    -0.237 OA
ATOM     60  O   UNL     1     -11.003  -9.793   9.234  1.00  0.00    -0.744 OA
ENDBRANCH  53  57
ENDBRANCH  26  50
BRANCH  38  61
ATOM     61  C   UNL     1      -4.959 -10.183  17.399  1.00  0.00     0.023 A 
ATOM     62  C   UNL     1      -5.823 -11.156  17.932  1.00  0.00     0.031 A 
ATOM     63  C   UNL     1      -4.923  -8.921  18.020  1.00  0.00     0.131 A 
ATOM     64  C   UNL     1      -6.653 -10.834  19.017  1.00  0.00     0.055 A 
ATOM     65  C   UNL     1      -5.703  -8.627  19.139  1.00  0.00     0.041 A 
ATOM     66  F   UNL     1      -4.120  -7.952  17.551  1.00  0.00    -0.206 F 
ATOM     67  C   UNL     1      -6.584  -9.583  19.636  1.00  0.00     0.022 A 
BRANCH  64  68
ATOM     68  S   UNL     1      -7.894 -12.043  19.556  1.00  0.00     0.124 S 
ATOM     69  O   UNL     1      -8.680 -12.232  18.341  1.00  0.00    -0.237 OA
ATOM     70  O   UNL     1      -7.070 -13.175  19.966  1.00  0.00    -0.237 OA
ATOM     71  O   UNL     1      -8.590 -11.358  20.645  1.00  0.00    -0.744 OA
ENDBRANCH  64  68
ENDBRANCH  38  61
ENDBRANCH  12  13
ENDBRANCH   5   7
ENDBRANCH   2   3
ENDBRANCH   1   2
BRANCH   1  72
ATOM     72  C   UNL     1       6.397  -9.587   5.269  1.00  0.00     0.023 C 
BRANCH  72  73
ATOM     73  C   UNL     1       5.969  -8.738   4.078  1.00  0.00     0.116 C 
BRANCH  73  74
ATOM     74  N   UNL     1       5.888  -7.317   4.336  1.00  0.00    -0.351 N 
ATOM     75  C   UNL     1       5.887  -6.287   3.422  1.00  0.00     0.283 C 
ATOM     76  H   UNL     1       5.826  -7.054   5.282  1.00  0.00     0.163 HD
ATOM     77  O   UNL     1       5.499  -5.187   3.829  1.00  0.00    -0.268 OA
BRANCH  75  78
ATOM     78  C   UNL     1       6.346  -6.536   1.957  1.00  0.00     0.307 C 
BRANCH  78  79
ATOM     79  N   UNL     1       5.251  -6.743   0.987  1.00  0.00    -0.318 N 
ATOM     80  C   UNL     1       4.931  -8.122   0.603  1.00  0.00     0.284 C 
ATOM     81  C   UNL     1       4.044  -5.918   1.118  1.00  0.00     0.284 C 
ATOM     82  H   UNL     1       5.745  -6.350   0.186  1.00  0.00     0.349 HD
ATOM     83  C   UNL     1       3.699  -8.808   1.246  1.00  0.00     0.178 C 
ATOM     84  C   UNL     1       2.938  -6.518   2.004  1.00  0.00     0.178 C 
ATOM     85  N   UNL     1       2.627  -7.870   1.553  1.00  0.00    -0.360 N 
BRANCH  85  86
ATOM     86  C   UNL     1       1.349  -8.349   1.751  1.00  0.00     0.038 A 
ATOM     87  C   UNL     1       0.427  -8.205   0.708  1.00  0.00     0.026 A 
ATOM     88  C   UNL     1       0.933  -8.959   2.938  1.00  0.00     0.046 A 
ATOM     89  C   UNL     1      -0.881  -8.667   0.828  1.00  0.00     0.004 A 
ATOM     90  C   UNL     1      -0.382  -9.417   3.059  1.00  0.00     0.043 A 
ATOM     91  C   UNL     1      -1.286  -9.277   2.009  1.00  0.00     0.020 A 
ATOM     92  Cl  UNL     1      -0.922 -10.163   4.510  1.00  0.00    -0.084 Cl
ENDBRANCH  85  86
ENDBRANCH  78  79
BRANCH  78  93
ATOM     93  C   UNL     1       7.217  -5.401   1.419  1.00  0.00     0.044 A 
ATOM     94  C   UNL     1       6.863  -4.075   1.219  1.00  0.00     0.094 A 
ATOM     95  C   UNL     1       8.586  -5.507   0.978  1.00  0.00     0.011 A 
ATOM     96  N   UNL     1       7.893  -3.423   0.605  1.00  0.00    -0.361 N 
ATOM     97  C   UNL     1       8.957  -4.274   0.436  1.00  0.00     0.046 A 
ATOM     98  C   UNL     1       9.541  -6.547   0.972  1.00  0.00     0.031 A 
ATOM     99  H   UNL     1       7.875  -2.480   0.324  1.00  0.00     0.166 HD
ATOM    100  C   UNL     1      10.205  -4.037  -0.152  1.00  0.00     0.028 A 
ATOM    101  C   UNL     1      10.802  -6.314   0.412  1.00  0.00     0.041 A 
ATOM    102  C   UNL     1      11.127  -5.085  -0.155  1.00  0.00     0.022 A 
ATOM    103  Cl  UNL     1      11.976  -7.576   0.421  1.00  0.00    -0.084 Cl
ENDBRANCH  78  93
ENDBRANCH  75  78
ENDBRANCH  73  74
ENDBRANCH  72  73
ENDBRANCH   1  72
TORSDOF 17
