REMARK SMILES NC(=O)[C@H]1CC(C(=O)NCCCCNC(=O)c2ccc(-c3c4nc(c(-c5cc(S(=O)(=O)[O-])ccc5F)c5ccc([nH]5)c(-c5cc(S(=O)(=O)[O-])ccc5F)c5nc(c(-c6cc(S(=O)(=O)[O-])ccc6F)c6ccc3[nH]6)C=C5)C=C4)cc2)=NN1c1ccc(F)cc1
REMARK SMILES IDX 12 1 11 2 10 3 9 4 7 5 8 6 6 8 4 9 5 10 81 11 80 12 2 13
REMARK SMILES IDX 1 14 3 17 82 18 83 19 88 20 84 21 87 22 85 23 86 24 13 25
REMARK SMILES IDX 14 26 15 27 16 29 17 30 18 31 79 32 19 33 78 34 20 35 21 36
REMARK SMILES IDX 22 37 72 38 23 39 77 40 71 41 73 42 24 43 76 44 70 45 69 46
REMARK SMILES IDX 25 48 57 49 37 50 56 51 38 52 41 53 55 54 74 55 39 56 40 57
REMARK SMILES IDX 54 59 75 60 42 61 26 62 27 63 35 64 28 65 34 66 36 67 33 68
REMARK SMILES IDX 29 69 30 70 31 71 32 72 58 73 59 74 67 75 60 76 66 77 68 78
REMARK SMILES IDX 65 79 61 80 62 81 63 82 64 83 43 84 44 85 52 86 45 87 51 88
REMARK SMILES IDX 53 89 50 90 46 91 47 92 48 93 49 94
REMARK H PARENT 9 7 1 15 1 16 14 28 73 47 41 58
REMARK Flexibility Score: inf
ROOT
ATOM      1  C   UNL     1      -2.638  -2.405   7.163  1.00  0.00     0.023 C 
ENDROOT
BRANCH   1   2
ATOM      2  C   UNL     1      -1.929  -1.932   5.892  1.00  0.00     0.023 C 
BRANCH   2   3
ATOM      3  C   UNL     1      -0.472  -2.371   5.799  1.00  0.00     0.116 C 
BRANCH   3   4
ATOM      4  N   UNL     1      -0.357  -3.753   5.377  1.00  0.00    -0.351 N 
ATOM      5  C   UNL     1      -0.047  -4.364   4.186  1.00  0.00     0.267 C 
ATOM      6  O   UNL     1      -0.093  -5.591   4.143  1.00  0.00    -0.268 OA
ATOM      7  H   UNL     1      -0.540  -4.394   6.101  1.00  0.00     0.163 HD
BRANCH   5   8
ATOM      8  C   UNL     1       0.392  -3.610   2.939  1.00  0.00     0.128 C 
ATOM      9  C   UNL     1       1.235  -1.968   1.524  1.00  0.00     0.203 C 
ATOM     10  C   UNL     1       0.705  -2.152   2.935  1.00  0.00     0.101 C 
ATOM     11  N   UNL     1       1.083  -3.294   0.943  1.00  0.00    -0.252 N 
ATOM     12  N   UNL     1       0.583  -4.221   1.806  1.00  0.00    -0.171 NA
BRANCH   9  13
ATOM     13  C   UNL     1       0.394  -0.941   0.753  1.00  0.00     0.242 C 
ATOM     14  N   UNL     1       1.087  -0.119  -0.093  1.00  0.00    -0.368 N 
ATOM     15  H   UNL     1       0.608   0.563  -0.618  1.00  0.00     0.159 HD
ATOM     16  H   UNL     1       2.063  -0.209  -0.177  1.00  0.00     0.159 HD
ATOM     17  O   UNL     1      -0.822  -0.807   0.865  1.00  0.00    -0.273 OA
ENDBRANCH   9  13
BRANCH  11  18
ATOM     18  C   UNL     1       1.543  -3.664  -0.310  1.00  0.00     0.061 A 
ATOM     19  C   UNL     1       0.756  -4.476  -1.140  1.00  0.00     0.031 A 
ATOM     20  C   UNL     1       2.790  -3.237  -0.793  1.00  0.00     0.031 A 
ATOM     21  C   UNL     1       1.172  -4.806  -2.432  1.00  0.00     0.041 A 
ATOM     22  C   UNL     1       3.225  -3.588  -2.073  1.00  0.00     0.041 A 
ATOM     23  C   UNL     1       2.404  -4.357  -2.886  1.00  0.00     0.123 A 
ATOM     24  F   UNL     1       2.810  -4.671  -4.123  1.00  0.00    -0.207 F 
ENDBRANCH  11  18
ENDBRANCH   5   8
ENDBRANCH   3   4
ENDBRANCH   2   3
ENDBRANCH   1   2
BRANCH   1  25
ATOM     25  C   UNL     1      -1.951  -2.014   8.469  1.00  0.00     0.116 C 
BRANCH  25  26
ATOM     26  N   UNL     1      -1.681  -0.588   8.570  1.00  0.00    -0.352 N 
ATOM     27  C   UNL     1      -1.756   0.224   9.674  1.00  0.00     0.251 C 
ATOM     28  H   UNL     1      -1.407  -0.146   7.734  1.00  0.00     0.163 HD
ATOM     29  O   UNL     1      -1.623   1.438   9.544  1.00  0.00    -0.269 OA
BRANCH  27  30
ATOM     30  C   UNL     1      -2.032  -0.368  11.000  1.00  0.00     0.039 A 
ATOM     31  C   UNL     1      -2.975   0.245  11.828  1.00  0.00     0.014 A 
ATOM     32  C   UNL     1      -1.377  -1.530  11.418  1.00  0.00     0.014 A 
ATOM     33  C   UNL     1      -3.291  -0.336  13.057  1.00  0.00     0.010 A 
ATOM     34  C   UNL     1      -1.759  -2.153  12.601  1.00  0.00     0.010 A 
ATOM     35  C   UNL     1      -2.706  -1.554  13.443  1.00  0.00    -0.014 A 
BRANCH  35  36
ATOM     36  C   UNL     1      -3.053  -2.184  14.743  1.00  0.00     0.031 A 
ATOM     37  C   UNL     1      -1.994  -2.360  15.800  1.00  0.00     0.074 A 
ATOM     38  C   UNL     1      -4.309  -2.619  14.961  1.00  0.00     0.049 A 
ATOM     39  N   UNL     1      -2.095  -2.886  16.994  1.00  0.00    -0.248 NA
ATOM     40  C   UNL     1      -0.635  -1.914  15.457  1.00  0.00     0.031 C 
ATOM     41  C   UNL     1      -5.407  -2.550  13.993  1.00  0.00     0.029 A 
ATOM     42  N   UNL     1      -4.880  -3.198  16.066  1.00  0.00    -0.354 N 
ATOM     43  C   UNL     1      -0.816  -2.840  17.539  1.00  0.00     0.074 A 
ATOM     44  C   UNL     1       0.056  -2.309  16.514  1.00  0.00     0.031 C 
ATOM     45  C   UNL     1      -6.526  -3.026  14.562  1.00  0.00     0.029 A 
ATOM     46  C   UNL     1      -6.220  -3.474  15.916  1.00  0.00     0.049 A 
ATOM     47  H   UNL     1      -4.378  -3.397  16.889  1.00  0.00     0.167 HD
ATOM     48  C   UNL     1      -0.411  -3.177  18.789  1.00  0.00     0.034 A 
ATOM     49  C   UNL     1      -7.101  -4.025  16.775  1.00  0.00     0.034 A 
ATOM     50  C   UNL     1      -1.298  -3.696  19.801  1.00  0.00     0.049 A 
ATOM     51  C   UNL     1      -6.625  -4.405  18.155  1.00  0.00     0.074 A 
ATOM     52  C   UNL     1      -1.009  -4.030  21.113  1.00  0.00     0.029 A 
ATOM     53  N   UNL     1      -2.648  -3.966  19.614  1.00  0.00    -0.354 N 
ATOM     54  N   UNL     1      -5.424  -4.298  18.676  1.00  0.00    -0.248 NA
ATOM     55  C   UNL     1      -7.631  -4.959  19.069  1.00  0.00     0.031 C 
ATOM     56  C   UNL     1      -2.162  -4.569  21.693  1.00  0.00     0.029 A 
ATOM     57  C   UNL     1      -3.197  -4.489  20.776  1.00  0.00     0.049 A 
ATOM     58  H   UNL     1      -3.144  -3.809  18.778  1.00  0.00     0.167 HD
ATOM     59  C   UNL     1      -5.540  -4.740  19.991  1.00  0.00     0.074 A 
ATOM     60  C   UNL     1      -6.933  -5.090  20.186  1.00  0.00     0.031 C 
ATOM     61  C   UNL     1      -4.586  -4.846  20.953  1.00  0.00     0.034 A 
BRANCH  48  62
ATOM     62  C   UNL     1       1.058  -3.013  19.112  1.00  0.00     0.023 A 
ATOM     63  C   UNL     1       1.691  -1.757  19.060  1.00  0.00     0.031 A 
ATOM     64  C   UNL     1       1.845  -4.130  19.442  1.00  0.00     0.131 A 
ATOM     65  C   UNL     1       3.078  -1.662  19.250  1.00  0.00     0.055 A 
ATOM     66  C   UNL     1       3.209  -4.014  19.721  1.00  0.00     0.041 A 
ATOM     67  F   UNL     1       1.306  -5.358  19.484  1.00  0.00    -0.206 F 
ATOM     68  C   UNL     1       3.837  -2.777  19.609  1.00  0.00     0.022 A 
BRANCH  65  69
ATOM     69  S   UNL     1       3.898  -0.090  18.864  1.00  0.00     0.124 S 
ATOM     70  O   UNL     1       3.539   0.092  17.459  1.00  0.00    -0.237 OA
ATOM     71  O   UNL     1       3.276   0.832  19.807  1.00  0.00    -0.237 OA
ATOM     72  O   UNL     1       5.311  -0.372  19.106  1.00  0.00    -0.744 OA
ENDBRANCH  65  69
ENDBRANCH  48  62
BRANCH  49  73
ATOM     73  C   UNL     1      -8.520  -4.248  16.368  1.00  0.00     0.023 A 
ATOM     74  C   UNL     1      -9.575  -3.592  17.024  1.00  0.00     0.031 A 
ATOM     75  C   UNL     1      -8.846  -5.160  15.349  1.00  0.00     0.131 A 
ATOM     76  C   UNL     1     -10.904  -3.898  16.693  1.00  0.00     0.055 A 
ATOM     77  C   UNL     1     -10.168  -5.416  14.982  1.00  0.00     0.041 A 
ATOM     78  F   UNL     1      -7.877  -5.811  14.685  1.00  0.00    -0.206 F 
ATOM     79  C   UNL     1     -11.207  -4.795  15.666  1.00  0.00     0.022 A 
BRANCH  76  80
ATOM     80  S   UNL     1     -12.236  -3.179  17.692  1.00  0.00     0.124 S 
ATOM     81  O   UNL     1     -11.892  -3.649  19.029  1.00  0.00    -0.237 OA
ATOM     82  O   UNL     1     -12.060  -1.751  17.448  1.00  0.00    -0.237 OA
ATOM     83  O   UNL     1     -13.446  -3.762  17.116  1.00  0.00    -0.744 OA
ENDBRANCH  76  80
ENDBRANCH  49  73
BRANCH  61  84
ATOM     84  C   UNL     1      -5.039  -5.314  22.317  1.00  0.00     0.023 A 
ATOM     85  C   UNL     1      -5.579  -6.596  22.520  1.00  0.00     0.031 A 
ATOM     86  C   UNL     1      -4.963  -4.449  23.423  1.00  0.00     0.131 A 
ATOM     87  C   UNL     1      -6.098  -6.946  23.776  1.00  0.00     0.055 A 
ATOM     88  C   UNL     1      -5.409  -4.831  24.689  1.00  0.00     0.041 A 
ATOM     89  F   UNL     1      -4.459  -3.211  23.291  1.00  0.00    -0.206 F 
ATOM     90  C   UNL     1      -5.999  -6.079  24.866  1.00  0.00     0.022 A 
BRANCH  87  91
ATOM     91  S   UNL     1      -7.029  -8.495  23.930  1.00  0.00     0.124 S 
ATOM     92  O   UNL     1      -8.055  -8.335  22.904  1.00  0.00    -0.237 OA
ATOM     93  O   UNL     1      -6.006  -9.500  23.657  1.00  0.00    -0.237 OA
ATOM     94  O   UNL     1      -7.518  -8.466  25.307  1.00  0.00    -0.744 OA
ENDBRANCH  87  91
ENDBRANCH  61  84
ENDBRANCH  35  36
ENDBRANCH  27  30
ENDBRANCH  25  26
ENDBRANCH   1  25
TORSDOF 16
