REMARK SMILES CC(/C=C1\SC(=S)N(CC(=O)NCC(=O)NCCCCNC(=O)c2ccc(-c3c4nc(c(-c5cc(S(=O)(=O)[O-])ccc5F)c5ccc([nH]5)c(-c5cc(S(=O)(=O)[O-])ccc5F)c5nc(c(-c6cc(S(=O)(=O)[O-])ccc6F)c6ccc3[nH]6)C=C5)C=C4)cc2)C1=O)=C\c1ccccc1
REMARK SMILES IDX 17 1 16 2 14 3 15 4 13 6 12 7 10 8 11 9 9 11 8 12 3 13 4 14
REMARK SMILES IDX 5 15 87 16 6 17 88 18 7 19 2 20 1 21 89 22 90 23 91 24 95 25
REMARK SMILES IDX 92 26 94 27 93 28 18 29 19 30 20 31 21 32 22 33 23 35 24 36
REMARK SMILES IDX 25 37 86 38 26 39 85 40 27 41 28 42 29 43 79 44 30 45 84 46
REMARK SMILES IDX 78 47 80 48 31 49 83 50 77 51 76 52 32 54 64 55 44 56 63 57
REMARK SMILES IDX 45 58 48 59 62 60 81 61 46 62 47 63 61 65 82 66 49 67 33 68
REMARK SMILES IDX 34 69 42 70 35 71 41 72 43 73 40 74 36 75 37 76 38 77 39 78
REMARK SMILES IDX 65 79 66 80 74 81 67 82 73 83 75 84 72 85 68 86 69 87 70 88
REMARK SMILES IDX 71 89 50 90 51 91 59 92 52 93 58 94 60 95 57 96 53 97 54 98
REMARK SMILES IDX 55 99 56 100
REMARK H PARENT 16 5 12 10 21 34 80 53 48 64
REMARK Flexibility Score: inf
ROOT
ATOM      1  C   UNL     1      -3.374   0.969   2.720  1.00  0.00     0.116 C 
ENDROOT
BRANCH   1   2
ATOM      2  N   UNL     1      -4.569   0.157   2.675  1.00  0.00    -0.355 N 
ATOM      3  C   UNL     1      -5.679   0.338   1.895  1.00  0.00     0.239 C 
ATOM      4  O   UNL     1      -6.461  -0.607   1.767  1.00  0.00    -0.273 OA
ATOM      5  H   UNL     1      -4.588  -0.620   3.280  1.00  0.00     0.163 HD
BRANCH   3   6
ATOM      6  C   UNL     1      -5.857   1.622   1.062  1.00  0.00     0.216 C 
BRANCH   6   7
ATOM      7  N   UNL     1      -5.623   2.853   1.801  1.00  0.00    -0.345 N 
ATOM      8  C   UNL     1      -4.951   3.996   1.505  1.00  0.00     0.240 C 
ATOM      9  O   UNL     1      -5.118   4.934   2.295  1.00  0.00    -0.273 OA
ATOM     10  H   UNL     1      -6.035   2.859   2.695  1.00  0.00     0.164 HD
BRANCH   8  11
ATOM     11  C   UNL     1      -4.186   4.240   0.190  1.00  0.00     0.227 C 
BRANCH  11  12
ATOM     12  N   UNL     1      -3.273   3.196  -0.281  1.00  0.00    -0.283 N 
ATOM     13  C   UNL     1      -0.303   1.291   0.508  1.00  0.00     0.024 C 
ATOM     14  C   UNL     1      -1.352   1.828  -0.129  1.00  0.00     0.080 C 
ATOM     15  S   UNL     1      -2.115   1.283  -1.565  1.00  0.00    -0.054 SA
ATOM     16  C   UNL     1      -2.099   2.991   0.431  1.00  0.00     0.266 C 
ATOM     17  C   UNL     1      -3.406   2.474  -1.447  1.00  0.00     0.148 C 
ATOM     18  O   UNL     1      -1.750   3.611   1.419  1.00  0.00    -0.268 OA
ATOM     19  S   UNL     1      -4.580   2.623  -2.624  1.00  0.00    -0.052 S 
BRANCH  13  20
ATOM     20  C   UNL     1       0.503   0.140   0.110  1.00  0.00    -0.049 C 
ATOM     21  C   UNL     1       1.373   0.346  -1.099  1.00  0.00     0.044 C 
ATOM     22  C   UNL     1       0.479  -0.978   0.866  1.00  0.00     0.011 C 
BRANCH  22  23
ATOM     23  C   UNL     1       1.381  -2.152   0.826  1.00  0.00    -0.025 A 
ATOM     24  C   UNL     1       0.916  -3.392   1.290  1.00  0.00     0.008 A 
ATOM     25  C   UNL     1       2.744  -2.038   0.512  1.00  0.00     0.008 A 
ATOM     26  C   UNL     1       1.776  -4.494   1.381  1.00  0.00     0.001 A 
ATOM     27  C   UNL     1       3.598  -3.143   0.578  1.00  0.00     0.001 A 
ATOM     28  C   UNL     1       3.111  -4.373   1.008  1.00  0.00     0.000 A 
ENDBRANCH  22  23
ENDBRANCH  13  20
ENDBRANCH  11  12
ENDBRANCH   8  11
ENDBRANCH   6   7
ENDBRANCH   3   6
ENDBRANCH   1   2
BRANCH   1  29
ATOM     29  C   UNL     1      -3.112   1.635   4.066  1.00  0.00     0.023 C 
BRANCH  29  30
ATOM     30  C   UNL     1      -2.273   0.791   5.029  1.00  0.00     0.023 C 
BRANCH  30  31
ATOM     31  C   UNL     1      -0.840   0.500   4.576  1.00  0.00     0.116 C 
BRANCH  31  32
ATOM     32  N   UNL     1       0.014   1.672   4.465  1.00  0.00    -0.352 N 
ATOM     33  C   UNL     1       1.381   1.752   4.658  1.00  0.00     0.251 C 
ATOM     34  H   UNL     1      -0.437   2.513   4.221  1.00  0.00     0.163 HD
ATOM     35  O   UNL     1       1.945   2.841   4.610  1.00  0.00    -0.269 OA
BRANCH  33  36
ATOM     36  C   UNL     1       2.160   0.524   4.954  1.00  0.00     0.039 A 
ATOM     37  C   UNL     1       3.065   0.510   6.016  1.00  0.00     0.014 A 
ATOM     38  C   UNL     1       1.979  -0.630   4.194  1.00  0.00     0.014 A 
ATOM     39  C   UNL     1       3.707  -0.686   6.365  1.00  0.00     0.010 A 
ATOM     40  C   UNL     1       2.564  -1.834   4.577  1.00  0.00     0.010 A 
ATOM     41  C   UNL     1       3.421  -1.883   5.681  1.00  0.00    -0.014 A 
BRANCH  41  42
ATOM     42  C   UNL     1       3.938  -3.197   6.157  1.00  0.00     0.031 A 
ATOM     43  C   UNL     1       4.832  -4.047   5.293  1.00  0.00     0.074 A 
ATOM     44  C   UNL     1       3.513  -3.669   7.346  1.00  0.00     0.049 A 
ATOM     45  N   UNL     1       5.339  -5.231   5.536  1.00  0.00    -0.248 NA
ATOM     46  C   UNL     1       5.168  -3.514   3.968  1.00  0.00     0.031 C 
ATOM     47  C   UNL     1       2.570  -2.985   8.235  1.00  0.00     0.029 A 
ATOM     48  N   UNL     1       3.811  -4.830   8.014  1.00  0.00    -0.354 N 
ATOM     49  C   UNL     1       6.036  -5.594   4.387  1.00  0.00     0.074 A 
ATOM     50  C   UNL     1       5.835  -4.525   3.432  1.00  0.00     0.031 C 
ATOM     51  C   UNL     1       2.409  -3.712   9.350  1.00  0.00     0.029 A 
ATOM     52  C   UNL     1       3.200  -4.934   9.242  1.00  0.00     0.049 A 
ATOM     53  H   UNL     1       4.407  -5.524   7.649  1.00  0.00     0.167 HD
ATOM     54  C   UNL     1       6.787  -6.703   4.160  1.00  0.00     0.034 A 
ATOM     55  C   UNL     1       3.271  -5.897  10.181  1.00  0.00     0.034 A 
ATOM     56  C   UNL     1       6.997  -7.743   5.142  1.00  0.00     0.049 A 
ATOM     57  C   UNL     1       4.159  -7.089   9.935  1.00  0.00     0.074 A 
ATOM     58  C   UNL     1       7.808  -8.862   5.054  1.00  0.00     0.029 A 
ATOM     59  N   UNL     1       6.392  -7.795   6.392  1.00  0.00    -0.354 N 
ATOM     60  N   UNL     1       4.872  -7.383   8.872  1.00  0.00    -0.248 NA
ATOM     61  C   UNL     1       4.269  -8.067  11.024  1.00  0.00     0.031 C 
ATOM     62  C   UNL     1       7.641  -9.623   6.217  1.00  0.00     0.029 A 
ATOM     63  C   UNL     1       6.795  -8.936   7.072  1.00  0.00     0.049 A 
ATOM     64  H   UNL     1       5.768  -7.120   6.745  1.00  0.00     0.167 HD
ATOM     65  C   UNL     1       5.543  -8.563   9.182  1.00  0.00     0.074 A 
ATOM     66  C   UNL     1       5.162  -8.913  10.534  1.00  0.00     0.031 C 
ATOM     67  C   UNL     1       6.402  -9.286   8.418  1.00  0.00     0.034 A 
BRANCH  54  68
ATOM     68  C   UNL     1       7.425  -6.856   2.794  1.00  0.00     0.023 A 
ATOM     69  C   UNL     1       8.327  -5.904   2.287  1.00  0.00     0.031 A 
ATOM     70  C   UNL     1       7.119  -7.960   1.977  1.00  0.00     0.131 A 
ATOM     71  C   UNL     1       8.813  -6.021   0.976  1.00  0.00     0.055 A 
ATOM     72  C   UNL     1       7.688  -8.125   0.711  1.00  0.00     0.041 A 
ATOM     73  F   UNL     1       6.250  -8.897   2.388  1.00  0.00    -0.206 F 
ATOM     74  C   UNL     1       8.527  -7.142   0.195  1.00  0.00     0.022 A 
BRANCH  71  75
ATOM     75  S   UNL     1       9.681  -4.604   0.251  1.00  0.00     0.124 S 
ATOM     76  O   UNL     1       8.662  -3.560   0.345  1.00  0.00    -0.237 OA
ATOM     77  O   UNL     1      10.834  -4.455   1.131  1.00  0.00    -0.237 OA
ATOM     78  O   UNL     1       9.984  -5.046  -1.109  1.00  0.00    -0.744 OA
ENDBRANCH  71  75
ENDBRANCH  54  68
BRANCH  55  79
ATOM     79  C   UNL     1       2.512  -5.758  11.457  1.00  0.00     0.023 A 
ATOM     80  C   UNL     1       3.183  -5.612  12.681  1.00  0.00     0.031 A 
ATOM     81  C   UNL     1       1.107  -5.788  11.474  1.00  0.00     0.131 A 
ATOM     82  C   UNL     1       2.452  -5.548  13.877  1.00  0.00     0.055 A 
ATOM     83  C   UNL     1       0.382  -5.667  12.661  1.00  0.00     0.041 A 
ATOM     84  F   UNL     1       0.415  -5.915  10.330  1.00  0.00    -0.206 F 
ATOM     85  C   UNL     1       1.056  -5.559  13.874  1.00  0.00     0.022 A 
BRANCH  82  86
ATOM     86  S   UNL     1       3.360  -5.534  15.447  1.00  0.00     0.124 S 
ATOM     87  O   UNL     1       4.130  -6.769  15.356  1.00  0.00    -0.237 OA
ATOM     88  O   UNL     1       4.120  -4.293  15.345  1.00  0.00    -0.237 OA
ATOM     89  O   UNL     1       2.298  -5.531  16.452  1.00  0.00    -0.744 OA
ENDBRANCH  82  86
ENDBRANCH  55  79
BRANCH  67  90
ATOM     90  C   UNL     1       7.029 -10.504   9.055  1.00  0.00     0.023 A 
ATOM     91  C   UNL     1       6.263 -11.617   9.447  1.00  0.00     0.031 A 
ATOM     92  C   UNL     1       8.414 -10.539   9.298  1.00  0.00     0.131 A 
ATOM     93  C   UNL     1       6.875 -12.684  10.122  1.00  0.00     0.055 A 
ATOM     94  C   UNL     1       9.027 -11.634   9.907  1.00  0.00     0.041 A 
ATOM     95  F   UNL     1       9.196  -9.504   8.950  1.00  0.00    -0.206 F 
ATOM     96  C   UNL     1       8.255 -12.709  10.338  1.00  0.00     0.022 A 
BRANCH  93  97
ATOM     97  S   UNL     1       5.825 -13.990  10.817  1.00  0.00     0.124 S 
ATOM     98  O   UNL     1       4.930 -13.230  11.683  1.00  0.00    -0.237 OA
ATOM     99  O   UNL     1       5.217 -14.569   9.624  1.00  0.00    -0.237 OA
ATOM    100  O   UNL     1       6.772 -14.858  11.514  1.00  0.00    -0.744 OA
ENDBRANCH  93  97
ENDBRANCH  67  90
ENDBRANCH  41  42
ENDBRANCH  33  36
ENDBRANCH  31  32
ENDBRANCH  30  31
ENDBRANCH  29  30
ENDBRANCH   1  29
TORSDOF 19
