REMARK SMILES COc1ccc(C(=O)NC(=S)Nc2ccc(Br)cc2C(=O)NCCCCNC(=O)c2ccc(-c3c4nc(c(-c5cc(S(=O)(=O)[O-])ccc5F)c5ccc([nH]5)c(-c5cc(S(=O)(=O)[O-])ccc5F)c5nc(c(-c6cc(S(=O)(=O)[O-])ccc6F)c6ccc3[nH]6)C=C5)C=C4)cc2)cc1Br
REMARK SMILES IDX 23 1 22 2 20 3 21 4 19 6 13 7 14 8 15 9 18 10 16 11 17 12
REMARK SMILES IDX 12 13 10 15 11 16 9 17 7 18 8 19 6 21 3 22 4 23 94 24 5 25
REMARK SMILES IDX 93 26 95 27 2 28 1 29 24 30 25 31 26 32 27 33 28 34 29 36
REMARK SMILES IDX 30 37 31 38 92 39 32 40 91 41 33 42 34 43 35 44 85 45 36 46
REMARK SMILES IDX 90 47 84 48 86 49 37 50 89 51 83 52 82 53 38 55 70 56 50 57
REMARK SMILES IDX 69 58 51 59 54 60 68 61 87 62 52 63 53 64 67 66 88 67 55 68
REMARK SMILES IDX 39 69 40 70 48 71 41 72 47 73 49 74 46 75 42 76 43 77 44 78
REMARK SMILES IDX 45 79 71 80 72 81 80 82 73 83 79 84 81 85 78 86 74 87 75 88
REMARK SMILES IDX 76 89 77 90 56 91 57 92 65 93 58 94 64 95 66 96 63 97 59 98
REMARK SMILES IDX 60 99 61 100 62 101
REMARK H PARENT 22 5 12 14 9 20 27 35 86 54 54 65
REMARK Flexibility Score: inf
ROOT
ATOM      1  C   UNL     1       4.602   4.786  -0.338  1.00  0.00     0.116 C 
ENDROOT
BRANCH   1   2
ATOM      2  N   UNL     1       3.952   3.881   0.552  1.00  0.00    -0.352 N 
ATOM      3  C   UNL     1       2.942   3.051   0.140  1.00  0.00     0.253 C 
ATOM      4  O   UNL     1       2.310   2.380   0.951  1.00  0.00    -0.269 OA
ATOM      5  H   UNL     1       4.239   3.851   1.493  1.00  0.00     0.163 HD
BRANCH   3   6
ATOM      6  C   UNL     1       2.547   3.006  -1.297  1.00  0.00     0.064 A 
ATOM      7  C   UNL     1       3.615   2.616  -2.643  1.00  0.00     0.053 A 
ATOM      8  C   UNL     1       3.022   1.877  -4.184  1.00  0.00     0.028 A 
ATOM      9  C   UNL     1       1.286   1.738  -4.583  1.00  0.00     0.018 A 
ATOM     10  C   UNL     1       0.800   2.947  -1.574  1.00  0.00     0.031 A 
ATOM     11  C   UNL     1       0.067   2.312  -3.357  1.00  0.00     0.018 A 
ATOM     12  Br  UNL     1      -1.686   2.132  -4.314  1.00  0.00    -0.051 Br
BRANCH   7  13
ATOM     13  N   UNL     1       4.370   3.808  -3.074  1.00  0.00    -0.332 N 
ATOM     14  H   UNL     1       5.342   3.655  -3.100  1.00  0.00     0.169 HD
BRANCH  13  15
ATOM     15  C   UNL     1       4.019   5.098  -3.452  1.00  0.00     0.177 C 
ATOM     16  S   UNL     1       5.290   6.058  -3.999  1.00  0.00    -0.040 S 
BRANCH  15  17
ATOM     17  N   UNL     1       2.726   5.727  -3.470  1.00  0.00    -0.299 N 
ATOM     18  C   UNL     1       1.233   5.739  -3.318  1.00  0.00     0.257 C 
ATOM     19  O   UNL     1       0.601   6.774  -3.502  1.00  0.00    -0.269 OA
ATOM     20  H   UNL     1       2.934   6.657  -3.716  1.00  0.00     0.172 HD
BRANCH  18  21
ATOM     21  C   UNL     1       0.517   4.484  -3.003  1.00  0.00     0.041 A 
ATOM     22  C   UNL     1      -0.094   1.074  -1.606  1.00  0.00     0.133 A 
ATOM     23  C   UNL     1      -1.293   2.398  -1.520  1.00  0.00     0.048 A 
ATOM     24  C   UNL     1       1.488   1.397  -2.439  1.00  0.00     0.060 A 
ATOM     25  C   UNL     1      -0.973   4.051  -2.184  1.00  0.00     0.018 A 
ATOM     26  C   UNL     1       1.680   3.248  -3.214  1.00  0.00     0.033 A 
ATOM     27  Br  UNL     1       2.577  -0.273  -2.414  1.00  0.00    -0.047 Br
BRANCH  22  28
ATOM     28  O   UNL     1      -0.375  -0.113  -1.000  1.00  0.00    -0.496 OA
ATOM     29  C   UNL     1       0.281  -0.154   0.269  1.00  0.00     0.278 C 
ENDBRANCH  22  28
ENDBRANCH  18  21
ENDBRANCH  15  17
ENDBRANCH  13  15
ENDBRANCH   7  13
ENDBRANCH   3   6
ENDBRANCH   1   2
BRANCH   1  30
ATOM     30  C   UNL     1       5.047   6.122   0.196  1.00  0.00     0.023 C 
BRANCH  30  31
ATOM     31  C   UNL     1       6.198   6.061   1.171  1.00  0.00     0.023 C 
BRANCH  31  32
ATOM     32  C   UNL     1       7.331   5.140   0.750  1.00  0.00     0.116 C 
BRANCH  32  33
ATOM     33  N   UNL     1       7.952   5.513  -0.518  1.00  0.00    -0.352 N 
ATOM     34  C   UNL     1       9.260   5.877  -0.752  1.00  0.00     0.251 C 
ATOM     35  H   UNL     1       7.361   5.504  -1.305  1.00  0.00     0.163 HD
ATOM     36  O   UNL     1       9.613   6.283  -1.853  1.00  0.00    -0.269 OA
BRANCH  34  37
ATOM     37  C   UNL     1      10.207   5.812   0.376  1.00  0.00     0.039 A 
ATOM     38  C   UNL     1      10.910   6.960   0.737  1.00  0.00     0.014 A 
ATOM     39  C   UNL     1      10.261   4.659   1.163  1.00  0.00     0.014 A 
ATOM     40  C   UNL     1      11.600   6.977   1.948  1.00  0.00     0.010 A 
ATOM     41  C   UNL     1      10.831   4.730   2.426  1.00  0.00     0.010 A 
ATOM     42  C   UNL     1      11.516   5.885   2.830  1.00  0.00    -0.014 A 
BRANCH  42  43
ATOM     43  C   UNL     1      12.156   5.926   4.170  1.00  0.00     0.031 A 
ATOM     44  C   UNL     1      13.201   4.904   4.525  1.00  0.00     0.074 A 
ATOM     45  C   UNL     1      11.776   6.853   5.073  1.00  0.00     0.049 A 
ATOM     46  N   UNL     1      13.849   4.742   5.649  1.00  0.00    -0.248 NA
ATOM     47  C   UNL     1      13.545   3.916   3.489  1.00  0.00     0.031 C 
ATOM     48  C   UNL     1      10.749   7.875   4.858  1.00  0.00     0.029 A 
ATOM     49  N   UNL     1      12.214   7.093   6.352  1.00  0.00    -0.354 N 
ATOM     50  C   UNL     1      14.674   3.641   5.454  1.00  0.00     0.074 A 
ATOM     51  C   UNL     1      14.379   3.120   4.138  1.00  0.00     0.031 C 
ATOM     52  C   UNL     1      10.677   8.663   5.942  1.00  0.00     0.029 A 
ATOM     53  C   UNL     1      11.598   8.165   6.958  1.00  0.00     0.049 A 
ATOM     54  H   UNL     1      12.905   6.550   6.795  1.00  0.00     0.167 HD
ATOM     55  C   UNL     1      15.618   3.131   6.280  1.00  0.00     0.034 A 
ATOM     56  C   UNL     1      11.748   8.679   8.196  1.00  0.00     0.034 A 
ATOM     57  C   UNL     1      15.898   3.658   7.591  1.00  0.00     0.049 A 
ATOM     58  C   UNL     1      12.747   8.038   9.130  1.00  0.00     0.074 A 
ATOM     59  C   UNL     1      16.850   3.233   8.500  1.00  0.00     0.029 A 
ATOM     60  N   UNL     1      15.221   4.713   8.187  1.00  0.00    -0.354 N 
ATOM     61  N   UNL     1      13.549   7.021   8.912  1.00  0.00    -0.248 NA
ATOM     62  C   UNL     1      12.865   8.618  10.474  1.00  0.00     0.031 C 
ATOM     63  C   UNL     1      16.684   3.964   9.678  1.00  0.00     0.029 A 
ATOM     64  C   UNL     1      15.707   4.923   9.468  1.00  0.00     0.049 A 
ATOM     65  H   UNL     1      14.503   5.236   7.762  1.00  0.00     0.167 HD
ATOM     66  C   UNL     1      14.296   6.870  10.078  1.00  0.00     0.074 A 
ATOM     67  C   UNL     1      13.858   7.908  10.987  1.00  0.00     0.031 C 
ATOM     68  C   UNL     1      15.260   5.960  10.368  1.00  0.00     0.034 A 
BRANCH  55  69
ATOM     69  C   UNL     1      16.393   1.931   5.795  1.00  0.00     0.023 A 
ATOM     70  C   UNL     1      17.195   1.990   4.641  1.00  0.00     0.031 A 
ATOM     71  C   UNL     1      16.316   0.707   6.481  1.00  0.00     0.131 A 
ATOM     72  C   UNL     1      17.822   0.830   4.166  1.00  0.00     0.055 A 
ATOM     73  C   UNL     1      17.023  -0.419   6.057  1.00  0.00     0.041 A 
ATOM     74  F   UNL     1      15.543   0.580   7.570  1.00  0.00    -0.206 F 
ATOM     75  C   UNL     1      17.770  -0.366   4.884  1.00  0.00     0.022 A 
BRANCH  72  76
ATOM     76  S   UNL     1      18.562   0.867   2.511  1.00  0.00     0.124 S 
ATOM     77  O   UNL     1      17.419   1.251   1.686  1.00  0.00    -0.237 OA
ATOM     78  O   UNL     1      19.611   1.870   2.656  1.00  0.00    -0.237 OA
ATOM     79  O   UNL     1      19.029  -0.503   2.314  1.00  0.00    -0.744 OA
ENDBRANCH  72  76
ENDBRANCH  55  69
BRANCH  56  80
ATOM     80  C   UNL     1      10.931   9.846   8.645  1.00  0.00     0.023 A 
ATOM     81  C   UNL     1      11.542  11.041   9.056  1.00  0.00     0.031 A 
ATOM     82  C   UNL     1       9.531   9.757   8.744  1.00  0.00     0.131 A 
ATOM     83  C   UNL     1      10.765  12.070   9.612  1.00  0.00     0.055 A 
ATOM     84  C   UNL     1       8.755  10.814   9.224  1.00  0.00     0.041 A 
ATOM     85  F   UNL     1       8.892   8.636   8.374  1.00  0.00    -0.206 F 
ATOM     86  C   UNL     1       9.374  11.973   9.679  1.00  0.00     0.022 A 
BRANCH  83  87
ATOM     87  S   UNL     1      11.614  13.478  10.379  1.00  0.00     0.124 S 
ATOM     88  O   UNL     1      12.449  12.810  11.371  1.00  0.00    -0.237 OA
ATOM     89  O   UNL     1      12.312  14.067   9.242  1.00  0.00    -0.237 OA
ATOM     90  O   UNL     1      10.519  14.279  10.921  1.00  0.00    -0.744 OA
ENDBRANCH  83  87
ENDBRANCH  56  80
BRANCH  68  91
ATOM     91  C   UNL     1      15.954   6.085  11.704  1.00  0.00     0.023 A 
ATOM     92  C   UNL     1      15.268   5.922  12.919  1.00  0.00     0.031 A 
ATOM     93  C   UNL     1      17.330   6.375  11.757  1.00  0.00     0.131 A 
ATOM     94  C   UNL     1      15.943   6.117  14.133  1.00  0.00     0.055 A 
ATOM     95  C   UNL     1      18.014   6.483  12.968  1.00  0.00     0.041 A 
ATOM     96  F   UNL     1      18.037   6.551  10.629  1.00  0.00    -0.206 F 
ATOM     97  C   UNL     1      17.317   6.370  14.166  1.00  0.00     0.022 A 
BRANCH  94  98
ATOM     98  S   UNL     1      14.975   6.163  15.666  1.00  0.00     0.124 S 
ATOM     99  O   UNL     1      14.023   7.234  15.389  1.00  0.00    -0.237 OA
ATOM    100  O   UNL     1      14.419   4.815  15.725  1.00  0.00    -0.237 OA
ATOM    101  O   UNL     1      15.971   6.469  16.691  1.00  0.00    -0.744 OA
ENDBRANCH  94  98
ENDBRANCH  68  91
ENDBRANCH  42  43
ENDBRANCH  34  37
ENDBRANCH  32  33
ENDBRANCH  31  32
ENDBRANCH  30  31
ENDBRANCH   1  30
TORSDOF 19
