REMARK SMILES Cc1cc(NC(=O)COc2cc(C)c(Cl)c(C)c2)cc(C(=O)NCCCCNC(=O)c2ccc(-c3c4nc(c(-c5cc(S(=O)(=O)[O-])ccc5F)c5ccc([nH]5)c(-c5cc(S(=O)(=O)[O-])ccc5F)c5nc(c(-c6cc(S(=O)(=O)[O-])ccc6F)c6ccc3[nH]6)C=C5)C=C4)cc2)c1O
REMARK SMILES IDX 25 1 24 2 23 3 21 4 22 5 20 7 1 8 2 9 3 10 94 11 4 12 19 13
REMARK SMILES IDX 95 14 5 16 6 17 7 19 8 20 9 21 10 22 11 23 18 24 12 25 16 26
REMARK SMILES IDX 13 27 14 28 17 29 15 30 26 31 27 32 28 33 29 34 30 36 31 37
REMARK SMILES IDX 32 38 93 39 33 40 92 41 34 42 35 43 36 44 86 45 37 46 91 47
REMARK SMILES IDX 85 48 87 49 38 50 90 51 84 52 83 53 39 55 71 56 51 57 70 58
REMARK SMILES IDX 52 59 55 60 69 61 88 62 53 63 54 64 68 66 89 67 56 68 40 69
REMARK SMILES IDX 41 70 49 71 42 72 48 73 50 74 47 75 43 76 44 77 45 78 46 79
REMARK SMILES IDX 72 80 73 81 81 82 74 83 80 84 82 85 79 86 75 87 76 88 77 89
REMARK SMILES IDX 78 90 57 91 58 92 66 93 59 94 65 95 67 96 64 97 60 98 61 99
REMARK SMILES IDX 62 100 63 101
REMARK H PARENT 23 6 95 15 5 18 28 35 87 54 55 65
REMARK Flexibility Score: inf
ROOT
ATOM      1  C   UNL     1       3.308   3.831  -0.760  1.00  0.00     0.023 C 
ENDROOT
BRANCH   1   2
ATOM      2  C   UNL     1       2.666   3.796   0.623  1.00  0.00     0.116 C 
BRANCH   2   3
ATOM      3  N   UNL     1       1.219   3.783   0.552  1.00  0.00    -0.352 N 
ATOM      4  C   UNL     1       0.225   2.845   0.420  1.00  0.00     0.255 C 
ATOM      5  O   UNL     1      -0.905   3.336   0.493  1.00  0.00    -0.269 OA
ATOM      6  H   UNL     1       0.848   4.693   0.615  1.00  0.00     0.163 HD
BRANCH   4   7
ATOM      7  C   UNL     1       0.406   1.352   0.234  1.00  0.00     0.083 A 
ATOM      8  C   UNL     1      -1.845  -1.752  -0.236  1.00  0.00     0.048 C 
ATOM      9  C   UNL     1      -0.645  -0.867  -0.042  1.00  0.00    -0.006 A 
ATOM     10  C   UNL     1       0.616  -1.459   0.062  1.00  0.00     0.033 A 
ATOM     11  C   UNL     1      -0.737   0.536   0.028  1.00  0.00     0.131 A 
ATOM     12  C   UNL     1       1.774  -0.688   0.195  1.00  0.00     0.042 A 
ATOM     13  C   UNL     1       1.652   0.703   0.299  1.00  0.00     0.043 A 
BRANCH  11  14
ATOM     14  O   UNL     1      -1.966   1.118  -0.137  1.00  0.00    -0.507 OA
ATOM     15  H   UNL     1      -2.723   0.583  -0.273  1.00  0.00     0.293 HD
ENDBRANCH  11  14
BRANCH  12  16
ATOM     16  N   UNL     1       2.977  -1.413   0.253  1.00  0.00    -0.323 N 
ATOM     17  C   UNL     1       4.292  -1.100   0.086  1.00  0.00     0.262 C 
ATOM     18  H   UNL     1       2.837  -2.365   0.464  1.00  0.00     0.170 HD
ATOM     19  O   UNL     1       5.113  -2.000   0.304  1.00  0.00    -0.271 OA
BRANCH  17  20
ATOM     20  C   UNL     1       4.771   0.266  -0.387  1.00  0.00     0.329 C 
BRANCH  20  21
ATOM     21  O   UNL     1       4.042   0.850  -1.455  1.00  0.00    -0.484 OA
BRANCH  21  22
ATOM     22  C   UNL     1       4.466   0.574  -2.721  1.00  0.00     0.120 A 
ATOM     23  C   UNL     1       4.924  -0.667  -3.148  1.00  0.00     0.051 A 
ATOM     24  C   UNL     1       4.347   1.620  -3.636  1.00  0.00     0.051 A 
ATOM     25  C   UNL     1       5.283  -0.869  -4.492  1.00  0.00    -0.029 A 
ATOM     26  C   UNL     1       4.718   1.459  -4.978  1.00  0.00    -0.029 A 
ATOM     27  C   UNL     1       5.750  -2.234  -4.918  1.00  0.00     0.046 C 
ATOM     28  C   UNL     1       5.184   0.203  -5.402  1.00  0.00     0.047 A 
ATOM     29  C   UNL     1       4.600   2.634  -5.910  1.00  0.00     0.046 C 
ATOM     30  Cl  UNL     1       5.628  -0.034  -7.062  1.00  0.00    -0.084 Cl
ENDBRANCH  21  22
ENDBRANCH  20  21
ENDBRANCH  17  20
ENDBRANCH  12  16
ENDBRANCH   4   7
ENDBRANCH   2   3
ENDBRANCH   1   2
BRANCH   1  31
ATOM     31  C   UNL     1       3.703   5.224  -1.258  1.00  0.00     0.023 C 
BRANCH  31  32
ATOM     32  C   UNL     1       4.755   5.937  -0.410  1.00  0.00     0.116 C 
BRANCH  32  33
ATOM     33  N   UNL     1       5.993   5.190  -0.233  1.00  0.00    -0.352 N 
ATOM     34  C   UNL     1       7.240   5.689   0.086  1.00  0.00     0.251 C 
ATOM     35  H   UNL     1       5.934   4.215  -0.356  1.00  0.00     0.163 HD
ATOM     36  O   UNL     1       8.210   4.947   0.150  1.00  0.00    -0.269 OA
BRANCH  34  37
ATOM     37  C   UNL     1       7.382   7.149   0.279  1.00  0.00     0.039 A 
ATOM     38  C   UNL     1       8.295   7.847  -0.514  1.00  0.00     0.014 A 
ATOM     39  C   UNL     1       6.526   7.831   1.145  1.00  0.00     0.014 A 
ATOM     40  C   UNL     1       8.274   9.244  -0.517  1.00  0.00     0.010 A 
ATOM     41  C   UNL     1       6.452   9.217   1.080  1.00  0.00     0.010 A 
ATOM     42  C   UNL     1       7.310   9.938   0.233  1.00  0.00    -0.014 A 
BRANCH  42  43
ATOM     43  C   UNL     1       7.152  11.412   0.129  1.00  0.00     0.031 A 
ATOM     44  C   UNL     1       7.339  12.274   1.347  1.00  0.00     0.074 A 
ATOM     45  C   UNL     1       6.733  11.959  -1.030  1.00  0.00     0.049 A 
ATOM     46  N   UNL     1       7.107  13.552   1.502  1.00  0.00    -0.248 NA
ATOM     47  C   UNL     1       7.805  11.592   2.563  1.00  0.00     0.031 C 
ATOM     48  C   UNL     1       6.454  11.220  -2.265  1.00  0.00     0.029 A 
ATOM     49  N   UNL     1       6.449  13.261  -1.356  1.00  0.00    -0.354 N 
ATOM     50  C   UNL     1       7.367  13.822   2.842  1.00  0.00     0.074 A 
ATOM     51  C   UNL     1       7.717  12.560   3.462  1.00  0.00     0.031 C 
ATOM     52  C   UNL     1       6.061  12.083  -3.216  1.00  0.00     0.029 A 
ATOM     53  C   UNL     1       6.019  13.428  -2.653  1.00  0.00     0.049 A 
ATOM     54  H   UNL     1       6.545  14.008  -0.722  1.00  0.00     0.167 HD
ATOM     55  C   UNL     1       7.340  15.014   3.488  1.00  0.00     0.034 A 
ATOM     56  C   UNL     1       5.624  14.536  -3.310  1.00  0.00     0.034 A 
ATOM     57  C   UNL     1       7.022  16.266   2.847  1.00  0.00     0.049 A 
ATOM     58  C   UNL     1       5.633  15.855  -2.582  1.00  0.00     0.074 A 
ATOM     59  C   UNL     1       7.027  17.540   3.387  1.00  0.00     0.029 A 
ATOM     60  N   UNL     1       6.643  16.401   1.517  1.00  0.00    -0.354 N 
ATOM     61  N   UNL     1       5.928  16.103  -1.327  1.00  0.00    -0.248 NA
ATOM     62  C   UNL     1       5.268  17.045  -3.362  1.00  0.00     0.031 C 
ATOM     63  C   UNL     1       6.608  18.438   2.398  1.00  0.00     0.029 A 
ATOM     64  C   UNL     1       6.398  17.733   1.224  1.00  0.00     0.049 A 
ATOM     65  H   UNL     1       6.560  15.658   0.876  1.00  0.00     0.167 HD
ATOM     66  C   UNL     1       5.814  17.481  -1.177  1.00  0.00     0.074 A 
ATOM     67  C   UNL     1       5.430  18.011  -2.469  1.00  0.00     0.031 C 
ATOM     68  C   UNL     1       6.016  18.242  -0.071  1.00  0.00     0.034 A 
BRANCH  55  69
ATOM     69  C   UNL     1       7.645  15.002   4.967  1.00  0.00     0.023 A 
ATOM     70  C   UNL     1       8.895  14.585   5.456  1.00  0.00     0.031 A 
ATOM     71  C   UNL     1       6.659  15.359   5.903  1.00  0.00     0.131 A 
ATOM     72  C   UNL     1       9.095  14.443   6.837  1.00  0.00     0.055 A 
ATOM     73  C   UNL     1       6.894  15.300   7.278  1.00  0.00     0.041 A 
ATOM     74  F   UNL     1       5.439  15.748   5.498  1.00  0.00    -0.206 F 
ATOM     75  C   UNL     1       8.112  14.822   7.753  1.00  0.00     0.022 A 
BRANCH  72  76
ATOM     76  S   UNL     1      10.598  13.602   7.407  1.00  0.00     0.124 S 
ATOM     77  O   UNL     1      10.458  12.292   6.776  1.00  0.00    -0.237 OA
ATOM     78  O   UNL     1      11.657  14.456   6.881  1.00  0.00    -0.237 OA
ATOM     79  O   UNL     1      10.460  13.603   8.862  1.00  0.00    -0.744 OA
ENDBRANCH  72  76
ENDBRANCH  55  69
BRANCH  56  80
ATOM     80  C   UNL     1       5.191  14.456  -4.732  1.00  0.00     0.023 A 
ATOM     81  C   UNL     1       5.959  15.040  -5.752  1.00  0.00     0.031 A 
ATOM     82  C   UNL     1       3.990  13.820  -5.090  1.00  0.00     0.131 A 
ATOM     83  C   UNL     1       5.497  15.015  -7.077  1.00  0.00     0.055 A 
ATOM     84  C   UNL     1       3.555  13.761  -6.416  1.00  0.00     0.041 A 
ATOM     85  F   UNL     1       3.226  13.236  -4.153  1.00  0.00    -0.206 F 
ATOM     86  C   UNL     1       4.305  14.371  -7.417  1.00  0.00     0.022 A 
BRANCH  83  87
ATOM     87  S   UNL     1       6.448  15.898  -8.344  1.00  0.00     0.124 S 
ATOM     88  O   UNL     1       6.448  17.260  -7.821  1.00  0.00    -0.237 OA
ATOM     89  O   UNL     1       7.726  15.196  -8.306  1.00  0.00    -0.237 OA
ATOM     90  O   UNL     1       5.663  15.696  -9.560  1.00  0.00    -0.744 OA
ENDBRANCH  83  87
ENDBRANCH  56  80
BRANCH  68  91
ATOM     91  C   UNL     1       5.880  19.733  -0.235  1.00  0.00     0.023 A 
ATOM     92  C   UNL     1       4.633  20.345  -0.445  1.00  0.00     0.031 A 
ATOM     93  C   UNL     1       7.023  20.551  -0.183  1.00  0.00     0.131 A 
ATOM     94  C   UNL     1       4.562  21.733  -0.637  1.00  0.00     0.055 A 
ATOM     95  C   UNL     1       6.941  21.935  -0.328  1.00  0.00     0.041 A 
ATOM     96  F   UNL     1       8.238  20.014   0.014  1.00  0.00    -0.206 F 
ATOM     97  C   UNL     1       5.706  22.533  -0.566  1.00  0.00     0.022 A 
BRANCH  94  98
ATOM     98  S   UNL     1       2.959  22.476  -1.047  1.00  0.00     0.124 S 
ATOM     99  O   UNL     1       2.622  21.801  -2.296  1.00  0.00    -0.237 OA
ATOM    100  O   UNL     1       2.144  22.120   0.110  1.00  0.00    -0.237 OA
ATOM    101  O   UNL     1       3.264  23.900  -1.174  1.00  0.00    -0.744 OA
ENDBRANCH  94  98
ENDBRANCH  68  91
ENDBRANCH  42  43
ENDBRANCH  34  37
ENDBRANCH  32  33
ENDBRANCH  31  32
ENDBRANCH   1  31
TORSDOF 19
