REMARK SMILES O=C(CC1=c2ccccc2=NC1)NCCCCNC(=O)c1ccc(-c2c3nc(c(-c4cc(S(=O)(=O)[O-])ccc4F)c4ccc([nH]4)c(-c4cc(S(=O)(=O)[O-])ccc4F)c4nc(c(-c5cc(S(=O)(=O)[O-])ccc5F)c5ccc2[nH]5)C=C4)C=C3)cc1
REMARK SMILES IDX 16 1 15 2 14 3 13 4 1 5 2 6 3 8 4 9 5 10 12 11 6 12 10 13
REMARK SMILES IDX 11 14 7 15 9 16 8 17 17 18 18 19 19 20 20 22 21 23 22 24
REMARK SMILES IDX 83 25 23 26 82 27 24 28 25 29 26 30 76 31 27 32 81 33 75 34
REMARK SMILES IDX 77 35 28 36 80 37 74 38 73 39 29 41 61 42 41 43 60 44 42 45
REMARK SMILES IDX 45 46 59 47 78 48 43 49 44 50 58 52 79 53 46 54 30 55 31 56
REMARK SMILES IDX 39 57 32 58 38 59 40 60 37 61 33 62 34 63 35 64 36 65 62 66
REMARK SMILES IDX 63 67 71 68 64 69 70 70 72 71 69 72 65 73 66 74 67 75 68 76
REMARK SMILES IDX 47 77 48 78 56 79 49 80 55 81 57 82 54 83 50 84 51 85 52 86
REMARK SMILES IDX 53 87
REMARK H PARENT 13 7 18 21 77 40 45 51
REMARK Flexibility Score: inf
ROOT
ATOM      1  C   UNL     1       3.800   0.583   4.063  1.00  0.00     0.023 C 
ENDROOT
BRANCH   1   2
ATOM      2  C   UNL     1       2.317   0.476   3.705  1.00  0.00     0.023 C 
BRANCH   2   3
ATOM      3  C   UNL     1       1.937   1.005   2.326  1.00  0.00     0.116 C 
BRANCH   3   4
ATOM      4  N   UNL     1       2.665   0.363   1.250  1.00  0.00    -0.356 N 
ATOM      5  O   UNL     1       0.815  -0.321   0.065  1.00  0.00    -0.275 OA
ATOM      6  C   UNL     1       2.033  -0.202   0.161  1.00  0.00     0.224 C 
ATOM      7  H   UNL     1       3.648   0.329   1.298  1.00  0.00     0.163 HD
BRANCH   6   8
ATOM      8  C   UNL     1       2.982  -0.630  -0.952  1.00  0.00     0.133 C 
BRANCH   8   9
ATOM      9  C   UNL     1       3.641   0.500  -1.685  1.00  0.00    -0.030 C 
ATOM     10  C   UNL     1       3.384   1.808  -1.722  1.00  0.00     0.001 A 
ATOM     11  C   UNL     1       4.832   0.181  -2.546  1.00  0.00     0.175 C 
ATOM     12  C   UNL     1       2.403   2.685  -1.161  1.00  0.00     0.010 A 
ATOM     13  C   UNL     1       4.474   2.332  -2.567  1.00  0.00     0.065 A 
ATOM     14  N   UNL     1       5.310   1.478  -3.072  1.00  0.00    -0.280 NA
ATOM     15  C   UNL     1       2.513   4.007  -1.369  1.00  0.00     0.001 A 
ATOM     16  C   UNL     1       4.532   3.799  -2.745  1.00  0.00     0.028 A 
ATOM     17  C   UNL     1       3.600   4.563  -2.154  1.00  0.00     0.002 A 
ENDBRANCH   8   9
ENDBRANCH   6   8
ENDBRANCH   3   4
ENDBRANCH   2   3
ENDBRANCH   1   2
BRANCH   1  18
ATOM     18  C   UNL     1       4.407   1.979   3.965  1.00  0.00     0.116 C 
BRANCH  18  19
ATOM     19  N   UNL     1       3.861   2.915   4.936  1.00  0.00    -0.352 N 
ATOM     20  C   UNL     1       4.519   3.704   5.855  1.00  0.00     0.251 C 
ATOM     21  H   UNL     1       2.880   2.998   4.936  1.00  0.00     0.163 HD
ATOM     22  O   UNL     1       3.874   4.350   6.677  1.00  0.00    -0.269 OA
BRANCH  20  23
ATOM     23  C   UNL     1       6.000   3.732   5.881  1.00  0.00     0.039 A 
ATOM     24  C   UNL     1       6.735   3.856   4.701  1.00  0.00     0.014 A 
ATOM     25  C   UNL     1       6.663   3.591   7.104  1.00  0.00     0.014 A 
ATOM     26  C   UNL     1       8.111   3.644   4.720  1.00  0.00     0.010 A 
ATOM     27  C   UNL     1       8.057   3.466   7.130  1.00  0.00     0.010 A 
ATOM     28  C   UNL     1       8.787   3.427   5.933  1.00  0.00    -0.014 A 
BRANCH  28  29
ATOM     29  C   UNL     1      10.250   3.150   5.917  1.00  0.00     0.031 A 
ATOM     30  C   UNL     1      10.791   1.817   6.362  1.00  0.00     0.074 A 
ATOM     31  C   UNL     1      11.093   4.088   5.444  1.00  0.00     0.049 A 
ATOM     32  N   UNL     1      12.026   1.383   6.343  1.00  0.00    -0.248 NA
ATOM     33  C   UNL     1       9.828   0.844   6.902  1.00  0.00     0.031 C 
ATOM     34  C   UNL     1      10.687   5.417   4.988  1.00  0.00     0.029 A 
ATOM     35  N   UNL     1      12.451   4.066   5.241  1.00  0.00    -0.354 N 
ATOM     36  C   UNL     1      11.993   0.103   6.885  1.00  0.00     0.074 A 
ATOM     37  C   UNL     1      10.620  -0.160   7.253  1.00  0.00     0.031 C 
ATOM     38  C   UNL     1      11.758   6.059   4.503  1.00  0.00     0.029 A 
ATOM     39  C   UNL     1      12.941   5.218   4.670  1.00  0.00     0.049 A 
ATOM     40  H   UNL     1      13.019   3.299   5.481  1.00  0.00     0.167 HD
ATOM     41  C   UNL     1      13.012  -0.776   7.046  1.00  0.00     0.034 A 
ATOM     42  C   UNL     1      14.197   5.565   4.321  1.00  0.00     0.034 A 
ATOM     43  C   UNL     1      14.371  -0.516   6.645  1.00  0.00     0.049 A 
ATOM     44  C   UNL     1      15.315   4.577   4.524  1.00  0.00     0.074 A 
ATOM     45  C   UNL     1      15.456  -1.374   6.707  1.00  0.00     0.029 A 
ATOM     46  N   UNL     1      14.837   0.677   6.114  1.00  0.00    -0.354 N 
ATOM     47  N   UNL     1      15.252   3.345   4.973  1.00  0.00    -0.248 NA
ATOM     48  C   UNL     1      16.672   5.019   4.178  1.00  0.00     0.031 C 
ATOM     49  C   UNL     1      16.587  -0.680   6.274  1.00  0.00     0.029 A 
ATOM     50  C   UNL     1      16.200   0.590   5.878  1.00  0.00     0.049 A 
ATOM     51  H   UNL     1      14.281   1.470   5.931  1.00  0.00     0.167 HD
ATOM     52  C   UNL     1      16.557   2.862   4.951  1.00  0.00     0.074 A 
ATOM     53  C   UNL     1      17.384   3.925   4.418  1.00  0.00     0.031 C 
ATOM     54  C   UNL     1      17.023   1.649   5.343  1.00  0.00     0.034 A 
BRANCH  41  55
ATOM     55  C   UNL     1      12.719  -2.117   7.673  1.00  0.00     0.023 A 
ATOM     56  C   UNL     1      13.310  -2.460   8.903  1.00  0.00     0.031 A 
ATOM     57  C   UNL     1      11.967  -3.096   6.999  1.00  0.00     0.131 A 
ATOM     58  C   UNL     1      13.161  -3.757   9.410  1.00  0.00     0.055 A 
ATOM     59  C   UNL     1      11.793  -4.377   7.526  1.00  0.00     0.041 A 
ATOM     60  F   UNL     1      11.385  -2.818   5.822  1.00  0.00    -0.206 F 
ATOM     61  C   UNL     1      12.402  -4.716   8.731  1.00  0.00     0.022 A 
BRANCH  58  62
ATOM     62  S   UNL     1      13.997  -4.272  10.935  1.00  0.00     0.124 S 
ATOM     63  O   UNL     1      12.865  -4.628  11.789  1.00  0.00    -0.237 OA
ATOM     64  O   UNL     1      14.808  -5.396  10.476  1.00  0.00    -0.237 OA
ATOM     65  O   UNL     1      14.738  -3.086  11.348  1.00  0.00    -0.744 OA
ENDBRANCH  58  62
ENDBRANCH  41  55
BRANCH  42  66
ATOM     66  C   UNL     1      14.424   6.897   3.689  1.00  0.00     0.023 A 
ATOM     67  C   UNL     1      14.121   8.085   4.379  1.00  0.00     0.031 A 
ATOM     68  C   UNL     1      14.813   6.994   2.343  1.00  0.00     0.131 A 
ATOM     69  C   UNL     1      14.125   9.308   3.695  1.00  0.00     0.055 A 
ATOM     70  C   UNL     1      14.890   8.223   1.686  1.00  0.00     0.041 A 
ATOM     71  F   UNL     1      15.101   5.887   1.641  1.00  0.00    -0.206 F 
ATOM     72  C   UNL     1      14.524   9.386   2.357  1.00  0.00     0.022 A 
BRANCH  69  73
ATOM     73  S   UNL     1      13.469  10.809   4.475  1.00  0.00     0.124 S 
ATOM     74  O   UNL     1      14.608  11.717   4.395  1.00  0.00    -0.237 OA
ATOM     75  O   UNL     1      12.343  11.129   3.600  1.00  0.00    -0.237 OA
ATOM     76  O   UNL     1      13.105  10.369   5.817  1.00  0.00    -0.744 OA
ENDBRANCH  69  73
ENDBRANCH  42  66
BRANCH  54  77
ATOM     77  C   UNL     1      18.503   1.373   5.234  1.00  0.00     0.023 A 
ATOM     78  C   UNL     1      18.971   0.352   4.383  1.00  0.00     0.031 A 
ATOM     79  C   UNL     1      19.427   2.005   6.084  1.00  0.00     0.131 A 
ATOM     80  C   UNL     1      20.315  -0.036   4.434  1.00  0.00     0.055 A 
ATOM     81  C   UNL     1      20.775   1.645   6.098  1.00  0.00     0.041 A 
ATOM     82  F   UNL     1      19.028   2.978   6.920  1.00  0.00    -0.206 F 
ATOM     83  C   UNL     1      21.221   0.609   5.282  1.00  0.00     0.022 A 
BRANCH  80  84
ATOM     84  S   UNL     1      20.919  -1.452   3.472  1.00  0.00     0.124 S 
ATOM     85  O   UNL     1      21.921  -0.827   2.613  1.00  0.00    -0.237 OA
ATOM     86  O   UNL     1      21.448  -2.329   4.513  1.00  0.00    -0.237 OA
ATOM     87  O   UNL     1      19.729  -1.943   2.784  1.00  0.00    -0.744 OA
ENDBRANCH  80  84
ENDBRANCH  54  77
ENDBRANCH  28  29
ENDBRANCH  20  23
ENDBRANCH  18  19
ENDBRANCH   1  18
TORSDOF 15
