REMARK SMILES O=C(NCCCCNC(=O)[C@H]1CC[C@H](CNS(=O)(=O)C[C@H]2CCCO2)O1)c1ccc(-c2c3nc(c(-c4cc(S(=O)(=O)[O-])ccc4F)c4ccc([nH]4)c(-c4cc(S(=O)(=O)[O-])ccc4F)c4nc(c(-c5cc(S(=O)(=O)[O-])ccc5F)c5ccc2[nH]5)C=C4)C=C3)cc1
REMARK SMILES IDX 6 1 5 2 4 3 3 4 1 5 2 6 27 8 28 9 89 10 29 11 88 12 30 13
REMARK SMILES IDX 31 14 32 15 82 16 33 17 87 18 81 19 83 20 34 21 86 22 80 23
REMARK SMILES IDX 79 24 35 26 67 27 47 28 66 29 48 30 51 31 65 32 84 33 49 34
REMARK SMILES IDX 50 35 64 37 85 38 52 39 36 40 37 41 45 42 38 43 44 44 46 45
REMARK SMILES IDX 43 46 39 47 40 48 41 49 42 50 68 51 69 52 77 53 70 54 76 55
REMARK SMILES IDX 78 56 75 57 71 58 72 59 73 60 74 61 53 62 54 63 62 64 55 65
REMARK SMILES IDX 61 66 63 67 60 68 56 69 57 70 58 71 59 72 7 73 8 74 9 75
REMARK SMILES IDX 10 77 11 78 12 79 26 80 13 81 14 82 15 83 16 84 17 86 18 87
REMARK SMILES IDX 19 88 20 89 21 90 22 91 25 92 23 93 24 94
REMARK H PARENT 3 7 83 25 51 36 8 76 16 85
REMARK Flexibility Score: inf
ROOT
ATOM      1  C   UNL     1       7.128  17.472  -4.731  1.00  0.00     0.023 C 
ENDROOT
BRANCH   1   2
ATOM      2  C   UNL     1       7.100  18.710  -5.621  1.00  0.00     0.023 C 
BRANCH   2   3
ATOM      3  C   UNL     1       8.395  19.501  -5.633  1.00  0.00     0.116 C 
BRANCH   3   4
ATOM      4  N   UNL     1       9.553  18.732  -6.079  1.00  0.00    -0.352 N 
ATOM      5  O   UNL     1      11.475  18.415  -7.241  1.00  0.00    -0.269 OA
ATOM      6  C   UNL     1      10.610  19.184  -6.840  1.00  0.00     0.251 C 
ATOM      7  H   UNL     1       9.582  17.787  -5.805  1.00  0.00     0.163 HD
BRANCH   6   8
ATOM      8  C   UNL     1      10.642  20.620  -7.182  1.00  0.00     0.039 A 
ATOM      9  C   UNL     1      10.424  21.555  -6.170  1.00  0.00     0.014 A 
ATOM     10  C   UNL     1      10.754  21.023  -8.514  1.00  0.00     0.014 A 
ATOM     11  C   UNL     1      10.116  22.860  -6.511  1.00  0.00     0.010 A 
ATOM     12  C   UNL     1      10.581  22.374  -8.838  1.00  0.00     0.010 A 
ATOM     13  C   UNL     1      10.227  23.298  -7.843  1.00  0.00    -0.014 A 
BRANCH  13  14
ATOM     14  C   UNL     1      10.048  24.749  -8.114  1.00  0.00     0.031 A 
ATOM     15  C   UNL     1       8.960  25.265  -9.014  1.00  0.00     0.074 A 
ATOM     16  C   UNL     1      10.853  25.608  -7.455  1.00  0.00     0.049 A 
ATOM     17  N   UNL     1       8.654  26.505  -9.300  1.00  0.00    -0.248 NA
ATOM     18  C   UNL     1       8.113  24.270  -9.687  1.00  0.00     0.031 C 
ATOM     19  C   UNL     1      11.950  25.209  -6.564  1.00  0.00     0.029 A 
ATOM     20  N   UNL     1      10.859  26.975  -7.388  1.00  0.00    -0.354 N 
ATOM     21  C   UNL     1       7.586  26.445 -10.189  1.00  0.00     0.074 A 
ATOM     22  C   UNL     1       7.324  25.040 -10.427  1.00  0.00     0.031 C 
ATOM     23  C   UNL     1      12.464  26.298  -5.981  1.00  0.00     0.029 A 
ATOM     24  C   UNL     1      11.815  27.477  -6.535  1.00  0.00     0.049 A 
ATOM     25  H   UNL     1      10.240  27.544  -7.900  1.00  0.00     0.167 HD
ATOM     26  C   UNL     1       6.888  27.468 -10.744  1.00  0.00     0.034 A 
ATOM     27  C   UNL     1      12.162  28.746  -6.251  1.00  0.00     0.034 A 
ATOM     28  C   UNL     1       7.175  28.864 -10.496  1.00  0.00     0.049 A 
ATOM     29  C   UNL     1      11.398  29.855  -6.916  1.00  0.00     0.074 A 
ATOM     30  C   UNL     1       6.534  29.980 -11.007  1.00  0.00     0.029 A 
ATOM     31  N   UNL     1       8.187  29.339  -9.669  1.00  0.00    -0.354 N 
ATOM     32  N   UNL     1      10.391  29.775  -7.756  1.00  0.00    -0.248 NA
ATOM     33  C   UNL     1      11.812  31.223  -6.593  1.00  0.00     0.031 C 
ATOM     34  C   UNL     1       7.199  31.122 -10.547  1.00  0.00     0.029 A 
ATOM     35  C   UNL     1       8.203  30.727  -9.679  1.00  0.00     0.049 A 
ATOM     36  H   UNL     1       8.804  28.772  -9.152  1.00  0.00     0.167 HD
ATOM     37  C   UNL     1      10.045  31.089  -8.053  1.00  0.00     0.074 A 
ATOM     38  C   UNL     1      10.921  31.934  -7.265  1.00  0.00     0.031 C 
ATOM     39  C   UNL     1       9.099  31.556  -8.907  1.00  0.00     0.034 A 
BRANCH  26  40
ATOM     40  C   UNL     1       5.771  27.121 -11.702  1.00  0.00     0.023 A 
ATOM     41  C   UNL     1       4.622  26.430 -11.279  1.00  0.00     0.031 A 
ATOM     42  C   UNL     1       5.848  27.498 -13.055  1.00  0.00     0.131 A 
ATOM     43  C   UNL     1       3.625  26.091 -12.208  1.00  0.00     0.055 A 
ATOM     44  C   UNL     1       4.818  27.224 -13.958  1.00  0.00     0.041 A 
ATOM     45  F   UNL     1       6.929  28.141 -13.525  1.00  0.00    -0.206 F 
ATOM     46  C   UNL     1       3.702  26.507 -13.539  1.00  0.00     0.022 A 
BRANCH  43  47
ATOM     47  S   UNL     1       2.281  24.993 -11.678  1.00  0.00     0.124 S 
ATOM     48  O   UNL     1       3.020  23.807 -11.252  1.00  0.00    -0.237 OA
ATOM     49  O   UNL     1       1.644  25.764 -10.616  1.00  0.00    -0.237 OA
ATOM     50  O   UNL     1       1.482  24.819 -12.889  1.00  0.00    -0.744 OA
ENDBRANCH  43  47
ENDBRANCH  26  40
BRANCH  27  51
ATOM     51  C   UNL     1      13.317  29.026  -5.351  1.00  0.00     0.023 A 
ATOM     52  C   UNL     1      13.160  29.765  -4.170  1.00  0.00     0.031 A 
ATOM     53  C   UNL     1      14.614  28.593  -5.690  1.00  0.00     0.131 A 
ATOM     54  C   UNL     1      14.286  30.099  -3.402  1.00  0.00     0.055 A 
ATOM     55  C   UNL     1      15.718  28.862  -4.883  1.00  0.00     0.041 A 
ATOM     56  F   UNL     1      14.824  27.882  -6.809  1.00  0.00    -0.206 F 
ATOM     57  C   UNL     1      15.560  29.637  -3.739  1.00  0.00     0.022 A 
BRANCH  54  58
ATOM     58  S   UNL     1      14.078  31.253  -2.019  1.00  0.00     0.124 S 
ATOM     59  O   UNL     1      13.443  32.390  -2.675  1.00  0.00    -0.237 OA
ATOM     60  O   UNL     1      13.236  30.484  -1.109  1.00  0.00    -0.237 OA
ATOM     61  O   UNL     1      15.446  31.481  -1.559  1.00  0.00    -0.744 OA
ENDBRANCH  54  58
ENDBRANCH  27  51
BRANCH  39  62
ATOM     62  C   UNL     1       8.961  33.057  -8.997  1.00  0.00     0.023 A 
ATOM     63  C   UNL     1      10.008  33.864  -9.477  1.00  0.00     0.031 A 
ATOM     64  C   UNL     1       7.794  33.693  -8.539  1.00  0.00     0.131 A 
ATOM     65  C   UNL     1       9.904  35.260  -9.406  1.00  0.00     0.055 A 
ATOM     66  C   UNL     1       7.665  35.083  -8.544  1.00  0.00     0.041 A 
ATOM     67  F   UNL     1       6.764  32.975  -8.064  1.00  0.00    -0.206 F 
ATOM     68  C   UNL     1       8.732  35.875  -8.960  1.00  0.00     0.022 A 
BRANCH  65  69
ATOM     69  S   UNL     1      11.374  36.258  -9.771  1.00  0.00     0.124 S 
ATOM     70  O   UNL     1      12.345  35.724  -8.822  1.00  0.00    -0.237 OA
ATOM     71  O   UNL     1      11.619  35.949 -11.176  1.00  0.00    -0.237 OA
ATOM     72  O   UNL     1      10.933  37.627  -9.505  1.00  0.00    -0.744 OA
ENDBRANCH  65  69
ENDBRANCH  39  62
ENDBRANCH  13  14
ENDBRANCH   6   8
ENDBRANCH   3   4
ENDBRANCH   2   3
ENDBRANCH   1   2
BRANCH   1  73
ATOM     73  C   UNL     1       7.429  17.762  -3.261  1.00  0.00     0.116 C 
BRANCH  73  74
ATOM     74  N   UNL     1       6.291  18.360  -2.592  1.00  0.00    -0.354 N 
ATOM     75  C   UNL     1       5.338  17.817  -1.787  1.00  0.00     0.249 C 
ATOM     76  H   UNL     1       6.190  19.327  -2.747  1.00  0.00     0.163 HD
ATOM     77  O   UNL     1       4.464  18.576  -1.354  1.00  0.00    -0.272 OA
BRANCH  75  78
ATOM     78  C   UNL     1       5.301  16.312  -1.420  1.00  0.00     0.207 C 
ATOM     79  C   UNL     1       4.063  15.647  -2.003  1.00  0.00     0.045 C 
ATOM     80  O   UNL     1       6.391  15.468  -1.764  1.00  0.00    -0.364 OA
ATOM     81  C   UNL     1       4.595  14.981  -3.246  1.00  0.00     0.037 C 
ATOM     82  C   UNL     1       6.024  14.619  -2.866  1.00  0.00     0.134 C 
BRANCH  82  83
ATOM     83  C   UNL     1       6.217  13.160  -2.439  1.00  0.00     0.130 C 
BRANCH  83  84
ATOM     84  N   UNL     1       6.103  12.265  -3.604  1.00  0.00    -0.213 NA
ATOM     85  H   UNL     1       6.731  12.622  -4.325  1.00  0.00     0.141 HD
BRANCH  84  86
ATOM     86  S   UNL     1       6.465  10.653  -3.383  1.00  0.00     0.214 S 
ATOM     87  O   UNL     1       5.907  10.265  -2.104  1.00  0.00    -0.212 OA
ATOM     88  O   UNL     1       6.030   9.987  -4.589  1.00  0.00    -0.212 OA
BRANCH  86  89
ATOM     89  C   UNL     1       8.241  10.556  -3.271  1.00  0.00     0.185 C 
BRANCH  89  90
ATOM     90  C   UNL     1       9.071  11.273  -4.322  1.00  0.00     0.134 C 
ATOM     91  C   UNL     1       8.696  11.160  -5.794  1.00  0.00     0.035 C 
ATOM     92  O   UNL     1       9.179  12.675  -4.009  1.00  0.00    -0.377 OA
ATOM     93  C   UNL     1       8.279  12.562  -6.170  1.00  0.00     0.031 C 
ATOM     94  C   UNL     1       9.117  13.406  -5.239  1.00  0.00     0.160 C 
ENDBRANCH  89  90
ENDBRANCH  86  89
ENDBRANCH  84  86
ENDBRANCH  83  84
ENDBRANCH  82  83
ENDBRANCH  75  78
ENDBRANCH  73  74
ENDBRANCH   1  73
TORSDOF 19
