REMARK SMILES Nc1ccc(N2CC3(CCC3)C2)c(C(=O)NCCCCNC(=O)c2ccc(-c3c4nc(c(-c5cc(S(=O)(=O)[O-])ccc5F)c5ccc([nH]5)c(-c5cc(S(=O)(=O)[O-])ccc5F)c5nc(c(-c6cc(S(=O)(=O)[O-])ccc6F)c6ccc3[nH]6)C=C5)C=C4)cc2)c1
REMARK SMILES IDX 19 1 18 2 17 3 16 4 14 5 15 6 13 8 2 9 3 10 87 11 4 12 5 13
REMARK SMILES IDX 1 14 6 17 7 18 12 19 8 20 9 21 11 22 10 23 20 24 21 25 22 26
REMARK SMILES IDX 23 28 24 29 25 30 86 31 26 32 85 33 27 34 28 35 29 36 79 37
REMARK SMILES IDX 30 38 84 39 78 40 80 41 31 42 83 43 77 44 76 45 32 47 64 48
REMARK SMILES IDX 44 49 63 50 45 51 48 52 62 53 81 54 46 55 47 56 61 58 82 59
REMARK SMILES IDX 49 60 33 61 34 62 42 63 35 64 41 65 43 66 40 67 36 68 37 69
REMARK SMILES IDX 38 70 39 71 65 72 66 73 74 74 67 75 73 76 75 77 72 78 68 79
REMARK SMILES IDX 69 80 70 81 71 82 50 83 51 84 59 85 52 86 58 87 60 88 57 89
REMARK SMILES IDX 53 90 54 91 55 92 56 93
REMARK H PARENT 16 7 1 15 1 16 21 27 80 46 48 57
REMARK Flexibility Score: inf
ROOT
ATOM      1  C   UNL     1       0.535   5.763  -1.430  1.00  0.00     0.023 C 
ENDROOT
BRANCH   1   2
ATOM      2  C   UNL     1       1.005   4.365  -1.004  1.00  0.00     0.023 C 
BRANCH   2   3
ATOM      3  C   UNL     1       0.431   3.894   0.334  1.00  0.00     0.116 C 
BRANCH   3   4
ATOM      4  N   UNL     1      -0.979   3.609   0.192  1.00  0.00    -0.352 N 
ATOM      5  C   UNL     1      -1.732   2.501  -0.101  1.00  0.00     0.253 C 
ATOM      6  O   UNL     1      -2.929   2.761  -0.199  1.00  0.00    -0.269 OA
ATOM      7  H   UNL     1      -1.536   4.407   0.341  1.00  0.00     0.163 HD
BRANCH   5   8
ATOM      8  C   UNL     1      -1.200   1.094  -0.220  1.00  0.00     0.065 A 
ATOM      9  C   UNL     1       0.768  -0.384  -0.238  1.00  0.00     0.032 A 
ATOM     10  C   UNL     1      -0.048  -1.472   0.031  1.00  0.00     0.027 A 
ATOM     11  C   UNL     1       0.172   0.865  -0.430  1.00  0.00     0.041 A 
ATOM     12  C   UNL     1      -1.428  -1.299   0.132  1.00  0.00     0.029 A 
ATOM     13  C   UNL     1      -2.034  -0.034  -0.017  1.00  0.00     0.050 A 
BRANCH   9  14
ATOM     14  N   UNL     1       2.131  -0.550  -0.429  1.00  0.00    -0.399 N 
ATOM     15  H   UNL     1       2.544  -1.433  -0.292  1.00  0.00     0.156 HD
ATOM     16  H   UNL     1       2.687   0.215  -0.703  1.00  0.00     0.156 HD
ENDBRANCH   9  14
BRANCH  13  17
ATOM     17  N   UNL     1      -3.436  -0.017   0.034  1.00  0.00    -0.370 N 
ATOM     18  C   UNL     1      -4.337  -0.383   1.085  1.00  0.00     0.125 C 
ATOM     19  C   UNL     1      -4.453   0.494  -0.835  1.00  0.00     0.125 C 
ATOM     20  C   UNL     1      -5.346   0.473   0.376  1.00  0.00     0.005 C 
ATOM     21  C   UNL     1      -6.784   0.057   0.232  1.00  0.00     0.011 C 
ATOM     22  C   UNL     1      -5.756   1.782   1.020  1.00  0.00     0.011 C 
ATOM     23  C   UNL     1      -7.139   1.563   0.363  1.00  0.00     0.001 C 
ENDBRANCH  13  17
ENDBRANCH   5   8
ENDBRANCH   3   4
ENDBRANCH   2   3
ENDBRANCH   1   2
BRANCH   1  24
ATOM     24  C   UNL     1       0.874   6.885  -0.453  1.00  0.00     0.116 C 
BRANCH  24  25
ATOM     25  N   UNL     1       2.293   6.953  -0.143  1.00  0.00    -0.352 N 
ATOM     26  C   UNL     1       3.058   8.059   0.141  1.00  0.00     0.251 C 
ATOM     27  H   UNL     1       2.769   6.092  -0.135  1.00  0.00     0.163 HD
ATOM     28  O   UNL     1       4.271   7.947   0.258  1.00  0.00    -0.269 OA
BRANCH  26  29
ATOM     29  C   UNL     1       2.405   9.379   0.260  1.00  0.00     0.039 A 
ATOM     30  C   UNL     1       2.939  10.457  -0.449  1.00  0.00     0.014 A 
ATOM     31  C   UNL     1       1.260   9.544   1.043  1.00  0.00     0.014 A 
ATOM     32  C   UNL     1       2.285  11.691  -0.423  1.00  0.00     0.010 A 
ATOM     33  C   UNL     1       0.576  10.756   1.018  1.00  0.00     0.010 A 
ATOM     34  C   UNL     1       1.080  11.840   0.283  1.00  0.00    -0.014 A 
BRANCH  34  35
ATOM     35  C   UNL     1       0.332  13.122   0.261  1.00  0.00     0.031 A 
ATOM     36  C   UNL     1       0.163  13.915   1.527  1.00  0.00     0.074 A 
ATOM     37  C   UNL     1      -0.254  13.530  -0.881  1.00  0.00     0.049 A 
ATOM     38  N   UNL     1      -0.520  15.011   1.732  1.00  0.00    -0.248 NA
ATOM     39  C   UNL     1       0.827  13.384   2.726  1.00  0.00     0.031 C 
ATOM     40  C   UNL     1      -0.197  12.819  -2.161  1.00  0.00     0.029 A 
ATOM     41  N   UNL     1      -1.021  14.635  -1.151  1.00  0.00    -0.354 N 
ATOM     42  C   UNL     1      -0.382  15.295   3.087  1.00  0.00     0.074 A 
ATOM     43  C   UNL     1       0.399  14.219   3.661  1.00  0.00     0.031 C 
ATOM     44  C   UNL     1      -0.883  13.514  -3.081  1.00  0.00     0.029 A 
ATOM     45  C   UNL     1      -1.463  14.697  -2.452  1.00  0.00     0.049 A 
ATOM     46  H   UNL     1      -1.235  15.319  -0.476  1.00  0.00     0.167 HD
ATOM     47  C   UNL     1      -0.845  16.364   3.781  1.00  0.00     0.034 A 
ATOM     48  C   UNL     1      -2.255  15.598  -3.065  1.00  0.00     0.034 A 
ATOM     49  C   UNL     1      -1.615  17.431   3.188  1.00  0.00     0.049 A 
ATOM     50  C   UNL     1      -2.769  16.772  -2.273  1.00  0.00     0.074 A 
ATOM     51  C   UNL     1      -2.087  18.589   3.781  1.00  0.00     0.029 A 
ATOM     52  N   UNL     1      -2.034  17.468   1.863  1.00  0.00    -0.354 N 
ATOM     53  N   UNL     1      -2.586  17.056  -1.003  1.00  0.00    -0.248 NA
ATOM     54  C   UNL     1      -3.586  17.753  -2.998  1.00  0.00     0.031 C 
ATOM     55  C   UNL     1      -2.842  19.292   2.835  1.00  0.00     0.029 A 
ATOM     56  C   UNL     1      -2.781  18.612   1.629  1.00  0.00     0.049 A 
ATOM     57  H   UNL     1      -1.830  16.780   1.188  1.00  0.00     0.167 HD
ATOM     58  C   UNL     1      -3.241  18.265  -0.787  1.00  0.00     0.074 A 
ATOM     59  C   UNL     1      -3.812  18.660  -2.059  1.00  0.00     0.031 C 
ATOM     60  C   UNL     1      -3.355  18.986   0.357  1.00  0.00     0.034 A 
BRANCH  47  61
ATOM     61  C   UNL     1      -0.550  16.407   5.263  1.00  0.00     0.023 A 
ATOM     62  C   UNL     1       0.768  16.457   5.751  1.00  0.00     0.031 A 
ATOM     63  C   UNL     1      -1.595  16.353   6.201  1.00  0.00     0.131 A 
ATOM     64  C   UNL     1       1.010  16.363   7.129  1.00  0.00     0.055 A 
ATOM     65  C   UNL     1      -1.351  16.348   7.577  1.00  0.00     0.041 A 
ATOM     66  F   UNL     1      -2.874  16.285   5.798  1.00  0.00    -0.206 F 
ATOM     67  C   UNL     1      -0.041  16.334   8.048  1.00  0.00     0.022 A 
BRANCH  64  68
ATOM     68  S   UNL     1       2.717  16.117   7.692  1.00  0.00     0.124 S 
ATOM     69  O   UNL     1       3.080  14.882   7.000  1.00  0.00    -0.237 OA
ATOM     70  O   UNL     1       3.380  17.329   7.228  1.00  0.00    -0.237 OA
ATOM     71  O   UNL     1       2.585  15.993   9.143  1.00  0.00    -0.744 OA
ENDBRANCH  64  68
ENDBRANCH  47  61
BRANCH  48  72
ATOM     72  C   UNL     1      -2.617  15.428  -4.500  1.00  0.00     0.023 A 
ATOM     73  C   UNL     1      -2.165  16.335  -5.472  1.00  0.00     0.031 A 
ATOM     74  C   UNL     1      -3.443  14.370  -4.918  1.00  0.00     0.131 A 
ATOM     75  C   UNL     1      -2.576  16.193  -6.806  1.00  0.00     0.055 A 
ATOM     76  C   UNL     1      -3.810  14.204  -6.255  1.00  0.00     0.041 A 
ATOM     77  F   UNL     1      -3.894  13.470  -4.030  1.00  0.00    -0.206 F 
ATOM     78  C   UNL     1      -3.385  15.127  -7.206  1.00  0.00     0.022 A 
BRANCH  75  79
ATOM     79  S   UNL     1      -2.091  17.465  -8.004  1.00  0.00     0.124 S 
ATOM     80  O   UNL     1      -2.671  18.666  -7.415  1.00  0.00    -0.237 OA
ATOM     81  O   UNL     1      -0.635  17.373  -7.971  1.00  0.00    -0.237 OA
ATOM     82  O   UNL     1      -2.713  17.016  -9.248  1.00  0.00    -0.744 OA
ENDBRANCH  75  79
ENDBRANCH  48  72
BRANCH  60  83
ATOM     83  C   UNL     1      -4.089  20.301   0.266  1.00  0.00     0.023 A 
ATOM     84  C   UNL     1      -5.471  20.363   0.017  1.00  0.00     0.031 A 
ATOM     85  C   UNL     1      -3.388  21.511   0.419  1.00  0.00     0.131 A 
ATOM     86  C   UNL     1      -6.100  21.609  -0.123  1.00  0.00     0.055 A 
ATOM     87  C   UNL     1      -4.030  22.747   0.336  1.00  0.00     0.041 A 
ATOM     88  F   UNL     1      -2.067  21.510   0.655  1.00  0.00    -0.206 F 
ATOM     89  C   UNL     1      -5.391  22.801   0.051  1.00  0.00     0.022 A 
BRANCH  86  90
ATOM     90  S   UNL     1      -7.844  21.655  -0.620  1.00  0.00     0.124 S 
ATOM     91  O   UNL     1      -7.814  20.954  -1.899  1.00  0.00    -0.237 OA
ATOM     92  O   UNL     1      -8.500  20.952   0.478  1.00  0.00    -0.237 OA
ATOM     93  O   UNL     1      -8.140  23.084  -0.703  1.00  0.00    -0.744 OA
ENDBRANCH  86  90
ENDBRANCH  60  83
ENDBRANCH  34  35
ENDBRANCH  26  29
ENDBRANCH  24  25
ENDBRANCH   1  24
TORSDOF 16
