REMARK SMILES Cc1ccc(S(=O)(=O)n2cc(C(=O)C(=O)NCC(=O)N[C@@H](Cc3c[nH]c4ccccc34)C(=O)NCCCCNC(=O)c3ccc(-c4c5nc(c(-c6cc(S(=O)(=O)[O-])ccc6F)c6ccc([nH]6)c(-c6cc(S(=O)(=O)[O-])ccc6F)c6nc(c(-c7cc(S(=O)(=O)[O-])ccc7F)c7ccc4[nH]7)C=C6)C=C5)cc3)c3ccccc32)cc1
REMARK SMILES IDX 32 1 33 2 34 3 21 5 20 6 18 7 19 8 17 10 16 11 14 12 15 13
REMARK SMILES IDX 12 15 13 16 11 17 9 18 10 19 110 20 105 21 109 22 106 23
REMARK SMILES IDX 108 24 107 25 6 26 7 27 8 28 5 29 1 30 2 31 3 32 112 33 4 34
REMARK SMILES IDX 111 35 22 36 23 37 24 38 31 39 25 40 26 41 30 42 27 44 29 45
REMARK SMILES IDX 28 46 35 47 36 48 37 49 38 50 39 51 40 52 41 54 42 55 43 56
REMARK SMILES IDX 104 57 44 58 103 59 45 60 46 61 47 62 97 63 48 64 102 65
REMARK SMILES IDX 96 66 98 67 49 68 101 69 95 70 94 71 50 73 82 74 62 75 81 76
REMARK SMILES IDX 63 77 66 78 80 79 99 80 64 81 65 82 79 84 100 85 67 86 51 87
REMARK SMILES IDX 52 88 60 89 53 90 59 91 61 92 58 93 54 94 55 95 56 96 57 97
REMARK SMILES IDX 83 98 84 99 92 100 85 101 91 102 93 103 90 104 86 105 87 106
REMARK SMILES IDX 88 107 89 108 68 109 69 110 77 111 70 112 76 113 78 114
REMARK SMILES IDX 75 115 71 116 72 117 73 118 74 119
REMARK H PARENT 34 4 20 9 16 14 25 43 39 53 98 72 66 83
REMARK Flexibility Score: inf
ROOT
ATOM      1  C   UNL     1      -9.787   0.282   3.252  1.00  0.00     0.242 C 
ATOM      2  O   UNL     1      -8.934  -0.595   3.059  1.00  0.00    -0.273 OA
ATOM      3  N   UNL     1     -10.730   0.007   4.194  1.00  0.00    -0.354 N 
ATOM      4  H   UNL     1     -10.845  -0.952   4.384  1.00  0.00     0.163 HD
ENDROOT
BRANCH   1   5
ATOM      5  C   UNL     1      -9.677   1.615   2.478  1.00  0.00     0.175 C 
BRANCH   5   6
ATOM      6  N   UNL     1     -10.956   2.176   2.030  1.00  0.00    -0.342 N 
ATOM      7  C   UNL     1     -11.438   2.207   0.750  1.00  0.00     0.240 C 
ATOM      8  O   UNL     1     -12.646   2.363   0.565  1.00  0.00    -0.273 OA
ATOM      9  H   UNL     1     -11.528   2.573   2.726  1.00  0.00     0.164 HD
BRANCH   7  10
ATOM     10  C   UNL     1     -10.468   1.986  -0.425  1.00  0.00     0.216 C 
BRANCH  10  11
ATOM     11  N   UNL     1      -9.360   2.945  -0.358  1.00  0.00    -0.340 N 
ATOM     12  C   UNL     1      -8.024   2.756  -0.658  1.00  0.00     0.292 C 
ATOM     13  O   UNL     1      -7.202   3.648  -0.483  1.00  0.00    -0.265 OA
ATOM     14  H   UNL     1      -9.603   3.851  -0.058  1.00  0.00     0.164 HD
BRANCH  12  15
ATOM     15  C   UNL     1      -7.570   1.407  -1.223  1.00  0.00     0.252 C 
ATOM     16  O   UNL     1      -8.212   0.975  -2.181  1.00  0.00    -0.283 OA
BRANCH  15  17
ATOM     17  C   UNL     1      -6.529   0.608  -0.559  1.00  0.00     0.054 A 
ATOM     18  N   UNL     1      -4.656  -0.168   0.454  1.00  0.00    -0.240 N 
ATOM     19  C   UNL     1      -5.259   0.969  -0.094  1.00  0.00     0.117 A 
ATOM     20  C   UNL     1      -5.661  -1.141   0.584  1.00  0.00     0.065 A 
ATOM     21  C   UNL     1      -6.643  -0.798  -0.341  1.00  0.00     0.012 A 
ATOM     22  C   UNL     1      -5.638  -2.404   1.203  1.00  0.00     0.028 A 
ATOM     23  C   UNL     1      -7.508  -1.809  -0.811  1.00  0.00     0.011 A 
ATOM     24  C   UNL     1      -6.451  -3.403   0.669  1.00  0.00     0.002 A 
ATOM     25  C   UNL     1      -7.345  -3.121  -0.355  1.00  0.00     0.001 A 
BRANCH  18  26
ATOM     26  S   UNL     1      -3.165  -0.880  -0.149  1.00  0.00     0.268 S 
ATOM     27  O   UNL     1      -3.434  -1.089  -1.562  1.00  0.00    -0.201 OA
ATOM     28  O   UNL     1      -2.961  -2.012   0.746  1.00  0.00    -0.201 OA
BRANCH  26  29
ATOM     29  C   UNL     1      -1.593  -0.095  -0.084  1.00  0.00     0.088 A 
ATOM     30  C   UNL     1       2.606   0.925   0.003  1.00  0.00     0.044 C 
ATOM     31  C   UNL     1       1.138   0.616  -0.062  1.00  0.00    -0.051 A 
ATOM     32  C   UNL     1       0.776  -0.699  -0.317  1.00  0.00     0.005 A 
ATOM     33  C   UNL     1       0.123   1.570   0.176  1.00  0.00     0.005 A 
ATOM     34  C   UNL     1      -0.565  -1.037  -0.339  1.00  0.00     0.022 A 
ATOM     35  C   UNL     1      -1.254   1.223   0.170  1.00  0.00     0.022 A 
ENDBRANCH  26  29
ENDBRANCH  18  26
ENDBRANCH  15  17
ENDBRANCH  12  15
ENDBRANCH  10  11
ENDBRANCH   7  10
ENDBRANCH   5   6
BRANCH   5  36
ATOM     36  C   UNL     1      -8.695   2.643   3.064  1.00  0.00     0.072 C 
BRANCH  36  37
ATOM     37  C   UNL     1      -8.971   3.075   4.460  1.00  0.00    -0.020 A 
ATOM     38  C   UNL     1      -8.714   2.332   5.600  1.00  0.00     0.087 A 
ATOM     39  C   UNL     1      -9.509   4.329   4.888  1.00  0.00     0.003 A 
ATOM     40  N   UNL     1      -9.202   3.019   6.677  1.00  0.00    -0.361 N 
ATOM     41  C   UNL     1      -9.718   4.218   6.257  1.00  0.00     0.046 A 
ATOM     42  C   UNL     1      -9.872   5.540   4.257  1.00  0.00     0.010 A 
ATOM     43  H   UNL     1      -9.185   2.702   7.609  1.00  0.00     0.166 HD
ATOM     44  C   UNL     1     -10.357   5.203   7.000  1.00  0.00     0.026 A 
ATOM     45  C   UNL     1     -10.457   6.567   5.013  1.00  0.00     0.001 A 
ATOM     46  C   UNL     1     -10.722   6.386   6.364  1.00  0.00     0.002 A 
ENDBRANCH  36  37
ENDBRANCH   5  36
ENDBRANCH   1   5
BRANCH   3  47
ATOM     47  C   UNL     1     -11.602   0.879   4.974  1.00  0.00     0.116 C 
BRANCH  47  48
ATOM     48  C   UNL     1     -13.022   0.325   5.133  1.00  0.00     0.023 C 
BRANCH  48  49
ATOM     49  C   UNL     1     -13.135  -0.976   5.935  1.00  0.00     0.023 C 
BRANCH  49  50
ATOM     50  C   UNL     1     -12.680  -0.885   7.387  1.00  0.00     0.116 C 
BRANCH  50  51
ATOM     51  N   UNL     1     -13.678  -0.423   8.334  1.00  0.00    -0.352 N 
ATOM     52  C   UNL     1     -13.608  -0.315   9.718  1.00  0.00     0.251 C 
ATOM     53  H   UNL     1     -14.534  -0.144   7.936  1.00  0.00     0.163 HD
ATOM     54  O   UNL     1     -14.619  -0.120  10.364  1.00  0.00    -0.269 OA
BRANCH  52  55
ATOM     55  C   UNL     1     -12.284  -0.305  10.408  1.00  0.00     0.039 A 
ATOM     56  C   UNL     1     -12.130   0.563  11.503  1.00  0.00     0.014 A 
ATOM     57  C   UNL     1     -11.169  -0.954   9.893  1.00  0.00     0.014 A 
ATOM     58  C   UNL     1     -10.855   0.962  11.898  1.00  0.00     0.010 A 
ATOM     59  C   UNL     1      -9.917  -0.470  10.186  1.00  0.00     0.010 A 
ATOM     60  C   UNL     1      -9.771   0.535  11.140  1.00  0.00    -0.014 A 
BRANCH  60  61
ATOM     61  C   UNL     1      -8.452   1.142  11.171  1.00  0.00     0.031 A 
ATOM     62  C   UNL     1      -7.343   0.433  11.834  1.00  0.00     0.074 A 
ATOM     63  C   UNL     1      -8.257   2.248  10.420  1.00  0.00     0.049 A 
ATOM     64  N   UNL     1      -6.227   0.974  12.170  1.00  0.00    -0.248 NA
ATOM     65  C   UNL     1      -7.435  -0.974  12.212  1.00  0.00     0.031 C 
ATOM     66  C   UNL     1      -6.988   2.836  10.004  1.00  0.00     0.029 A 
ATOM     67  N   UNL     1      -9.209   3.202  10.042  1.00  0.00    -0.354 N 
ATOM     68  C   UNL     1      -5.369  -0.032  12.559  1.00  0.00     0.074 A 
ATOM     69  C   UNL     1      -6.187  -1.219  12.619  1.00  0.00     0.031 C 
ATOM     70  C   UNL     1      -7.194   4.137   9.732  1.00  0.00     0.029 A 
ATOM     71  C   UNL     1      -8.560   4.442  10.138  1.00  0.00     0.049 A 
ATOM     72  H   UNL     1     -10.139   3.037   9.767  1.00  0.00     0.167 HD
ATOM     73  C   UNL     1      -4.037   0.235  12.661  1.00  0.00     0.034 A 
ATOM     74  C   UNL     1      -8.913   5.410  11.038  1.00  0.00     0.034 A 
ATOM     75  C   UNL     1      -3.779   1.651  12.407  1.00  0.00     0.049 A 
ATOM     76  C   UNL     1      -7.755   5.766  11.950  1.00  0.00     0.074 A 
ATOM     77  C   UNL     1      -3.387   2.340  11.272  1.00  0.00     0.029 A 
ATOM     78  N   UNL     1      -4.250   2.600  13.306  1.00  0.00    -0.354 N 
ATOM     79  N   UNL     1      -6.753   4.968  12.210  1.00  0.00    -0.248 NA
ATOM     80  C   UNL     1      -7.640   7.052  12.628  1.00  0.00     0.031 C 
ATOM     81  C   UNL     1      -3.725   3.707  11.457  1.00  0.00     0.029 A 
ATOM     82  C   UNL     1      -4.272   3.851  12.722  1.00  0.00     0.049 A 
ATOM     83  H   UNL     1      -4.530   2.407  14.229  1.00  0.00     0.167 HD
ATOM     84  C   UNL     1      -5.868   5.603  13.044  1.00  0.00     0.074 A 
ATOM     85  C   UNL     1      -6.470   6.906  13.274  1.00  0.00     0.031 C 
ATOM     86  C   UNL     1      -4.714   5.013  13.479  1.00  0.00     0.034 A 
BRANCH  73  87
ATOM     87  C   UNL     1      -2.946  -0.812  12.696  1.00  0.00     0.023 A 
ATOM     88  C   UNL     1      -1.678  -0.490  12.167  1.00  0.00     0.031 A 
ATOM     89  C   UNL     1      -3.079  -2.129  13.176  1.00  0.00     0.131 A 
ATOM     90  C   UNL     1      -0.663  -1.457  12.038  1.00  0.00     0.055 A 
ATOM     91  C   UNL     1      -2.090  -3.108  13.001  1.00  0.00     0.041 A 
ATOM     92  F   UNL     1      -4.147  -2.517  13.884  1.00  0.00    -0.206 F 
ATOM     93  C   UNL     1      -0.876  -2.778  12.418  1.00  0.00     0.022 A 
BRANCH  90  94
ATOM     94  S   UNL     1       0.946  -0.958  11.367  1.00  0.00     0.124 S 
ATOM     95  O   UNL     1       0.590  -0.473  10.037  1.00  0.00    -0.237 OA
ATOM     96  O   UNL     1       1.383   0.049  12.327  1.00  0.00    -0.237 OA
ATOM     97  O   UNL     1       1.719  -2.200  11.383  1.00  0.00    -0.744 OA
ENDBRANCH  90  94
ENDBRANCH  73  87
BRANCH  74  98
ATOM     98  C   UNL     1     -10.349   5.392  11.461  1.00  0.00     0.023 A 
ATOM     99  C   UNL     1     -11.331   5.689  10.496  1.00  0.00     0.031 A 
ATOM    100  C   UNL     1     -10.760   4.698  12.608  1.00  0.00     0.131 A 
ATOM    101  C   UNL     1     -12.601   5.094  10.574  1.00  0.00     0.055 A 
ATOM    102  C   UNL     1     -12.063   4.198  12.732  1.00  0.00     0.041 A 
ATOM    103  F   UNL     1      -9.873   4.366  13.556  1.00  0.00    -0.206 F 
ATOM    104  C   UNL     1     -12.974   4.345  11.688  1.00  0.00     0.022 A 
BRANCH 101 105
ATOM    105  S   UNL     1     -13.713   5.146   9.134  1.00  0.00     0.124 S 
ATOM    106  O   UNL     1     -13.421   6.452   8.550  1.00  0.00    -0.237 OA
ATOM    107  O   UNL     1     -13.251   3.987   8.374  1.00  0.00    -0.237 OA
ATOM    108  O   UNL     1     -15.037   5.017   9.732  1.00  0.00    -0.744 OA
ENDBRANCH 101 105
ENDBRANCH  74  98
BRANCH  86 109
ATOM    109  C   UNL     1      -3.843   5.512  14.613  1.00  0.00     0.023 A 
ATOM    110  C   UNL     1      -4.290   6.430  15.572  1.00  0.00     0.031 A 
ATOM    111  C   UNL     1      -2.547   4.981  14.832  1.00  0.00     0.131 A 
ATOM    112  C   UNL     1      -3.458   6.845  16.626  1.00  0.00     0.055 A 
ATOM    113  C   UNL     1      -1.758   5.323  15.934  1.00  0.00     0.041 A 
ATOM    114  F   UNL     1      -1.993   4.093  13.993  1.00  0.00    -0.206 F 
ATOM    115  C   UNL     1      -2.206   6.275  16.834  1.00  0.00     0.022 A 
BRANCH 112 116
ATOM    116  S   UNL     1      -4.030   8.204  17.675  1.00  0.00     0.124 S 
ATOM    117  O   UNL     1      -4.134   9.299  16.713  1.00  0.00    -0.237 OA
ATOM    118  O   UNL     1      -5.296   7.692  18.189  1.00  0.00    -0.237 OA
ATOM    119  O   UNL     1      -2.967   8.347  18.667  1.00  0.00    -0.744 OA
ENDBRANCH 112 116
ENDBRANCH  86 109
ENDBRANCH  60  61
ENDBRANCH  52  55
ENDBRANCH  50  51
ENDBRANCH  49  50
ENDBRANCH  48  49
ENDBRANCH  47  48
ENDBRANCH   3  47
TORSDOF 23
