REMARK SMILES C[C@H](CCC(=O)NCCCCNC(=O)c1ccc(-c2c3nc(c(-c4cc(S(=O)(=O)[O-])ccc4F)c4ccc([nH]4)c(-c4cc(S(=O)(=O)[O-])ccc4F)c4nc(c(-c5cc(S(=O)(=O)[O-])ccc5F)c5ccc2[nH]5)C=C4)C=C3)cc1)NC(=O)c1ccc(C[NH3+])o1
REMARK SMILES IDX 8 1 7 2 5 3 6 4 4 6 3 7 2 8 1 9 78 10 79 11 80 13 81 14
REMARK SMILES IDX 82 15 87 16 83 17 84 18 85 19 86 20 9 24 10 25 11 26 12 27
REMARK SMILES IDX 13 28 14 30 15 31 16 32 77 33 17 34 76 35 18 36 19 37 20 38
REMARK SMILES IDX 70 39 21 40 75 41 69 42 71 43 22 44 74 45 68 46 67 47 23 49
REMARK SMILES IDX 55 50 35 51 54 52 36 53 39 54 53 55 72 56 37 57 38 58 52 60
REMARK SMILES IDX 73 61 40 62 24 63 25 64 33 65 26 66 32 67 34 68 31 69 27 70
REMARK SMILES IDX 28 71 29 72 30 73 56 74 57 75 65 76 58 77 64 78 66 79 63 80
REMARK SMILES IDX 59 81 60 82 61 83 62 84 41 85 42 86 50 87 43 88 49 89 51 90
REMARK SMILES IDX 48 91 44 92 45 93 46 94 47 95
REMARK H PARENT 7 5 78 12 86 21 86 22 86 23 12 29 71 48 39 59
REMARK Flexibility Score: inf
ROOT
ATOM      1  C   UNL     1       1.987   3.558  -1.050  1.00  0.00     0.116 C 
ENDROOT
BRANCH   1   2
ATOM      2  N   UNL     1       2.820   2.368  -1.250  1.00  0.00    -0.356 N 
ATOM      3  C   UNL     1       2.561   1.030  -1.335  1.00  0.00     0.220 C 
ATOM      4  O   UNL     1       3.530   0.266  -1.285  1.00  0.00    -0.275 OA
ATOM      5  H   UNL     1       3.777   2.580  -1.343  1.00  0.00     0.163 HD
BRANCH   3   6
ATOM      6  C   UNL     1       1.162   0.455  -1.551  1.00  0.00     0.102 C 
BRANCH   6   7
ATOM      7  C   UNL     1       0.646  -0.493  -0.422  1.00  0.00     0.034 C 
BRANCH   7   8
ATOM      8  C   UNL     1       0.041   0.154   0.860  1.00  0.00     0.079 C 
ATOM      9  C   UNL     1       0.080   1.643   0.740  1.00  0.00     0.031 C 
BRANCH   8  10
ATOM     10  N   UNL     1      -1.328  -0.223   1.169  1.00  0.00    -0.347 N 
ATOM     11  C   UNL     1      -2.019   0.004   2.355  1.00  0.00     0.287 C 
ATOM     12  H   UNL     1      -1.822  -0.693   0.459  1.00  0.00     0.164 HD
ATOM     13  O   UNL     1      -3.215  -0.298   2.366  1.00  0.00    -0.266 OA
BRANCH  11  14
ATOM     14  C   UNL     1      -1.339   0.558   3.520  1.00  0.00     0.191 A 
ATOM     15  C   UNL     1      -0.899   1.829   3.863  1.00  0.00     0.057 A 
ATOM     16  O   UNL     1      -1.162  -0.265   4.606  1.00  0.00    -0.450 OA
ATOM     17  C   UNL     1      -0.333   1.753   5.155  1.00  0.00     0.052 A 
ATOM     18  C   UNL     1      -0.583   0.476   5.596  1.00  0.00     0.159 A 
BRANCH  18  19
ATOM     19  C   UNL     1      -0.390  -0.183   6.909  1.00  0.00     0.335 C 
BRANCH  19  20
ATOM     20  N   UNL     1       0.967  -0.697   7.039  1.00  0.00    -0.351 N 
ATOM     21  H   UNL     1       1.140  -1.388   6.308  1.00  0.00     0.344 HD
ATOM     22  H   UNL     1       1.078  -1.135   7.953  1.00  0.00     0.344 HD
ATOM     23  H   UNL     1       1.632   0.070   6.946  1.00  0.00     0.344 HD
ENDBRANCH  19  20
ENDBRANCH  18  19
ENDBRANCH  11  14
ENDBRANCH   8  10
ENDBRANCH   7   8
ENDBRANCH   6   7
ENDBRANCH   3   6
ENDBRANCH   1   2
BRANCH   1  24
ATOM     24  C   UNL     1       1.978   3.968   0.436  1.00  0.00     0.023 C 
BRANCH  24  25
ATOM     25  C   UNL     1       2.583   5.301   0.817  1.00  0.00     0.023 C 
BRANCH  25  26
ATOM     26  C   UNL     1       1.743   6.501   0.426  1.00  0.00     0.116 C 
BRANCH  26  27
ATOM     27  N   UNL     1       0.428   6.571   1.065  1.00  0.00    -0.352 N 
ATOM     28  C   UNL     1      -0.189   7.659   1.659  1.00  0.00     0.251 C 
ATOM     29  H   UNL     1      -0.087   5.732   1.073  1.00  0.00     0.163 HD
ATOM     30  O   UNL     1      -1.284   7.543   2.186  1.00  0.00    -0.269 OA
BRANCH  28  31
ATOM     31  C   UNL     1       0.544   8.945   1.697  1.00  0.00     0.039 A 
ATOM     32  C   UNL     1       0.717   9.599   2.919  1.00  0.00     0.014 A 
ATOM     33  C   UNL     1       1.199   9.396   0.553  1.00  0.00     0.014 A 
ATOM     34  C   UNL     1       1.662  10.624   3.015  1.00  0.00     0.010 A 
ATOM     35  C   UNL     1       2.235  10.306   0.687  1.00  0.00     0.010 A 
ATOM     36  C   UNL     1       2.483  10.933   1.918  1.00  0.00    -0.014 A 
BRANCH  36  37
ATOM     37  C   UNL     1       3.599  11.914   2.009  1.00  0.00     0.031 A 
ATOM     38  C   UNL     1       3.632  13.077   1.052  1.00  0.00     0.074 A 
ATOM     39  C   UNL     1       4.626  11.702   2.857  1.00  0.00     0.049 A 
ATOM     40  N   UNL     1       4.583  13.946   0.832  1.00  0.00    -0.248 NA
ATOM     41  C   UNL     1       2.460  13.239   0.177  1.00  0.00     0.031 C 
ATOM     42  C   UNL     1       4.752  10.572   3.782  1.00  0.00     0.029 A 
ATOM     43  N   UNL     1       5.772  12.427   3.073  1.00  0.00    -0.354 N 
ATOM     44  C   UNL     1       4.144  14.720  -0.238  1.00  0.00     0.074 A 
ATOM     45  C   UNL     1       2.883  14.161  -0.672  1.00  0.00     0.031 C 
ATOM     46  C   UNL     1       5.884  10.705   4.493  1.00  0.00     0.029 A 
ATOM     47  C   UNL     1       6.591  11.899   4.046  1.00  0.00     0.049 A 
ATOM     48  H   UNL     1       5.989  13.250   2.577  1.00  0.00     0.167 HD
ATOM     49  C   UNL     1       4.719  15.819  -0.785  1.00  0.00     0.034 A 
ATOM     50  C   UNL     1       7.776  12.332   4.521  1.00  0.00     0.034 A 
ATOM     51  C   UNL     1       5.940  16.402  -0.291  1.00  0.00     0.049 A 
ATOM     52  C   UNL     1       8.371  13.590   3.938  1.00  0.00     0.074 A 
ATOM     53  C   UNL     1       6.571  17.563  -0.701  1.00  0.00     0.029 A 
ATOM     54  N   UNL     1       6.709  15.872   0.737  1.00  0.00    -0.354 N 
ATOM     55  N   UNL     1       7.917  14.343   2.963  1.00  0.00    -0.248 NA
ATOM     56  C   UNL     1       9.631  14.062   4.527  1.00  0.00     0.031 C 
ATOM     57  C   UNL     1       7.744  17.710   0.047  1.00  0.00     0.029 A 
ATOM     58  C   UNL     1       7.815  16.674   0.966  1.00  0.00     0.049 A 
ATOM     59  H   UNL     1       6.499  15.047   1.231  1.00  0.00     0.167 HD
ATOM     60  C   UNL     1       8.820  15.395   2.845  1.00  0.00     0.074 A 
ATOM     61  C   UNL     1       9.836  15.185   3.856  1.00  0.00     0.031 C 
ATOM     62  C   UNL     1       8.812  16.443   1.982  1.00  0.00     0.034 A 
BRANCH  49  63
ATOM     63  C   UNL     1       4.028  16.442  -1.975  1.00  0.00     0.023 A 
ATOM     64  C   UNL     1       2.720  16.953  -1.884  1.00  0.00     0.031 A 
ATOM     65  C   UNL     1       4.658  16.473  -3.231  1.00  0.00     0.131 A 
ATOM     66  C   UNL     1       2.049  17.371  -3.042  1.00  0.00     0.055 A 
ATOM     67  C   UNL     1       4.018  16.982  -4.363  1.00  0.00     0.041 A 
ATOM     68  F   UNL     1       5.899  15.984  -3.386  1.00  0.00    -0.206 F 
ATOM     69  C   UNL     1       2.697  17.415  -4.277  1.00  0.00     0.022 A 
BRANCH  66  70
ATOM     70  S   UNL     1       0.267  17.692  -2.936  1.00  0.00     0.124 S 
ATOM     71  O   UNL     1      -0.240  16.387  -2.516  1.00  0.00    -0.237 OA
ATOM     72  O   UNL     1       0.196  18.755  -1.940  1.00  0.00    -0.237 OA
ATOM     73  O   UNL     1      -0.092  18.084  -4.296  1.00  0.00    -0.744 OA
ENDBRANCH  66  70
ENDBRANCH  49  63
BRANCH  50  74
ATOM     74  C   UNL     1       8.478  11.595   5.610  1.00  0.00     0.023 A 
ATOM     75  C   UNL     1       8.650  12.178   6.876  1.00  0.00     0.031 A 
ATOM     76  C   UNL     1       9.026  10.319   5.394  1.00  0.00     0.131 A 
ATOM     77  C   UNL     1       9.394  11.511   7.862  1.00  0.00     0.055 A 
ATOM     78  C   UNL     1       9.725   9.637   6.394  1.00  0.00     0.041 A 
ATOM     79  F   UNL     1       8.883   9.710   4.206  1.00  0.00    -0.206 F 
ATOM     80  C   UNL     1       9.924  10.239   7.633  1.00  0.00     0.022 A 
BRANCH  77  81
ATOM     81  S   UNL     1       9.727  12.367   9.427  1.00  0.00     0.124 S 
ATOM     82  O   UNL     1      10.406  13.573   8.967  1.00  0.00    -0.237 OA
ATOM     83  O   UNL     1       8.382  12.551   9.962  1.00  0.00    -0.237 OA
ATOM     84  O   UNL     1      10.564  11.420  10.161  1.00  0.00    -0.744 OA
ENDBRANCH  77  81
ENDBRANCH  50  74
BRANCH  62  85
ATOM     85  C   UNL     1       9.910  17.463   2.138  1.00  0.00     0.023 A 
ATOM     86  C   UNL     1      11.246  17.161   1.826  1.00  0.00     0.031 A 
ATOM     87  C   UNL     1       9.611  18.753   2.610  1.00  0.00     0.131 A 
ATOM     88  C   UNL     1      12.244  18.123   2.038  1.00  0.00     0.055 A 
ATOM     89  C   UNL     1      10.600  19.723   2.766  1.00  0.00     0.041 A 
ATOM     90  F   UNL     1       8.349  19.090   2.921  1.00  0.00    -0.206 F 
ATOM     91  C   UNL     1      11.927  19.407   2.491  1.00  0.00     0.022 A 
BRANCH  88  92
ATOM     92  S   UNL     1      13.976  17.649   1.785  1.00  0.00     0.124 S 
ATOM     93  O   UNL     1      14.130  16.548   2.731  1.00  0.00    -0.237 OA
ATOM     94  O   UNL     1      13.997  17.284   0.373  1.00  0.00    -0.237 OA
ATOM     95  O   UNL     1      14.716  18.864   2.122  1.00  0.00    -0.744 OA
ENDBRANCH  88  92
ENDBRANCH  62  85
ENDBRANCH  36  37
ENDBRANCH  28  31
ENDBRANCH  26  27
ENDBRANCH  25  26
ENDBRANCH  24  25
ENDBRANCH   1  24
TORSDOF 20
