REMARK SMILES O=C(NCCCCNC(=O)c1nc(/N=C/c2cccc([N+](=O)[O-])c2)n[nH]1)c1ccc(-c2c3nc(c(-c4cc(S(=O)(=O)[O-])ccc4F)c4ccc([nH]4)c(-c4cc(S(=O)(=O)[O-])ccc4F)c4nc(c(-c5cc(S(=O)(=O)[O-])ccc5F)c5ccc2[nH]5)C=C4)C=C3)cc1
REMARK SMILES IDX 5 1 4 2 3 3 1 4 2 5 27 7 28 8 89 9 29 10 88 11 30 12 31 13
REMARK SMILES IDX 32 14 82 15 33 16 87 17 81 18 83 19 34 20 86 21 80 22 79 23
REMARK SMILES IDX 35 25 67 26 47 27 66 28 48 29 51 30 65 31 84 32 49 33 50 34
REMARK SMILES IDX 64 36 85 37 52 38 36 39 37 40 45 41 38 42 44 43 46 44 43 45
REMARK SMILES IDX 39 46 40 47 41 48 42 49 68 50 69 51 77 52 70 53 76 54 78 55
REMARK SMILES IDX 75 56 71 57 72 58 73 59 74 60 53 61 54 62 62 63 55 64 61 65
REMARK SMILES IDX 63 66 60 67 56 68 57 69 58 70 59 71 6 72 7 73 8 74 9 75
REMARK SMILES IDX 10 77 11 78 12 79 26 80 13 81 25 82 14 84 15 85 16 86 17 87
REMARK SMILES IDX 24 88 18 89 20 90 19 91 21 92 22 93 23 94
REMARK H PARENT 3 6 83 24 51 35 8 76 26 83
REMARK Flexibility Score: inf
ROOT
ATOM      1  C   UNL     1       5.056   2.541   0.734  1.00  0.00     0.023 C 
ENDROOT
BRANCH   1   2
ATOM      2  C   UNL     1       4.704   1.061   0.639  1.00  0.00     0.116 C 
BRANCH   2   3
ATOM      3  N   UNL     1       3.271   0.819   0.680  1.00  0.00    -0.352 N 
ATOM      4  O   UNL     1       1.298   0.012  -0.055  1.00  0.00    -0.269 OA
ATOM      5  C   UNL     1       2.522  -0.003  -0.126  1.00  0.00     0.251 C 
ATOM      6  H   UNL     1       2.773   1.308   1.374  1.00  0.00     0.163 HD
BRANCH   5   7
ATOM      7  C   UNL     1       3.208  -0.891  -1.088  1.00  0.00     0.039 A 
ATOM      8  C   UNL     1       4.296  -1.669  -0.679  1.00  0.00     0.014 A 
ATOM      9  C   UNL     1       2.755  -0.946  -2.408  1.00  0.00     0.014 A 
ATOM     10  C   UNL     1       4.993  -2.425  -1.613  1.00  0.00     0.010 A 
ATOM     11  C   UNL     1       3.413  -1.763  -3.329  1.00  0.00     0.010 A 
ATOM     12  C   UNL     1       4.542  -2.502  -2.940  1.00  0.00    -0.014 A 
BRANCH  12  13
ATOM     13  C   UNL     1       5.189  -3.453  -3.876  1.00  0.00     0.031 A 
ATOM     14  C   UNL     1       5.955  -2.970  -5.073  1.00  0.00     0.074 A 
ATOM     15  C   UNL     1       5.055  -4.772  -3.629  1.00  0.00     0.049 A 
ATOM     16  N   UNL     1       6.542  -3.671  -6.008  1.00  0.00    -0.248 NA
ATOM     17  C   UNL     1       6.075  -1.515  -5.249  1.00  0.00     0.031 C 
ATOM     18  C   UNL     1       4.318  -5.342  -2.496  1.00  0.00     0.029 A 
ATOM     19  N   UNL     1       5.517  -5.869  -4.307  1.00  0.00    -0.354 N 
ATOM     20  C   UNL     1       7.082  -2.750  -6.897  1.00  0.00     0.074 A 
ATOM     21  C   UNL     1       6.744  -1.435  -6.394  1.00  0.00     0.031 C 
ATOM     22  C   UNL     1       4.391  -6.679  -2.551  1.00  0.00     0.029 A 
ATOM     23  C   UNL     1       5.114  -7.064  -3.756  1.00  0.00     0.049 A 
ATOM     24  H   UNL     1       6.084  -5.809  -5.110  1.00  0.00     0.167 HD
ATOM     25  C   UNL     1       7.793  -2.989  -8.027  1.00  0.00     0.034 A 
ATOM     26  C   UNL     1       5.266  -8.328  -4.195  1.00  0.00     0.034 A 
ATOM     27  C   UNL     1       8.130  -4.311  -8.497  1.00  0.00     0.049 A 
ATOM     28  C   UNL     1       6.014  -8.555  -5.480  1.00  0.00     0.074 A 
ATOM     29  C   UNL     1       8.928  -4.664  -9.572  1.00  0.00     0.029 A 
ATOM     30  N   UNL     1       7.668  -5.497  -7.941  1.00  0.00    -0.354 N 
ATOM     31  N   UNL     1       6.580  -7.671  -6.270  1.00  0.00    -0.248 NA
ATOM     32  C   UNL     1       6.142  -9.944  -5.936  1.00  0.00     0.031 C 
ATOM     33  C   UNL     1       8.887  -6.056  -9.711  1.00  0.00     0.029 A 
ATOM     34  C   UNL     1       8.118  -6.578  -8.684  1.00  0.00     0.049 A 
ATOM     35  H   UNL     1       7.103  -5.561  -7.138  1.00  0.00     0.167 HD
ATOM     36  C   UNL     1       7.136  -8.401  -7.314  1.00  0.00     0.074 A 
ATOM     37  C   UNL     1       6.865  -9.797  -7.037  1.00  0.00     0.031 C 
ATOM     38  C   UNL     1       7.810  -7.960  -8.406  1.00  0.00     0.034 A 
BRANCH  25  39
ATOM     39  C   UNL     1       8.216  -1.809  -8.864  1.00  0.00     0.023 A 
ATOM     40  C   UNL     1       9.188  -0.893  -8.428  1.00  0.00     0.031 A 
ATOM     41  C   UNL     1       7.662  -1.626 -10.144  1.00  0.00     0.131 A 
ATOM     42  C   UNL     1       9.551   0.185  -9.252  1.00  0.00     0.055 A 
ATOM     43  C   UNL     1       8.067  -0.585 -10.981  1.00  0.00     0.041 A 
ATOM     44  F   UNL     1       6.717  -2.462 -10.603  1.00  0.00    -0.206 F 
ATOM     45  C   UNL     1       9.013   0.332 -10.533  1.00  0.00     0.022 A 
BRANCH  42  46
ATOM     46  S   UNL     1      10.680   1.443  -8.595  1.00  0.00     0.124 S 
ATOM     47  O   UNL     1       9.931   1.944  -7.445  1.00  0.00    -0.237 OA
ATOM     48  O   UNL     1      11.875   0.666  -8.288  1.00  0.00    -0.237 OA
ATOM     49  O   UNL     1      10.819   2.390  -9.699  1.00  0.00    -0.744 OA
ENDBRANCH  42  46
ENDBRANCH  25  39
BRANCH  26  50
ATOM     50  C   UNL     1       4.640  -9.461  -3.459  1.00  0.00     0.023 A 
ATOM     51  C   UNL     1       5.419 -10.482  -2.896  1.00  0.00     0.031 A 
ATOM     52  C   UNL     1       3.240  -9.561  -3.348  1.00  0.00     0.131 A 
ATOM     53  C   UNL     1       4.794 -11.581  -2.287  1.00  0.00     0.055 A 
ATOM     54  C   UNL     1       2.625 -10.626  -2.690  1.00  0.00     0.041 A 
ATOM     55  F   UNL     1       2.447  -8.611  -3.869  1.00  0.00    -0.206 F 
ATOM     56  C   UNL     1       3.404 -11.653  -2.168  1.00  0.00     0.022 A 
BRANCH  53  57
ATOM     57  S   UNL     1       5.824 -12.970  -1.742  1.00  0.00     0.124 S 
ATOM     58  O   UNL     1       6.562 -13.289  -2.959  1.00  0.00    -0.237 OA
ATOM     59  O   UNL     1       6.597 -12.367  -0.662  1.00  0.00    -0.237 OA
ATOM     60  O   UNL     1       4.847 -13.974  -1.324  1.00  0.00    -0.744 OA
ENDBRANCH  53  57
ENDBRANCH  26  50
BRANCH  38  61
ATOM     61  C   UNL     1       8.300  -9.012  -9.365  1.00  0.00     0.023 A 
ATOM     62  C   UNL     1       7.404  -9.755 -10.152  1.00  0.00     0.031 A 
ATOM     63  C   UNL     1       9.674  -9.288  -9.479  1.00  0.00     0.131 A 
ATOM     64  C   UNL     1       7.888 -10.775 -10.984  1.00  0.00     0.055 A 
ATOM     65  C   UNL     1      10.154 -10.266 -10.350  1.00  0.00     0.041 A 
ATOM     66  F   UNL     1      10.570  -8.609  -8.745  1.00  0.00    -0.206 F 
ATOM     67  C   UNL     1       9.258 -11.024 -11.100  1.00  0.00     0.022 A 
BRANCH  64  68
ATOM     68  S   UNL     1       6.695 -11.822 -11.861  1.00  0.00     0.124 S 
ATOM     69  O   UNL     1       5.983 -12.458 -10.757  1.00  0.00    -0.237 OA
ATOM     70  O   UNL     1       5.932 -10.850 -12.636  1.00  0.00    -0.237 OA
ATOM     71  O   UNL     1       7.540 -12.716 -12.651  1.00  0.00    -0.744 OA
ENDBRANCH  64  68
ENDBRANCH  38  61
ENDBRANCH  12  13
ENDBRANCH   5   7
ENDBRANCH   2   3
ENDBRANCH   1   2
BRANCH   1  72
ATOM     72  C   UNL     1       4.553   3.240   1.996  1.00  0.00     0.023 C 
BRANCH  72  73
ATOM     73  C   UNL     1       4.998   2.582   3.301  1.00  0.00     0.116 C 
BRANCH  73  74
ATOM     74  N   UNL     1       6.432   2.731   3.507  1.00  0.00    -0.349 N 
ATOM     75  C   UNL     1       7.086   3.571   4.378  1.00  0.00     0.288 C 
ATOM     76  H   UNL     1       7.007   2.156   2.952  1.00  0.00     0.163 HD
ATOM     77  O   UNL     1       8.296   3.755   4.223  1.00  0.00    -0.266 OA
BRANCH  75  78
ATOM     78  C   UNL     1       6.344   4.228   5.421  1.00  0.00     0.216 A 
ATOM     79  N   UNL     1       5.245   3.793   6.003  1.00  0.00    -0.185 NA
ATOM     80  N   UNL     1       6.696   5.414   5.993  1.00  0.00    -0.253 N 
ATOM     81  C   UNL     1       4.920   4.799   6.861  1.00  0.00     0.268 A 
ATOM     82  N   UNL     1       5.778   5.819   6.890  1.00  0.00    -0.132 NA
ATOM     83  H   UNL     1       7.518   5.912   5.778  1.00  0.00     0.192 HD
BRANCH  81  84
ATOM     84  N   UNL     1       3.743   4.852   7.601  1.00  0.00    -0.218 NA
ATOM     85  C   UNL     1       3.382   3.671   7.984  1.00  0.00     0.123 C 
BRANCH  85  86
ATOM     86  C   UNL     1       2.120   3.453   8.715  1.00  0.00    -0.000 A 
ATOM     87  C   UNL     1       1.956   2.258   9.424  1.00  0.00     0.010 A 
ATOM     88  C   UNL     1       1.105   4.413   8.686  1.00  0.00     0.095 A 
ATOM     89  C   UNL     1       0.777   2.026  10.135  1.00  0.00     0.008 A 
ATOM     90  C   UNL     1      -0.079   4.164   9.389  1.00  0.00     0.270 A 
ATOM     91  C   UNL     1      -0.244   2.978  10.121  1.00  0.00     0.085 A 
BRANCH  90  92
ATOM     92  N   UNL     1      -1.164   5.151   9.357  1.00  0.00     0.062 N 
ATOM     93  O   UNL     1      -2.120   4.978  10.127  1.00  0.00    -0.258 OA
ATOM     94  O   UNL     1      -1.064   6.098   8.565  1.00  0.00    -0.258 OA
ENDBRANCH  90  92
ENDBRANCH  85  86
ENDBRANCH  81  84
ENDBRANCH  75  78
ENDBRANCH  73  74
ENDBRANCH  72  73
ENDBRANCH   1  72
TORSDOF 17
