REMARK SMILES O=C(NCCCCNC(=O)[C@H]1CCCN(C(=O)c2ccc(NC(=O)c3ccccc3)cc2)C1)c1ccc(-c2c3nc(c(-c4cc(S(=O)(=O)[O-])ccc4F)c4ccc([nH]4)c(-c4cc(S(=O)(=O)[O-])ccc4F)c4nc(c(-c5cc(S(=O)(=O)[O-])ccc5F)c5ccc2[nH]5)C=C4)C=C3)cc1
REMARK SMILES IDX 6 1 5 2 4 3 3 4 1 5 2 6 34 8 35 9 96 10 36 11 95 12 37 13
REMARK SMILES IDX 38 14 39 15 89 16 40 17 94 18 88 19 90 20 41 21 93 22 87 23
REMARK SMILES IDX 86 24 42 26 74 27 54 28 73 29 55 30 58 31 72 32 91 33 56 34
REMARK SMILES IDX 57 35 71 37 92 38 59 39 43 40 44 41 52 42 45 43 51 44 53 45
REMARK SMILES IDX 50 46 46 47 47 48 48 49 49 50 75 51 76 52 84 53 77 54 83 55
REMARK SMILES IDX 85 56 82 57 78 58 79 59 80 60 81 61 60 62 61 63 69 64 62 65
REMARK SMILES IDX 68 66 70 67 67 68 63 69 64 70 65 71 66 72 7 73 8 74 9 75
REMARK SMILES IDX 10 77 11 78 12 79 33 80 13 81 15 82 14 83 16 84 17 85 18 86
REMARK SMILES IDX 19 87 32 88 20 89 31 90 21 91 22 92 23 93 24 95 25 96 26 97
REMARK SMILES IDX 30 98 27 99 29 100 28 101
REMARK H PARENT 3 7 90 25 58 36 8 76 22 94
REMARK Flexibility Score: inf
ROOT
ATOM      1  C   UNL     1       3.405   7.029   3.933  1.00  0.00     0.023 C 
ENDROOT
BRANCH   1   2
ATOM      2  C   UNL     1       1.922   6.801   3.654  1.00  0.00     0.023 C 
BRANCH   2   3
ATOM      3  C   UNL     1       0.990   7.368   4.713  1.00  0.00     0.116 C 
BRANCH   3   4
ATOM      4  N   UNL     1       1.139   8.804   4.894  1.00  0.00    -0.352 N 
ATOM      5  O   UNL     1       0.395  10.909   5.249  1.00  0.00    -0.269 OA
ATOM      6  C   UNL     1       0.161   9.704   5.243  1.00  0.00     0.251 C 
ATOM      7  H   UNL     1       2.041   9.172   4.752  1.00  0.00     0.163 HD
BRANCH   6   8
ATOM      8  C   UNL     1      -1.180   9.189   5.578  1.00  0.00     0.039 A 
ATOM      9  C   UNL     1      -1.316   8.152   6.506  1.00  0.00     0.014 A 
ATOM     10  C   UNL     1      -2.297   9.718   4.929  1.00  0.00     0.014 A 
ATOM     11  C   UNL     1      -2.561   7.574   6.712  1.00  0.00     0.010 A 
ATOM     12  C   UNL     1      -3.559   9.186   5.195  1.00  0.00     0.010 A 
ATOM     13  C   UNL     1      -3.697   8.107   6.083  1.00  0.00    -0.014 A 
BRANCH  13  14
ATOM     14  C   UNL     1      -5.037   7.611   6.474  1.00  0.00     0.031 A 
ATOM     15  C   UNL     1      -5.907   6.865   5.506  1.00  0.00     0.074 A 
ATOM     16  C   UNL     1      -5.454   7.866   7.730  1.00  0.00     0.049 A 
ATOM     17  N   UNL     1      -7.119   6.408   5.681  1.00  0.00    -0.248 NA
ATOM     18  C   UNL     1      -5.351   6.602   4.170  1.00  0.00     0.031 C 
ATOM     19  C   UNL     1      -4.677   8.595   8.740  1.00  0.00     0.029 A 
ATOM     20  N   UNL     1      -6.620   7.554   8.376  1.00  0.00    -0.354 N 
ATOM     21  C   UNL     1      -7.485   5.823   4.475  1.00  0.00     0.074 A 
ATOM     22  C   UNL     1      -6.367   5.991   3.570  1.00  0.00     0.031 C 
ATOM     23  C   UNL     1      -5.380   8.656   9.878  1.00  0.00     0.029 A 
ATOM     24  C   UNL     1      -6.683   8.043   9.660  1.00  0.00     0.049 A 
ATOM     25  H   UNL     1      -7.344   7.030   7.961  1.00  0.00     0.167 HD
ATOM     26  C   UNL     1      -8.652   5.208   4.162  1.00  0.00     0.034 A 
ATOM     27  C   UNL     1      -7.693   8.040  10.549  1.00  0.00     0.034 A 
ATOM     28  C   UNL     1      -9.744   5.043   5.092  1.00  0.00     0.049 A 
ATOM     29  C   UNL     1      -8.989   7.391  10.152  1.00  0.00     0.074 A 
ATOM     30  C   UNL     1     -10.933   4.358   4.909  1.00  0.00     0.029 A 
ATOM     31  N   UNL     1      -9.792   5.587   6.369  1.00  0.00    -0.354 N 
ATOM     32  N   UNL     1      -9.296   6.790   9.025  1.00  0.00    -0.248 NA
ATOM     33  C   UNL     1     -10.074   7.422  11.138  1.00  0.00     0.031 C 
ATOM     34  C   UNL     1     -11.728   4.550   6.045  1.00  0.00     0.029 A 
ATOM     35  C   UNL     1     -11.011   5.298   6.965  1.00  0.00     0.049 A 
ATOM     36  H   UNL     1      -9.067   6.103   6.790  1.00  0.00     0.167 HD
ATOM     37  C   UNL     1     -10.612   6.367   9.171  1.00  0.00     0.074 A 
ATOM     38  C   UNL     1     -11.026   6.753  10.506  1.00  0.00     0.031 C 
ATOM     39  C   UNL     1     -11.411   5.723   8.284  1.00  0.00     0.034 A 
BRANCH  26  40
ATOM     40  C   UNL     1      -8.839   4.710   2.751  1.00  0.00     0.023 A 
ATOM     41  C   UNL     1      -8.115   3.620   2.240  1.00  0.00     0.031 A 
ATOM     42  C   UNL     1      -9.794   5.320   1.917  1.00  0.00     0.131 A 
ATOM     43  C   UNL     1      -8.336   3.193   0.921  1.00  0.00     0.055 A 
ATOM     44  C   UNL     1     -10.048   4.855   0.626  1.00  0.00     0.041 A 
ATOM     45  F   UNL     1     -10.500   6.377   2.348  1.00  0.00    -0.206 F 
ATOM     46  C   UNL     1      -9.313   3.788   0.118  1.00  0.00     0.022 A 
BRANCH  43  47
ATOM     47  S   UNL     1      -7.274   1.891   0.235  1.00  0.00     0.124 S 
ATOM     48  O   UNL     1      -5.955   2.514   0.313  1.00  0.00    -0.237 OA
ATOM     49  O   UNL     1      -7.509   0.778   1.147  1.00  0.00    -0.237 OA
ATOM     50  O   UNL     1      -7.789   1.706  -1.120  1.00  0.00    -0.744 OA
ENDBRANCH  43  47
ENDBRANCH  26  40
BRANCH  27  51
ATOM     51  C   UNL     1      -7.545   8.732  11.860  1.00  0.00     0.023 A 
ATOM     52  C   UNL     1      -7.630   8.026  13.068  1.00  0.00     0.031 A 
ATOM     53  C   UNL     1      -7.354  10.126  11.921  1.00  0.00     0.131 A 
ATOM     54  C   UNL     1      -7.571   8.719  14.286  1.00  0.00     0.055 A 
ATOM     55  C   UNL     1      -7.237  10.803  13.135  1.00  0.00     0.041 A 
ATOM     56  F   UNL     1      -7.264  10.850  10.794  1.00  0.00    -0.206 F 
ATOM     57  C   UNL     1      -7.361  10.100  14.329  1.00  0.00     0.022 A 
BRANCH  54  58
ATOM     58  S   UNL     1      -7.880   7.802  15.819  1.00  0.00     0.124 S 
ATOM     59  O   UNL     1      -9.161   7.165  15.534  1.00  0.00    -0.237 OA
ATOM     60  O   UNL     1      -6.722   6.916  15.877  1.00  0.00    -0.237 OA
ATOM     61  O   UNL     1      -7.915   8.848  16.839  1.00  0.00    -0.744 OA
ENDBRANCH  54  58
ENDBRANCH  27  51
BRANCH  39  62
ATOM     62  C   UNL     1     -12.805   5.400   8.751  1.00  0.00     0.023 A 
ATOM     63  C   UNL     1     -13.753   6.415   8.966  1.00  0.00     0.031 A 
ATOM     64  C   UNL     1     -13.179   4.072   9.014  1.00  0.00     0.131 A 
ATOM     65  C   UNL     1     -15.015   6.091   9.484  1.00  0.00     0.055 A 
ATOM     66  C   UNL     1     -14.456   3.749   9.475  1.00  0.00     0.041 A 
ATOM     67  F   UNL     1     -12.308   3.067   8.829  1.00  0.00    -0.206 F 
ATOM     68  C   UNL     1     -15.377   4.763   9.724  1.00  0.00     0.022 A 
BRANCH  65  69
ATOM     69  S   UNL     1     -16.149   7.438   9.916  1.00  0.00     0.124 S 
ATOM     70  O   UNL     1     -15.401   8.142  10.953  1.00  0.00    -0.237 OA
ATOM     71  O   UNL     1     -16.297   8.143   8.647  1.00  0.00    -0.237 OA
ATOM     72  O   UNL     1     -17.347   6.741  10.379  1.00  0.00    -0.744 OA
ENDBRANCH  65  69
ENDBRANCH  39  62
ENDBRANCH  13  14
ENDBRANCH   6   8
ENDBRANCH   3   4
ENDBRANCH   2   3
ENDBRANCH   1   2
BRANCH   1  73
ATOM     73  C   UNL     1       3.917   6.368   5.213  1.00  0.00     0.116 C 
BRANCH  73  74
ATOM     74  N   UNL     1       4.096   4.940   5.030  1.00  0.00    -0.356 N 
ATOM     75  C   UNL     1       5.208   4.209   4.743  1.00  0.00     0.224 C 
ATOM     76  H   UNL     1       3.274   4.409   5.130  1.00  0.00     0.163 HD
ATOM     77  O   UNL     1       5.059   3.006   4.518  1.00  0.00    -0.275 OA
BRANCH  75  78
ATOM     78  C   UNL     1       6.602   4.822   4.735  1.00  0.00     0.098 C 
ATOM     79  C   UNL     1       6.791   5.928   3.685  1.00  0.00     0.017 C 
ATOM     80  C   UNL     1       7.008   5.216   6.161  1.00  0.00     0.133 C 
ATOM     81  C   UNL     1       8.110   6.675   3.846  1.00  0.00     0.022 C 
ATOM     82  N   UNL     1       8.272   5.950   6.173  1.00  0.00    -0.338 N 
ATOM     83  C   UNL     1       8.305   7.116   5.291  1.00  0.00     0.120 C 
BRANCH  82  84
ATOM     84  C   UNL     1       9.350   5.405   6.868  1.00  0.00     0.253 C 
ATOM     85  O   UNL     1       9.303   4.335   7.470  1.00  0.00    -0.269 OA
BRANCH  84  86
ATOM     86  C   UNL     1      10.652   6.101   6.845  1.00  0.00     0.040 A 
ATOM     87  C   UNL     1      11.768   5.380   6.424  1.00  0.00     0.016 A 
ATOM     88  C   UNL     1      10.794   7.426   7.259  1.00  0.00     0.016 A 
ATOM     89  C   UNL     1      13.006   6.016   6.317  1.00  0.00     0.027 A 
ATOM     90  C   UNL     1      12.027   8.066   7.110  1.00  0.00     0.027 A 
ATOM     91  C   UNL     1      13.130   7.382   6.580  1.00  0.00     0.041 A 
BRANCH  91  92
ATOM     92  N   UNL     1      14.301   8.132   6.362  1.00  0.00    -0.322 N 
ATOM     93  C   UNL     1      15.453   7.873   5.653  1.00  0.00     0.255 C 
ATOM     94  H   UNL     1      14.295   9.014   6.801  1.00  0.00     0.170 HD
ATOM     95  O   UNL     1      16.418   8.630   5.751  1.00  0.00    -0.269 OA
BRANCH  93  96
ATOM     96  C   UNL     1      15.555   6.726   4.731  1.00  0.00     0.040 A 
ATOM     97  C   UNL     1      16.583   5.800   4.934  1.00  0.00     0.014 A 
ATOM     98  C   UNL     1      14.639   6.553   3.686  1.00  0.00     0.014 A 
ATOM     99  C   UNL     1      16.650   4.658   4.136  1.00  0.00     0.001 A 
ATOM    100  C   UNL     1      14.707   5.404   2.896  1.00  0.00     0.001 A 
ATOM    101  C   UNL     1      15.704   4.454   3.129  1.00  0.00     0.000 A 
ENDBRANCH  93  96
ENDBRANCH  91  92
ENDBRANCH  84  86
ENDBRANCH  82  84
ENDBRANCH  75  78
ENDBRANCH  73  74
ENDBRANCH   1  73
TORSDOF 18
