REMARK SMILES COc1ccc(Br)cc1CNc1ccc(N2CCOCC2)c(C(=O)NCCCCNC(=O)c2ccc(-c3c4nc(c(-c5cc(S(=O)(=O)[O-])ccc5F)c5ccc([nH]5)c(-c5cc(S(=O)(=O)[O-])ccc5F)c5nc(c(-c6cc(S(=O)(=O)[O-])ccc6F)c6ccc3[nH]6)C=C5)C=C4)cc2)c1
REMARK SMILES IDX 27 1 26 2 25 3 23 4 24 5 22 7 12 8 13 9 96 10 14 11 15 12
REMARK SMILES IDX 11 13 10 15 9 16 3 17 4 18 5 19 8 20 6 21 7 22 2 23 1 24
REMARK SMILES IDX 16 25 17 26 21 27 18 28 20 29 19 30 28 31 29 32 30 33 31 34
REMARK SMILES IDX 32 36 33 37 34 38 95 39 35 40 94 41 36 42 37 43 38 44 88 45
REMARK SMILES IDX 39 46 93 47 87 48 89 49 40 50 92 51 86 52 85 53 41 55 73 56
REMARK SMILES IDX 53 57 72 58 54 59 57 60 71 61 90 62 55 63 56 64 70 66 91 67
REMARK SMILES IDX 58 68 42 69 43 70 51 71 44 72 50 73 52 74 49 75 45 76 46 77
REMARK SMILES IDX 47 78 48 79 74 80 75 81 83 82 76 83 82 84 84 85 81 86 77 87
REMARK SMILES IDX 78 88 79 89 80 90 59 91 60 92 68 93 61 94 67 95 69 96 66 97
REMARK SMILES IDX 62 98 63 99 64 100 65 101
REMARK H PARENT 25 6 11 14 30 35 89 54 57 65
REMARK Flexibility Score: inf
ROOT
ATOM      1  C   UNL     1      -5.633   2.396   1.998  1.00  0.00     0.023 C 
ENDROOT
BRANCH   1   2
ATOM      2  C   UNL     1      -4.918   2.001   3.282  1.00  0.00     0.116 C 
BRANCH   2   3
ATOM      3  N   UNL     1      -5.721   2.067   4.497  1.00  0.00    -0.352 N 
ATOM      4  C   UNL     1      -5.814   1.230   5.600  1.00  0.00     0.253 C 
ATOM      5  O   UNL     1      -6.481   1.635   6.549  1.00  0.00    -0.269 OA
ATOM      6  H   UNL     1      -6.309   2.856   4.544  1.00  0.00     0.163 HD
BRANCH   4   7
ATOM      7  C   UNL     1      -5.159  -0.117   5.624  1.00  0.00     0.065 A 
ATOM      8  C   UNL     1      -3.323  -1.464   4.715  1.00  0.00     0.035 A 
ATOM      9  C   UNL     1      -3.941  -2.597   5.232  1.00  0.00     0.028 A 
ATOM     10  C   UNL     1      -3.903  -0.236   5.015  1.00  0.00     0.041 A 
ATOM     11  C   UNL     1      -5.082  -2.485   6.030  1.00  0.00     0.029 A 
ATOM     12  C   UNL     1      -5.707  -1.246   6.264  1.00  0.00     0.050 A 
BRANCH   8  13
ATOM     13  N   UNL     1      -2.158  -1.589   3.996  1.00  0.00    -0.381 N 
ATOM     14  H   UNL     1      -1.808  -2.499   3.861  1.00  0.00     0.160 HD
BRANCH  13  15
ATOM     15  C   UNL     1      -1.397  -0.490   3.417  1.00  0.00     0.152 C 
BRANCH  15  16
ATOM     16  C   UNL     1       0.075  -0.810   3.512  1.00  0.00     0.014 A 
ATOM     17  C   UNL     1       0.955  -0.552   2.449  1.00  0.00     0.123 A 
ATOM     18  C   UNL     1       2.312  -0.856   2.591  1.00  0.00     0.048 A 
ATOM     19  C   UNL     1       2.796  -1.410   3.782  1.00  0.00     0.019 A 
ATOM     20  C   UNL     1       0.582  -1.332   4.719  1.00  0.00     0.025 A 
ATOM     21  C   UNL     1       1.929  -1.640   4.843  1.00  0.00     0.018 A 
ATOM     22  Br  UNL     1       2.576  -2.369   6.461  1.00  0.00    -0.051 Br
BRANCH  17  23
ATOM     23  O   UNL     1       0.414   0.054   1.347  1.00  0.00    -0.496 OA
ATOM     24  C   UNL     1       1.061  -0.189   0.104  1.00  0.00     0.278 C 
ENDBRANCH  17  23
ENDBRANCH  15  16
ENDBRANCH  13  15
ENDBRANCH   8  13
BRANCH  12  25
ATOM     25  N   UNL     1      -6.715  -1.203   7.200  1.00  0.00    -0.366 N 
ATOM     26  C   UNL     1      -8.121  -0.949   6.888  1.00  0.00     0.145 C 
ATOM     27  C   UNL     1      -6.397  -1.524   8.594  1.00  0.00     0.145 C 
ATOM     28  C   UNL     1      -8.773  -0.051   7.961  1.00  0.00     0.181 C 
ATOM     29  C   UNL     1      -7.066  -0.497   9.515  1.00  0.00     0.181 C 
ATOM     30  O   UNL     1      -8.488  -0.493   9.304  1.00  0.00    -0.378 OA
ENDBRANCH  12  25
ENDBRANCH   4   7
ENDBRANCH   2   3
ENDBRANCH   1   2
BRANCH   1  31
ATOM     31  C   UNL     1      -6.241   3.789   1.954  1.00  0.00     0.023 C 
BRANCH  31  32
ATOM     32  C   UNL     1      -5.329   4.934   2.375  1.00  0.00     0.116 C 
BRANCH  32  33
ATOM     33  N   UNL     1      -4.099   5.022   1.601  1.00  0.00    -0.352 N 
ATOM     34  C   UNL     1      -3.564   6.098   0.924  1.00  0.00     0.251 C 
ATOM     35  H   UNL     1      -3.572   4.192   1.553  1.00  0.00     0.163 HD
ATOM     36  O   UNL     1      -2.556   5.952   0.248  1.00  0.00    -0.269 OA
BRANCH  34  37
ATOM     37  C   UNL     1      -4.246   7.411   0.983  1.00  0.00     0.039 A 
ATOM     38  C   UNL     1      -4.487   8.099  -0.209  1.00  0.00     0.014 A 
ATOM     39  C   UNL     1      -4.689   7.936   2.199  1.00  0.00     0.014 A 
ATOM     40  C   UNL     1      -5.254   9.267  -0.189  1.00  0.00     0.010 A 
ATOM     41  C   UNL     1      -5.525   9.048   2.206  1.00  0.00     0.010 A 
ATOM     42  C   UNL     1      -5.823   9.723   1.012  1.00  0.00    -0.014 A 
BRANCH  42  43
ATOM     43  C   UNL     1      -6.737  10.896   1.039  1.00  0.00     0.031 A 
ATOM     44  C   UNL     1      -6.368  12.120   1.832  1.00  0.00     0.074 A 
ATOM     45  C   UNL     1      -7.932  10.827   0.418  1.00  0.00     0.049 A 
ATOM     46  N   UNL     1      -7.062  13.207   2.051  1.00  0.00    -0.248 NA
ATOM     47  C   UNL     1      -5.057  12.100   2.498  1.00  0.00     0.031 C 
ATOM     48  C   UNL     1      -8.428   9.672  -0.334  1.00  0.00     0.029 A 
ATOM     49  N   UNL     1      -8.954  11.740   0.332  1.00  0.00    -0.354 N 
ATOM     50  C   UNL     1      -6.283  13.990   2.897  1.00  0.00     0.074 A 
ATOM     51  C   UNL     1      -5.095  13.221   3.201  1.00  0.00     0.031 C 
ATOM     52  C   UNL     1      -9.647   9.954  -0.821  1.00  0.00     0.029 A 
ATOM     53  C   UNL     1     -10.041  11.288  -0.381  1.00  0.00     0.049 A 
ATOM     54  H   UNL     1      -8.913  12.634   0.741  1.00  0.00     0.167 HD
ATOM     55  C   UNL     1      -6.526  15.243   3.357  1.00  0.00     0.034 A 
ATOM     56  C   UNL     1     -11.228  11.874  -0.638  1.00  0.00     0.034 A 
ATOM     57  C   UNL     1      -7.712  15.998   3.030  1.00  0.00     0.049 A 
ATOM     58  C   UNL     1     -11.480  13.265  -0.115  1.00  0.00     0.074 A 
ATOM     59  C   UNL     1      -8.027  17.300   3.377  1.00  0.00     0.029 A 
ATOM     60  N   UNL     1      -8.785  15.515   2.291  1.00  0.00    -0.354 N 
ATOM     61  N   UNL     1     -10.703  14.023   0.625  1.00  0.00    -0.248 NA
ATOM     62  C   UNL     1     -12.762  13.885  -0.473  1.00  0.00     0.031 C 
ATOM     63  C   UNL     1      -9.318  17.578   2.913  1.00  0.00     0.029 A 
ATOM     64  C   UNL     1      -9.778  16.480   2.203  1.00  0.00     0.049 A 
ATOM     65  H   UNL     1      -8.834  14.618   1.888  1.00  0.00     0.167 HD
ATOM     66  C   UNL     1     -11.393  15.219   0.799  1.00  0.00     0.074 A 
ATOM     67  C   UNL     1     -12.641  15.086   0.073  1.00  0.00     0.031 C 
ATOM     68  C   UNL     1     -11.026  16.329   1.490  1.00  0.00     0.034 A 
BRANCH  55  69
ATOM     69  C   UNL     1      -5.500  15.851   4.286  1.00  0.00     0.023 A 
ATOM     70  C   UNL     1      -4.170  16.069   3.882  1.00  0.00     0.031 A 
ATOM     71  C   UNL     1      -5.843  16.178   5.610  1.00  0.00     0.131 A 
ATOM     72  C   UNL     1      -3.216  16.506   4.812  1.00  0.00     0.055 A 
ATOM     73  C   UNL     1      -4.907  16.701   6.507  1.00  0.00     0.041 A 
ATOM     74  F   UNL     1      -7.090  15.976   6.064  1.00  0.00    -0.206 F 
ATOM     75  C   UNL     1      -3.580  16.849   6.115  1.00  0.00     0.022 A 
BRANCH  72  76
ATOM     76  S   UNL     1      -1.464  16.456   4.341  1.00  0.00     0.124 S 
ATOM     77  O   UNL     1      -1.294  15.048   3.989  1.00  0.00    -0.237 OA
ATOM     78  O   UNL     1      -1.408  17.403   3.234  1.00  0.00    -0.237 OA
ATOM     79  O   UNL     1      -0.770  16.874   5.557  1.00  0.00    -0.744 OA
ENDBRANCH  72  76
ENDBRANCH  55  69
BRANCH  56  80
ATOM     80  C   UNL     1     -12.270  11.148  -1.419  1.00  0.00     0.023 A 
ATOM     81  C   UNL     1     -12.672  11.593  -2.688  1.00  0.00     0.031 A 
ATOM     82  C   UNL     1     -12.895  10.002  -0.894  1.00  0.00     0.131 A 
ATOM     83  C   UNL     1     -13.695  10.919  -3.375  1.00  0.00     0.055 A 
ATOM     84  C   UNL     1     -13.877   9.307  -1.601  1.00  0.00     0.041 A 
ATOM     85  F   UNL     1     -12.543   9.530   0.313  1.00  0.00    -0.206 F 
ATOM     86  C   UNL     1     -14.290   9.771  -2.846  1.00  0.00     0.022 A 
BRANCH  83  87
ATOM     87  S   UNL     1     -14.284  11.603  -4.948  1.00  0.00     0.124 S 
ATOM     88  O   UNL     1     -14.741  12.928  -4.544  1.00  0.00    -0.237 OA
ATOM     89  O   UNL     1     -13.078  11.562  -5.768  1.00  0.00    -0.237 OA
ATOM     90  O   UNL     1     -15.339  10.674  -5.349  1.00  0.00    -0.744 OA
ENDBRANCH  83  87
ENDBRANCH  56  80
BRANCH  68  91
ATOM     91  C   UNL     1     -11.973  17.505   1.455  1.00  0.00     0.023 A 
ATOM     92  C   UNL     1     -13.242  17.454   2.056  1.00  0.00     0.031 A 
ATOM     93  C   UNL     1     -11.597  18.694   0.803  1.00  0.00     0.131 A 
ATOM     94  C   UNL     1     -14.111  18.551   1.947  1.00  0.00     0.055 A 
ATOM     95  C   UNL     1     -12.441  19.803   0.753  1.00  0.00     0.041 A 
ATOM     96  F   UNL     1     -10.398  18.797   0.208  1.00  0.00    -0.206 F 
ATOM     97  C   UNL     1     -13.711  19.732   1.316  1.00  0.00     0.022 A 
BRANCH  94  98
ATOM     98  S   UNL     1     -15.810  18.383   2.561  1.00  0.00     0.124 S 
ATOM     99  O   UNL     1     -16.301  17.248   1.785  1.00  0.00    -0.237 OA
ATOM    100  O   UNL     1     -15.605  18.140   3.985  1.00  0.00    -0.237 OA
ATOM    101  O   UNL     1     -16.422  19.669   2.234  1.00  0.00    -0.744 OA
ENDBRANCH  94  98
ENDBRANCH  68  91
ENDBRANCH  42  43
ENDBRANCH  34  37
ENDBRANCH  32  33
ENDBRANCH  31  32
ENDBRANCH   1  31
TORSDOF 19
