REMARK SMILES Cc1nn(-c2ccncn2)c(C)c1[C@@H](C)C(=O)NCCCCNC(=O)c1ccc(-c2c3nc(c(-c4cc(S(=O)(=O)[O-])ccc4F)c4ccc([nH]4)c(-c4cc(S(=O)(=O)[O-])ccc4F)c4nc(c(-c5cc(S(=O)(=O)[O-])ccc5F)c5ccc2[nH]5)C=C4)C=C3)cc1
REMARK SMILES IDX 21 1 20 2 19 3 18 4 16 5 17 6 14 8 15 9 13 10 1 11 2 12 3 13
REMARK SMILES IDX 4 14 11 15 12 16 5 17 6 18 10 19 7 20 9 21 8 22 22 23 23 24
REMARK SMILES IDX 24 25 25 27 26 28 27 29 88 30 28 31 87 32 29 33 30 34 31 35
REMARK SMILES IDX 81 36 32 37 86 38 80 39 82 40 33 41 85 42 79 43 78 44 34 46
REMARK SMILES IDX 66 47 46 48 65 49 47 50 50 51 64 52 83 53 48 54 49 55 63 57
REMARK SMILES IDX 84 58 51 59 35 60 36 61 44 62 37 63 43 64 45 65 42 66 38 67
REMARK SMILES IDX 39 68 40 69 41 70 67 71 68 72 76 73 69 74 75 75 77 76 74 77
REMARK SMILES IDX 70 78 71 79 72 80 73 81 52 82 53 83 61 84 54 85 60 86 62 87
REMARK SMILES IDX 59 88 55 89 56 90 57 91 58 92
REMARK H PARENT 18 7 23 26 82 45 50 56
REMARK Flexibility Score: inf
ROOT
ATOM      1  C   UNL     1      -4.091   0.009  -5.486  1.00  0.00     0.023 C 
ENDROOT
BRANCH   1   2
ATOM      2  C   UNL     1      -2.680   0.195  -4.904  1.00  0.00     0.023 C 
BRANCH   2   3
ATOM      3  C   UNL     1      -2.245   1.649  -4.660  1.00  0.00     0.116 C 
BRANCH   3   4
ATOM      4  N   UNL     1      -2.400   2.060  -3.275  1.00  0.00    -0.356 N 
ATOM      5  C   UNL     1      -1.499   2.201  -2.259  1.00  0.00     0.227 C 
ATOM      6  O   UNL     1      -1.953   2.567  -1.167  1.00  0.00    -0.274 OA
ATOM      7  H   UNL     1      -3.327   2.276  -3.022  1.00  0.00     0.163 HD
BRANCH   5   8
ATOM      8  C   UNL     1       0.020   1.970  -2.410  1.00  0.00     0.109 C 
ATOM      9  C   UNL     1       0.695   3.086  -3.189  1.00  0.00     0.023 C 
BRANCH   8  10
ATOM     10  C   UNL     1       0.347   0.542  -2.784  1.00  0.00     0.009 A 
ATOM     11  C   UNL     1       0.480  -0.492  -0.372  1.00  0.00     0.069 C 
ATOM     12  C   UNL     1       0.411  -0.540  -1.858  1.00  0.00     0.064 A 
ATOM     13  N   UNL     1       0.430  -1.719  -2.476  1.00  0.00    -0.171 NA
ATOM     14  N   UNL     1       0.458  -1.422  -3.798  1.00  0.00    -0.219 N 
ATOM     15  C   UNL     1       0.686  -0.056  -3.999  1.00  0.00     0.047 A 
ATOM     16  C   UNL     1       1.035   0.533  -5.320  1.00  0.00     0.067 C 
BRANCH  14  17
ATOM     17  C   UNL     1       0.089  -2.414  -4.767  1.00  0.00     0.156 A 
ATOM     18  C   UNL     1       0.672  -2.425  -6.018  1.00  0.00     0.069 A 
ATOM     19  N   UNL     1      -0.938  -3.242  -4.444  1.00  0.00    -0.217 NA
ATOM     20  C   UNL     1       0.104  -3.267  -6.945  1.00  0.00     0.117 A 
ATOM     21  C   UNL     1      -1.418  -4.008  -5.430  1.00  0.00     0.224 A 
ATOM     22  N   UNL     1      -0.952  -4.056  -6.684  1.00  0.00    -0.245 NA
ENDBRANCH  14  17
ENDBRANCH   8  10
ENDBRANCH   5   8
ENDBRANCH   3   4
ENDBRANCH   2   3
ENDBRANCH   1   2
BRANCH   1  23
ATOM     23  C   UNL     1      -4.266   0.509  -6.919  1.00  0.00     0.116 C 
BRANCH  23  24
ATOM     24  N   UNL     1      -3.490  -0.240  -7.912  1.00  0.00    -0.352 N 
ATOM     25  C   UNL     1      -3.323   0.088  -9.249  1.00  0.00     0.251 C 
ATOM     26  H   UNL     1      -3.042  -1.058  -7.598  1.00  0.00     0.163 HD
ATOM     27  O   UNL     1      -2.996  -0.757 -10.078  1.00  0.00    -0.269 OA
BRANCH  25  28
ATOM     28  C   UNL     1      -3.526   1.493  -9.641  1.00  0.00     0.039 A 
ATOM     29  C   UNL     1      -4.359   1.862 -10.703  1.00  0.00     0.014 A 
ATOM     30  C   UNL     1      -2.928   2.451  -8.828  1.00  0.00     0.014 A 
ATOM     31  C   UNL     1      -4.672   3.213 -10.873  1.00  0.00     0.010 A 
ATOM     32  C   UNL     1      -3.343   3.755  -8.914  1.00  0.00     0.010 A 
ATOM     33  C   UNL     1      -4.181   4.154  -9.955  1.00  0.00    -0.014 A 
BRANCH  33  34
ATOM     34  C   UNL     1      -4.625   5.549  -9.964  1.00  0.00     0.031 A 
ATOM     35  C   UNL     1      -6.087   5.756  -9.758  1.00  0.00     0.074 A 
ATOM     36  C   UNL     1      -3.748   6.571  -9.835  1.00  0.00     0.049 A 
ATOM     37  N   UNL     1      -6.955   6.239 -10.585  1.00  0.00    -0.248 NA
ATOM     38  C   UNL     1      -6.691   5.235  -8.519  1.00  0.00     0.031 C 
ATOM     39  C   UNL     1      -2.290   6.483  -9.679  1.00  0.00     0.029 A 
ATOM     40  N   UNL     1      -3.983   7.901  -9.669  1.00  0.00    -0.354 N 
ATOM     41  C   UNL     1      -8.161   6.318  -9.886  1.00  0.00     0.074 A 
ATOM     42  C   UNL     1      -7.985   5.484  -8.729  1.00  0.00     0.031 C 
ATOM     43  C   UNL     1      -1.810   7.652  -9.203  1.00  0.00     0.029 A 
ATOM     44  C   UNL     1      -2.887   8.625  -9.202  1.00  0.00     0.049 A 
ATOM     45  H   UNL     1      -4.854   8.318  -9.862  1.00  0.00     0.167 HD
ATOM     46  C   UNL     1      -9.098   7.263 -10.192  1.00  0.00     0.034 A 
ATOM     47  C   UNL     1      -2.852   9.930  -8.827  1.00  0.00     0.034 A 
ATOM     48  C   UNL     1      -8.784   7.887 -11.462  1.00  0.00     0.049 A 
ATOM     49  C   UNL     1      -4.024  10.583  -9.453  1.00  0.00     0.074 A 
ATOM     50  C   UNL     1      -8.651   7.447 -12.764  1.00  0.00     0.029 A 
ATOM     51  N   UNL     1      -8.177   9.124 -11.426  1.00  0.00    -0.354 N 
ATOM     52  N   UNL     1      -4.167  10.702 -10.745  1.00  0.00    -0.248 NA
ATOM     53  C   UNL     1      -5.257  10.681  -8.687  1.00  0.00     0.031 C 
ATOM     54  C   UNL     1      -7.561   8.201 -13.297  1.00  0.00     0.029 A 
ATOM     55  C   UNL     1      -7.144   9.116 -12.327  1.00  0.00     0.049 A 
ATOM     56  H   UNL     1      -8.439   9.880 -10.853  1.00  0.00     0.167 HD
ATOM     57  C   UNL     1      -5.506  10.437 -10.982  1.00  0.00     0.074 A 
ATOM     58  C   UNL     1      -6.149  10.562  -9.675  1.00  0.00     0.031 C 
ATOM     59  C   UNL     1      -5.909   9.860 -12.154  1.00  0.00     0.034 A 
BRANCH  46  60
ATOM     60  C   UNL     1     -10.053   7.934  -9.210  1.00  0.00     0.023 A 
ATOM     61  C   UNL     1     -10.810   9.016  -9.710  1.00  0.00     0.031 A 
ATOM     62  C   UNL     1     -10.061   7.797  -7.806  1.00  0.00     0.131 A 
ATOM     63  C   UNL     1     -11.365   9.980  -8.851  1.00  0.00     0.055 A 
ATOM     64  C   UNL     1     -10.673   8.725  -6.953  1.00  0.00     0.041 A 
ATOM     65  F   UNL     1      -9.430   6.810  -7.164  1.00  0.00    -0.206 F 
ATOM     66  C   UNL     1     -11.290   9.849  -7.470  1.00  0.00     0.022 A 
BRANCH  63  67
ATOM     67  S   UNL     1     -11.994  11.513  -9.584  1.00  0.00     0.124 S 
ATOM     68  O   UNL     1     -10.853  11.936 -10.388  1.00  0.00    -0.237 OA
ATOM     69  O   UNL     1     -13.162  11.036 -10.316  1.00  0.00    -0.237 OA
ATOM     70  O   UNL     1     -12.283  12.348  -8.421  1.00  0.00    -0.744 OA
ENDBRANCH  63  67
ENDBRANCH  46  60
BRANCH  47  71
ATOM     71  C   UNL     1      -2.040  10.546  -7.745  1.00  0.00     0.023 A 
ATOM     72  C   UNL     1      -1.678  11.909  -7.729  1.00  0.00     0.031 A 
ATOM     73  C   UNL     1      -1.808   9.811  -6.561  1.00  0.00     0.131 A 
ATOM     74  C   UNL     1      -1.117  12.482  -6.562  1.00  0.00     0.055 A 
ATOM     75  C   UNL     1      -1.256  10.381  -5.412  1.00  0.00     0.041 A 
ATOM     76  F   UNL     1      -2.189   8.527  -6.459  1.00  0.00    -0.206 F 
ATOM     77  C   UNL     1      -0.917  11.725  -5.404  1.00  0.00     0.022 A 
BRANCH  74  78
ATOM     78  S   UNL     1      -0.709  14.258  -6.506  1.00  0.00     0.124 S 
ATOM     79  O   UNL     1       0.361  14.364  -7.490  1.00  0.00    -0.237 OA
ATOM     80  O   UNL     1      -1.980  14.882  -6.856  1.00  0.00    -0.237 OA
ATOM     81  O   UNL     1      -0.288  14.469  -5.119  1.00  0.00    -0.744 OA
ENDBRANCH  74  78
ENDBRANCH  47  71
BRANCH  59  82
ATOM     82  C   UNL     1      -4.919   9.815 -13.300  1.00  0.00     0.023 A 
ATOM     83  C   UNL     1      -3.671   9.149 -13.270  1.00  0.00     0.031 A 
ATOM     84  C   UNL     1      -5.325  10.385 -14.519  1.00  0.00     0.131 A 
ATOM     85  C   UNL     1      -2.878   9.085 -14.434  1.00  0.00     0.055 A 
ATOM     86  C   UNL     1      -4.548  10.302 -15.672  1.00  0.00     0.041 A 
ATOM     87  F   UNL     1      -6.513  11.004 -14.617  1.00  0.00    -0.206 F 
ATOM     88  C   UNL     1      -3.318   9.656 -15.633  1.00  0.00     0.022 A 
BRANCH  85  89
ATOM     89  S   UNL     1      -1.249   8.267 -14.408  1.00  0.00     0.124 S 
ATOM     90  O   UNL     1      -0.603   8.823 -13.225  1.00  0.00    -0.237 OA
ATOM     91  O   UNL     1      -1.605   6.852 -14.335  1.00  0.00    -0.237 OA
ATOM     92  O   UNL     1      -0.644   8.674 -15.678  1.00  0.00    -0.744 OA
ENDBRANCH  85  89
ENDBRANCH  59  82
ENDBRANCH  33  34
ENDBRANCH  25  28
ENDBRANCH  23  24
ENDBRANCH   1  23
TORSDOF 16
