REMARK SMILES C[C@@H]1CCCN(C(=O)CSc2nnc3c4ccccc4n(CC(=O)NCCCCNC(=O)c4ccc(-c5c6nc(c(-c7cc(S(=O)(=O)[O-])ccc7F)c7ccc([nH]7)c(-c7cc(S(=O)(=O)[O-])ccc7F)c7nc(c(-c8cc(S(=O)(=O)[O-])ccc8F)c8ccc5[nH]8)C=C7)C=C6)cc4)c3n2)C1
REMARK SMILES IDX 26 1 25 2 23 3 24 4 22 6 21 7 11 8 12 9 97 10 13 11 96 12
REMARK SMILES IDX 14 13 15 14 20 15 16 16 19 17 17 18 18 19 10 20 9 21 7 22
REMARK SMILES IDX 8 23 6 24 1 25 2 26 3 27 98 28 4 29 5 30 27 31 28 32 29 33
REMARK SMILES IDX 30 34 31 35 32 37 33 38 34 39 95 40 35 41 94 42 36 43 37 44
REMARK SMILES IDX 38 45 88 46 39 47 93 48 87 49 89 50 40 51 92 52 86 53 85 54
REMARK SMILES IDX 41 56 73 57 53 58 72 59 54 60 57 61 71 62 90 63 55 64 56 65
REMARK SMILES IDX 70 67 91 68 58 69 42 70 43 71 51 72 44 73 50 74 52 75 49 76
REMARK SMILES IDX 45 77 46 78 47 79 48 80 74 81 75 82 83 83 76 84 82 85 84 86
REMARK SMILES IDX 81 87 77 88 78 89 79 90 80 91 59 92 60 93 68 94 61 95 67 96
REMARK SMILES IDX 69 97 66 98 62 99 63 100 64 101 65 102
REMARK H PARENT 25 5 30 36 89 55 57 66
REMARK Flexibility Score: inf
ROOT
ATOM      1  C   UNL     1       5.933   3.116   4.904  1.00  0.00     0.116 C 
ENDROOT
BRANCH   1   2
ATOM      2  N   UNL     1       5.286   3.398   6.171  1.00  0.00    -0.355 N 
ATOM      3  C   UNL     1       3.979   3.699   6.423  1.00  0.00     0.240 C 
ATOM      4  O   UNL     1       3.634   3.855   7.598  1.00  0.00    -0.273 OA
ATOM      5  H   UNL     1       5.872   3.366   6.961  1.00  0.00     0.163 HD
BRANCH   3   6
ATOM      6  C   UNL     1       2.962   3.769   5.302  1.00  0.00     0.224 C 
BRANCH   6   7
ATOM      7  N   UNL     1       3.188   4.860   4.367  1.00  0.00    -0.314 N 
ATOM      8  C   UNL     1       3.856   3.685   1.095  1.00  0.00     0.211 A 
ATOM      9  N   UNL     1       4.093   4.872   0.481  1.00  0.00    -0.122 NA
ATOM     10  N   UNL     1       3.467   3.507   2.375  1.00  0.00    -0.201 NA
ATOM     11  N   UNL     1       3.977   6.021   1.152  1.00  0.00    -0.144 NA
ATOM     12  C   UNL     1       3.411   4.684   3.026  1.00  0.00     0.165 A 
ATOM     13  C   UNL     1       3.667   5.923   2.469  1.00  0.00     0.138 A 
ATOM     14  C   UNL     1       3.580   6.891   3.503  1.00  0.00     0.030 A 
ATOM     15  C   UNL     1       3.258   6.205   4.685  1.00  0.00     0.053 A 
ATOM     16  C   UNL     1       3.777   8.286   3.556  1.00  0.00     0.013 A 
ATOM     17  C   UNL     1       3.104   6.874   5.910  1.00  0.00     0.027 A 
ATOM     18  C   UNL     1       3.646   8.954   4.778  1.00  0.00     0.001 A 
ATOM     19  C   UNL     1       3.310   8.256   5.934  1.00  0.00     0.002 A 
BRANCH   8  20
ATOM     20  S   UNL     1       4.345   2.198   0.254  1.00  0.00    -0.074 SA
BRANCH  20  21
ATOM     21  C   UNL     1       3.208   2.249  -1.153  1.00  0.00     0.178 C 
BRANCH  21  22
ATOM     22  C   UNL     1       1.749   2.298  -0.726  1.00  0.00     0.233 C 
ATOM     23  O   UNL     1       1.119   3.350  -0.870  1.00  0.00    -0.274 OA
BRANCH  22  24
ATOM     24  N   UNL     1       1.140   1.146  -0.234  1.00  0.00    -0.342 N 
ATOM     25  C   UNL     1      -2.511   0.075   0.115  1.00  0.00     0.009 C 
ATOM     26  C   UNL     1      -1.053   0.003  -0.331  1.00  0.00     0.005 C 
ATOM     27  C   UNL     1      -0.390  -1.287   0.167  1.00  0.00     0.007 C 
ATOM     28  C   UNL     1      -0.267   1.224   0.161  1.00  0.00     0.122 C 
ATOM     29  C   UNL     1       1.070  -1.336  -0.274  1.00  0.00     0.022 C 
ATOM     30  C   UNL     1       1.835  -0.085   0.149  1.00  0.00     0.119 C 
ENDBRANCH  22  24
ENDBRANCH  21  22
ENDBRANCH  20  21
ENDBRANCH   8  20
ENDBRANCH   6   7
ENDBRANCH   3   6
ENDBRANCH   1   2
BRANCH   1  31
ATOM     31  C   UNL     1       6.931   4.204   4.513  1.00  0.00     0.023 C 
BRANCH  31  32
ATOM     32  C   UNL     1       8.202   4.245   5.375  1.00  0.00     0.023 C 
BRANCH  32  33
ATOM     33  C   UNL     1       8.917   2.900   5.528  1.00  0.00     0.116 C 
BRANCH  33  34
ATOM     34  N   UNL     1       9.212   2.259   4.263  1.00  0.00    -0.352 N 
ATOM     35  C   UNL     1      10.279   2.259   3.407  1.00  0.00     0.251 C 
ATOM     36  H   UNL     1       8.473   1.692   3.945  1.00  0.00     0.163 HD
ATOM     37  O   UNL     1      10.194   1.476   2.456  1.00  0.00    -0.269 OA
BRANCH  35  38
ATOM     38  C   UNL     1      11.479   3.135   3.520  1.00  0.00     0.039 A 
ATOM     39  C   UNL     1      11.681   4.107   4.499  1.00  0.00     0.014 A 
ATOM     40  C   UNL     1      12.448   2.997   2.507  1.00  0.00     0.014 A 
ATOM     41  C   UNL     1      12.777   4.961   4.433  1.00  0.00     0.010 A 
ATOM     42  C   UNL     1      13.552   3.845   2.440  1.00  0.00     0.010 A 
ATOM     43  C   UNL     1      13.691   4.859   3.381  1.00  0.00    -0.014 A 
BRANCH  43  44
ATOM     44  C   UNL     1      14.761   5.851   3.334  1.00  0.00     0.031 A 
ATOM     45  C   UNL     1      15.706   5.874   4.488  1.00  0.00     0.074 A 
ATOM     46  C   UNL     1      14.954   6.687   2.297  1.00  0.00     0.049 A 
ATOM     47  N   UNL     1      15.896   6.812   5.361  1.00  0.00    -0.248 NA
ATOM     48  C   UNL     1      16.483   4.655   4.738  1.00  0.00     0.031 C 
ATOM     49  C   UNL     1      14.363   6.631   0.958  1.00  0.00     0.029 A 
ATOM     50  N   UNL     1      15.825   7.731   2.210  1.00  0.00    -0.354 N 
ATOM     51  C   UNL     1      16.936   6.374   6.184  1.00  0.00     0.074 A 
ATOM     52  C   UNL     1      17.174   4.997   5.826  1.00  0.00     0.031 C 
ATOM     53  C   UNL     1      15.061   7.444   0.133  1.00  0.00     0.029 A 
ATOM     54  C   UNL     1      16.029   8.189   0.921  1.00  0.00     0.049 A 
ATOM     55  H   UNL     1      16.270   8.124   2.996  1.00  0.00     0.167 HD
ATOM     56  C   UNL     1      17.637   7.213   7.003  1.00  0.00     0.034 A 
ATOM     57  C   UNL     1      16.988   9.054   0.516  1.00  0.00     0.034 A 
ATOM     58  C   UNL     1      16.967   8.469   7.185  1.00  0.00     0.049 A 
ATOM     59  C   UNL     1      17.469   9.812   1.696  1.00  0.00     0.074 A 
ATOM     60  C   UNL     1      15.774   8.870   7.749  1.00  0.00     0.029 A 
ATOM     61  N   UNL     1      17.425   9.553   6.478  1.00  0.00    -0.354 N 
ATOM     62  N   UNL     1      16.771  10.707   2.336  1.00  0.00    -0.248 NA
ATOM     63  C   UNL     1      18.623   9.291   2.412  1.00  0.00     0.031 C 
ATOM     64  C   UNL     1      15.351   9.984   6.969  1.00  0.00     0.029 A 
ATOM     65  C   UNL     1      16.324  10.207   5.991  1.00  0.00     0.049 A 
ATOM     66  H   UNL     1      18.366   9.811   6.345  1.00  0.00     0.167 HD
ATOM     67  C   UNL     1      17.125  10.542   3.667  1.00  0.00     0.074 A 
ATOM     68  C   UNL     1      18.351   9.750   3.635  1.00  0.00     0.031 C 
ATOM     69  C   UNL     1      16.253  10.824   4.681  1.00  0.00     0.034 A 
BRANCH  56  70
ATOM     70  C   UNL     1      19.071   6.998   7.431  1.00  0.00     0.023 A 
ATOM     71  C   UNL     1      19.919   6.072   6.799  1.00  0.00     0.031 A 
ATOM     72  C   UNL     1      19.695   7.877   8.342  1.00  0.00     0.131 A 
ATOM     73  C   UNL     1      21.290   6.015   7.084  1.00  0.00     0.055 A 
ATOM     74  C   UNL     1      21.077   7.868   8.576  1.00  0.00     0.041 A 
ATOM     75  F   UNL     1      18.989   8.814   8.996  1.00  0.00    -0.206 F 
ATOM     76  C   UNL     1      21.884   6.929   7.947  1.00  0.00     0.022 A 
BRANCH  73  77
ATOM     77  S   UNL     1      22.327   4.734   6.328  1.00  0.00     0.124 S 
ATOM     78  O   UNL     1      23.217   5.527   5.488  1.00  0.00    -0.237 OA
ATOM     79  O   UNL     1      22.944   4.119   7.501  1.00  0.00    -0.237 OA
ATOM     80  O   UNL     1      21.364   3.890   5.626  1.00  0.00    -0.744 OA
ENDBRANCH  73  77
ENDBRANCH  56  70
BRANCH  57  81
ATOM     81  C   UNL     1      17.818   8.892  -0.698  1.00  0.00     0.023 A 
ATOM     82  C   UNL     1      18.103   7.600  -1.180  1.00  0.00     0.031 A 
ATOM     83  C   UNL     1      18.576   9.957  -1.207  1.00  0.00     0.131 A 
ATOM     84  C   UNL     1      19.139   7.396  -2.098  1.00  0.00     0.055 A 
ATOM     85  C   UNL     1      19.603   9.754  -2.135  1.00  0.00     0.041 A 
ATOM     86  F   UNL     1      18.376  11.208  -0.762  1.00  0.00    -0.206 F 
ATOM     87  C   UNL     1      19.897   8.466  -2.575  1.00  0.00     0.022 A 
BRANCH  84  88
ATOM     88  S   UNL     1      19.565   5.717  -2.638  1.00  0.00     0.124 S 
ATOM     89  O   UNL     1      19.713   5.885  -4.082  1.00  0.00    -0.237 OA
ATOM     90  O   UNL     1      20.801   5.473  -1.904  1.00  0.00    -0.237 OA
ATOM     91  O   UNL     1      18.411   4.923  -2.226  1.00  0.00    -0.744 OA
ENDBRANCH  84  88
ENDBRANCH  57  81
BRANCH  69  92
ATOM     92  C   UNL     1      14.976  11.574   4.374  1.00  0.00     0.023 A 
ATOM     93  C   UNL     1      14.634  12.650   5.214  1.00  0.00     0.031 A 
ATOM     94  C   UNL     1      14.001  11.128   3.461  1.00  0.00     0.131 A 
ATOM     95  C   UNL     1      13.354  13.217   5.154  1.00  0.00     0.055 A 
ATOM     96  C   UNL     1      12.750  11.744   3.356  1.00  0.00     0.041 A 
ATOM     97  F   UNL     1      14.190  10.033   2.713  1.00  0.00    -0.206 F 
ATOM     98  C   UNL     1      12.415  12.783   4.216  1.00  0.00     0.022 A 
BRANCH  95  99
ATOM     99  S   UNL     1      12.826  14.420   6.404  1.00  0.00     0.124 S 
ATOM    100  O   UNL     1      12.611  15.624   5.601  1.00  0.00    -0.237 OA
ATOM    101  O   UNL     1      11.609  13.801   6.933  1.00  0.00    -0.237 OA
ATOM    102  O   UNL     1      13.941  14.480   7.335  1.00  0.00    -0.744 OA
ENDBRANCH  95  99
ENDBRANCH  69  92
ENDBRANCH  43  44
ENDBRANCH  35  38
ENDBRANCH  33  34
ENDBRANCH  32  33
ENDBRANCH  31  32
ENDBRANCH   1  31
TORSDOF 19
