REMARK SMILES CN(c1ccc(C(=O)NCCCCNC(=O)c2ccc(-c3c4nc(c(-c5cc(S(=O)(=O)[O-])ccc5F)c5ccc([nH]5)c(-c5cc(S(=O)(=O)[O-])ccc5F)c5nc(c(-c6cc(S(=O)(=O)[O-])ccc6F)c6ccc3[nH]6)C=C5)C=C4)cc2)c(F)c1F)[C@H]1C[C@H]2CC[C@@H](C1)[NH2+]2
REMARK SMILES IDX 12 1 11 2 10 3 9 4 7 5 8 6 6 8 3 9 4 10 82 11 5 12 80 13
REMARK SMILES IDX 83 14 81 15 2 16 1 17 84 18 85 19 90 20 86 21 89 22 87 23
REMARK SMILES IDX 91 24 88 25 13 28 14 29 15 30 16 32 17 33 18 34 79 35 19 36
REMARK SMILES IDX 78 37 20 38 21 39 22 40 72 41 23 42 77 43 71 44 73 45 24 46
REMARK SMILES IDX 76 47 70 48 69 49 25 51 57 52 37 53 56 54 38 55 41 56 55 57
REMARK SMILES IDX 74 58 39 59 40 60 54 62 75 63 42 64 26 65 27 66 35 67 28 68
REMARK SMILES IDX 34 69 36 70 33 71 29 72 30 73 31 74 32 75 58 76 59 77 67 78
REMARK SMILES IDX 60 79 66 80 68 81 65 82 61 83 62 84 63 85 64 86 43 87 44 88
REMARK SMILES IDX 52 89 45 90 51 91 53 92 50 93 46 94 47 95 48 96 49 97
REMARK H PARENT 9 7 91 26 91 27 14 31 73 50 41 61
REMARK Flexibility Score: inf
ROOT
ATOM      1  C   UNL     1      -0.943  -4.276   8.655  1.00  0.00     0.023 C 
ENDROOT
BRANCH   1   2
ATOM      2  C   UNL     1      -0.220  -3.724   7.430  1.00  0.00     0.023 C 
BRANCH   2   3
ATOM      3  C   UNL     1      -0.952  -3.843   6.098  1.00  0.00     0.116 C 
BRANCH   3   4
ATOM      4  N   UNL     1      -2.251  -3.191   6.053  1.00  0.00    -0.352 N 
ATOM      5  C   UNL     1      -2.894  -2.587   4.996  1.00  0.00     0.254 C 
ATOM      6  O   UNL     1      -4.019  -2.118   5.158  1.00  0.00    -0.269 OA
ATOM      7  H   UNL     1      -2.743  -3.178   6.906  1.00  0.00     0.163 HD
BRANCH   5   8
ATOM      8  C   UNL     1      -2.217  -2.374   3.699  1.00  0.00     0.078 A 
ATOM      9  C   UNL     1      -0.569  -1.679   1.492  1.00  0.00     0.076 A 
ATOM     10  C   UNL     1      -1.535  -0.788   2.004  1.00  0.00     0.030 A 
ATOM     11  C   UNL     1      -0.593  -2.984   2.020  1.00  0.00     0.182 A 
ATOM     12  C   UNL     1      -2.333  -1.117   3.105  1.00  0.00     0.019 A 
ATOM     13  C   UNL     1      -1.432  -3.334   3.078  1.00  0.00     0.173 A 
ATOM     14  F   UNL     1       0.285  -3.914   1.613  1.00  0.00    -0.201 F 
ATOM     15  F   UNL     1      -1.405  -4.599   3.522  1.00  0.00    -0.203 F 
BRANCH   9  16
ATOM     16  N   UNL     1       0.401  -1.213   0.595  1.00  0.00    -0.369 N 
ATOM     17  C   UNL     1       0.922   0.125   0.866  1.00  0.00     0.144 C 
BRANCH  16  18
ATOM     18  C   UNL     1       0.944  -2.066  -0.495  1.00  0.00     0.093 C 
ATOM     19  C   UNL     1       0.142  -1.918  -1.806  1.00  0.00     0.090 C 
ATOM     20  C   UNL     1       2.475  -1.980  -0.673  1.00  0.00     0.090 C 
ATOM     21  C   UNL     1       0.891  -1.225  -2.949  1.00  0.00     0.184 C 
ATOM     22  C   UNL     1       2.951  -1.260  -1.944  1.00  0.00     0.184 C 
ATOM     23  C   UNL     1       1.196   0.239  -2.657  1.00  0.00     0.071 C 
ATOM     24  N   UNL     1       2.232  -1.803  -3.102  1.00  0.00    -0.341 N 
ATOM     25  C   UNL     1       2.591   0.219  -2.041  1.00  0.00     0.071 C 
ATOM     26  H   UNL     1       2.664  -1.504  -3.976  1.00  0.00     0.346 HD
ATOM     27  H   UNL     1       2.232  -2.822  -3.136  1.00  0.00     0.346 HD
ENDBRANCH  16  18
ENDBRANCH   9  16
ENDBRANCH   5   8
ENDBRANCH   3   4
ENDBRANCH   2   3
ENDBRANCH   1   2
BRANCH   1  28
ATOM     28  C   UNL     1      -1.546  -5.669   8.513  1.00  0.00     0.116 C 
BRANCH  28  29
ATOM     29  N   UNL     1      -0.574  -6.697   8.177  1.00  0.00    -0.352 N 
ATOM     30  C   UNL     1      -0.282  -7.883   8.816  1.00  0.00     0.251 C 
ATOM     31  H   UNL     1      -0.042  -6.518   7.368  1.00  0.00     0.163 HD
ATOM     32  O   UNL     1       0.645  -8.574   8.417  1.00  0.00    -0.269 OA
BRANCH  30  33
ATOM     33  C   UNL     1      -1.056  -8.291  10.013  1.00  0.00     0.039 A 
ATOM     34  C   UNL     1      -0.363  -8.739  11.141  1.00  0.00     0.014 A 
ATOM     35  C   UNL     1      -2.450  -8.209  10.038  1.00  0.00     0.014 A 
ATOM     36  C   UNL     1      -1.059  -9.009  12.322  1.00  0.00     0.010 A 
ATOM     37  C   UNL     1      -3.132  -8.398  11.238  1.00  0.00     0.010 A 
ATOM     38  C   UNL     1      -2.444  -8.790  12.397  1.00  0.00    -0.014 A 
BRANCH  38  39
ATOM     39  C   UNL     1      -3.188  -8.950  13.677  1.00  0.00     0.031 A 
ATOM     40  C   UNL     1      -4.287  -9.972  13.789  1.00  0.00     0.074 A 
ATOM     41  C   UNL     1      -2.935  -8.114  14.706  1.00  0.00     0.049 A 
ATOM     42  N   UNL     1      -5.117 -10.191  14.776  1.00  0.00    -0.248 NA
ATOM     43  C   UNL     1      -4.505 -10.838  12.619  1.00  0.00     0.031 C 
ATOM     44  C   UNL     1      -1.936  -7.042  14.699  1.00  0.00     0.029 A 
ATOM     45  N   UNL     1      -3.507  -8.020  15.951  1.00  0.00    -0.354 N 
ATOM     46  C   UNL     1      -5.973 -11.197  14.338  1.00  0.00     0.074 A 
ATOM     47  C   UNL     1      -5.589 -11.508  12.977  1.00  0.00     0.031 C 
ATOM     48  C   UNL     1      -1.958  -6.409  15.883  1.00  0.00     0.029 A 
ATOM     49  C   UNL     1      -2.998  -6.998  16.721  1.00  0.00     0.049 A 
ATOM     50  H   UNL     1      -4.216  -8.627  16.264  1.00  0.00     0.167 HD
ATOM     51  C   UNL     1      -6.974 -11.813  15.013  1.00  0.00     0.034 A 
ATOM     52  C   UNL     1      -3.340  -6.572  17.954  1.00  0.00     0.034 A 
ATOM     53  C   UNL     1      -7.320 -11.516  16.382  1.00  0.00     0.049 A 
ATOM     54  C   UNL     1      -4.437  -7.295  18.695  1.00  0.00     0.074 A 
ATOM     55  C   UNL     1      -8.254 -12.143  17.189  1.00  0.00     0.029 A 
ATOM     56  N   UNL     1      -6.752 -10.505  17.145  1.00  0.00    -0.354 N 
ATOM     57  N   UNL     1      -5.186  -8.295  18.291  1.00  0.00    -0.248 NA
ATOM     58  C   UNL     1      -4.726  -6.841  20.061  1.00  0.00     0.031 C 
ATOM     59  C   UNL     1      -8.294 -11.473  18.416  1.00  0.00     0.029 A 
ATOM     60  C   UNL     1      -7.336 -10.472  18.402  1.00  0.00     0.049 A 
ATOM     61  H   UNL     1      -6.040  -9.899  16.838  1.00  0.00     0.167 HD
ATOM     62  C   UNL     1      -6.012  -8.608  19.367  1.00  0.00     0.074 A 
ATOM     63  C   UNL     1      -5.657  -7.703  20.440  1.00  0.00     0.031 C 
ATOM     64  C   UNL     1      -6.975  -9.560  19.461  1.00  0.00     0.034 A 
BRANCH  51  65
ATOM     65  C   UNL     1      -7.781 -12.853  14.273  1.00  0.00     0.023 A 
ATOM     66  C   UNL     1      -7.204 -14.047  13.807  1.00  0.00     0.031 A 
ATOM     67  C   UNL     1      -9.148 -12.642  14.022  1.00  0.00     0.131 A 
ATOM     68  C   UNL     1      -7.971 -14.950  13.056  1.00  0.00     0.055 A 
ATOM     69  C   UNL     1      -9.926 -13.580  13.340  1.00  0.00     0.041 A 
ATOM     70  F   UNL     1      -9.751 -11.512  14.426  1.00  0.00    -0.206 F 
ATOM     71  C   UNL     1      -9.335 -14.737  12.841  1.00  0.00     0.022 A 
BRANCH  68  72
ATOM     72  S   UNL     1      -7.133 -16.346  12.258  1.00  0.00     0.124 S 
ATOM     73  O   UNL     1      -6.187 -15.660  11.382  1.00  0.00    -0.237 OA
ATOM     74  O   UNL     1      -6.554 -17.057  13.392  1.00  0.00    -0.237 OA
ATOM     75  O   UNL     1      -8.214 -17.047  11.569  1.00  0.00    -0.744 OA
ENDBRANCH  68  72
ENDBRANCH  51  65
BRANCH  52  76
ATOM     76  C   UNL     1      -2.657  -5.396  18.568  1.00  0.00     0.023 A 
ATOM     77  C   UNL     1      -1.879  -5.534  19.729  1.00  0.00     0.031 A 
ATOM     78  C   UNL     1      -2.818  -4.106  18.032  1.00  0.00     0.131 A 
ATOM     79  C   UNL     1      -1.338  -4.396  20.349  1.00  0.00     0.055 A 
ATOM     80  C   UNL     1      -2.233  -2.984  18.621  1.00  0.00     0.041 A 
ATOM     81  F   UNL     1      -3.545  -3.919  16.919  1.00  0.00    -0.206 F 
ATOM     82  C   UNL     1      -1.500  -3.123  19.796  1.00  0.00     0.022 A 
BRANCH  79  83
ATOM     83  S   UNL     1      -0.500  -4.592  21.945  1.00  0.00     0.124 S 
ATOM     84  O   UNL     1      -1.533  -5.236  22.748  1.00  0.00    -0.237 OA
ATOM     85  O   UNL     1       0.644  -5.423  21.585  1.00  0.00    -0.237 OA
ATOM     86  O   UNL     1      -0.175  -3.220  22.329  1.00  0.00    -0.744 OA
ENDBRANCH  79  83
ENDBRANCH  52  76
BRANCH  64  87
ATOM     87  C   UNL     1      -7.675  -9.697  20.791  1.00  0.00     0.023 A 
ATOM     88  C   UNL     1      -8.524  -8.693  21.288  1.00  0.00     0.031 A 
ATOM     89  C   UNL     1      -7.478 -10.847  21.576  1.00  0.00     0.131 A 
ATOM     90  C   UNL     1      -9.101  -8.833  22.558  1.00  0.00     0.055 A 
ATOM     91  C   UNL     1      -8.101 -11.007  22.814  1.00  0.00     0.041 A 
ATOM     92  F   UNL     1      -6.675 -11.835  21.150  1.00  0.00    -0.206 F 
ATOM     93  C   UNL     1      -8.908  -9.991  23.317  1.00  0.00     0.022 A 
BRANCH  90  94
ATOM     94  S   UNL     1     -10.039  -7.442  23.248  1.00  0.00     0.124 S 
ATOM     95  O   UNL     1      -9.044  -6.374  23.245  1.00  0.00    -0.237 OA
ATOM     96  O   UNL     1     -11.132  -7.298  22.292  1.00  0.00    -0.237 OA
ATOM     97  O   UNL     1     -10.434  -7.917  24.573  1.00  0.00    -0.744 OA
ENDBRANCH  90  94
ENDBRANCH  64  87
ENDBRANCH  38  39
ENDBRANCH  30  33
ENDBRANCH  28  29
ENDBRANCH   1  28
TORSDOF 16
