REMARK SMILES CC[C@@H](C(=O)Nc1ccc(OC(C)=O)cc1C(=O)NCCCCNC(=O)c1ccc(-c2c3nc(c(-c4cc(S(=O)(=O)[O-])ccc4F)c4ccc([nH]4)c(-c4cc(S(=O)(=O)[O-])ccc4F)c4nc(c(-c5cc(S(=O)(=O)[O-])ccc5F)c5ccc2[nH]5)C=C4)C=C3)cc1)c1ccccc1
REMARK SMILES IDX 21 1 20 2 19 3 17 4 18 5 16 7 7 8 8 9 9 10 15 11 10 12 6 13
REMARK SMILES IDX 4 14 5 15 3 17 2 18 1 19 90 20 91 21 95 22 92 23 94 24 93 25
REMARK SMILES IDX 11 26 12 27 13 28 14 29 22 30 23 31 24 32 25 33 26 35 27 36
REMARK SMILES IDX 28 37 89 38 29 39 88 40 30 41 31 42 32 43 82 44 33 45 87 46
REMARK SMILES IDX 81 47 83 48 34 49 86 50 80 51 79 52 35 54 67 55 47 56 66 57
REMARK SMILES IDX 48 58 51 59 65 60 84 61 49 62 50 63 64 65 85 66 52 67 36 68
REMARK SMILES IDX 37 69 45 70 38 71 44 72 46 73 43 74 39 75 40 76 41 77 42 78
REMARK SMILES IDX 68 79 69 80 77 81 70 82 76 83 78 84 75 85 71 86 72 87 73 88
REMARK SMILES IDX 74 89 53 90 54 91 62 92 55 93 61 94 63 95 60 96 56 97 57 98
REMARK SMILES IDX 58 99 59 100
REMARK H PARENT 19 6 6 16 24 34 83 53 51 64
REMARK Flexibility Score: inf
ROOT
ATOM      1  C   UNL     1      -2.623   0.144  -3.435  1.00  0.00     0.023 C 
ENDROOT
BRANCH   1   2
ATOM      2  C   UNL     1      -1.301  -0.097  -2.707  1.00  0.00     0.116 C 
BRANCH   2   3
ATOM      3  N   UNL     1      -1.416  -0.053  -1.262  1.00  0.00    -0.352 N 
ATOM      4  C   UNL     1      -0.583  -0.496  -0.269  1.00  0.00     0.253 C 
ATOM      5  O   UNL     1      -1.001  -0.431   0.890  1.00  0.00    -0.269 OA
ATOM      6  H   UNL     1      -2.242   0.372  -0.936  1.00  0.00     0.163 HD
BRANCH   4   7
ATOM      7  C   UNL     1       0.772  -1.089  -0.483  1.00  0.00     0.067 A 
ATOM      8  C   UNL     1       1.728  -0.755  -1.458  1.00  0.00     0.054 A 
ATOM      9  C   UNL     1       2.865  -1.576  -1.619  1.00  0.00     0.031 A 
ATOM     10  C   UNL     1       3.172  -2.576  -0.701  1.00  0.00     0.049 A 
ATOM     11  C   UNL     1       1.097  -2.110   0.443  1.00  0.00     0.063 A 
ATOM     12  C   UNL     1       2.312  -2.786   0.364  1.00  0.00     0.131 A 
BRANCH   8  13
ATOM     13  N   UNL     1       1.688   0.305  -2.363  1.00  0.00    -0.325 N 
ATOM     14  C   UNL     1       1.570   1.656  -2.282  1.00  0.00     0.231 C 
ATOM     15  O   UNL     1       1.452   2.186  -3.401  1.00  0.00    -0.274 OA
ATOM     16  H   UNL     1       1.764  -0.003  -3.295  1.00  0.00     0.169 HD
BRANCH  14  17
ATOM     17  C   UNL     1       1.794   2.550  -1.037  1.00  0.00     0.108 C 
BRANCH  17  18
ATOM     18  C   UNL     1       1.554   2.051   0.391  1.00  0.00     0.015 C 
ATOM     19  C   UNL     1       2.752   1.356   1.016  1.00  0.00     0.005 C 
ENDBRANCH  17  18
BRANCH  17  20
ATOM     20  C   UNL     1       1.032   3.873  -1.212  1.00  0.00    -0.036 A 
ATOM     21  C   UNL     1       1.707   5.011  -1.681  1.00  0.00     0.004 A 
ATOM     22  C   UNL     1      -0.337   3.976  -0.915  1.00  0.00     0.004 A 
ATOM     23  C   UNL     1       1.036   6.227  -1.821  1.00  0.00     0.000 A 
ATOM     24  C   UNL     1      -1.006   5.193  -1.057  1.00  0.00     0.000 A 
ATOM     25  C   UNL     1      -0.317   6.319  -1.503  1.00  0.00     0.000 A 
ENDBRANCH  17  20
ENDBRANCH  14  17
ENDBRANCH   8  13
BRANCH  12  26
ATOM     26  O   UNL     1       2.666  -3.758   1.312  1.00  0.00    -0.427 OA
BRANCH  26  27
ATOM     27  C   UNL     1       3.289  -3.383   2.502  1.00  0.00     0.308 C 
ATOM     28  C   UNL     1       2.885  -2.055   3.078  1.00  0.00     0.139 C 
ATOM     29  O   UNL     1       4.066  -4.139   3.080  1.00  0.00    -0.252 OA
ENDBRANCH  26  27
ENDBRANCH  12  26
ENDBRANCH   4   7
ENDBRANCH   2   3
ENDBRANCH   1   2
BRANCH   1  30
ATOM     30  C   UNL     1      -3.214   1.553  -3.280  1.00  0.00     0.023 C 
BRANCH  30  31
ATOM     31  C   UNL     1      -2.318   2.723  -3.694  1.00  0.00     0.116 C 
BRANCH  31  32
ATOM     32  N   UNL     1      -1.955   2.723  -5.101  1.00  0.00    -0.352 N 
ATOM     33  C   UNL     1      -2.227   3.636  -6.093  1.00  0.00     0.251 C 
ATOM     34  H   UNL     1      -1.428   1.944  -5.391  1.00  0.00     0.163 HD
ATOM     35  O   UNL     1      -1.865   3.403  -7.245  1.00  0.00    -0.269 OA
BRANCH  33  36
ATOM     36  C   UNL     1      -3.004   4.863  -5.801  1.00  0.00     0.039 A 
ATOM     37  C   UNL     1      -4.088   5.174  -6.626  1.00  0.00     0.014 A 
ATOM     38  C   UNL     1      -2.683   5.702  -4.730  1.00  0.00     0.014 A 
ATOM     39  C   UNL     1      -4.910   6.261  -6.316  1.00  0.00     0.010 A 
ATOM     40  C   UNL     1      -3.544   6.746  -4.381  1.00  0.00     0.010 A 
ATOM     41  C   UNL     1      -4.680   7.024  -5.158  1.00  0.00    -0.014 A 
BRANCH  41  42
ATOM     42  C   UNL     1      -5.655   8.069  -4.739  1.00  0.00     0.031 A 
ATOM     43  C   UNL     1      -5.268   9.522  -4.704  1.00  0.00     0.074 A 
ATOM     44  C   UNL     1      -6.891   7.697  -4.346  1.00  0.00     0.049 A 
ATOM     45  N   UNL     1      -5.988  10.561  -4.364  1.00  0.00    -0.248 NA
ATOM     46  C   UNL     1      -3.885   9.846  -5.078  1.00  0.00     0.031 C 
ATOM     47  C   UNL     1      -7.374   6.314  -4.282  1.00  0.00     0.029 A 
ATOM     48  N   UNL     1      -7.968   8.440  -3.928  1.00  0.00    -0.354 N 
ATOM     49  C   UNL     1      -5.148  11.663  -4.480  1.00  0.00     0.074 A 
ATOM     50  C   UNL     1      -3.847  11.153  -4.865  1.00  0.00     0.031 C 
ATOM     51  C   UNL     1      -8.655   6.313  -3.880  1.00  0.00     0.029 A 
ATOM     52  C   UNL     1      -9.077   7.686  -3.620  1.00  0.00     0.049 A 
ATOM     53  H   UNL     1      -7.947   9.422  -3.855  1.00  0.00     0.167 HD
ATOM     54  C   UNL     1      -5.439  12.977  -4.305  1.00  0.00     0.034 A 
ATOM     55  C   UNL     1     -10.296   8.053  -3.175  1.00  0.00     0.034 A 
ATOM     56  C   UNL     1      -6.741  13.474  -3.927  1.00  0.00     0.049 A 
ATOM     57  C   UNL     1     -10.590   9.517  -2.974  1.00  0.00     0.074 A 
ATOM     58  C   UNL     1      -7.156  14.788  -3.785  1.00  0.00     0.029 A 
ATOM     59  N   UNL     1      -7.839  12.680  -3.617  1.00  0.00    -0.354 N 
ATOM     60  N   UNL     1      -9.801  10.550  -3.155  1.00  0.00    -0.248 NA
ATOM     61  C   UNL     1     -11.944   9.863  -2.521  1.00  0.00     0.031 C 
ATOM     62  C   UNL     1      -8.479  14.787  -3.327  1.00  0.00     0.029 A 
ATOM     63  C   UNL     1      -8.916  13.475  -3.252  1.00  0.00     0.049 A 
ATOM     64  H   UNL     1      -7.850  11.696  -3.651  1.00  0.00     0.167 HD
ATOM     65  C   UNL     1     -10.573  11.671  -2.861  1.00  0.00     0.074 A 
ATOM     66  C   UNL     1     -11.893  11.187  -2.511  1.00  0.00     0.031 C 
ATOM     67  C   UNL     1     -10.223  12.982  -2.884  1.00  0.00     0.034 A 
BRANCH  54  68
ATOM     68  C   UNL     1      -4.314  13.968  -4.498  1.00  0.00     0.023 A 
ATOM     69  C   UNL     1      -3.684  14.135  -5.744  1.00  0.00     0.031 A 
ATOM     70  C   UNL     1      -3.852  14.742  -3.419  1.00  0.00     0.131 A 
ATOM     71  C   UNL     1      -2.582  14.995  -5.863  1.00  0.00     0.055 A 
ATOM     72  C   UNL     1      -2.805  15.655  -3.563  1.00  0.00     0.041 A 
ATOM     73  F   UNL     1      -4.401  14.614  -2.201  1.00  0.00    -0.206 F 
ATOM     74  C   UNL     1      -2.153  15.775  -4.787  1.00  0.00     0.022 A 
BRANCH  71  75
ATOM     75  S   UNL     1      -1.630  14.974  -7.407  1.00  0.00     0.124 S 
ATOM     76  O   UNL     1      -1.216  13.575  -7.479  1.00  0.00    -0.237 OA
ATOM     77  O   UNL     1      -2.617  15.400  -8.392  1.00  0.00    -0.237 OA
ATOM     78  O   UNL     1      -0.548  15.924  -7.155  1.00  0.00    -0.744 OA
ENDBRANCH  71  75
ENDBRANCH  54  68
BRANCH  55  79
ATOM     79  C   UNL     1     -11.333   7.023  -2.879  1.00  0.00     0.023 A 
ATOM     80  C   UNL     1     -12.518   6.951  -3.628  1.00  0.00     0.031 A 
ATOM     81  C   UNL     1     -11.171   6.122  -1.812  1.00  0.00     0.131 A 
ATOM     82  C   UNL     1     -13.515   6.029  -3.272  1.00  0.00     0.055 A 
ATOM     83  C   UNL     1     -12.144   5.174  -1.492  1.00  0.00     0.041 A 
ATOM     84  F   UNL     1     -10.053   6.145  -1.067  1.00  0.00    -0.206 F 
ATOM     85  C   UNL     1     -13.331   5.133  -2.217  1.00  0.00     0.022 A 
BRANCH  82  86
ATOM     86  S   UNL     1     -15.096   6.072  -4.161  1.00  0.00     0.124 S 
ATOM     87  O   UNL     1     -15.535   7.442  -3.922  1.00  0.00    -0.237 OA
ATOM     88  O   UNL     1     -14.685   5.758  -5.525  1.00  0.00    -0.237 OA
ATOM     89  O   UNL     1     -15.887   5.038  -3.498  1.00  0.00    -0.744 OA
ENDBRANCH  82  86
ENDBRANCH  55  79
BRANCH  67  90
ATOM     90  C   UNL     1     -11.303  13.983  -2.549  1.00  0.00     0.023 A 
ATOM     91  C   UNL     1     -11.855  14.071  -1.259  1.00  0.00     0.031 A 
ATOM     92  C   UNL     1     -11.802  14.845  -3.542  1.00  0.00     0.131 A 
ATOM     93  C   UNL     1     -12.913  14.959  -1.010  1.00  0.00     0.055 A 
ATOM     94  C   UNL     1     -12.814  15.767  -3.274  1.00  0.00     0.041 A 
ATOM     95  F   UNL     1     -11.314  14.802  -4.792  1.00  0.00    -0.206 F 
ATOM     96  C   UNL     1     -13.385  15.819  -2.005  1.00  0.00     0.022 A 
BRANCH  93  97
ATOM     97  S   UNL     1     -13.728  14.912   0.610  1.00  0.00     0.124 S 
ATOM     98  O   UNL     1     -14.186  13.529   0.680  1.00  0.00    -0.237 OA
ATOM     99  O   UNL     1     -12.642  15.271   1.517  1.00  0.00    -0.237 OA
ATOM    100  O   UNL     1     -14.789  15.911   0.490  1.00  0.00    -0.744 OA
ENDBRANCH  93  97
ENDBRANCH  67  90
ENDBRANCH  41  42
ENDBRANCH  33  36
ENDBRANCH  31  32
ENDBRANCH  30  31
ENDBRANCH   1  30
TORSDOF 20
