REMARK SMILES Cc1cc(N2N=C(C(=O)NCCCCNC(=O)c3ccc(-c4c5nc(c(-c6cc(S(=O)(=O)[O-])ccc6F)c6ccc([nH]6)c(-c6cc(S(=O)(=O)[O-])ccc6F)c6nc(c(-c7cc(S(=O)(=O)[O-])ccc7F)c7ccc4[nH]7)C=C6)C=C5)cc3)C[C@H]2c2ccccc2)c([N+](=O)[O-])cc1C
REMARK SMILES IDX 13 1 12 2 11 3 10 4 8 5 9 6 7 8 5 9 6 10 82 11 81 12 4 13
REMARK SMILES IDX 1 14 2 15 3 16 94 17 93 18 95 19 89 20 90 21 91 22 92 23
REMARK SMILES IDX 83 24 84 25 88 26 85 27 87 28 86 29 14 30 15 31 16 32 17 34
REMARK SMILES IDX 18 35 19 36 80 37 20 38 79 39 21 40 22 41 23 42 73 43 24 44
REMARK SMILES IDX 78 45 72 46 74 47 25 48 77 49 71 50 70 51 26 53 58 54 38 55
REMARK SMILES IDX 57 56 39 57 42 58 56 59 75 60 40 61 41 62 55 64 76 65 43 66
REMARK SMILES IDX 27 67 28 68 36 69 29 70 35 71 37 72 34 73 30 74 31 75 32 76
REMARK SMILES IDX 33 77 59 78 60 79 68 80 61 81 67 82 69 83 66 84 62 85 63 86
REMARK SMILES IDX 64 87 65 88 44 89 45 90 53 91 46 92 52 93 54 94 51 95 47 96
REMARK SMILES IDX 48 97 49 98 50 99
REMARK H PARENT 10 7 15 33 74 52 42 63
REMARK Flexibility Score: inf
ROOT
ATOM      1  C   UNL     1     -10.164   3.113  -0.222  1.00  0.00     0.023 C 
ENDROOT
BRANCH   1   2
ATOM      2  C   UNL     1      -8.777   2.937  -0.837  1.00  0.00     0.023 C 
BRANCH   2   3
ATOM      3  C   UNL     1      -7.641   3.522  -0.006  1.00  0.00     0.116 C 
BRANCH   3   4
ATOM      4  N   UNL     1      -7.284   2.658   1.099  1.00  0.00    -0.351 N 
ATOM      5  C   UNL     1      -6.159   1.953   1.445  1.00  0.00     0.267 C 
ATOM      6  O   UNL     1      -6.207   1.278   2.472  1.00  0.00    -0.268 OA
ATOM      7  H   UNL     1      -8.014   2.552   1.751  1.00  0.00     0.163 HD
BRANCH   5   8
ATOM      8  C   UNL     1      -4.849   1.982   0.669  1.00  0.00     0.128 C 
ATOM      9  N   UNL     1      -2.758   1.698   0.298  1.00  0.00    -0.250 N 
ATOM     10  N   UNL     1      -3.763   1.486   1.189  1.00  0.00    -0.171 NA
ATOM     11  C   UNL     1      -3.206   2.323  -0.951  1.00  0.00     0.144 C 
ATOM     12  C   UNL     1      -4.710   2.493  -0.727  1.00  0.00     0.096 C 
BRANCH   9  13
ATOM     13  C   UNL     1      -1.668   0.827   0.271  1.00  0.00     0.138 A 
ATOM     14  C   UNL     1       2.114   1.338   0.296  1.00  0.00     0.045 C 
ATOM     15  C   UNL     1       0.793   0.621   0.252  1.00  0.00    -0.046 A 
ATOM     16  C   UNL     1      -0.383   1.385   0.365  1.00  0.00     0.039 A 
ATOM     17  C   UNL     1       0.692  -0.771   0.093  1.00  0.00    -0.041 A 
ATOM     18  C   UNL     1      -0.583  -1.357   0.042  1.00  0.00     0.091 A 
ATOM     19  C   UNL     1       1.890  -1.674  -0.017  1.00  0.00     0.045 C 
ATOM     20  C   UNL     1      -1.741  -0.561   0.120  1.00  0.00     0.294 A 
BRANCH  20  21
ATOM     21  N   UNL     1      -3.018  -1.233  -0.066  1.00  0.00     0.065 N 
ATOM     22  O   UNL     1      -3.214  -2.267   0.591  1.00  0.00    -0.258 OA
ATOM     23  O   UNL     1      -3.768  -0.809  -0.962  1.00  0.00    -0.258 OA
ENDBRANCH  20  21
ENDBRANCH   9  13
BRANCH  11  24
ATOM     24  C   UNL     1      -2.434   3.609  -1.231  1.00  0.00    -0.023 A 
ATOM     25  C   UNL     1      -2.797   4.859  -0.703  1.00  0.00     0.006 A 
ATOM     26  C   UNL     1      -1.270   3.542  -2.019  1.00  0.00     0.006 A 
ATOM     27  C   UNL     1      -2.053   6.006  -0.994  1.00  0.00     0.000 A 
ATOM     28  C   UNL     1      -0.504   4.680  -2.275  1.00  0.00     0.000 A 
ATOM     29  C   UNL     1      -0.904   5.915  -1.774  1.00  0.00     0.000 A 
ENDBRANCH  11  24
ENDBRANCH   5   8
ENDBRANCH   3   4
ENDBRANCH   2   3
ENDBRANCH   1   2
BRANCH   1  30
ATOM     30  C   UNL     1     -10.550   4.551   0.118  1.00  0.00     0.116 C 
BRANCH  30  31
ATOM     31  N   UNL     1     -10.385   5.476  -0.995  1.00  0.00    -0.352 N 
ATOM     32  C   UNL     1     -11.208   6.508  -1.381  1.00  0.00     0.251 C 
ATOM     33  H   UNL     1      -9.578   5.345  -1.543  1.00  0.00     0.163 HD
ATOM     34  O   UNL     1     -10.970   7.132  -2.410  1.00  0.00    -0.269 OA
BRANCH  32  35
ATOM     35  C   UNL     1     -12.399   6.819  -0.565  1.00  0.00     0.039 A 
ATOM     36  C   UNL     1     -13.644   6.902  -1.191  1.00  0.00     0.014 A 
ATOM     37  C   UNL     1     -12.289   6.960   0.821  1.00  0.00     0.014 A 
ATOM     38  C   UNL     1     -14.794   7.045  -0.414  1.00  0.00     0.010 A 
ATOM     39  C   UNL     1     -13.441   7.026   1.596  1.00  0.00     0.010 A 
ATOM     40  C   UNL     1     -14.705   7.064   0.988  1.00  0.00    -0.014 A 
BRANCH  40  41
ATOM     41  C   UNL     1     -15.921   7.117   1.838  1.00  0.00     0.031 A 
ATOM     42  C   UNL     1     -16.154   8.295   2.742  1.00  0.00     0.074 A 
ATOM     43  C   UNL     1     -16.762   6.064   1.864  1.00  0.00     0.049 A 
ATOM     44  N   UNL     1     -17.097   8.487   3.628  1.00  0.00    -0.248 NA
ATOM     45  C   UNL     1     -15.168   9.383   2.665  1.00  0.00     0.031 C 
ATOM     46  C   UNL     1     -16.604   4.835   1.081  1.00  0.00     0.029 A 
ATOM     47  N   UNL     1     -17.907   5.848   2.589  1.00  0.00    -0.354 N 
ATOM     48  C   UNL     1     -16.806   9.707   4.230  1.00  0.00     0.074 A 
ATOM     49  C   UNL     1     -15.563  10.172   3.651  1.00  0.00     0.031 C 
ATOM     50  C   UNL     1     -17.617   4.001   1.363  1.00  0.00     0.029 A 
ATOM     51  C   UNL     1     -18.476   4.615   2.370  1.00  0.00     0.049 A 
ATOM     52  H   UNL     1     -18.285   6.513   3.209  1.00  0.00     0.167 HD
ATOM     53  C   UNL     1     -17.522  10.385   5.162  1.00  0.00     0.034 A 
ATOM     54  C   UNL     1     -19.557   4.037   2.929  1.00  0.00     0.034 A 
ATOM     55  C   UNL     1     -18.768   9.909   5.713  1.00  0.00     0.049 A 
ATOM     56  C   UNL     1     -20.348   4.811   3.951  1.00  0.00     0.074 A 
ATOM     57  C   UNL     1     -19.620  10.546   6.598  1.00  0.00     0.029 A 
ATOM     58  N   UNL     1     -19.336   8.670   5.440  1.00  0.00    -0.354 N 
ATOM     59  N   UNL     1     -20.105   6.000   4.455  1.00  0.00    -0.248 NA
ATOM     60  C   UNL     1     -21.567   4.175   4.466  1.00  0.00     0.031 C 
ATOM     61  C   UNL     1     -20.665   9.669   6.910  1.00  0.00     0.029 A 
ATOM     62  C   UNL     1     -20.509   8.512   6.164  1.00  0.00     0.049 A 
ATOM     63  H   UNL     1     -18.961   8.002   4.822  1.00  0.00     0.167 HD
ATOM     64  C   UNL     1     -21.154   6.261   5.331  1.00  0.00     0.074 A 
ATOM     65  C   UNL     1     -22.038   5.114   5.273  1.00  0.00     0.031 C 
ATOM     66  C   UNL     1     -21.370   7.353   6.110  1.00  0.00     0.034 A 
BRANCH  53  67
ATOM     67  C   UNL     1     -16.951  11.696   5.652  1.00  0.00     0.023 A 
ATOM     68  C   UNL     1     -16.725  12.776   4.780  1.00  0.00     0.031 A 
ATOM     69  C   UNL     1     -16.575  11.851   6.998  1.00  0.00     0.131 A 
ATOM     70  C   UNL     1     -16.054  13.919   5.237  1.00  0.00     0.055 A 
ATOM     71  C   UNL     1     -15.989  13.029   7.468  1.00  0.00     0.041 A 
ATOM     72  F   UNL     1     -16.746  10.851   7.876  1.00  0.00    -0.206 F 
ATOM     73  C   UNL     1     -15.707  14.065   6.581  1.00  0.00     0.022 A 
BRANCH  70  74
ATOM     74  S   UNL     1     -15.486  15.133   4.014  1.00  0.00     0.124 S 
ATOM     75  O   UNL     1     -14.651  14.307   3.144  1.00  0.00    -0.237 OA
ATOM     76  O   UNL     1     -16.738  15.608   3.436  1.00  0.00    -0.237 OA
ATOM     77  O   UNL     1     -14.756  16.113   4.816  1.00  0.00    -0.744 OA
ENDBRANCH  70  74
ENDBRANCH  53  67
BRANCH  54  78
ATOM     78  C   UNL     1     -19.947   2.651   2.546  1.00  0.00     0.023 A 
ATOM     79  C   UNL     1     -21.130   2.398   1.835  1.00  0.00     0.031 A 
ATOM     80  C   UNL     1     -19.140   1.554   2.901  1.00  0.00     0.131 A 
ATOM     81  C   UNL     1     -21.494   1.076   1.533  1.00  0.00     0.055 A 
ATOM     82  C   UNL     1     -19.484   0.245   2.559  1.00  0.00     0.041 A 
ATOM     83  F   UNL     1     -17.993   1.745   3.571  1.00  0.00    -0.206 F 
ATOM     84  C   UNL     1     -20.673  -0.000   1.879  1.00  0.00     0.022 A 
BRANCH  81  85
ATOM     85  S   UNL     1     -23.090   0.777   0.725  1.00  0.00     0.124 S 
ATOM     86  O   UNL     1     -24.024   1.342   1.692  1.00  0.00    -0.237 OA
ATOM     87  O   UNL     1     -22.938   1.512  -0.526  1.00  0.00    -0.237 OA
ATOM     88  O   UNL     1     -23.135  -0.677   0.588  1.00  0.00    -0.744 OA
ENDBRANCH  81  85
ENDBRANCH  54  78
BRANCH  66  89
ATOM     89  C   UNL     1     -22.634   7.365   6.933  1.00  0.00     0.023 A 
ATOM     90  C   UNL     1     -22.826   6.479   8.008  1.00  0.00     0.031 A 
ATOM     91  C   UNL     1     -23.666   8.271   6.630  1.00  0.00     0.131 A 
ATOM     92  C   UNL     1     -24.042   6.483   8.708  1.00  0.00     0.055 A 
ATOM     93  C   UNL     1     -24.850   8.310   7.367  1.00  0.00     0.041 A 
ATOM     94  F   UNL     1     -23.536   9.138   5.612  1.00  0.00    -0.206 F 
ATOM     95  C   UNL     1     -25.048   7.404   8.404  1.00  0.00     0.022 A 
BRANCH  92  96
ATOM     96  S   UNL     1     -24.328   5.209   9.967  1.00  0.00     0.124 S 
ATOM     97  O   UNL     1     -24.186   3.980   9.192  1.00  0.00    -0.237 OA
ATOM     98  O   UNL     1     -23.268   5.481  10.932  1.00  0.00    -0.237 OA
ATOM     99  O   UNL     1     -25.682   5.491  10.439  1.00  0.00    -0.744 OA
ENDBRANCH  92  96
ENDBRANCH  66  89
ENDBRANCH  40  41
ENDBRANCH  32  35
ENDBRANCH  30  31
ENDBRANCH   1  30
TORSDOF 17
