REMARK SMILES C/C(=N\[NH+]=C1\NC(=O)[C@H](CC(=O)NCCCCNC(=O)c2ccc(-c3c4nc(c(-c5cc(S(=O)(=O)[O-])ccc5F)c5ccc([nH]5)c(-c5cc(S(=O)(=O)[O-])ccc5F)c5nc(c(-c6cc(S(=O)(=O)[O-])ccc6F)c6ccc3[nH]6)C=C5)C=C4)cc2)S1)c1ccc([N+](=O)[O-])cc1
REMARK SMILES IDX 15 1 14 2 13 3 11 4 12 5 10 7 9 8 4 9 5 10 6 12 84 13 7 14
REMARK SMILES IDX 8 16 3 17 1 18 2 19 85 20 86 21 93 22 87 23 92 24 88 25
REMARK SMILES IDX 89 26 90 27 91 28 16 29 17 30 18 31 19 32 20 34 21 35 22 36
REMARK SMILES IDX 83 37 23 38 82 39 24 40 25 41 26 42 76 43 27 44 81 45 75 46
REMARK SMILES IDX 77 47 28 48 80 49 74 50 73 51 29 53 61 54 41 55 60 56 42 57
REMARK SMILES IDX 45 58 59 59 78 60 43 61 44 62 58 64 79 65 46 66 30 67 31 68
REMARK SMILES IDX 39 69 32 70 38 71 40 72 37 73 33 74 34 75 35 76 36 77 62 78
REMARK SMILES IDX 63 79 71 80 64 81 70 82 72 83 69 84 65 85 66 86 67 87 68 88
REMARK SMILES IDX 47 89 48 90 56 91 49 92 55 93 57 94 54 95 50 96 51 97 52 98
REMARK SMILES IDX 53 99
REMARK H PARENT 13 6 4 11 6 15 18 33 77 52 45 63
REMARK Flexibility Score: inf
ROOT
ATOM      1  C   UNL     1      -2.114   5.018  -2.911  1.00  0.00     0.023 C 
ENDROOT
BRANCH   1   2
ATOM      2  C   UNL     1      -3.329   4.089  -2.928  1.00  0.00     0.116 C 
BRANCH   2   3
ATOM      3  N   UNL     1      -3.312   3.172  -4.057  1.00  0.00    -0.356 N 
ATOM      4  C   UNL     1      -3.321   1.809  -4.082  1.00  0.00     0.221 C 
ATOM      5  O   UNL     1      -3.284   1.221  -5.162  1.00  0.00    -0.275 OA
ATOM      6  H   UNL     1      -3.292   3.603  -4.941  1.00  0.00     0.163 HD
BRANCH   4   7
ATOM      7  C   UNL     1      -3.340   1.031  -2.787  1.00  0.00     0.127 C 
BRANCH   7   8
ATOM      8  C   UNL     1      -1.929   0.629  -2.386  1.00  0.00     0.183 C 
ATOM      9  N   UNL     1      -0.473   1.623   1.040  1.00  0.00    -0.142 N 
ATOM     10  C   UNL     1      -1.061   1.409  -0.087  1.00  0.00     0.337 C 
ATOM     11  H   UNL     1      -0.139   2.514   1.293  1.00  0.00     0.343 HD
ATOM     12  N   UNL     1      -0.874   2.308  -1.074  1.00  0.00    -0.202 N 
ATOM     13  S   UNL     1      -1.903  -0.001  -0.663  1.00  0.00    -0.020 SA
ATOM     14  C   UNL     1      -0.990   1.811  -2.334  1.00  0.00     0.322 C 
ATOM     15  H   UNL     1      -0.670   3.254  -0.896  1.00  0.00     0.316 HD
ATOM     16  O   UNL     1      -0.343   2.233  -3.282  1.00  0.00    -0.246 OA
BRANCH   9  17
ATOM     17  N   UNL     1      -0.337   0.522   1.878  1.00  0.00    -0.090 NA
ATOM     18  C   UNL     1       1.709   0.100   0.503  1.00  0.00     0.071 C 
ATOM     19  C   UNL     1       0.755  -0.167   1.665  1.00  0.00     0.088 C 
BRANCH  19  20
ATOM     20  C   UNL     1       1.070  -1.319   2.571  1.00  0.00    -0.000 A 
ATOM     21  C   UNL     1       0.095  -1.772   3.473  1.00  0.00     0.017 A 
ATOM     22  C   UNL     1       2.332  -1.931   2.563  1.00  0.00     0.017 A 
ATOM     23  C   UNL     1       0.381  -2.810   4.367  1.00  0.00     0.086 A 
ATOM     24  C   UNL     1       2.629  -2.961   3.459  1.00  0.00     0.086 A 
ATOM     25  C   UNL     1       1.654  -3.393   4.364  1.00  0.00     0.269 A 
BRANCH  25  26
ATOM     26  N   UNL     1       1.978  -4.456   5.322  1.00  0.00     0.062 N 
ATOM     27  O   UNL     1       1.086  -4.826   6.097  1.00  0.00    -0.258 OA
ATOM     28  O   UNL     1       3.128  -4.919   5.300  1.00  0.00    -0.258 OA
ENDBRANCH  25  26
ENDBRANCH  19  20
ENDBRANCH   9  17
ENDBRANCH   7   8
ENDBRANCH   4   7
ENDBRANCH   2   3
ENDBRANCH   1   2
BRANCH   1  29
ATOM     29  C   UNL     1      -2.115   6.094  -3.990  1.00  0.00     0.023 C 
BRANCH  29  30
ATOM     30  C   UNL     1      -3.266   7.083  -3.884  1.00  0.00     0.116 C 
BRANCH  30  31
ATOM     31  N   UNL     1      -3.276   7.796  -2.613  1.00  0.00    -0.352 N 
ATOM     32  C   UNL     1      -3.283   9.155  -2.384  1.00  0.00     0.251 C 
ATOM     33  H   UNL     1      -3.277   7.230  -1.808  1.00  0.00     0.163 HD
ATOM     34  O   UNL     1      -3.115   9.591  -1.258  1.00  0.00    -0.269 OA
BRANCH  32  35
ATOM     35  C   UNL     1      -3.463  10.064  -3.536  1.00  0.00     0.039 A 
ATOM     36  C   UNL     1      -2.569  11.120  -3.717  1.00  0.00     0.014 A 
ATOM     37  C   UNL     1      -4.472   9.816  -4.469  1.00  0.00     0.014 A 
ATOM     38  C   UNL     1      -2.635  11.877  -4.889  1.00  0.00     0.010 A 
ATOM     39  C   UNL     1      -4.476  10.510  -5.671  1.00  0.00     0.010 A 
ATOM     40  C   UNL     1      -3.556  11.546  -5.895  1.00  0.00    -0.014 A 
BRANCH  40  41
ATOM     41  C   UNL     1      -3.586  12.263  -7.195  1.00  0.00     0.031 A 
ATOM     42  C   UNL     1      -4.826  13.010  -7.601  1.00  0.00     0.074 A 
ATOM     43  C   UNL     1      -2.542  12.160  -8.042  1.00  0.00     0.049 A 
ATOM     44  N   UNL     1      -5.113  13.583  -8.741  1.00  0.00    -0.248 NA
ATOM     45  C   UNL     1      -5.902  13.085  -6.601  1.00  0.00     0.031 C 
ATOM     46  C   UNL     1      -1.305  11.421  -7.777  1.00  0.00     0.029 A 
ATOM     47  N   UNL     1      -2.361  12.663  -9.306  1.00  0.00    -0.354 N 
ATOM     48  C   UNL     1      -6.411  14.065  -8.604  1.00  0.00     0.074 A 
ATOM     49  C   UNL     1      -6.874  13.657  -7.295  1.00  0.00     0.031 C 
ATOM     50  C   UNL     1      -0.486  11.539  -8.835  1.00  0.00     0.029 A 
ATOM     51  C   UNL     1      -1.156  12.317  -9.872  1.00  0.00     0.049 A 
ATOM     52  H   UNL     1      -3.030  13.221  -9.764  1.00  0.00     0.167 HD
ATOM     53  C   UNL     1      -7.138  14.801  -9.479  1.00  0.00     0.034 A 
ATOM     54  C   UNL     1      -0.656  12.582 -11.096  1.00  0.00     0.034 A 
ATOM     55  C   UNL     1      -6.648  15.218 -10.770  1.00  0.00     0.049 A 
ATOM     56  C   UNL     1      -1.489  13.389 -12.059  1.00  0.00     0.074 A 
ATOM     57  C   UNL     1      -7.267  16.024 -11.709  1.00  0.00     0.029 A 
ATOM     58  N   UNL     1      -5.418  14.857 -11.306  1.00  0.00    -0.354 N 
ATOM     59  N   UNL     1      -2.695  13.882 -11.896  1.00  0.00    -0.248 NA
ATOM     60  C   UNL     1      -0.891  13.677 -13.369  1.00  0.00     0.031 C 
ATOM     61  C   UNL     1      -6.440  16.100 -12.835  1.00  0.00     0.029 A 
ATOM     62  C   UNL     1      -5.274  15.397 -12.574  1.00  0.00     0.049 A 
ATOM     63  H   UNL     1      -4.747  14.298 -10.852  1.00  0.00     0.167 HD
ATOM     64  C   UNL     1      -2.989  14.560 -13.075  1.00  0.00     0.074 A 
ATOM     65  C   UNL     1      -1.829  14.425 -13.932  1.00  0.00     0.031 C 
ATOM     66  C   UNL     1      -4.114  15.237 -13.419  1.00  0.00     0.034 A 
BRANCH  53  67
ATOM     67  C   UNL     1      -8.541  15.178  -9.068  1.00  0.00     0.023 A 
ATOM     68  C   UNL     1      -8.788  15.984  -7.943  1.00  0.00     0.031 A 
ATOM     69  C   UNL     1      -9.649  14.691  -9.783  1.00  0.00     0.131 A 
ATOM     70  C   UNL     1     -10.105  16.206  -7.514  1.00  0.00     0.055 A 
ATOM     71  C   UNL     1     -10.960  14.988  -9.402  1.00  0.00     0.041 A 
ATOM     72  F   UNL     1      -9.478  13.900 -10.854  1.00  0.00    -0.206 F 
ATOM     73  C   UNL     1     -11.194  15.735  -8.251  1.00  0.00     0.022 A 
BRANCH  70  74
ATOM     74  S   UNL     1     -10.367  16.986  -5.898  1.00  0.00     0.124 S 
ATOM     75  O   UNL     1      -9.685  16.051  -5.006  1.00  0.00    -0.237 OA
ATOM     76  O   UNL     1      -9.730  18.287  -6.069  1.00  0.00    -0.237 OA
ATOM     77  O   UNL     1     -11.822  17.015  -5.764  1.00  0.00    -0.744 OA
ENDBRANCH  70  74
ENDBRANCH  53  67
BRANCH  54  78
ATOM     78  C   UNL     1       0.688  12.072 -11.492  1.00  0.00     0.023 A 
ATOM     79  C   UNL     1       1.746  12.957 -11.748  1.00  0.00     0.031 A 
ATOM     80  C   UNL     1       0.923  10.696 -11.658  1.00  0.00     0.131 A 
ATOM     81  C   UNL     1       2.980  12.461 -12.198  1.00  0.00     0.055 A 
ATOM     82  C   UNL     1       2.166  10.204 -12.059  1.00  0.00     0.041 A 
ATOM     83  F   UNL     1      -0.054   9.806 -11.419  1.00  0.00    -0.206 F 
ATOM     84  C   UNL     1       3.201  11.090 -12.344  1.00  0.00     0.022 A 
BRANCH  81  85
ATOM     85  S   UNL     1       4.272  13.645 -12.667  1.00  0.00     0.124 S 
ATOM     86  O   UNL     1       3.604  14.419 -13.707  1.00  0.00    -0.237 OA
ATOM     87  O   UNL     1       4.517  14.339 -11.407  1.00  0.00    -0.237 OA
ATOM     88  O   UNL     1       5.365  12.791 -13.127  1.00  0.00    -0.744 OA
ENDBRANCH  81  85
ENDBRANCH  54  78
BRANCH  66  89
ATOM     89  C   UNL     1      -4.121  15.907 -14.769  1.00  0.00     0.023 A 
ATOM     90  C   UNL     1      -4.144  15.163 -15.961  1.00  0.00     0.031 A 
ATOM     91  C   UNL     1      -4.098  17.310 -14.862  1.00  0.00     0.131 A 
ATOM     92  C   UNL     1      -4.096  15.824 -17.197  1.00  0.00     0.055 A 
ATOM     93  C   UNL     1      -4.107  17.964 -16.094  1.00  0.00     0.041 A 
ATOM     94  F   UNL     1      -4.074  18.068 -13.754  1.00  0.00    -0.206 F 
ATOM     95  C   UNL     1      -4.095  17.220 -17.271  1.00  0.00     0.022 A 
BRANCH  92  96
ATOM     96  S   UNL     1      -3.961  14.834 -18.710  1.00  0.00     0.124 S 
ATOM     97  O   UNL     1      -2.703  14.126 -18.497  1.00  0.00    -0.237 OA
ATOM     98  O   UNL     1      -5.169  14.017 -18.659  1.00  0.00    -0.237 OA
ATOM     99  O   UNL     1      -3.936  15.836 -19.774  1.00  0.00    -0.744 OA
ENDBRANCH  92  96
ENDBRANCH  66  89
ENDBRANCH  40  41
ENDBRANCH  32  35
ENDBRANCH  30  31
ENDBRANCH  29  30
ENDBRANCH   1  29
TORSDOF 18
