REMARK SMILES O=C(C[C@@H]([NH2+]Cc1ccccc1)C(=O)NCCCCNC(=O)c1ccc(-c2c3nc(c(-c4cc(S(=O)(=O)[O-])ccc4F)c4ccc([nH]4)c(-c4cc(S(=O)(=O)[O-])ccc4F)c4nc(c(-c5cc(S(=O)(=O)[O-])ccc5F)c5ccc2[nH]5)C=C4)C=C3)cc1)Nc1cccc(Cl)c1Cl
REMARK SMILES IDX 17 1 16 2 15 3 13 4 14 5 4 7 3 8 2 9 1 10 86 11 87 13 88 14
REMARK SMILES IDX 93 15 89 16 91 17 94 18 90 19 92 20 5 21 6 24 7 25 8 26
REMARK SMILES IDX 12 27 9 28 11 29 10 30 18 31 19 32 20 33 21 34 22 36 23 37
REMARK SMILES IDX 24 38 85 39 25 40 84 41 26 42 27 43 28 44 78 45 29 46 83 47
REMARK SMILES IDX 77 48 79 49 30 50 82 51 76 52 75 53 31 55 63 56 43 57 62 58
REMARK SMILES IDX 44 59 47 60 61 61 80 62 45 63 46 64 60 66 81 67 48 68 32 69
REMARK SMILES IDX 33 70 41 71 34 72 40 73 42 74 39 75 35 76 36 77 37 78 38 79
REMARK SMILES IDX 64 80 65 81 73 82 66 83 72 84 74 85 71 86 67 87 68 88 69 89
REMARK SMILES IDX 70 90 49 91 50 92 58 93 51 94 57 95 59 96 56 97 52 98 53 99
REMARK SMILES IDX 54 100 55 101
REMARK H PARENT 15 6 86 12 5 22 5 23 20 35 79 54 47 65
REMARK Flexibility Score: inf
ROOT
ATOM      1  C   UNL     1       5.321   0.422  -3.271  1.00  0.00     0.023 C 
ENDROOT
BRANCH   1   2
ATOM      2  C   UNL     1       5.855   0.883  -1.913  1.00  0.00     0.116 C 
BRANCH   2   3
ATOM      3  N   UNL     1       5.466   2.251  -1.621  1.00  0.00    -0.351 N 
ATOM      4  C   UNL     1       4.583   2.744  -0.707  1.00  0.00     0.278 C 
ATOM      5  O   UNL     1       4.455   3.970  -0.641  1.00  0.00    -0.268 OA
ATOM      6  H   UNL     1       5.913   2.933  -2.173  1.00  0.00     0.163 HD
BRANCH   4   7
ATOM      7  C   UNL     1       3.779   1.823   0.234  1.00  0.00     0.282 C 
BRANCH   7   8
ATOM      8  C   UNL     1       2.798   0.978  -0.590  1.00  0.00     0.175 C 
BRANCH   8   9
ATOM      9  C   UNL     1       1.956   0.055   0.256  1.00  0.00     0.230 C 
ATOM     10  O   UNL     1       0.799   0.323   0.562  1.00  0.00    -0.274 OA
ATOM     11  N   UNL     1       2.662  -1.059   0.687  1.00  0.00    -0.325 N 
ATOM     12  H   UNL     1       3.622  -1.110   0.473  1.00  0.00     0.169 HD
BRANCH  11  13
ATOM     13  C   UNL     1       2.087  -2.122   1.413  1.00  0.00     0.061 A 
ATOM     14  C   UNL     1       2.783  -2.532   2.560  1.00  0.00     0.028 A 
ATOM     15  C   UNL     1       0.905  -2.792   1.033  1.00  0.00     0.083 A 
ATOM     16  C   UNL     1       2.270  -3.539   3.376  1.00  0.00     0.004 A 
ATOM     17  C   UNL     1       0.408  -3.817   1.854  1.00  0.00     0.061 A 
ATOM     18  Cl  UNL     1       0.180  -2.504  -0.521  1.00  0.00    -0.080 Cl
ATOM     19  C   UNL     1       1.080  -4.174   3.028  1.00  0.00     0.022 A 
ATOM     20  Cl  UNL     1      -1.016  -4.721   1.462  1.00  0.00    -0.083 Cl
ENDBRANCH  11  13
ENDBRANCH   8   9
ENDBRANCH   7   8
BRANCH   7  21
ATOM     21  N   UNL     1       4.667   1.002   1.117  1.00  0.00    -0.332 N 
ATOM     22  H   UNL     1       5.189   0.347   0.535  1.00  0.00     0.347 HD
ATOM     23  H   UNL     1       4.070   0.520   1.789  1.00  0.00     0.347 HD
BRANCH  21  24
ATOM     24  C   UNL     1       5.628   1.821   1.885  1.00  0.00     0.297 C 
BRANCH  24  25
ATOM     25  C   UNL     1       4.966   2.635   2.971  1.00  0.00     0.006 A 
ATOM     26  C   UNL     1       4.961   4.035   2.905  1.00  0.00     0.009 A 
ATOM     27  C   UNL     1       4.314   2.004   4.044  1.00  0.00     0.009 A 
ATOM     28  C   UNL     1       4.309   4.786   3.884  1.00  0.00     0.001 A 
ATOM     29  C   UNL     1       3.651   2.757   5.013  1.00  0.00     0.001 A 
ATOM     30  C   UNL     1       3.648   4.148   4.932  1.00  0.00     0.000 A 
ENDBRANCH  24  25
ENDBRANCH  21  24
ENDBRANCH   7  21
ENDBRANCH   4   7
ENDBRANCH   2   3
ENDBRANCH   1   2
BRANCH   1  31
ATOM     31  C   UNL     1       5.941   1.127  -4.478  1.00  0.00     0.023 C 
BRANCH  31  32
ATOM     32  C   UNL     1       7.453   0.988  -4.603  1.00  0.00     0.116 C 
BRANCH  32  33
ATOM     33  N   UNL     1       7.890  -0.395  -4.723  1.00  0.00    -0.352 N 
ATOM     34  C   UNL     1       8.904  -0.897  -5.505  1.00  0.00     0.251 C 
ATOM     35  H   UNL     1       7.399  -1.052  -4.178  1.00  0.00     0.163 HD
ATOM     36  O   UNL     1       9.078  -2.109  -5.591  1.00  0.00    -0.269 OA
BRANCH  34  37
ATOM     37  C   UNL     1       9.751   0.045  -6.266  1.00  0.00     0.039 A 
ATOM     38  C   UNL     1       9.907  -0.139  -7.642  1.00  0.00     0.014 A 
ATOM     39  C   UNL     1      10.335   1.139  -5.624  1.00  0.00     0.014 A 
ATOM     40  C   UNL     1      10.594   0.821  -8.391  1.00  0.00     0.010 A 
ATOM     41  C   UNL     1      10.963   2.122  -6.380  1.00  0.00     0.010 A 
ATOM     42  C   UNL     1      11.095   1.976  -7.771  1.00  0.00    -0.014 A 
BRANCH  42  43
ATOM     43  C   UNL     1      11.786   3.045  -8.536  1.00  0.00     0.031 A 
ATOM     44  C   UNL     1      13.232   3.335  -8.248  1.00  0.00     0.074 A 
ATOM     45  C   UNL     1      11.096   3.816  -9.398  1.00  0.00     0.049 A 
ATOM     46  N   UNL     1      13.973   4.339  -8.637  1.00  0.00    -0.248 NA
ATOM     47  C   UNL     1      13.922   2.380  -7.367  1.00  0.00     0.031 C 
ATOM     48  C   UNL     1       9.684   3.646  -9.745  1.00  0.00     0.029 A 
ATOM     49  N   UNL     1      11.484   4.917 -10.121  1.00  0.00    -0.354 N 
ATOM     50  C   UNL     1      15.207   4.157  -8.023  1.00  0.00     0.074 A 
ATOM     51  C   UNL     1      15.094   2.972  -7.199  1.00  0.00     0.031 C 
ATOM     52  C   UNL     1       9.327   4.604 -10.616  1.00  0.00     0.029 A 
ATOM     53  C   UNL     1      10.466   5.486 -10.851  1.00  0.00     0.049 A 
ATOM     54  H   UNL     1      12.405   5.266 -10.118  1.00  0.00     0.167 HD
ATOM     55  C   UNL     1      16.334   4.902  -8.147  1.00  0.00     0.034 A 
ATOM     56  C   UNL     1      10.448   6.606 -11.601  1.00  0.00     0.034 A 
ATOM     57  C   UNL     1      16.433   6.067  -8.992  1.00  0.00     0.049 A 
ATOM     58  C   UNL     1      11.709   7.426 -11.720  1.00  0.00     0.074 A 
ATOM     59  C   UNL     1      17.532   6.875  -9.225  1.00  0.00     0.029 A 
ATOM     60  N   UNL     1      15.389   6.590  -9.745  1.00  0.00    -0.354 N 
ATOM     61  N   UNL     1      12.873   7.236 -11.143  1.00  0.00    -0.248 NA
ATOM     62  C   UNL     1      11.654   8.605 -12.594  1.00  0.00     0.031 C 
ATOM     63  C   UNL     1      17.141   7.913 -10.079  1.00  0.00     0.029 A 
ATOM     64  C   UNL     1      15.815   7.716 -10.431  1.00  0.00     0.049 A 
ATOM     65  H   UNL     1      14.480   6.216  -9.786  1.00  0.00     0.167 HD
ATOM     66  C   UNL     1      13.700   8.251 -11.617  1.00  0.00     0.074 A 
ATOM     67  C   UNL     1      12.901   9.050 -12.524  1.00  0.00     0.031 C 
ATOM     68  C   UNL     1      15.005   8.495 -11.337  1.00  0.00     0.034 A 
BRANCH  55  69
ATOM     69  C   UNL     1      17.528   4.489  -7.321  1.00  0.00     0.023 A 
ATOM     70  C   UNL     1      18.151   3.241  -7.499  1.00  0.00     0.031 A 
ATOM     71  C   UNL     1      18.019   5.330  -6.307  1.00  0.00     0.131 A 
ATOM     72  C   UNL     1      19.164   2.832  -6.620  1.00  0.00     0.055 A 
ATOM     73  C   UNL     1      19.089   4.953  -5.492  1.00  0.00     0.041 A 
ATOM     74  F   UNL     1      17.453   6.525  -6.075  1.00  0.00    -0.206 F 
ATOM     75  C   UNL     1      19.655   3.690  -5.633  1.00  0.00     0.022 A 
BRANCH  72  76
ATOM     76  S   UNL     1      19.714   1.105  -6.681  1.00  0.00     0.124 S 
ATOM     77  O   UNL     1      18.469   0.391  -6.407  1.00  0.00    -0.237 OA
ATOM     78  O   UNL     1      20.234   0.987  -8.038  1.00  0.00    -0.237 OA
ATOM     79  O   UNL     1      20.715   1.026  -5.619  1.00  0.00    -0.744 OA
ENDBRANCH  72  76
ENDBRANCH  55  69
BRANCH  56  80
ATOM     80  C   UNL     1       9.197   7.034 -12.287  1.00  0.00     0.023 A 
ATOM     81  C   UNL     1       9.108   7.032 -13.688  1.00  0.00     0.031 A 
ATOM     82  C   UNL     1       8.085   7.484 -11.555  1.00  0.00     0.131 A 
ATOM     83  C   UNL     1       7.948   7.512 -14.316  1.00  0.00     0.055 A 
ATOM     84  C   UNL     1       6.915   7.916 -12.183  1.00  0.00     0.041 A 
ATOM     85  F   UNL     1       8.116   7.497 -10.213  1.00  0.00    -0.206 F 
ATOM     86  C   UNL     1       6.847   7.944 -13.573  1.00  0.00     0.022 A 
BRANCH  83  87
ATOM     87  S   UNL     1       7.928   7.633 -16.125  1.00  0.00     0.124 S 
ATOM     88  O   UNL     1       9.056   8.523 -16.376  1.00  0.00    -0.237 OA
ATOM     89  O   UNL     1       8.108   6.240 -16.523  1.00  0.00    -0.237 OA
ATOM     90  O   UNL     1       6.611   8.195 -16.414  1.00  0.00    -0.744 OA
ENDBRANCH  83  87
ENDBRANCH  56  80
BRANCH  68  91
ATOM     91  C   UNL     1      15.668   9.627 -12.078  1.00  0.00     0.023 A 
ATOM     92  C   UNL     1      15.363  10.972 -11.810  1.00  0.00     0.031 A 
ATOM     93  C   UNL     1      16.633   9.346 -13.062  1.00  0.00     0.131 A 
ATOM     94  C   UNL     1      15.992  11.988 -12.546  1.00  0.00     0.055 A 
ATOM     95  C   UNL     1      17.289  10.361 -13.758  1.00  0.00     0.041 A 
ATOM     96  F   UNL     1      16.959   8.077 -13.354  1.00  0.00    -0.206 F 
ATOM     97  C   UNL     1      16.963  11.691 -13.507  1.00  0.00     0.022 A 
BRANCH  94  98
ATOM     98  S   UNL     1      15.486  13.708 -12.271  1.00  0.00     0.124 S 
ATOM     99  O   UNL     1      14.075  13.672 -12.642  1.00  0.00    -0.237 OA
ATOM    100  O   UNL     1      15.768  13.894 -10.852  1.00  0.00    -0.237 OA
ATOM    101  O   UNL     1      16.346  14.468 -13.177  1.00  0.00    -0.744 OA
ENDBRANCH  94  98
ENDBRANCH  68  91
ENDBRANCH  42  43
ENDBRANCH  34  37
ENDBRANCH  32  33
ENDBRANCH  31  32
ENDBRANCH   1  31
TORSDOF 20
