REMARK SMILES C[C@@H](C(=O)N(C)C)[N@H+](CC(=O)NCCCCNC(=O)c1ccc(-c2c3nc(c(-c4cc(S(=O)(=O)[O-])ccc4F)c4ccc([nH]4)c(-c4cc(S(=O)(=O)[O-])ccc4F)c4nc(c(-c5cc(S(=O)(=O)[O-])ccc5F)c5ccc2[nH]5)C=C4)C=C3)cc1)CC(F)(F)F
REMARK SMILES IDX 14 1 13 2 12 3 10 4 11 5 9 7 8 8 2 10 1 11 3 12 4 13 5 14
REMARK SMILES IDX 6 15 7 16 83 17 84 18 85 19 86 20 87 21 15 22 16 23 17 24
REMARK SMILES IDX 18 25 19 27 20 28 21 29 82 30 22 31 81 32 23 33 24 34 25 35
REMARK SMILES IDX 75 36 26 37 80 38 74 39 76 40 27 41 79 42 73 43 72 44 28 46
REMARK SMILES IDX 60 47 40 48 59 49 41 50 44 51 58 52 77 53 42 54 43 55 57 57
REMARK SMILES IDX 78 58 45 59 29 60 30 61 38 62 31 63 37 64 39 65 36 66 32 67
REMARK SMILES IDX 33 68 34 69 35 70 61 71 62 72 70 73 63 74 69 75 71 76 68 77
REMARK SMILES IDX 64 78 65 79 66 80 67 81 46 82 47 83 55 84 48 85 54 86 56 87
REMARK SMILES IDX 53 88 49 89 50 90 51 91 52 92
REMARK H PARENT 12 6 8 9 17 26 76 45 44 56
REMARK Flexibility Score: inf
ROOT
ATOM      1  C   UNL     1       3.130   1.590   0.764  1.00  0.00     0.023 C 
ENDROOT
BRANCH   1   2
ATOM      2  C   UNL     1       2.109   2.558   1.501  1.00  0.00     0.116 C 
BRANCH   2   3
ATOM      3  N   UNL     1       1.111   3.491   0.953  1.00  0.00    -0.351 N 
ATOM      4  C   UNL     1      -0.206   3.501   0.575  1.00  0.00     0.275 C 
ATOM      5  O   UNL     1      -0.718   4.622   0.450  1.00  0.00    -0.269 OA
ATOM      6  H   UNL     1       1.513   4.379   0.816  1.00  0.00     0.163 HD
BRANCH   4   7
ATOM      7  C   UNL     1      -1.030   2.249   0.230  1.00  0.00     0.364 C 
BRANCH   7   8
ATOM      8  N   UNL     1      -0.872   1.912  -1.206  1.00  0.00    -0.310 N 
ATOM      9  H   UNL     1      -1.008   2.753  -1.766  1.00  0.00     0.349 HD
BRANCH   8  10
ATOM     10  C   UNL     1       0.517   1.480  -1.484  1.00  0.00     0.271 C 
ATOM     11  C   UNL     1       0.714  -0.050  -1.473  1.00  0.00     0.086 C 
BRANCH  10  12
ATOM     12  C   UNL     1       1.061   2.211  -2.752  1.00  0.00     0.280 C 
ATOM     13  O   UNL     1       0.959   1.629  -3.838  1.00  0.00    -0.268 OA
ATOM     14  N   UNL     1       1.640   3.489  -2.693  1.00  0.00    -0.344 N 
ATOM     15  C   UNL     1       2.142   4.260  -1.567  1.00  0.00     0.146 C 
ATOM     16  C   UNL     1       1.893   4.157  -3.951  1.00  0.00     0.146 C 
ENDBRANCH  10  12
ENDBRANCH   8  10
BRANCH   8  17
ATOM     17  C   UNL     1      -1.953   1.011  -1.711  1.00  0.00     0.380 C 
BRANCH  17  18
ATOM     18  C   UNL     1      -2.144   0.750  -3.233  1.00  0.00     0.438 C 
ATOM     19  F   UNL     1      -1.182  -0.026  -3.765  1.00  0.00    -0.165 F 
ATOM     20  F   UNL     1      -3.313   0.078  -3.422  1.00  0.00    -0.165 F 
ATOM     21  F   UNL     1      -2.229   1.895  -3.938  1.00  0.00    -0.165 F 
ENDBRANCH  17  18
ENDBRANCH   8  17
ENDBRANCH   7   8
ENDBRANCH   4   7
ENDBRANCH   2   3
ENDBRANCH   1   2
BRANCH   1  22
ATOM     22  C   UNL     1       3.808   1.498  -0.647  1.00  0.00     0.023 C 
BRANCH  22  23
ATOM     23  C   UNL     1       4.904   2.396  -1.258  1.00  0.00     0.116 C 
BRANCH  23  24
ATOM     24  N   UNL     1       6.040   2.682  -0.423  1.00  0.00    -0.352 N 
ATOM     25  C   UNL     1       7.202   3.325  -0.793  1.00  0.00     0.251 C 
ATOM     26  H   UNL     1       5.981   2.387   0.514  1.00  0.00     0.163 HD
ATOM     27  O   UNL     1       8.168   3.292  -0.019  1.00  0.00    -0.269 OA
BRANCH  25  28
ATOM     28  C   UNL     1       7.348   4.024  -2.099  1.00  0.00     0.039 A 
ATOM     29  C   UNL     1       8.403   3.666  -2.949  1.00  0.00     0.014 A 
ATOM     30  C   UNL     1       6.550   5.122  -2.435  1.00  0.00     0.014 A 
ATOM     31  C   UNL     1       8.640   4.379  -4.137  1.00  0.00     0.010 A 
ATOM     32  C   UNL     1       6.776   5.822  -3.635  1.00  0.00     0.010 A 
ATOM     33  C   UNL     1       7.824   5.463  -4.502  1.00  0.00    -0.014 A 
BRANCH  33  34
ATOM     34  C   UNL     1       8.063   6.216  -5.774  1.00  0.00     0.031 A 
ATOM     35  C   UNL     1       8.553   7.643  -5.750  1.00  0.00     0.074 A 
ATOM     36  C   UNL     1       7.795   5.635  -6.962  1.00  0.00     0.049 A 
ATOM     37  N   UNL     1       8.756   8.473  -6.744  1.00  0.00    -0.248 NA
ATOM     38  C   UNL     1       8.831   8.213  -4.427  1.00  0.00     0.031 C 
ATOM     39  C   UNL     1       7.297   4.271  -7.131  1.00  0.00     0.029 A 
ATOM     40  N   UNL     1       7.883   6.118  -8.248  1.00  0.00    -0.354 N 
ATOM     41  C   UNL     1       9.171   9.671  -6.168  1.00  0.00     0.074 A 
ATOM     42  C   UNL     1       9.142   9.465  -4.733  1.00  0.00     0.031 C 
ATOM     43  C   UNL     1       7.118   4.027  -8.439  1.00  0.00     0.029 A 
ATOM     44  C   UNL     1       7.448   5.228  -9.204  1.00  0.00     0.049 A 
ATOM     45  H   UNL     1       8.225   7.015  -8.464  1.00  0.00     0.167 HD
ATOM     46  C   UNL     1       9.551  10.827  -6.775  1.00  0.00     0.034 A 
ATOM     47  C   UNL     1       7.301   5.362 -10.540  1.00  0.00     0.034 A 
ATOM     48  C   UNL     1       9.567  11.018  -8.209  1.00  0.00     0.049 A 
ATOM     49  C   UNL     1       7.692   6.661 -11.197  1.00  0.00     0.074 A 
ATOM     50  C   UNL     1       9.989  12.124  -8.929  1.00  0.00     0.029 A 
ATOM     51  N   UNL     1       9.121  10.090  -9.143  1.00  0.00    -0.354 N 
ATOM     52  N   UNL     1       8.138   7.764 -10.642  1.00  0.00    -0.248 NA
ATOM     53  C   UNL     1       7.572   6.733 -12.660  1.00  0.00     0.031 C 
ATOM     54  C   UNL     1       9.719  11.898 -10.284  1.00  0.00     0.029 A 
ATOM     55  C   UNL     1       9.216  10.615 -10.425  1.00  0.00     0.049 A 
ATOM     56  H   UNL     1       8.786   9.190  -8.927  1.00  0.00     0.167 HD
ATOM     57  C   UNL     1       8.379   8.650 -11.689  1.00  0.00     0.074 A 
ATOM     58  C   UNL     1       8.032   7.951 -12.910  1.00  0.00     0.031 C 
ATOM     59  C   UNL     1       8.857   9.920 -11.642  1.00  0.00     0.034 A 
BRANCH  46  60
ATOM     60  C   UNL     1       9.929  11.991  -5.882  1.00  0.00     0.023 A 
ATOM     61  C   UNL     1      10.992  11.908  -4.964  1.00  0.00     0.031 A 
ATOM     62  C   UNL     1       9.185  13.186  -5.909  1.00  0.00     0.131 A 
ATOM     63  C   UNL     1      11.208  12.945  -4.043  1.00  0.00     0.055 A 
ATOM     64  C   UNL     1       9.469  14.255  -5.055  1.00  0.00     0.041 A 
ATOM     65  F   UNL     1       8.150  13.329  -6.751  1.00  0.00    -0.206 F 
ATOM     66  C   UNL     1      10.471  14.129  -4.098  1.00  0.00     0.022 A 
BRANCH  63  67
ATOM     67  S   UNL     1      12.332  12.641  -2.650  1.00  0.00     0.124 S 
ATOM     68  O   UNL     1      11.758  11.429  -2.068  1.00  0.00    -0.237 OA
ATOM     69  O   UNL     1      13.620  12.483  -3.314  1.00  0.00    -0.237 OA
ATOM     70  O   UNL     1      12.194  13.841  -1.829  1.00  0.00    -0.744 OA
ENDBRANCH  63  67
ENDBRANCH  46  60
BRANCH  47  71
ATOM     71  C   UNL     1       6.721   4.240 -11.337  1.00  0.00     0.023 A 
ATOM     72  C   UNL     1       7.483   3.534 -12.280  1.00  0.00     0.031 A 
ATOM     73  C   UNL     1       5.379   3.857 -11.153  1.00  0.00     0.131 A 
ATOM     74  C   UNL     1       6.893   2.493 -13.018  1.00  0.00     0.055 A 
ATOM     75  C   UNL     1       4.811   2.791 -11.853  1.00  0.00     0.041 A 
ATOM     76  F   UNL     1       4.607   4.499 -10.262  1.00  0.00    -0.206 F 
ATOM     77  C   UNL     1       5.568   2.106 -12.798  1.00  0.00     0.022 A 
BRANCH  74  78
ATOM     78  S   UNL     1       7.869   1.673 -14.309  1.00  0.00     0.124 S 
ATOM     79  O   UNL     1       8.174   2.784 -15.203  1.00  0.00    -0.237 OA
ATOM     80  O   UNL     1       8.991   1.135 -13.547  1.00  0.00    -0.237 OA
ATOM     81  O   UNL     1       6.949   0.672 -14.849  1.00  0.00    -0.744 OA
ENDBRANCH  74  78
ENDBRANCH  47  71
BRANCH  59  82
ATOM     82  C   UNL     1       9.085  10.630 -12.956  1.00  0.00     0.023 A 
ATOM     83  C   UNL     1       8.024  11.024 -13.789  1.00  0.00     0.031 A 
ATOM     84  C   UNL     1      10.396  10.941 -13.365  1.00  0.00     0.131 A 
ATOM     85  C   UNL     1       8.293  11.677 -15.003  1.00  0.00     0.055 A 
ATOM     86  C   UNL     1      10.654  11.639 -14.545  1.00  0.00     0.041 A 
ATOM     87  F   UNL     1      11.448  10.584 -12.612  1.00  0.00    -0.206 F 
ATOM     88  C   UNL     1       9.600  12.005 -15.376  1.00  0.00     0.022 A 
BRANCH  85  89
ATOM     89  S   UNL     1       6.917  12.041 -16.129  1.00  0.00     0.124 S 
ATOM     90  O   UNL     1       6.393  10.707 -16.407  1.00  0.00    -0.237 OA
ATOM     91  O   UNL     1       6.067  12.905 -15.316  1.00  0.00    -0.237 OA
ATOM     92  O   UNL     1       7.564  12.700 -17.262  1.00  0.00    -0.744 OA
ENDBRANCH  85  89
ENDBRANCH  59  82
ENDBRANCH  33  34
ENDBRANCH  25  28
ENDBRANCH  23  24
ENDBRANCH  22  23
ENDBRANCH   1  22
TORSDOF 19
