REMARK SMILES C[NH2+][C@@]1(C(=O)NCCCCNC(=O)c2ccc(-c3c4nc(c(-c5cc(S(=O)(=O)[O-])ccc5F)c5ccc([nH]5)c(-c5cc(S(=O)(=O)[O-])ccc5F)c5nc(c(-c6cc(S(=O)(=O)[O-])ccc6F)c6ccc3[nH]6)C=C5)C=C4)cc2)CC[C@H](n2ccc(C)n2)C1
REMARK SMILES IDX 9 1 8 2 7 3 6 4 4 5 5 6 3 8 77 9 86 10 78 11 79 12 2 13 1 14
REMARK SMILES IDX 80 17 81 18 85 19 82 20 83 21 84 22 10 23 11 24 12 25 13 27
REMARK SMILES IDX 14 28 15 29 76 30 16 31 75 32 17 33 18 34 19 35 69 36 20 37
REMARK SMILES IDX 74 38 68 39 70 40 21 41 73 42 67 43 66 44 22 46 54 47 34 48
REMARK SMILES IDX 53 49 35 50 38 51 52 52 71 53 36 54 37 55 51 57 72 58 39 59
REMARK SMILES IDX 23 60 24 61 32 62 25 63 31 64 33 65 30 66 26 67 27 68 28 69
REMARK SMILES IDX 29 70 55 71 56 72 64 73 57 74 63 75 65 76 62 77 58 78 59 79
REMARK SMILES IDX 60 80 61 81 40 82 41 83 49 84 42 85 48 86 50 87 47 88 43 89
REMARK SMILES IDX 44 90 45 91 46 92
REMARK H PARENT 6 7 2 15 2 16 11 26 70 45 38 56
REMARK Flexibility Score: inf
ROOT
ATOM      1  C   UNL     1      -5.112  -0.693   4.439  1.00  0.00     0.023 C 
ENDROOT
BRANCH   1   2
ATOM      2  C   UNL     1      -4.247  -0.526   3.202  1.00  0.00     0.023 C 
BRANCH   2   3
ATOM      3  C   UNL     1      -3.368   0.718   3.190  1.00  0.00     0.116 C 
BRANCH   3   4
ATOM      4  N   UNL     1      -2.004   0.354   3.503  1.00  0.00    -0.351 N 
ATOM      5  C   UNL     1      -1.015  -0.237   2.798  1.00  0.00     0.281 C 
ATOM      6  O   UNL     1      -0.121  -0.743   3.504  1.00  0.00    -0.268 OA
ATOM      7  H   UNL     1      -1.741   0.586   4.423  1.00  0.00     0.163 HD
BRANCH   5   8
ATOM      8  C   UNL     1      -0.860  -0.326   1.218  1.00  0.00     0.177 C 
ATOM      9  C   UNL     1      -1.708   0.579   0.328  1.00  0.00     0.081 C 
ATOM     10  C   UNL     1      -1.204  -1.764   0.772  1.00  0.00     0.106 C 
ATOM     11  C   UNL     1      -2.924  -0.233  -0.103  1.00  0.00     0.034 C 
ATOM     12  C   UNL     1      -2.560  -1.719   0.031  1.00  0.00     0.114 C 
BRANCH   8  13
ATOM     13  N   UNL     1       0.591  -0.001   1.053  1.00  0.00    -0.336 N 
ATOM     14  C   UNL     1       1.191  -0.033  -0.263  1.00  0.00     0.331 C 
ATOM     15  H   UNL     1       0.725   0.943   1.416  1.00  0.00     0.346 HD
ATOM     16  H   UNL     1       1.060  -0.762   1.544  1.00  0.00     0.346 HD
ENDBRANCH   8  13
BRANCH  12  17
ATOM     17  N   UNL     1      -3.636  -2.524   0.599  1.00  0.00    -0.269 N 
ATOM     18  C   UNL     1      -4.962  -2.482   0.256  1.00  0.00     0.109 A 
ATOM     19  N   UNL     1      -3.389  -3.409   1.580  1.00  0.00    -0.178 NA
ATOM     20  C   UNL     1      -5.619  -3.270   1.173  1.00  0.00     0.045 A 
ATOM     21  C   UNL     1      -4.599  -3.808   1.988  1.00  0.00     0.059 A 
ATOM     22  C   UNL     1      -4.745  -4.662   3.191  1.00  0.00     0.069 C 
ENDBRANCH  12  17
ENDBRANCH   5   8
ENDBRANCH   3   4
ENDBRANCH   2   3
ENDBRANCH   1   2
BRANCH   1  23
ATOM     23  C   UNL     1      -6.276   0.281   4.502  1.00  0.00     0.116 C 
BRANCH  23  24
ATOM     24  N   UNL     1      -7.252   0.099   3.431  1.00  0.00    -0.352 N 
ATOM     25  C   UNL     1      -8.630   0.091   3.502  1.00  0.00     0.251 C 
ATOM     26  H   UNL     1      -6.873  -0.036   2.532  1.00  0.00     0.163 HD
ATOM     27  O   UNL     1      -9.295  -0.160   2.508  1.00  0.00    -0.269 OA
BRANCH  25  28
ATOM     28  C   UNL     1      -9.279   0.326   4.812  1.00  0.00     0.039 A 
ATOM     29  C   UNL     1     -10.293  -0.536   5.234  1.00  0.00     0.014 A 
ATOM     30  C   UNL     1      -8.807   1.324   5.663  1.00  0.00     0.014 A 
ATOM     31  C   UNL     1     -10.752  -0.464   6.552  1.00  0.00     0.010 A 
ATOM     32  C   UNL     1      -9.168   1.305   7.003  1.00  0.00     0.010 A 
ATOM     33  C   UNL     1     -10.147   0.413   7.467  1.00  0.00    -0.014 A 
BRANCH  33  34
ATOM     34  C   UNL     1     -10.519   0.438   8.908  1.00  0.00     0.031 A 
ATOM     35  C   UNL     1     -10.974   1.731   9.535  1.00  0.00     0.074 A 
ATOM     36  C   UNL     1     -10.350  -0.661   9.673  1.00  0.00     0.049 A 
ATOM     37  N   UNL     1     -11.181   2.018  10.794  1.00  0.00    -0.248 NA
ATOM     38  C   UNL     1     -11.159   2.871   8.624  1.00  0.00     0.031 C 
ATOM     39  C   UNL     1      -9.847  -1.956   9.204  1.00  0.00     0.029 A 
ATOM     40  N   UNL     1     -10.570  -0.863  11.013  1.00  0.00    -0.354 N 
ATOM     41  C   UNL     1     -11.471   3.379  10.828  1.00  0.00     0.074 A 
ATOM     42  C   UNL     1     -11.333   3.869   9.474  1.00  0.00     0.031 C 
ATOM     43  C   UNL     1      -9.838  -2.824  10.229  1.00  0.00     0.029 A 
ATOM     44  C   UNL     1     -10.283  -2.140  11.438  1.00  0.00     0.049 A 
ATOM     45  H   UNL     1     -10.904  -0.158  11.614  1.00  0.00     0.167 HD
ATOM     46  C   UNL     1     -11.852   4.143  11.882  1.00  0.00     0.034 A 
ATOM     47  C   UNL     1     -10.364  -2.694  12.664  1.00  0.00     0.034 A 
ATOM     48  C   UNL     1     -12.044   3.621  13.212  1.00  0.00     0.049 A 
ATOM     49  C   UNL     1     -10.838  -1.841  13.813  1.00  0.00     0.074 A 
ATOM     50  C   UNL     1     -12.503   4.278  14.339  1.00  0.00     0.029 A 
ATOM     51  N   UNL     1     -11.797   2.307  13.590  1.00  0.00    -0.354 N 
ATOM     52  N   UNL     1     -11.155  -0.566  13.820  1.00  0.00    -0.248 NA
ATOM     53  C   UNL     1     -10.977  -2.504  15.116  1.00  0.00     0.031 C 
ATOM     54  C   UNL     1     -12.489   3.375  15.409  1.00  0.00     0.029 A 
ATOM     55  C   UNL     1     -12.083   2.138  14.935  1.00  0.00     0.049 A 
ATOM     56  H   UNL     1     -11.468   1.600  12.990  1.00  0.00     0.167 HD
ATOM     57  C   UNL     1     -11.559  -0.284  15.122  1.00  0.00     0.074 A 
ATOM     58  C   UNL     1     -11.460  -1.524  15.865  1.00  0.00     0.031 C 
ATOM     59  C   UNL     1     -11.976   0.892  15.657  1.00  0.00     0.034 A 
BRANCH  46  60
ATOM     60  C   UNL     1     -12.075   5.615  11.626  1.00  0.00     0.023 A 
ATOM     61  C   UNL     1     -13.047   6.066  10.715  1.00  0.00     0.031 A 
ATOM     62  C   UNL     1     -11.270   6.581  12.255  1.00  0.00     0.131 A 
ATOM     63  C   UNL     1     -13.120   7.426  10.381  1.00  0.00     0.055 A 
ATOM     64  C   UNL     1     -11.414   7.945  11.990  1.00  0.00     0.041 A 
ATOM     65  F   UNL     1     -10.313   6.214  13.121  1.00  0.00    -0.206 F 
ATOM     66  C   UNL     1     -12.328   8.373  11.032  1.00  0.00     0.022 A 
BRANCH  63  67
ATOM     67  S   UNL     1     -14.140   7.911   8.962  1.00  0.00     0.124 S 
ATOM     68  O   UNL     1     -13.511   7.161   7.878  1.00  0.00    -0.237 OA
ATOM     69  O   UNL     1     -15.470   7.463   9.360  1.00  0.00    -0.237 OA
ATOM     70  O   UNL     1     -13.963   9.360   8.892  1.00  0.00    -0.744 OA
ENDBRANCH  63  67
ENDBRANCH  46  60
BRANCH  47  71
ATOM     71  C   UNL     1     -10.001  -4.124  12.877  1.00  0.00     0.023 A 
ATOM     72  C   UNL     1     -10.975  -5.065  13.250  1.00  0.00     0.031 A 
ATOM     73  C   UNL     1      -8.673  -4.566  12.750  1.00  0.00     0.131 A 
ATOM     74  C   UNL     1     -10.601  -6.389  13.529  1.00  0.00     0.055 A 
ATOM     75  C   UNL     1      -8.313  -5.896  12.981  1.00  0.00     0.041 A 
ATOM     76  F   UNL     1      -7.705  -3.711  12.386  1.00  0.00    -0.206 F 
ATOM     77  C   UNL     1      -9.278  -6.813  13.386  1.00  0.00     0.022 A 
BRANCH  74  78
ATOM     78  S   UNL     1     -11.860  -7.532  14.160  1.00  0.00     0.124 S 
ATOM     79  O   UNL     1     -12.313  -6.843  15.363  1.00  0.00    -0.237 OA
ATOM     80  O   UNL     1     -12.808  -7.579  13.051  1.00  0.00    -0.237 OA
ATOM     81  O   UNL     1     -11.113  -8.767  14.391  1.00  0.00    -0.744 OA
ENDBRANCH  74  78
ENDBRANCH  47  71
BRANCH  59  82
ATOM     82  C   UNL     1     -12.403   0.871  17.102  1.00  0.00     0.023 A 
ATOM     83  C   UNL     1     -11.481   0.662  18.142  1.00  0.00     0.031 A 
ATOM     84  C   UNL     1     -13.755   1.055  17.439  1.00  0.00     0.131 A 
ATOM     85  C   UNL     1     -11.932   0.588  19.468  1.00  0.00     0.055 A 
ATOM     86  C   UNL     1     -14.190   1.037  18.764  1.00  0.00     0.041 A 
ATOM     87  F   UNL     1     -14.676   1.258  16.483  1.00  0.00    -0.206 F 
ATOM     88  C   UNL     1     -13.278   0.790  19.787  1.00  0.00     0.022 A 
BRANCH  85  89
ATOM     89  S   UNL     1     -10.748   0.141  20.766  1.00  0.00     0.124 S 
ATOM     90  O   UNL     1     -10.276  -1.163  20.310  1.00  0.00    -0.237 OA
ATOM     91  O   UNL     1      -9.779   1.230  20.693  1.00  0.00    -0.237 OA
ATOM     92  O   UNL     1     -11.562   0.117  21.980  1.00  0.00    -0.744 OA
ENDBRANCH  85  89
ENDBRANCH  59  82
ENDBRANCH  33  34
ENDBRANCH  25  28
ENDBRANCH  23  24
ENDBRANCH   1  23
TORSDOF 16
