REMARK SMILES [NH3+][C@H](C(=O)NCCCCNC(=O)c1ccc(-c2c3nc(c(-c4cc(S(=O)(=O)[O-])ccc4F)c4ccc([nH]4)c(-c4cc(S(=O)(=O)[O-])ccc4F)c4nc(c(-c5cc(S(=O)(=O)[O-])ccc5F)c5ccc2[nH]5)C=C4)C=C3)cc1)c1ccc(Cl)c(OC(F)(F)F)c1
REMARK SMILES IDX 7 1 6 2 5 3 3 4 4 5 2 7 1 8 76 12 77 13 87 14 78 15 81 16
REMARK SMILES IDX 79 17 80 18 82 19 83 20 84 21 85 22 86 23 8 24 9 25 10 26
REMARK SMILES IDX 11 27 12 29 13 30 14 31 75 32 15 33 74 34 16 35 17 36 18 37
REMARK SMILES IDX 68 38 19 39 73 40 67 41 69 42 20 43 72 44 66 45 65 46 21 48
REMARK SMILES IDX 53 49 33 50 52 51 34 52 37 53 51 54 70 55 35 56 36 57 50 59
REMARK SMILES IDX 71 60 38 61 22 62 23 63 31 64 24 65 30 66 32 67 29 68 25 69
REMARK SMILES IDX 26 70 27 71 28 72 54 73 55 74 63 75 56 76 62 77 64 78 61 79
REMARK SMILES IDX 57 80 58 81 59 82 60 83 39 84 40 85 48 86 41 87 47 88 49 89
REMARK SMILES IDX 46 90 42 91 43 92 44 93 45 94
REMARK H PARENT 5 6 1 9 1 10 1 11 10 28 69 47 37 58
REMARK Flexibility Score: inf
ROOT
ATOM      1  C   UNL     1       1.371  -1.523  -3.259  1.00  0.00     0.023 C 
ENDROOT
BRANCH   1   2
ATOM      2  C   UNL     1       0.434  -1.337  -2.070  1.00  0.00     0.116 C 
BRANCH   2   3
ATOM      3  N   UNL     1       1.162  -1.064  -0.844  1.00  0.00    -0.351 N 
ATOM      4  C   UNL     1       1.167   0.029  -0.026  1.00  0.00     0.283 C 
ATOM      5  O   UNL     1       1.831  -0.050   1.013  1.00  0.00    -0.268 OA
ATOM      6  H   UNL     1       1.756  -1.794  -0.552  1.00  0.00     0.163 HD
BRANCH   4   7
ATOM      7  C   UNL     1       0.398   1.327  -0.370  1.00  0.00     0.302 C 
BRANCH   7   8
ATOM      8  N   UNL     1       0.876   1.896  -1.651  1.00  0.00    -0.343 N 
ATOM      9  H   UNL     1       0.357   2.749  -1.859  1.00  0.00     0.345 HD
ATOM     10  H   UNL     1       0.729   1.218  -2.400  1.00  0.00     0.345 HD
ATOM     11  H   UNL     1       1.870   2.111  -1.578  1.00  0.00     0.345 HD
ENDBRANCH   7   8
BRANCH   7  12
ATOM     12  C   UNL     1      -1.124   1.262  -0.302  1.00  0.00     0.023 A 
ATOM     13  C   UNL     1      -1.856   2.447  -0.490  1.00  0.00     0.012 A 
ATOM     14  C   UNL     1      -1.838   0.080  -0.028  1.00  0.00     0.059 A 
ATOM     15  C   UNL     1      -3.250   2.448  -0.429  1.00  0.00     0.025 A 
ATOM     16  C   UNL     1      -3.240   0.054  -0.018  1.00  0.00     0.148 A 
ATOM     17  C   UNL     1      -3.937   1.256  -0.202  1.00  0.00     0.083 A 
ATOM     18  Cl  UNL     1      -5.665   1.310  -0.165  1.00  0.00    -0.080 Cl
BRANCH  16  19
ATOM     19  O   UNL     1      -3.993  -1.072   0.182  1.00  0.00    -0.404 OA
BRANCH  19  20
ATOM     20  C   UNL     1      -3.376  -2.328  -0.050  1.00  0.00     0.573 C 
ATOM     21  F   UNL     1      -2.733  -2.347  -1.239  1.00  0.00    -0.132 F 
ATOM     22  F   UNL     1      -2.501  -2.617   0.935  1.00  0.00    -0.132 F 
ATOM     23  F   UNL     1      -4.327  -3.285  -0.068  1.00  0.00    -0.132 F 
ENDBRANCH  19  20
ENDBRANCH  16  19
ENDBRANCH   7  12
ENDBRANCH   4   7
ENDBRANCH   2   3
ENDBRANCH   1   2
BRANCH   1  24
ATOM     24  C   UNL     1       2.316  -2.723  -3.147  1.00  0.00     0.023 C 
BRANCH  24  25
ATOM     25  C   UNL     1       1.640  -4.073  -2.915  1.00  0.00     0.116 C 
BRANCH  25  26
ATOM     26  N   UNL     1       0.719  -4.434  -3.981  1.00  0.00    -0.352 N 
ATOM     27  C   UNL     1       0.633  -5.611  -4.689  1.00  0.00     0.251 C 
ATOM     28  H   UNL     1       0.067  -3.741  -4.231  1.00  0.00     0.163 HD
ATOM     29  O   UNL     1      -0.113  -5.682  -5.662  1.00  0.00    -0.269 OA
BRANCH  27  30
ATOM     30  C   UNL     1       1.465  -6.769  -4.296  1.00  0.00     0.039 A 
ATOM     31  C   UNL     1       2.181  -7.454  -5.282  1.00  0.00     0.014 A 
ATOM     32  C   UNL     1       1.559  -7.163  -2.959  1.00  0.00     0.014 A 
ATOM     33  C   UNL     1       3.052  -8.483  -4.916  1.00  0.00     0.010 A 
ATOM     34  C   UNL     1       2.479  -8.142  -2.589  1.00  0.00     0.010 A 
ATOM     35  C   UNL     1       3.240  -8.808  -3.562  1.00  0.00    -0.014 A 
BRANCH  35  36
ATOM     36  C   UNL     1       4.234  -9.832  -3.142  1.00  0.00     0.031 A 
ATOM     37  C   UNL     1       3.778 -11.084  -2.443  1.00  0.00     0.074 A 
ATOM     38  C   UNL     1       5.550  -9.598  -3.318  1.00  0.00     0.049 A 
ATOM     39  N   UNL     1       4.491 -12.043  -1.910  1.00  0.00    -0.248 NA
ATOM     40  C   UNL     1       2.326 -11.261  -2.296  1.00  0.00     0.031 C 
ATOM     41  C   UNL     1       6.119  -8.402  -3.942  1.00  0.00     0.029 A 
ATOM     42  N   UNL     1       6.649 -10.345  -2.973  1.00  0.00    -0.354 N 
ATOM     43  C   UNL     1       3.577 -12.929  -1.350  1.00  0.00     0.074 A 
ATOM     44  C   UNL     1       2.262 -12.358  -1.558  1.00  0.00     0.031 C 
ATOM     45  C   UNL     1       7.458  -8.503  -3.949  1.00  0.00     0.029 A 
ATOM     46  C   UNL     1       7.847  -9.746  -3.290  1.00  0.00     0.049 A 
ATOM     47  H   UNL     1       6.587 -11.226  -2.540  1.00  0.00     0.167 HD
ATOM     48  C   UNL     1       3.811 -14.117  -0.738  1.00  0.00     0.034 A 
ATOM     49  C   UNL     1       9.115 -10.142  -3.061  1.00  0.00     0.034 A 
ATOM     50  C   UNL     1       5.128 -14.677  -0.551  1.00  0.00     0.049 A 
ATOM     51  C   UNL     1       9.353 -11.458  -2.364  1.00  0.00     0.074 A 
ATOM     52  C   UNL     1       5.475 -15.900  -0.005  1.00  0.00     0.029 A 
ATOM     53  N   UNL     1       6.317 -14.047  -0.897  1.00  0.00    -0.354 N 
ATOM     54  N   UNL     1       8.476 -12.312  -1.890  1.00  0.00    -0.248 NA
ATOM     55  C   UNL     1      10.752 -11.867  -2.180  1.00  0.00     0.031 C 
ATOM     56  C   UNL     1       6.871 -15.981   0.043  1.00  0.00     0.029 A 
ATOM     57  C   UNL     1       7.398 -14.842  -0.545  1.00  0.00     0.049 A 
ATOM     58  H   UNL     1       6.384 -13.165  -1.329  1.00  0.00     0.167 HD
ATOM     59  C   UNL     1       9.217 -13.373  -1.379  1.00  0.00     0.074 A 
ATOM     60  C   UNL     1      10.611 -13.057  -1.615  1.00  0.00     0.031 C 
ATOM     61  C   UNL     1       8.785 -14.510  -0.775  1.00  0.00     0.034 A 
BRANCH  48  62
ATOM     62  C   UNL     1       2.615 -14.870  -0.204  1.00  0.00     0.023 A 
ATOM     63  C   UNL     1       1.595 -15.334  -1.053  1.00  0.00     0.031 A 
ATOM     64  C   UNL     1       2.475 -15.100   1.176  1.00  0.00     0.131 A 
ATOM     65  C   UNL     1       0.445 -15.926  -0.510  1.00  0.00     0.055 A 
ATOM     66  C   UNL     1       1.367 -15.768   1.703  1.00  0.00     0.041 A 
ATOM     67  F   UNL     1       3.406 -14.665   2.040  1.00  0.00    -0.206 F 
ATOM     68  C   UNL     1       0.335 -16.169   0.861  1.00  0.00     0.022 A 
BRANCH  65  69
ATOM     69  S   UNL     1      -0.970 -16.230  -1.604  1.00  0.00     0.124 S 
ATOM     70  O   UNL     1      -1.244 -14.887  -2.110  1.00  0.00    -0.237 OA
ATOM     71  O   UNL     1      -0.425 -17.177  -2.568  1.00  0.00    -0.237 OA
ATOM     72  O   UNL     1      -1.989 -16.768  -0.705  1.00  0.00    -0.744 OA
ENDBRANCH  65  69
ENDBRANCH  48  62
BRANCH  49  73
ATOM     73  C   UNL     1      10.261  -9.282  -3.475  1.00  0.00     0.023 A 
ATOM     74  C   UNL     1      11.163  -9.704  -4.464  1.00  0.00     0.031 A 
ATOM     75  C   UNL     1      10.490  -8.038  -2.860  1.00  0.00     0.131 A 
ATOM     76  C   UNL     1      12.278  -8.911  -4.778  1.00  0.00     0.055 A 
ATOM     77  C   UNL     1      11.571  -7.229  -3.212  1.00  0.00     0.041 A 
ATOM     78  F   UNL     1       9.653  -7.584  -1.914  1.00  0.00    -0.206 F 
ATOM     79  C   UNL     1      12.481  -7.671  -4.168  1.00  0.00     0.022 A 
BRANCH  76  80
ATOM     80  S   UNL     1      13.507  -9.562  -5.943  1.00  0.00     0.124 S 
ATOM     81  O   UNL     1      13.912 -10.800  -5.287  1.00  0.00    -0.237 OA
ATOM     82  O   UNL     1      12.719  -9.708  -7.162  1.00  0.00    -0.237 OA
ATOM     83  O   UNL     1      14.525  -8.514  -5.983  1.00  0.00    -0.744 OA
ENDBRANCH  76  80
ENDBRANCH  49  73
BRANCH  61  84
ATOM     84  C   UNL     1       9.836 -15.514  -0.369  1.00  0.00     0.023 A 
ATOM     85  C   UNL     1      10.762 -15.247   0.654  1.00  0.00     0.031 A 
ATOM     86  C   UNL     1       9.914 -16.756  -1.025  1.00  0.00     0.131 A 
ATOM     87  C   UNL     1      11.758 -16.188   0.958  1.00  0.00     0.055 A 
ATOM     88  C   UNL     1      10.870 -17.712  -0.678  1.00  0.00     0.041 A 
ATOM     89  F   UNL     1       9.056 -17.063  -2.011  1.00  0.00    -0.206 F 
ATOM     90  C   UNL     1      11.807 -17.425   0.310  1.00  0.00     0.022 A 
BRANCH  87  91
ATOM     91  S   UNL     1      13.044 -15.741   2.156  1.00  0.00     0.124 S 
ATOM     92  O   UNL     1      13.638 -14.560   1.537  1.00  0.00    -0.237 OA
ATOM     93  O   UNL     1      12.271 -15.504   3.371  1.00  0.00    -0.237 OA
ATOM     94  O   UNL     1      13.906 -16.921   2.192  1.00  0.00    -0.744 OA
ENDBRANCH  87  91
ENDBRANCH  61  84
ENDBRANCH  35  36
ENDBRANCH  27  30
ENDBRANCH  25  26
ENDBRANCH  24  25
ENDBRANCH   1  24
TORSDOF 18
