REMARK SMILES CC[C@H]1CCCC[C@@H]1C1(C(=O)NCCCCNC(=O)c2ccc(-c3c4nc(c(-c5cc(S(=O)(=O)[O-])ccc5F)c5ccc([nH]5)c(-c5cc(S(=O)(=O)[O-])ccc5F)c5nc(c(-c6cc(S(=O)(=O)[O-])ccc6F)c6ccc3[nH]6)C=C5)C=C4)cc2)CC1
REMARK SMILES IDX 15 1 14 2 13 3 12 4 10 5 11 6 9 8 83 9 84 10 8 11 3 12 4 13
REMARK SMILES IDX 5 14 7 15 6 16 2 17 1 18 16 19 17 20 18 21 19 23 20 24 21 25
REMARK SMILES IDX 82 26 22 27 81 28 23 29 24 30 25 31 75 32 26 33 80 34 74 35
REMARK SMILES IDX 76 36 27 37 79 38 73 39 72 40 28 42 60 43 40 44 59 45 41 46
REMARK SMILES IDX 44 47 58 48 77 49 42 50 43 51 57 53 78 54 45 55 29 56 30 57
REMARK SMILES IDX 38 58 31 59 37 60 39 61 36 62 32 63 33 64 34 65 35 66 61 67
REMARK SMILES IDX 62 68 70 69 63 70 69 71 71 72 68 73 64 74 65 75 66 76 67 77
REMARK SMILES IDX 46 78 47 79 55 80 48 81 54 82 56 83 53 84 49 85 50 86 51 87
REMARK SMILES IDX 52 88
REMARK H PARENT 12 7 17 22 76 41 44 52
REMARK Flexibility Score: inf
ROOT
ATOM      1  C   UNL     1      -2.460   7.030  -0.213  1.00  0.00     0.023 C 
ENDROOT
BRANCH   1   2
ATOM      2  C   UNL     1      -2.990   5.630   0.120  1.00  0.00     0.023 C 
BRANCH   2   3
ATOM      3  C   UNL     1      -2.485   4.506  -0.781  1.00  0.00     0.116 C 
BRANCH   3   4
ATOM      4  N   UNL     1      -1.043   4.400  -0.799  1.00  0.00    -0.356 N 
ATOM      5  C   UNL     1      -0.122   3.605  -0.184  1.00  0.00     0.226 C 
ATOM      6  O   UNL     1       1.031   3.711  -0.605  1.00  0.00    -0.274 OA
ATOM      7  H   UNL     1      -0.627   5.061  -1.398  1.00  0.00     0.163 HD
BRANCH   5   8
ATOM      8  C   UNL     1      -0.404   2.602   0.939  1.00  0.00     0.052 C 
ATOM      9  C   UNL     1      -1.300   1.432   0.510  1.00  0.00     0.018 C 
ATOM     10  C   UNL     1      -1.777   2.387   1.556  1.00  0.00     0.018 C 
BRANCH   8  11
ATOM     11  C   UNL     1       0.846   2.369   1.869  1.00  0.00     0.008 C 
ATOM     12  C   UNL     1       1.048   0.980   2.534  1.00  0.00    -0.007 C 
ATOM     13  C   UNL     1       0.251   0.819   3.844  1.00  0.00     0.004 C 
ATOM     14  C   UNL     1       0.405   1.998   4.804  1.00  0.00     0.000 C 
ATOM     15  C   UNL     1       1.007   3.522   2.875  1.00  0.00     0.005 C 
ATOM     16  C   UNL     1       0.173   3.349   4.138  1.00  0.00     0.000 C 
BRANCH  12  17
ATOM     17  C   UNL     1       2.544   0.670   2.842  1.00  0.00     0.000 C 
ATOM     18  C   UNL     1       3.494   0.786   1.657  1.00  0.00     0.004 C 
ENDBRANCH  12  17
ENDBRANCH   8  11
ENDBRANCH   5   8
ENDBRANCH   3   4
ENDBRANCH   2   3
ENDBRANCH   1   2
BRANCH   1  19
ATOM     19  C   UNL     1      -2.467   7.425  -1.687  1.00  0.00     0.116 C 
BRANCH  19  20
ATOM     20  N   UNL     1      -3.771   7.300  -2.318  1.00  0.00    -0.352 N 
ATOM     21  C   UNL     1      -4.340   8.108  -3.275  1.00  0.00     0.251 C 
ATOM     22  H   UNL     1      -4.318   6.537  -2.023  1.00  0.00     0.163 HD
ATOM     23  O   UNL     1      -5.485   7.890  -3.658  1.00  0.00    -0.269 OA
BRANCH  21  24
ATOM     24  C   UNL     1      -3.582   9.269  -3.790  1.00  0.00     0.039 A 
ATOM     25  C   UNL     1      -4.187  10.527  -3.759  1.00  0.00     0.014 A 
ATOM     26  C   UNL     1      -2.269   9.126  -4.246  1.00  0.00     0.014 A 
ATOM     27  C   UNL     1      -3.446  11.658  -4.111  1.00  0.00     0.010 A 
ATOM     28  C   UNL     1      -1.514  10.261  -4.537  1.00  0.00     0.010 A 
ATOM     29  C   UNL     1      -2.092  11.538  -4.461  1.00  0.00    -0.014 A 
BRANCH  29  30
ATOM     30  C   UNL     1      -1.262  12.741  -4.734  1.00  0.00     0.031 A 
ATOM     31  C   UNL     1      -0.691  12.969  -6.106  1.00  0.00     0.074 A 
ATOM     32  C   UNL     1      -0.970  13.590  -3.729  1.00  0.00     0.049 A 
ATOM     33  N   UNL     1       0.111  13.915  -6.522  1.00  0.00    -0.248 NA
ATOM     34  C   UNL     1      -1.048  11.984  -7.138  1.00  0.00     0.031 C 
ATOM     35  C   UNL     1      -1.430  13.451  -2.345  1.00  0.00     0.029 A 
ATOM     36  N   UNL     1      -0.210  14.733  -3.709  1.00  0.00    -0.354 N 
ATOM     37  C   UNL     1       0.365  13.634  -7.861  1.00  0.00     0.074 A 
ATOM     38  C   UNL     1      -0.322  12.396  -8.165  1.00  0.00     0.031 C 
ATOM     39  C   UNL     1      -0.960  14.477  -1.619  1.00  0.00     0.029 A 
ATOM     40  C   UNL     1      -0.131  15.325  -2.469  1.00  0.00     0.049 A 
ATOM     41  H   UNL     1       0.238  15.095  -4.508  1.00  0.00     0.167 HD
ATOM     42  C   UNL     1       1.086  14.354  -8.757  1.00  0.00     0.034 A 
ATOM     43  C   UNL     1       0.542  16.420  -2.061  1.00  0.00     0.034 A 
ATOM     44  C   UNL     1       1.756  15.591  -8.437  1.00  0.00     0.049 A 
ATOM     45  C   UNL     1       1.353  17.194  -3.070  1.00  0.00     0.074 A 
ATOM     46  C   UNL     1       2.467  16.430  -9.279  1.00  0.00     0.029 A 
ATOM     47  N   UNL     1       1.807  16.165  -7.173  1.00  0.00    -0.354 N 
ATOM     48  N   UNL     1       1.539  16.944  -4.345  1.00  0.00    -0.248 NA
ATOM     49  C   UNL     1       2.034  18.402  -2.587  1.00  0.00     0.031 C 
ATOM     50  C   UNL     1       2.999  17.473  -8.513  1.00  0.00     0.029 A 
ATOM     51  C   UNL     1       2.560  17.329  -7.207  1.00  0.00     0.049 A 
ATOM     52  H   UNL     1       1.372  15.798  -6.369  1.00  0.00     0.167 HD
ATOM     53  C   UNL     1       2.331  17.985  -4.823  1.00  0.00     0.074 A 
ATOM     54  C   UNL     1       2.579  18.867  -3.701  1.00  0.00     0.031 C 
ATOM     55  C   UNL     1       2.803  18.196  -6.078  1.00  0.00     0.034 A 
BRANCH  42  56
ATOM     56  C   UNL     1       1.202  13.800 -10.157  1.00  0.00     0.023 A 
ATOM     57  C   UNL     1       0.073  13.630 -10.978  1.00  0.00     0.031 A 
ATOM     58  C   UNL     1       2.451  13.408 -10.668  1.00  0.00     0.131 A 
ATOM     59  C   UNL     1       0.204  13.010 -12.230  1.00  0.00     0.055 A 
ATOM     60  C   UNL     1       2.586  12.868 -11.949  1.00  0.00     0.041 A 
ATOM     61  F   UNL     1       3.563  13.527  -9.925  1.00  0.00    -0.206 F 
ATOM     62  C   UNL     1       1.456  12.650 -12.732  1.00  0.00     0.022 A 
BRANCH  59  63
ATOM     63  S   UNL     1      -1.303  12.546 -13.126  1.00  0.00     0.124 S 
ATOM     64  O   UNL     1      -1.955  11.658 -12.166  1.00  0.00    -0.237 OA
ATOM     65  O   UNL     1      -1.950  13.835 -13.345  1.00  0.00    -0.237 OA
ATOM     66  O   UNL     1      -0.798  11.888 -14.329  1.00  0.00    -0.744 OA
ENDBRANCH  59  63
ENDBRANCH  42  56
BRANCH  43  67
ATOM     67  C   UNL     1       0.489  16.851  -0.635  1.00  0.00     0.023 A 
ATOM     68  C   UNL     1      -0.107  18.067  -0.268  1.00  0.00     0.031 A 
ATOM     69  C   UNL     1       1.068  16.067   0.380  1.00  0.00     0.131 A 
ATOM     70  C   UNL     1      -0.072  18.488   1.071  1.00  0.00     0.055 A 
ATOM     71  C   UNL     1       1.056  16.466   1.717  1.00  0.00     0.041 A 
ATOM     72  F   UNL     1       1.645  14.892   0.084  1.00  0.00    -0.206 F 
ATOM     73  C   UNL     1       0.494  17.690   2.067  1.00  0.00     0.022 A 
BRANCH  70  74
ATOM     74  S   UNL     1      -0.711  20.136   1.480  1.00  0.00     0.124 S 
ATOM     75  O   UNL     1       0.114  20.992   0.635  1.00  0.00    -0.237 OA
ATOM     76  O   UNL     1      -2.115  20.019   1.101  1.00  0.00    -0.237 OA
ATOM     77  O   UNL     1      -0.462  20.250   2.916  1.00  0.00    -0.744 OA
ENDBRANCH  70  74
ENDBRANCH  43  67
BRANCH  55  78
ATOM     78  C   UNL     1       3.591  19.461  -6.312  1.00  0.00     0.023 A 
ATOM     79  C   UNL     1       4.865  19.657  -5.752  1.00  0.00     0.031 A 
ATOM     80  C   UNL     1       3.053  20.485  -7.112  1.00  0.00     0.131 A 
ATOM     81  C   UNL     1       5.540  20.870  -5.962  1.00  0.00     0.055 A 
ATOM     82  C   UNL     1       3.752  21.666  -7.362  1.00  0.00     0.041 A 
ATOM     83  F   UNL     1       1.839  20.350  -7.669  1.00  0.00    -0.206 F 
ATOM     84  C   UNL     1       4.999  21.868  -6.777  1.00  0.00     0.022 A 
BRANCH  81  85
ATOM     85  S   UNL     1       7.108  21.158  -5.096  1.00  0.00     0.124 S 
ATOM     86  O   UNL     1       6.704  21.059  -3.697  1.00  0.00    -0.237 OA
ATOM     87  O   UNL     1       7.945  20.072  -5.596  1.00  0.00    -0.237 OA
ATOM     88  O   UNL     1       7.502  22.495  -5.536  1.00  0.00    -0.744 OA
ENDBRANCH  81  85
ENDBRANCH  55  78
ENDBRANCH  29  30
ENDBRANCH  21  24
ENDBRANCH  19  20
ENDBRANCH   1  19
TORSDOF 16
