REMARK SMILES CC(C)CC[C@@H](C)[C@@](C)(O)C(=O)NCCCCNC(=O)c1ccc(-c2c3nc(c(-c4cc(S(=O)(=O)[O-])ccc4F)c4ccc([nH]4)c(-c4cc(S(=O)(=O)[O-])ccc4F)c4nc(c(-c5cc(S(=O)(=O)[O-])ccc5F)c5ccc2[nH]5)C=C4)C=C3)cc1
REMARK SMILES IDX 15 1 14 2 13 3 11 4 12 5 8 7 9 8 6 9 7 10 5 11 4 12 2 13
REMARK SMILES IDX 1 14 3 15 10 16 16 18 17 19 18 20 19 21 20 23 21 24 22 25
REMARK SMILES IDX 83 26 23 27 82 28 24 29 25 30 26 31 76 32 27 33 81 34 75 35
REMARK SMILES IDX 77 36 28 37 80 38 74 39 73 40 29 42 61 43 41 44 60 45 42 46
REMARK SMILES IDX 45 47 59 48 78 49 43 50 44 51 58 53 79 54 46 55 30 56 31 57
REMARK SMILES IDX 39 58 32 59 38 60 40 61 37 62 33 63 34 64 35 65 36 66 62 67
REMARK SMILES IDX 63 68 71 69 64 70 70 71 72 72 69 73 65 74 66 75 67 76 68 77
REMARK SMILES IDX 47 78 48 79 56 80 49 81 55 82 57 83 54 84 50 85 51 86 52 87
REMARK SMILES IDX 53 88
REMARK H PARENT 13 6 10 17 18 22 77 41 45 52
REMARK Flexibility Score: inf
ROOT
ATOM      1  C   UNL     1      -3.404   6.803  -3.152  1.00  0.00     0.023 C 
ENDROOT
BRANCH   1   2
ATOM      2  C   UNL     1      -2.937   5.959  -1.969  1.00  0.00     0.116 C 
BRANCH   2   3
ATOM      3  N   UNL     1      -3.585   4.663  -1.932  1.00  0.00    -0.354 N 
ATOM      4  C   UNL     1      -3.059   3.405  -2.005  1.00  0.00     0.251 C 
ATOM      5  O   UNL     1      -3.868   2.473  -1.987  1.00  0.00    -0.272 OA
ATOM      6  H   UNL     1      -4.564   4.694  -1.840  1.00  0.00     0.163 HD
BRANCH   4   7
ATOM      7  C   UNL     1      -1.515   3.181  -2.030  1.00  0.00     0.142 C 
ATOM      8  C   UNL     1      -0.927   3.602  -0.671  1.00  0.00     0.053 C 
BRANCH   7   9
ATOM      9  C   UNL     1      -1.113   1.699  -2.361  1.00  0.00     0.027 C 
ATOM     10  C   UNL     1      -1.555   1.279  -3.773  1.00  0.00     0.011 C 
BRANCH   9  11
ATOM     11  C   UNL     1      -1.555   0.660  -1.302  1.00  0.00     0.007 C 
BRANCH  11  12
ATOM     12  C   UNL     1      -0.912  -0.730  -1.434  1.00  0.00     0.003 C 
BRANCH  12  13
ATOM     13  C   UNL     1       0.627  -0.761  -1.380  1.00  0.00    -0.017 C 
ATOM     14  C   UNL     1       1.178  -0.163  -0.085  1.00  0.00     0.007 C 
ATOM     15  C   UNL     1       1.121  -2.201  -1.539  1.00  0.00     0.007 C 
ENDBRANCH  12  13
ENDBRANCH  11  12
ENDBRANCH   9  11
ENDBRANCH   7   9
BRANCH   7  16
ATOM     16  O   UNL     1      -0.906   4.014  -3.032  1.00  0.00    -0.380 OA
ATOM     17  H   UNL     1       0.053   3.865  -3.037  1.00  0.00     0.212 HD
ENDBRANCH   7  16
ENDBRANCH   4   7
ENDBRANCH   2   3
ENDBRANCH   1   2
BRANCH   1  18
ATOM     18  C   UNL     1      -4.901   7.114  -3.176  1.00  0.00     0.023 C 
BRANCH  18  19
ATOM     19  C   UNL     1      -5.476   7.677  -1.880  1.00  0.00     0.116 C 
BRANCH  19  20
ATOM     20  N   UNL     1      -4.821   8.902  -1.452  1.00  0.00    -0.352 N 
ATOM     21  C   UNL     1      -5.381  10.097  -1.068  1.00  0.00     0.251 C 
ATOM     22  H   UNL     1      -3.837   8.872  -1.436  1.00  0.00     0.163 HD
ATOM     23  O   UNL     1      -4.660  11.070  -0.863  1.00  0.00    -0.269 OA
BRANCH  21  24
ATOM     24  C   UNL     1      -6.850  10.213  -0.943  1.00  0.00     0.039 A 
ATOM     25  C   UNL     1      -7.493  11.301  -1.537  1.00  0.00     0.014 A 
ATOM     26  C   UNL     1      -7.592   9.239  -0.269  1.00  0.00     0.014 A 
ATOM     27  C   UNL     1      -8.888  11.372  -1.521  1.00  0.00     0.010 A 
ATOM     28  C   UNL     1      -8.983   9.273  -0.319  1.00  0.00     0.010 A 
ATOM     29  C   UNL     1      -9.647  10.337  -0.948  1.00  0.00    -0.014 A 
BRANCH  29  30
ATOM     30  C   UNL     1     -11.133  10.350  -1.001  1.00  0.00     0.031 A 
ATOM     31  C   UNL     1     -11.932  10.422   0.272  1.00  0.00     0.074 A 
ATOM     32  C   UNL     1     -11.761  10.228  -2.188  1.00  0.00     0.049 A 
ATOM     33  N   UNL     1     -13.228  10.363   0.442  1.00  0.00    -0.248 NA
ATOM     34  C   UNL     1     -11.167  10.545   1.521  1.00  0.00     0.031 C 
ATOM     35  C   UNL     1     -11.095  10.108  -3.487  1.00  0.00     0.029 A 
ATOM     36  N   UNL     1     -13.097  10.175  -2.496  1.00  0.00    -0.354 N 
ATOM     37  C   UNL     1     -13.434  10.427   1.816  1.00  0.00     0.074 A 
ATOM     38  C   UNL     1     -12.124  10.465   2.432  1.00  0.00     0.031 C 
ATOM     39  C   UNL     1     -12.025  10.020  -4.452  1.00  0.00     0.029 A 
ATOM     40  C   UNL     1     -13.351  10.030  -3.841  1.00  0.00     0.049 A 
ATOM     41  H   UNL     1     -13.808  10.236  -1.818  1.00  0.00     0.167 HD
ATOM     42  C   UNL     1     -14.605  10.472   2.498  1.00  0.00     0.034 A 
ATOM     43  C   UNL     1     -14.517   9.906  -4.505  1.00  0.00     0.034 A 
ATOM     44  C   UNL     1     -15.902  10.445   1.865  1.00  0.00     0.049 A 
ATOM     45  C   UNL     1     -15.807   9.935  -3.725  1.00  0.00     0.074 A 
ATOM     46  C   UNL     1     -17.151  10.545   2.454  1.00  0.00     0.029 A 
ATOM     47  N   UNL     1     -16.120  10.298   0.501  1.00  0.00    -0.354 N 
ATOM     48  N   UNL     1     -15.986  10.049  -2.429  1.00  0.00    -0.248 NA
ATOM     49  C   UNL     1     -17.050   9.829  -4.498  1.00  0.00     0.031 C 
ATOM     50  C   UNL     1     -18.121  10.390   1.458  1.00  0.00     0.029 A 
ATOM     51  C   UNL     1     -17.481  10.273   0.234  1.00  0.00     0.049 A 
ATOM     52  H   UNL     1     -15.411  10.223  -0.178  1.00  0.00     0.167 HD
ATOM     53  C   UNL     1     -17.365  10.060  -2.236  1.00  0.00     0.074 A 
ATOM     54  C   UNL     1     -17.967   9.955  -3.550  1.00  0.00     0.031 C 
ATOM     55  C   UNL     1     -18.070  10.155  -1.080  1.00  0.00     0.034 A 
BRANCH  42  56
ATOM     56  C   UNL     1     -14.528  10.528   4.006  1.00  0.00     0.023 A 
ATOM     57  C   UNL     1     -13.916  11.602   4.676  1.00  0.00     0.031 A 
ATOM     58  C   UNL     1     -15.043   9.477   4.786  1.00  0.00     0.131 A 
ATOM     59  C   UNL     1     -13.760  11.563   6.070  1.00  0.00     0.055 A 
ATOM     60  C   UNL     1     -14.961   9.485   6.180  1.00  0.00     0.041 A 
ATOM     61  F   UNL     1     -15.621   8.414   4.205  1.00  0.00    -0.206 F 
ATOM     62  C   UNL     1     -14.301  10.524   6.829  1.00  0.00     0.022 A 
BRANCH  59  63
ATOM     63  S   UNL     1     -12.704  12.810   6.857  1.00  0.00     0.124 S 
ATOM     64  O   UNL     1     -11.432  12.595   6.170  1.00  0.00    -0.237 OA
ATOM     65  O   UNL     1     -13.397  14.054   6.545  1.00  0.00    -0.237 OA
ATOM     66  O   UNL     1     -12.713  12.426   8.267  1.00  0.00    -0.744 OA
ENDBRANCH  59  63
ENDBRANCH  42  56
BRANCH  43  67
ATOM     67  C   UNL     1     -14.528   9.734  -5.986  1.00  0.00     0.023 A 
ATOM     68  C   UNL     1     -15.091  10.711  -6.823  1.00  0.00     0.031 A 
ATOM     69  C   UNL     1     -14.011   8.571  -6.585  1.00  0.00     0.131 A 
ATOM     70  C   UNL     1     -15.165  10.489  -8.207  1.00  0.00     0.055 A 
ATOM     71  C   UNL     1     -14.040   8.378  -7.968  1.00  0.00     0.041 A 
ATOM     72  F   UNL     1     -13.458   7.608  -5.832  1.00  0.00    -0.206 F 
ATOM     73  C   UNL     1     -14.632   9.335  -8.786  1.00  0.00     0.022 A 
BRANCH  70  74
ATOM     74  S   UNL     1     -16.044  11.698  -9.235  1.00  0.00     0.124 S 
ATOM     75  O   UNL     1     -17.373  11.689  -8.633  1.00  0.00    -0.237 OA
ATOM     76  O   UNL     1     -15.253  12.905  -9.025  1.00  0.00    -0.237 OA
ATOM     77  O   UNL     1     -15.963  11.126 -10.577  1.00  0.00    -0.744 OA
ENDBRANCH  70  74
ENDBRANCH  43  67
BRANCH  55  78
ATOM     78  C   UNL     1     -19.574  10.197  -1.196  1.00  0.00     0.023 A 
ATOM     79  C   UNL     1     -20.315   9.089  -1.645  1.00  0.00     0.031 A 
ATOM     80  C   UNL     1     -20.275  11.369  -0.861  1.00  0.00     0.131 A 
ATOM     81  C   UNL     1     -21.706   9.196  -1.800  1.00  0.00     0.055 A 
ATOM     82  C   UNL     1     -21.664  11.450  -0.959  1.00  0.00     0.041 A 
ATOM     83  F   UNL     1     -19.618  12.458  -0.429  1.00  0.00    -0.206 F 
ATOM     84  C   UNL     1     -22.387  10.363  -1.444  1.00  0.00     0.022 A 
BRANCH  81  85
ATOM     85  S   UNL     1     -22.607   7.818  -2.562  1.00  0.00     0.124 S 
ATOM     86  O   UNL     1     -21.949   7.706  -3.860  1.00  0.00    -0.237 OA
ATOM     87  O   UNL     1     -22.358   6.727  -1.625  1.00  0.00    -0.237 OA
ATOM     88  O   UNL     1     -23.988   8.293  -2.606  1.00  0.00    -0.744 OA
ENDBRANCH  81  85
ENDBRANCH  55  78
ENDBRANCH  29  30
ENDBRANCH  21  24
ENDBRANCH  19  20
ENDBRANCH  18  19
ENDBRANCH   1  18
TORSDOF 19
