REMARK SMILES Cc1nc2sc3c(c2c2nc(CCC(=O)NCCCCNC(=O)c4ccc(-c5c6nc(c(-c7cc(S(=O)(=O)[O-])ccc7F)c7ccc([nH]7)c(-c7cc(S(=O)(=O)[O-])ccc7F)c7nc(c(-c8cc(S(=O)(=O)[O-])ccc8F)c8ccc5[nH]8)C=C7)C=C6)cc4)nn12)[C@@H](C)CCC3
REMARK SMILES IDX 19 1 18 2 17 3 16 4 14 5 15 6 13 8 12 9 11 10 1 11 2 12 3 13
REMARK SMILES IDX 88 14 4 15 9 16 87 17 5 18 8 19 10 20 6 21 7 22 93 23 89 24
REMARK SMILES IDX 92 25 90 26 91 27 20 28 21 29 22 30 23 32 24 33 25 34 86 35
REMARK SMILES IDX 26 36 85 37 27 38 28 39 29 40 79 41 30 42 84 43 78 44 80 45
REMARK SMILES IDX 31 46 83 47 77 48 76 49 32 51 64 52 44 53 63 54 45 55 48 56
REMARK SMILES IDX 62 57 81 58 46 59 47 60 61 62 82 63 49 64 33 65 34 66 42 67
REMARK SMILES IDX 35 68 41 69 43 70 40 71 36 72 37 73 38 74 39 75 65 76 66 77
REMARK SMILES IDX 74 78 67 79 73 80 75 81 72 82 68 83 69 84 70 85 71 86 50 87
REMARK SMILES IDX 51 88 59 89 52 90 58 91 60 92 57 93 53 94 54 95 55 96 56 97
REMARK H PARENT 16 7 21 31 80 50 48 61
REMARK Flexibility Score: inf
ROOT
ATOM      1  C   UNL     1      -1.178   3.927   2.417  1.00  0.00     0.023 C 
ENDROOT
BRANCH   1   2
ATOM      2  C   UNL     1      -1.263   3.903   0.901  1.00  0.00     0.023 C 
BRANCH   2   3
ATOM      3  C   UNL     1      -1.665   5.280   0.365  1.00  0.00     0.116 C 
BRANCH   3   4
ATOM      4  N   UNL     1      -0.870   6.363   0.938  1.00  0.00    -0.356 N 
ATOM      5  C   UNL     1       0.460   6.630   0.817  1.00  0.00     0.220 C 
ATOM      6  O   UNL     1       0.963   7.502   1.527  1.00  0.00    -0.275 OA
ATOM      7  H   UNL     1      -1.373   6.997   1.498  1.00  0.00     0.163 HD
BRANCH   5   8
ATOM      8  C   UNL     1       1.269   5.911  -0.235  1.00  0.00     0.108 C 
BRANCH   8   9
ATOM      9  C   UNL     1       2.563   5.311   0.319  1.00  0.00     0.089 C 
BRANCH   9  10
ATOM     10  C   UNL     1       2.370   4.124   1.204  1.00  0.00     0.152 A 
ATOM     11  C   UNL     1       1.387   0.191   0.462  1.00  0.00     0.090 C 
ATOM     12  C   UNL     1       1.534   0.841   1.804  1.00  0.00     0.131 A 
ATOM     13  N   UNL     1       1.205   0.225   2.902  1.00  0.00    -0.222 NA
ATOM     14  N   UNL     1       1.964   2.171   1.802  1.00  0.00    -0.199 N 
ATOM     15  C   UNL     1       1.119   1.001   4.029  1.00  0.00     0.129 A 
ATOM     16  C   UNL     1       1.933   2.972   2.927  1.00  0.00     0.168 A 
ATOM     17  N   UNL     1       2.268   2.885   0.697  1.00  0.00    -0.150 NA
ATOM     18  S   UNL     1       0.538   0.307   5.464  1.00  0.00    -0.120 S 
ATOM     19  C   UNL     1       1.333   2.373   4.175  1.00  0.00     0.060 A 
ATOM     20  N   UNL     1       2.224   4.207   2.578  1.00  0.00    -0.211 NA
ATOM     21  C   UNL     1       0.219   1.837   6.128  1.00  0.00     0.011 A 
ATOM     22  C   UNL     1       0.724   2.909   5.385  1.00  0.00    -0.018 A 
ATOM     23  C   UNL     1      -0.608   1.908   7.377  1.00  0.00     0.047 C 
ATOM     24  C   UNL     1       0.538   4.337   5.937  1.00  0.00     0.018 C 
ATOM     25  C   UNL     1      -0.424   3.252   8.064  1.00  0.00     0.006 C 
ATOM     26  C   UNL     1       0.151   5.457   4.976  1.00  0.00     0.013 C 
ATOM     27  C   UNL     1      -0.564   4.377   7.048  1.00  0.00     0.008 C 
ENDBRANCH   9  10
ENDBRANCH   8   9
ENDBRANCH   5   8
ENDBRANCH   3   4
ENDBRANCH   2   3
ENDBRANCH   1   2
BRANCH   1  28
ATOM     28  C   UNL     1      -2.076   2.982   3.155  1.00  0.00     0.116 C 
BRANCH  28  29
ATOM     29  N   UNL     1      -1.915   1.537   2.981  1.00  0.00    -0.352 N 
ATOM     30  C   UNL     1      -2.667   0.538   3.632  1.00  0.00     0.251 C 
ATOM     31  H   UNL     1      -1.219   1.236   2.353  1.00  0.00     0.163 HD
ATOM     32  O   UNL     1      -2.314  -0.623   3.666  1.00  0.00    -0.269 OA
BRANCH  30  33
ATOM     33  C   UNL     1      -3.934   0.963   4.261  1.00  0.00     0.039 A 
ATOM     34  C   UNL     1      -4.442   0.593   5.510  1.00  0.00     0.014 A 
ATOM     35  C   UNL     1      -4.610   1.909   3.548  1.00  0.00     0.014 A 
ATOM     36  C   UNL     1      -5.560   1.301   5.989  1.00  0.00     0.010 A 
ATOM     37  C   UNL     1      -5.077   2.895   4.335  1.00  0.00     0.010 A 
ATOM     38  C   UNL     1      -5.906   2.471   5.322  1.00  0.00    -0.014 A 
BRANCH  38  39
ATOM     39  C   UNL     1      -6.978   3.415   5.554  1.00  0.00     0.031 A 
ATOM     40  C   UNL     1      -6.968   4.035   6.893  1.00  0.00     0.074 A 
ATOM     41  C   UNL     1      -7.696   3.908   4.508  1.00  0.00     0.049 A 
ATOM     42  N   UNL     1      -7.793   3.802   7.853  1.00  0.00    -0.248 NA
ATOM     43  C   UNL     1      -5.821   4.871   7.288  1.00  0.00     0.031 C 
ATOM     44  C   UNL     1      -7.583   3.621   3.064  1.00  0.00     0.029 A 
ATOM     45  N   UNL     1      -8.648   4.873   4.516  1.00  0.00    -0.354 N 
ATOM     46  C   UNL     1      -7.425   4.649   8.887  1.00  0.00     0.074 A 
ATOM     47  C   UNL     1      -6.093   5.096   8.577  1.00  0.00     0.031 C 
ATOM     48  C   UNL     1      -8.265   4.543   2.345  1.00  0.00     0.029 A 
ATOM     49  C   UNL     1      -9.015   5.373   3.265  1.00  0.00     0.049 A 
ATOM     50  H   UNL     1      -9.055   5.200   5.351  1.00  0.00     0.167 HD
ATOM     51  C   UNL     1      -8.345   5.096   9.785  1.00  0.00     0.034 A 
ATOM     52  C   UNL     1      -9.891   6.386   3.019  1.00  0.00     0.034 A 
ATOM     53  C   UNL     1      -9.585   4.358   9.660  1.00  0.00     0.049 A 
ATOM     54  C   UNL     1     -10.745   6.475   4.236  1.00  0.00     0.074 A 
ATOM     55  C   UNL     1      -9.911   3.021   9.790  1.00  0.00     0.029 A 
ATOM     56  N   UNL     1     -10.581   4.904   8.875  1.00  0.00    -0.354 N 
ATOM     57  N   UNL     1     -11.533   5.502   4.615  1.00  0.00    -0.248 NA
ATOM     58  C   UNL     1     -10.304   7.363   5.304  1.00  0.00     0.031 C 
ATOM     59  C   UNL     1     -10.751   2.740   8.670  1.00  0.00     0.029 A 
ATOM     60  C   UNL     1     -10.992   3.934   7.985  1.00  0.00     0.049 A 
ATOM     61  H   UNL     1     -10.934   5.820   8.939  1.00  0.00     0.167 HD
ATOM     62  C   UNL     1     -11.347   5.394   5.987  1.00  0.00     0.074 A 
ATOM     63  C   UNL     1     -10.635   6.619   6.366  1.00  0.00     0.031 C 
ATOM     64  C   UNL     1     -11.488   4.200   6.641  1.00  0.00     0.034 A 
BRANCH  51  65
ATOM     65  C   UNL     1      -8.237   6.379  10.562  1.00  0.00     0.023 A 
ATOM     66  C   UNL     1      -9.130   6.590  11.627  1.00  0.00     0.031 A 
ATOM     67  C   UNL     1      -7.458   7.493  10.174  1.00  0.00     0.131 A 
ATOM     68  C   UNL     1      -9.245   7.856  12.229  1.00  0.00     0.055 A 
ATOM     69  C   UNL     1      -7.532   8.732  10.813  1.00  0.00     0.041 A 
ATOM     70  F   UNL     1      -6.657   7.470   9.101  1.00  0.00    -0.206 F 
ATOM     71  C   UNL     1      -8.444   8.926  11.835  1.00  0.00     0.022 A 
BRANCH  68  72
ATOM     72  S   UNL     1     -10.545   8.117  13.463  1.00  0.00     0.124 S 
ATOM     73  O   UNL     1     -11.746   7.774  12.711  1.00  0.00    -0.237 OA
ATOM     74  O   UNL     1     -10.154   7.184  14.515  1.00  0.00    -0.237 OA
ATOM     75  O   UNL     1     -10.408   9.531  13.805  1.00  0.00    -0.744 OA
ENDBRANCH  68  72
ENDBRANCH  51  65
BRANCH  52  76
ATOM     76  C   UNL     1      -9.797   7.452   1.975  1.00  0.00     0.023 A 
ATOM     77  C   UNL     1     -10.882   8.291   1.631  1.00  0.00     0.031 A 
ATOM     78  C   UNL     1      -8.531   7.830   1.468  1.00  0.00     0.131 A 
ATOM     79  C   UNL     1     -10.676   9.442   0.827  1.00  0.00     0.055 A 
ATOM     80  C   UNL     1      -8.334   8.967   0.678  1.00  0.00     0.041 A 
ATOM     81  F   UNL     1      -7.420   7.152   1.797  1.00  0.00    -0.206 F 
ATOM     82  C   UNL     1      -9.405   9.785   0.362  1.00  0.00     0.022 A 
BRANCH  79  83
ATOM     83  S   UNL     1     -12.051  10.585   0.460  1.00  0.00     0.124 S 
ATOM     84  O   UNL     1     -12.814   9.839  -0.534  1.00  0.00    -0.237 OA
ATOM     85  O   UNL     1     -12.678  10.756   1.765  1.00  0.00    -0.237 OA
ATOM     86  O   UNL     1     -11.374  11.778  -0.053  1.00  0.00    -0.744 OA
ENDBRANCH  79  83
ENDBRANCH  52  76
BRANCH  64  87
ATOM     87  C   UNL     1     -12.024   3.003   5.861  1.00  0.00     0.023 A 
ATOM     88  C   UNL     1     -11.390   2.403   4.743  1.00  0.00     0.031 A 
ATOM     89  C   UNL     1     -13.150   2.347   6.386  1.00  0.00     0.131 A 
ATOM     90  C   UNL     1     -11.890   1.199   4.198  1.00  0.00     0.055 A 
ATOM     91  C   UNL     1     -13.629   1.147   5.858  1.00  0.00     0.041 A 
ATOM     92  F   UNL     1     -13.780   2.842   7.464  1.00  0.00    -0.206 F 
ATOM     93  C   UNL     1     -13.002   0.568   4.760  1.00  0.00     0.022 A 
BRANCH  90  94
ATOM     94  S   UNL     1     -11.087   0.416   2.754  1.00  0.00     0.124 S 
ATOM     95  O   UNL     1     -11.106   1.471   1.747  1.00  0.00    -0.237 OA
ATOM     96  O   UNL     1      -9.772   0.051   3.273  1.00  0.00    -0.237 OA
ATOM     97  O   UNL     1     -11.957  -0.724   2.454  1.00  0.00    -0.744 OA
ENDBRANCH  90  94
ENDBRANCH  64  87
ENDBRANCH  38  39
ENDBRANCH  30  33
ENDBRANCH  28  29
ENDBRANCH   1  28
TORSDOF 16
