REMARK SMILES CC(C)[NH2+][C@@]1(C(=O)NCCCCNC(=O)c2ccc(-c3c4nc(c(-c5cc(S(=O)(=O)[O-])ccc5F)c5ccc([nH]5)c(-c5cc(S(=O)(=O)[O-])ccc5F)c5nc(c(-c6cc(S(=O)(=O)[O-])ccc6F)c6ccc3[nH]6)C=C5)C=C4)cc2)CC[C@H](Sc2ccccn2)C1
REMARK SMILES IDX 11 1 10 2 9 3 8 4 6 5 7 6 5 8 79 9 89 10 80 11 81 12 4 13
REMARK SMILES IDX 2 16 1 17 3 18 82 19 83 20 84 21 88 22 85 23 87 24 86 25
REMARK SMILES IDX 12 26 13 27 14 28 15 30 16 31 17 32 78 33 18 34 77 35 19 36
REMARK SMILES IDX 20 37 21 38 71 39 22 40 76 41 70 42 72 43 23 44 75 45 69 46
REMARK SMILES IDX 68 47 24 49 56 50 36 51 55 52 37 53 40 54 54 55 73 56 38 57
REMARK SMILES IDX 39 58 53 60 74 61 41 62 25 63 26 64 34 65 27 66 33 67 35 68
REMARK SMILES IDX 32 69 28 70 29 71 30 72 31 73 57 74 58 75 66 76 59 77 65 78
REMARK SMILES IDX 67 79 64 80 60 81 61 82 62 83 63 84 42 85 43 86 51 87 44 88
REMARK SMILES IDX 50 89 52 90 49 91 45 92 46 93 47 94 48 95
REMARK H PARENT 8 7 4 14 4 15 13 29 72 48 40 59
REMARK Flexibility Score: inf
ROOT
ATOM      1  C   UNL     1      -5.876   4.875  -3.397  1.00  0.00     0.023 C 
ENDROOT
BRANCH   1   2
ATOM      2  C   UNL     1      -4.366   4.737  -3.271  1.00  0.00     0.023 C 
BRANCH   2   3
ATOM      3  C   UNL     1      -3.844   4.708  -1.839  1.00  0.00     0.116 C 
BRANCH   3   4
ATOM      4  N   UNL     1      -3.831   3.372  -1.294  1.00  0.00    -0.351 N 
ATOM      5  C   UNL     1      -2.811   2.514  -1.030  1.00  0.00     0.281 C 
ATOM      6  O   UNL     1      -3.164   1.369  -0.712  1.00  0.00    -0.268 OA
ATOM      7  H   UNL     1      -4.723   3.018  -1.074  1.00  0.00     0.163 HD
BRANCH   5   8
ATOM      8  C   UNL     1      -1.266   2.904  -1.107  1.00  0.00     0.176 C 
ATOM      9  C   UNL     1      -0.939   4.008  -0.072  1.00  0.00     0.080 C 
ATOM     10  C   UNL     1      -0.894   3.481  -2.487  1.00  0.00     0.094 C 
ATOM     11  C   UNL     1      -0.536   5.262  -0.850  1.00  0.00     0.022 C 
ATOM     12  C   UNL     1      -0.071   4.745  -2.203  1.00  0.00     0.060 C 
BRANCH   8  13
ATOM     13  N   UNL     1      -0.565   1.639  -0.791  1.00  0.00    -0.332 N 
ATOM     14  H   UNL     1      -0.978   1.316   0.084  1.00  0.00     0.347 HD
ATOM     15  H   UNL     1      -0.690   1.146  -1.675  1.00  0.00     0.347 HD
BRANCH  13  16
ATOM     16  C   UNL     1       0.866   1.478  -0.617  1.00  0.00     0.176 C 
ATOM     17  C   UNL     1       1.057   0.115   0.068  1.00  0.00     0.075 C 
ATOM     18  C   UNL     1       1.674   1.475  -1.912  1.00  0.00     0.075 C 
ENDBRANCH  13  16
ENDBRANCH   8  13
BRANCH  12  19
ATOM     19  S   UNL     1       0.014   5.856  -3.664  1.00  0.00    -0.103 SA
BRANCH  19  20
ATOM     20  C   UNL     1      -1.060   7.236  -3.329  1.00  0.00     0.096 A 
ATOM     21  C   UNL     1      -0.768   8.158  -2.329  1.00  0.00     0.035 A 
ATOM     22  N   UNL     1      -2.070   7.425  -4.208  1.00  0.00    -0.250 NA
ATOM     23  C   UNL     1      -1.553   9.304  -2.214  1.00  0.00     0.004 A 
ATOM     24  C   UNL     1      -2.792   8.566  -4.100  1.00  0.00     0.112 A 
ATOM     25  C   UNL     1      -2.576   9.521  -3.124  1.00  0.00     0.020 A 
ENDBRANCH  19  20
ENDBRANCH  12  19
ENDBRANCH   5   8
ENDBRANCH   3   4
ENDBRANCH   2   3
ENDBRANCH   1   2
BRANCH   1  26
ATOM     26  C   UNL     1      -6.499   6.010  -2.594  1.00  0.00     0.116 C 
BRANCH  26  27
ATOM     27  N   UNL     1      -5.821   7.295  -2.731  1.00  0.00    -0.352 N 
ATOM     28  C   UNL     1      -6.386   8.552  -2.789  1.00  0.00     0.251 C 
ATOM     29  H   UNL     1      -4.839   7.261  -2.791  1.00  0.00     0.163 HD
ATOM     30  O   UNL     1      -5.701   9.552  -2.949  1.00  0.00    -0.269 OA
BRANCH  28  31
ATOM     31  C   UNL     1      -7.853   8.655  -2.723  1.00  0.00     0.039 A 
ATOM     32  C   UNL     1      -8.525   9.275  -3.778  1.00  0.00     0.014 A 
ATOM     33  C   UNL     1      -8.551   8.016  -1.697  1.00  0.00     0.014 A 
ATOM     34  C   UNL     1      -9.911   9.165  -3.857  1.00  0.00     0.010 A 
ATOM     35  C   UNL     1      -9.918   7.827  -1.831  1.00  0.00     0.010 A 
ATOM     36  C   UNL     1     -10.608   8.391  -2.917  1.00  0.00    -0.014 A 
BRANCH  36  37
ATOM     37  C   UNL     1     -12.067   8.155  -3.035  1.00  0.00     0.031 A 
ATOM     38  C   UNL     1     -12.976   8.632  -1.940  1.00  0.00     0.074 A 
ATOM     39  C   UNL     1     -12.547   7.431  -4.065  1.00  0.00     0.049 A 
ATOM     40  N   UNL     1     -14.250   8.405  -1.760  1.00  0.00    -0.248 NA
ATOM     41  C   UNL     1     -12.348   9.429  -0.875  1.00  0.00     0.031 C 
ATOM     42  C   UNL     1     -11.745   6.875  -5.159  1.00  0.00     0.029 A 
ATOM     43  N   UNL     1     -13.825   7.029  -4.355  1.00  0.00    -0.354 N 
ATOM     44  C   UNL     1     -14.567   8.995  -0.541  1.00  0.00     0.074 A 
ATOM     45  C   UNL     1     -13.335   9.528  -0.000  1.00  0.00     0.031 C 
ATOM     46  C   UNL     1     -12.556   6.233  -6.016  1.00  0.00     0.029 A 
ATOM     47  C   UNL     1     -13.923   6.290  -5.511  1.00  0.00     0.049 A 
ATOM     48  H   UNL     1     -14.600   7.249  -3.789  1.00  0.00     0.167 HD
ATOM     49  C   UNL     1     -15.779   9.101   0.058  1.00  0.00     0.034 A 
ATOM     50  C   UNL     1     -14.996   5.718  -6.090  1.00  0.00     0.034 A 
ATOM     51  C   UNL     1     -16.995   8.591  -0.525  1.00  0.00     0.049 A 
ATOM     52  C   UNL     1     -16.337   5.864  -5.419  1.00  0.00     0.074 A 
ATOM     53  C   UNL     1     -18.292   8.702  -0.056  1.00  0.00     0.029 A 
ATOM     54  N   UNL     1     -17.062   7.870  -1.712  1.00  0.00    -0.354 N 
ATOM     55  N   UNL     1     -16.635   6.463  -4.289  1.00  0.00    -0.248 NA
ATOM     56  C   UNL     1     -17.486   5.261  -6.105  1.00  0.00     0.031 C 
ATOM     57  C   UNL     1     -19.134   8.003  -0.930  1.00  0.00     0.029 A 
ATOM     58  C   UNL     1     -18.373   7.511  -1.979  1.00  0.00     0.049 A 
ATOM     59  H   UNL     1     -16.290   7.648  -2.281  1.00  0.00     0.167 HD
ATOM     60  C   UNL     1     -18.012   6.333  -4.142  1.00  0.00     0.074 A 
ATOM     61  C   UNL     1     -18.485   5.607  -5.305  1.00  0.00     0.031 C 
ATOM     62  C   UNL     1     -18.816   6.776  -3.142  1.00  0.00     0.034 A 
BRANCH  49  63
ATOM     63  C   UNL     1     -15.819   9.763   1.415  1.00  0.00     0.023 A 
ATOM     64  C   UNL     1     -15.397  11.092   1.602  1.00  0.00     0.031 A 
ATOM     65  C   UNL     1     -16.205   9.033   2.553  1.00  0.00     0.131 A 
ATOM     66  C   UNL     1     -15.263  11.610   2.899  1.00  0.00     0.055 A 
ATOM     67  C   UNL     1     -16.163   9.588   3.834  1.00  0.00     0.041 A 
ATOM     68  F   UNL     1     -16.599   7.754   2.444  1.00  0.00    -0.206 F 
ATOM     69  C   UNL     1     -15.668  10.877   4.016  1.00  0.00     0.022 A 
BRANCH  66  70
ATOM     70  S   UNL     1     -14.373  13.177   3.113  1.00  0.00     0.124 S 
ATOM     71  O   UNL     1     -13.077  12.863   2.515  1.00  0.00    -0.237 OA
ATOM     72  O   UNL     1     -15.207  14.117   2.372  1.00  0.00    -0.237 OA
ATOM     73  O   UNL     1     -14.353  13.366   4.562  1.00  0.00    -0.744 OA
ENDBRANCH  66  70
ENDBRANCH  49  63
BRANCH  50  74
ATOM     74  C   UNL     1     -14.856   4.970  -7.370  1.00  0.00     0.023 A 
ATOM     75  C   UNL     1     -15.425   5.464  -8.554  1.00  0.00     0.031 A 
ATOM     76  C   UNL     1     -14.168   3.746  -7.428  1.00  0.00     0.131 A 
ATOM     77  C   UNL     1     -15.327   4.721  -9.741  1.00  0.00     0.055 A 
ATOM     78  C   UNL     1     -14.037   3.030  -8.620  1.00  0.00     0.041 A 
ATOM     79  F   UNL     1     -13.595   3.236  -6.325  1.00  0.00    -0.206 F 
ATOM     80  C   UNL     1     -14.628   3.513  -9.784  1.00  0.00     0.022 A 
BRANCH  77  81
ATOM     81  S   UNL     1     -16.174   5.335 -11.222  1.00  0.00     0.124 S 
ATOM     82  O   UNL     1     -17.564   5.365 -10.779  1.00  0.00    -0.237 OA
ATOM     83  O   UNL     1     -15.536   6.632 -11.421  1.00  0.00    -0.237 OA
ATOM     84  O   UNL     1     -15.863   4.329 -12.235  1.00  0.00    -0.744 OA
ENDBRANCH  77  81
ENDBRANCH  50  74
BRANCH  62  85
ATOM     85  C   UNL     1     -20.293   6.519  -3.296  1.00  0.00     0.023 A 
ATOM     86  C   UNL     1     -20.829   5.222  -3.217  1.00  0.00     0.031 A 
ATOM     87  C   UNL     1     -21.172   7.589  -3.539  1.00  0.00     0.131 A 
ATOM     88  C   UNL     1     -22.200   5.022  -3.432  1.00  0.00     0.055 A 
ATOM     89  C   UNL     1     -22.543   7.389  -3.696  1.00  0.00     0.041 A 
ATOM     90  F   UNL     1     -20.709   8.847  -3.625  1.00  0.00    -0.206 F 
ATOM     91  C   UNL     1     -23.063   6.099  -3.655  1.00  0.00     0.022 A 
BRANCH  88  92
ATOM     92  S   UNL     1     -22.831   3.323  -3.498  1.00  0.00     0.124 S 
ATOM     93  O   UNL     1     -22.061   2.756  -4.601  1.00  0.00    -0.237 OA
ATOM     94  O   UNL     1     -22.507   2.817  -2.168  1.00  0.00    -0.237 OA
ATOM     95  O   UNL     1     -24.258   3.497  -3.763  1.00  0.00    -0.744 OA
ENDBRANCH  88  92
ENDBRANCH  62  85
ENDBRANCH  36  37
ENDBRANCH  28  31
ENDBRANCH  26  27
ENDBRANCH   1  26
TORSDOF 18
