REMARK SMILES O=C(NCCCCNC(=O)[C@@H]1CN(C(=O)CCC(F)(F)F)C[C@H]1c1ccc2c(c1)OCO2)c1ccc(-c2c3nc(c(-c4cc(S(=O)(=O)[O-])ccc4F)c4ccc([nH]4)c(-c4cc(S(=O)(=O)[O-])ccc4F)c4nc(c(-c5cc(S(=O)(=O)[O-])ccc5F)c5ccc2[nH]5)C=C4)C=C3)cc1
REMARK SMILES IDX 6 1 5 2 4 3 3 4 1 5 2 6 33 8 34 9 95 10 35 11 94 12 36 13
REMARK SMILES IDX 37 14 38 15 88 16 39 17 93 18 87 19 89 20 40 21 92 22 86 23
REMARK SMILES IDX 85 24 41 26 73 27 53 28 72 29 54 30 57 31 71 32 90 33 55 34
REMARK SMILES IDX 56 35 70 37 91 38 58 39 42 40 43 41 51 42 44 43 50 44 52 45
REMARK SMILES IDX 49 46 45 47 46 48 47 49 48 50 74 51 75 52 83 53 76 54 82 55
REMARK SMILES IDX 84 56 81 57 77 58 78 59 79 60 80 61 59 62 60 63 68 64 61 65
REMARK SMILES IDX 67 66 69 67 66 68 62 69 63 70 64 71 65 72 7 73 8 74 9 75
REMARK SMILES IDX 10 77 11 78 12 79 23 80 13 81 22 82 24 83 25 84 29 85 26 86
REMARK SMILES IDX 28 87 27 88 30 89 32 90 31 91 14 92 15 93 16 94 17 95 18 96
REMARK SMILES IDX 19 97 20 98 21 99
REMARK H PARENT 3 7 89 25 57 36 8 76
REMARK Flexibility Score: inf
ROOT
ATOM      1  C   UNL     1       4.792  -1.815   2.673  1.00  0.00     0.023 C 
ENDROOT
BRANCH   1   2
ATOM      2  C   UNL     1       5.259  -0.645   1.821  1.00  0.00     0.023 C 
BRANCH   2   3
ATOM      3  C   UNL     1       4.749  -0.654   0.389  1.00  0.00     0.116 C 
BRANCH   3   4
ATOM      4  N   UNL     1       3.302  -0.817   0.289  1.00  0.00    -0.352 N 
ATOM      5  O   UNL     1       1.187  -0.230  -0.251  1.00  0.00    -0.269 OA
ATOM      6  C   UNL     1       2.383  -0.016  -0.353  1.00  0.00     0.251 C 
ATOM      7  H   UNL     1       2.932  -1.608   0.743  1.00  0.00     0.163 HD
BRANCH   6   8
ATOM      8  C   UNL     1       2.888   1.125  -1.141  1.00  0.00     0.039 A 
ATOM      9  C   UNL     1       3.929   0.930  -2.050  1.00  0.00     0.014 A 
ATOM     10  C   UNL     1       2.382   2.401  -0.891  1.00  0.00     0.014 A 
ATOM     11  C   UNL     1       4.590   2.031  -2.570  1.00  0.00     0.010 A 
ATOM     12  C   UNL     1       2.981   3.501  -1.506  1.00  0.00     0.010 A 
ATOM     13  C   UNL     1       4.114   3.327  -2.317  1.00  0.00    -0.014 A 
BRANCH  13  14
ATOM     14  C   UNL     1       4.788   4.488  -2.946  1.00  0.00     0.031 A 
ATOM     15  C   UNL     1       5.423   5.559  -2.106  1.00  0.00     0.074 A 
ATOM     16  C   UNL     1       4.816   4.562  -4.290  1.00  0.00     0.049 A 
ATOM     17  N   UNL     1       5.949   6.697  -2.479  1.00  0.00    -0.248 NA
ATOM     18  C   UNL     1       5.457   5.327  -0.655  1.00  0.00     0.031 C 
ATOM     19  C   UNL     1       4.244   3.564  -5.199  1.00  0.00     0.029 A 
ATOM     20  N   UNL     1       5.340   5.511  -5.127  1.00  0.00    -0.354 N 
ATOM     21  C   UNL     1       6.346   7.337  -1.309  1.00  0.00     0.074 A 
ATOM     22  C   UNL     1       5.977   6.463  -0.213  1.00  0.00     0.031 C 
ATOM     23  C   UNL     1       4.472   3.939  -6.464  1.00  0.00     0.029 A 
ATOM     24  C   UNL     1       5.118   5.244  -6.456  1.00  0.00     0.049 A 
ATOM     25  H   UNL     1       5.828   6.304  -4.808  1.00  0.00     0.167 HD
ATOM     26  C   UNL     1       6.959   8.540  -1.171  1.00  0.00     0.034 A 
ATOM     27  C   UNL     1       5.356   5.989  -7.551  1.00  0.00     0.034 A 
ATOM     28  C   UNL     1       7.317   9.383  -2.290  1.00  0.00     0.049 A 
ATOM     29  C   UNL     1       5.990   7.337  -7.376  1.00  0.00     0.074 A 
ATOM     30  C   UNL     1       7.959  10.610  -2.279  1.00  0.00     0.029 A 
ATOM     31  N   UNL     1       7.056   9.088  -3.624  1.00  0.00    -0.354 N 
ATOM     32  N   UNL     1       6.342   7.941  -6.264  1.00  0.00    -0.248 NA
ATOM     33  C   UNL     1       6.258   8.104  -8.596  1.00  0.00     0.031 C 
ATOM     34  C   UNL     1       8.026  11.084  -3.595  1.00  0.00     0.029 A 
ATOM     35  C   UNL     1       7.496  10.121  -4.439  1.00  0.00     0.049 A 
ATOM     36  H   UNL     1       6.621   8.265  -3.944  1.00  0.00     0.167 HD
ATOM     37  C   UNL     1       6.893   9.155  -6.653  1.00  0.00     0.074 A 
ATOM     38  C   UNL     1       6.831   9.193  -8.102  1.00  0.00     0.031 C 
ATOM     39  C   UNL     1       7.411  10.145  -5.882  1.00  0.00     0.034 A 
BRANCH  26  40
ATOM     40  C   UNL     1       7.214   9.035   0.235  1.00  0.00     0.023 A 
ATOM     41  C   UNL     1       8.055   8.346   1.127  1.00  0.00     0.031 A 
ATOM     42  C   UNL     1       6.566  10.190   0.709  1.00  0.00     0.131 A 
ATOM     43  C   UNL     1       8.155   8.765   2.464  1.00  0.00     0.055 A 
ATOM     44  C   UNL     1       6.737  10.651   2.016  1.00  0.00     0.041 A 
ATOM     45  F   UNL     1       5.734  10.882  -0.087  1.00  0.00    -0.206 F 
ATOM     46  C   UNL     1       7.520   9.927   2.909  1.00  0.00     0.022 A 
BRANCH  43  47
ATOM     47  S   UNL     1       8.984   7.674   3.654  1.00  0.00     0.124 S 
ATOM     48  O   UNL     1       8.252   6.423   3.471  1.00  0.00    -0.237 OA
ATOM     49  O   UNL     1      10.363   7.682   3.180  1.00  0.00    -0.237 OA
ATOM     50  O   UNL     1       8.760   8.334   4.939  1.00  0.00    -0.744 OA
ENDBRANCH  43  47
ENDBRANCH  26  40
BRANCH  27  51
ATOM     51  C   UNL     1       4.933   5.482  -8.883  1.00  0.00     0.023 A 
ATOM     52  C   UNL     1       5.874   5.106  -9.851  1.00  0.00     0.031 A 
ATOM     53  C   UNL     1       3.567   5.322  -9.186  1.00  0.00     0.131 A 
ATOM     54  C   UNL     1       5.436   4.598 -11.084  1.00  0.00     0.055 A 
ATOM     55  C   UNL     1       3.139   4.775 -10.394  1.00  0.00     0.041 A 
ATOM     56  F   UNL     1       2.629   5.654  -8.284  1.00  0.00    -0.206 F 
ATOM     57  C   UNL     1       4.077   4.415 -11.355  1.00  0.00     0.022 A 
BRANCH  54  58
ATOM     58  S   UNL     1       6.675   4.204 -12.348  1.00  0.00     0.124 S 
ATOM     59  O   UNL     1       7.306   5.501 -12.560  1.00  0.00    -0.237 OA
ATOM     60  O   UNL     1       7.488   3.197 -11.673  1.00  0.00    -0.237 OA
ATOM     61  O   UNL     1       5.874   3.707 -13.465  1.00  0.00    -0.744 OA
ENDBRANCH  54  58
ENDBRANCH  27  51
BRANCH  39  62
ATOM     62  C   UNL     1       7.999  11.328  -6.606  1.00  0.00     0.023 A 
ATOM     63  C   UNL     1       7.192  12.255  -7.287  1.00  0.00     0.031 A 
ATOM     64  C   UNL     1       9.391  11.521  -6.615  1.00  0.00     0.131 A 
ATOM     65  C   UNL     1       7.790  13.314  -7.986  1.00  0.00     0.055 A 
ATOM     66  C   UNL     1       9.976  12.605  -7.269  1.00  0.00     0.041 A 
ATOM     67  F   UNL     1      10.204  10.660  -5.982  1.00  0.00    -0.206 F 
ATOM     68  C   UNL     1       9.175  13.503  -7.968  1.00  0.00     0.022 A 
BRANCH  65  69
ATOM     69  S   UNL     1       6.739  14.408  -8.980  1.00  0.00     0.124 S 
ATOM     70  O   UNL     1       6.169  13.480  -9.951  1.00  0.00    -0.237 OA
ATOM     71  O   UNL     1       5.812  14.940  -7.986  1.00  0.00    -0.237 OA
ATOM     72  O   UNL     1       7.680  15.381  -9.531  1.00  0.00    -0.744 OA
ENDBRANCH  65  69
ENDBRANCH  39  62
ENDBRANCH  13  14
ENDBRANCH   6   8
ENDBRANCH   3   4
ENDBRANCH   2   3
ENDBRANCH   1   2
BRANCH   1  73
ATOM     73  C   UNL     1       5.077  -3.192   2.083  1.00  0.00     0.116 C 
BRANCH  73  74
ATOM     74  N   UNL     1       6.456  -3.598   2.270  1.00  0.00    -0.356 N 
ATOM     75  C   UNL     1       7.083  -4.551   2.991  1.00  0.00     0.225 C 
ATOM     76  H   UNL     1       7.084  -3.049   1.746  1.00  0.00     0.163 HD
ATOM     77  O   UNL     1       8.315  -4.588   2.854  1.00  0.00    -0.275 OA
BRANCH  75  78
ATOM     78  C   UNL     1       6.446  -5.540   3.964  1.00  0.00     0.107 C 
ATOM     79  C   UNL     1       6.998  -6.915   3.590  1.00  0.00     0.133 C 
ATOM     80  C   UNL     1       4.928  -5.759   4.073  1.00  0.00     0.053 C 
ATOM     81  N   UNL     1       6.036  -7.886   4.067  1.00  0.00    -0.341 N 
ATOM     82  C   UNL     1       4.791  -7.248   4.444  1.00  0.00     0.128 C 
BRANCH  80  83
ATOM     83  C   UNL     1       4.217  -4.821   5.051  1.00  0.00    -0.038 A 
ATOM     84  C   UNL     1       4.827  -3.622   5.503  1.00  0.00     0.008 A 
ATOM     85  C   UNL     1       2.910  -5.099   5.494  1.00  0.00     0.054 A 
ATOM     86  C   UNL     1       4.173  -2.719   6.347  1.00  0.00     0.051 A 
ATOM     87  C   UNL     1       2.298  -4.207   6.359  1.00  0.00     0.166 A 
ATOM     88  C   UNL     1       2.911  -3.047   6.766  1.00  0.00     0.165 A 
ATOM     89  O   UNL     1       1.058  -4.346   6.903  1.00  0.00    -0.454 OA
ATOM     90  O   UNL     1       2.138  -2.305   7.601  1.00  0.00    -0.454 OA
ATOM     91  C   UNL     1       0.991  -3.165   7.733  1.00  0.00     0.468 C 
ENDBRANCH  80  83
BRANCH  81  92
ATOM     92  C   UNL     1       6.169  -9.253   4.101  1.00  0.00     0.222 C 
ATOM     93  O   UNL     1       5.202 -10.002   4.254  1.00  0.00    -0.275 OA
BRANCH  92  94
ATOM     94  C   UNL     1       7.566  -9.839   4.024  1.00  0.00     0.109 C 
BRANCH  94  95
ATOM     95  C   UNL     1       7.893 -10.510   2.698  1.00  0.00     0.125 C 
BRANCH  95  96
ATOM     96  C   UNL     1       8.144  -9.528   1.580  1.00  0.00     0.389 C 
ATOM     97  F   UNL     1       9.038  -8.588   1.950  1.00  0.00    -0.171 F 
ATOM     98  F   UNL     1       8.647 -10.165   0.499  1.00  0.00    -0.171 F 
ATOM     99  F   UNL     1       7.011  -8.909   1.197  1.00  0.00    -0.171 F 
ENDBRANCH  95  96
ENDBRANCH  94  95
ENDBRANCH  92  94
ENDBRANCH  81  92
ENDBRANCH  75  78
ENDBRANCH  73  74
ENDBRANCH   1  73
TORSDOF 19
