REMARK SMILES CC1=C(C(=O)NCCCCNC(=O)c2ccc(-c3c4nc(c(-c5cc(S(=O)(=O)[O-])ccc5F)c5ccc([nH]5)c(-c5cc(S(=O)(=O)[O-])ccc5F)c5nc(c(-c6cc(S(=O)(=O)[O-])ccc6F)c6ccc3[nH]6)C=C5)C=C4)cc2)N2C(=O)[C@H](NC(=O)c3c(Cl)c(C(F)(F)F)nn3C)[C@@H]2SC1
REMARK SMILES IDX 8 1 7 2 6 3 4 4 5 5 3 7 1 8 2 9 97 10 77 11 96 12 78 13
REMARK SMILES IDX 95 14 79 15 80 16 81 17 82 18 83 20 84 21 85 22 93 23 86 24
REMARK SMILES IDX 87 25 92 26 94 27 88 28 89 29 90 30 91 31 9 32 10 33 11 34
REMARK SMILES IDX 12 35 13 37 14 38 15 39 76 40 16 41 75 42 17 43 18 44 19 45
REMARK SMILES IDX 69 46 20 47 74 48 68 49 70 50 21 51 73 52 67 53 66 54 22 56
REMARK SMILES IDX 54 57 34 58 53 59 35 60 38 61 52 62 71 63 36 64 37 65 51 67
REMARK SMILES IDX 72 68 39 69 23 70 24 71 32 72 25 73 31 74 33 75 30 76 26 77
REMARK SMILES IDX 27 78 28 79 29 80 55 81 56 82 64 83 57 84 63 85 65 86 62 87
REMARK SMILES IDX 58 88 59 89 60 90 61 91 40 92 41 93 49 94 42 95 48 96 50 97
REMARK SMILES IDX 47 98 43 99 44 100 45 101 46 102
REMARK H PARENT 6 6 81 19 11 36 70 55 38 66
REMARK Flexibility Score: inf
ROOT
ATOM      1  C   UNL     1       0.959   0.720   2.382  1.00  0.00     0.023 C 
ENDROOT
BRANCH   1   2
ATOM      2  C   UNL     1       2.101  -0.100   1.760  1.00  0.00     0.116 C 
BRANCH   2   3
ATOM      3  N   UNL     1       1.806  -1.510   1.877  1.00  0.00    -0.351 N 
ATOM      4  C   UNL     1       1.167  -2.438   1.136  1.00  0.00     0.268 C 
ATOM      5  O   UNL     1       0.879  -3.471   1.760  1.00  0.00    -0.268 OA
ATOM      6  H   UNL     1       2.164  -1.891   2.712  1.00  0.00     0.163 HD
BRANCH   4   7
ATOM      7  C   UNL     1       0.749  -2.382  -0.335  1.00  0.00     0.110 C 
ATOM      8  C   UNL     1       0.143   0.074  -0.727  1.00  0.00     0.043 C 
ATOM      9  C   UNL     1       0.283  -1.367  -1.114  1.00  0.00    -0.034 C 
ATOM     10  C   UNL     1      -0.229  -1.528  -2.545  1.00  0.00     0.104 C 
ATOM     11  N   UNL     1       0.710  -3.637  -0.885  1.00  0.00    -0.290 N 
ATOM     12  S   UNL     1      -0.013  -3.130  -3.336  1.00  0.00    -0.129 SA
ATOM     13  C   UNL     1       1.359  -4.816  -0.754  1.00  0.00     0.253 C 
ATOM     14  C   UNL     1      -0.294  -4.069  -1.815  1.00  0.00     0.181 C 
ATOM     15  O   UNL     1       2.376  -5.143  -0.194  1.00  0.00    -0.272 OA
ATOM     16  C   UNL     1       0.351  -5.494  -1.749  1.00  0.00     0.206 C 
BRANCH  16  17
ATOM     17  N   UNL     1       0.935  -6.004  -3.015  1.00  0.00    -0.336 N 
ATOM     18  C   UNL     1       0.519  -7.023  -3.831  1.00  0.00     0.271 C 
ATOM     19  H   UNL     1       1.748  -5.538  -3.315  1.00  0.00     0.164 HD
ATOM     20  O   UNL     1       1.155  -7.241  -4.859  1.00  0.00    -0.267 OA
BRANCH  18  21
ATOM     21  C   UNL     1      -0.622  -7.808  -3.453  1.00  0.00     0.145 A 
ATOM     22  C   UNL     1      -0.675  -9.175  -3.252  1.00  0.00     0.104 A 
ATOM     23  N   UNL     1      -1.926  -7.397  -3.380  1.00  0.00    -0.261 N 
ATOM     24  Cl  UNL     1       0.612 -10.283  -3.316  1.00  0.00    -0.079 Cl
ATOM     25  C   UNL     1      -2.030  -9.488  -2.989  1.00  0.00     0.185 A 
ATOM     26  N   UNL     1      -2.786  -8.371  -3.025  1.00  0.00    -0.166 NA
ATOM     27  C   UNL     1      -2.475  -6.101  -3.706  1.00  0.00     0.174 C 
BRANCH  25  28
ATOM     28  C   UNL     1      -2.593 -10.856  -2.738  1.00  0.00     0.436 C 
ATOM     29  F   UNL     1      -2.514 -11.643  -3.847  1.00  0.00    -0.164 F 
ATOM     30  F   UNL     1      -1.929 -11.513  -1.749  1.00  0.00    -0.164 F 
ATOM     31  F   UNL     1      -3.904 -10.842  -2.373  1.00  0.00    -0.164 F 
ENDBRANCH  25  28
ENDBRANCH  18  21
ENDBRANCH  16  17
ENDBRANCH   4   7
ENDBRANCH   2   3
ENDBRANCH   1   2
BRANCH   1  32
ATOM     32  C   UNL     1       1.193   1.206   3.813  1.00  0.00     0.023 C 
BRANCH  32  33
ATOM     33  C   UNL     1       2.328   2.209   3.970  1.00  0.00     0.116 C 
BRANCH  33  34
ATOM     34  N   UNL     1       2.211   3.369   3.097  1.00  0.00    -0.352 N 
ATOM     35  C   UNL     1       2.756   4.619   3.272  1.00  0.00     0.251 C 
ATOM     36  H   UNL     1       1.675   3.242   2.281  1.00  0.00     0.163 HD
ATOM     37  O   UNL     1       2.507   5.518   2.477  1.00  0.00    -0.269 OA
BRANCH  35  38
ATOM     38  C   UNL     1       3.588   4.869   4.466  1.00  0.00     0.039 A 
ATOM     39  C   UNL     1       3.247   5.926   5.312  1.00  0.00     0.014 A 
ATOM     40  C   UNL     1       4.640   4.008   4.789  1.00  0.00     0.014 A 
ATOM     41  C   UNL     1       3.909   6.069   6.531  1.00  0.00     0.010 A 
ATOM     42  C   UNL     1       5.252   4.112   6.032  1.00  0.00     0.010 A 
ATOM     43  C   UNL     1       4.884   5.136   6.919  1.00  0.00    -0.014 A 
BRANCH  43  44
ATOM     44  C   UNL     1       5.522   5.197   8.257  1.00  0.00     0.031 A 
ATOM     45  C   UNL     1       6.997   5.461   8.370  1.00  0.00     0.074 A 
ATOM     46  C   UNL     1       4.792   4.922   9.355  1.00  0.00     0.049 A 
ATOM     47  N   UNL     1       7.763   5.438   9.429  1.00  0.00    -0.248 NA
ATOM     48  C   UNL     1       7.707   5.749   7.115  1.00  0.00     0.031 C 
ATOM     49  C   UNL     1       3.364   4.593   9.363  1.00  0.00     0.029 A 
ATOM     50  N   UNL     1       5.153   4.857  10.676  1.00  0.00    -0.354 N 
ATOM     51  C   UNL     1       9.052   5.683   8.967  1.00  0.00     0.074 A 
ATOM     52  C   UNL     1       8.965   5.799   7.526  1.00  0.00     0.031 C 
ATOM     53  C   UNL     1       2.969   4.375  10.628  1.00  0.00     0.029 A 
ATOM     54  C   UNL     1       4.119   4.514  11.515  1.00  0.00     0.049 A 
ATOM     55  H   UNL     1       6.066   5.039  10.994  1.00  0.00     0.167 HD
ATOM     56  C   UNL     1      10.197   5.817   9.681  1.00  0.00     0.034 A 
ATOM     57  C   UNL     1       4.103   4.323  12.849  1.00  0.00     0.034 A 
ATOM     58  C   UNL     1      10.260   5.725  11.118  1.00  0.00     0.049 A 
ATOM     59  C   UNL     1       5.380   4.509  13.625  1.00  0.00     0.074 A 
ATOM     60  C   UNL     1      11.352   5.907  11.950  1.00  0.00     0.029 A 
ATOM     61  N   UNL     1       9.182   5.424  11.941  1.00  0.00    -0.354 N 
ATOM     62  N   UNL     1       6.582   4.789  13.180  1.00  0.00    -0.248 NA
ATOM     63  C   UNL     1       5.293   4.367  15.084  1.00  0.00     0.031 C 
ATOM     64  C   UNL     1      10.944   5.673  13.269  1.00  0.00     0.029 A 
ATOM     65  C   UNL     1       9.585   5.399  13.267  1.00  0.00     0.049 A 
ATOM     66  H   UNL     1       8.264   5.252  11.628  1.00  0.00     0.167 HD
ATOM     67  C   UNL     1       7.391   4.879  14.308  1.00  0.00     0.074 A 
ATOM     68  C   UNL     1       6.537   4.635  15.453  1.00  0.00     0.031 C 
ATOM     69  C   UNL     1       8.719   5.145  14.392  1.00  0.00     0.034 A 
BRANCH  56  70
ATOM     70  C   UNL     1      11.467   6.054   8.902  1.00  0.00     0.023 A 
ATOM     71  C   UNL     1      11.650   7.215   8.130  1.00  0.00     0.031 A 
ATOM     72  C   UNL     1      12.485   5.086   8.888  1.00  0.00     0.131 A 
ATOM     73  C   UNL     1      12.780   7.338   7.309  1.00  0.00     0.055 A 
ATOM     74  C   UNL     1      13.647   5.252   8.132  1.00  0.00     0.041 A 
ATOM     75  F   UNL     1      12.358   3.949   9.591  1.00  0.00    -0.206 F 
ATOM     76  C   UNL     1      13.792   6.375   7.322  1.00  0.00     0.022 A 
BRANCH  73  77
ATOM     77  S   UNL     1      12.832   8.699   6.112  1.00  0.00     0.124 S 
ATOM     78  O   UNL     1      11.657   8.415   5.292  1.00  0.00    -0.237 OA
ATOM     79  O   UNL     1      12.745   9.876   6.968  1.00  0.00    -0.237 OA
ATOM     80  O   UNL     1      14.115   8.512   5.436  1.00  0.00    -0.744 OA
ENDBRANCH  73  77
ENDBRANCH  56  70
BRANCH  57  81
ATOM     81  C   UNL     1       2.844   3.933  13.539  1.00  0.00     0.023 A 
ATOM     82  C   UNL     1       2.192   4.824  14.404  1.00  0.00     0.031 A 
ATOM     83  C   UNL     1       2.292   2.652  13.365  1.00  0.00     0.131 A 
ATOM     84  C   UNL     1       1.046   4.410  15.099  1.00  0.00     0.055 A 
ATOM     85  C   UNL     1       1.129   2.257  14.029  1.00  0.00     0.041 A 
ATOM     86  F   UNL     1       2.872   1.770  12.536  1.00  0.00    -0.206 F 
ATOM     87  C   UNL     1       0.505   3.135  14.911  1.00  0.00     0.022 A 
BRANCH  84  88
ATOM     88  S   UNL     1       0.304   5.544  16.303  1.00  0.00     0.124 S 
ATOM     89  O   UNL     1       1.416   5.779  17.217  1.00  0.00    -0.237 OA
ATOM     90  O   UNL     1      -0.081   6.670  15.459  1.00  0.00    -0.237 OA
ATOM     91  O   UNL     1      -0.808   4.774  16.856  1.00  0.00    -0.744 OA
ENDBRANCH  84  88
ENDBRANCH  57  81
BRANCH  69  92
ATOM     92  C   UNL     1       9.306   5.226  15.776  1.00  0.00     0.023 A 
ATOM     93  C   UNL     1       9.467   4.083  16.577  1.00  0.00     0.031 A 
ATOM     94  C   UNL     1       9.694   6.470  16.303  1.00  0.00     0.131 A 
ATOM     95  C   UNL     1       9.959   4.213  17.884  1.00  0.00     0.055 A 
ATOM     96  C   UNL     1      10.226   6.587  17.587  1.00  0.00     0.041 A 
ATOM     97  F   UNL     1       9.559   7.592  15.577  1.00  0.00    -0.206 F 
ATOM     98  C   UNL     1      10.351   5.456  18.390  1.00  0.00     0.022 A 
BRANCH  95  99
ATOM     99  S   UNL     1      10.012   2.743  18.944  1.00  0.00     0.124 S 
ATOM    100  O   UNL     1       8.609   2.345  18.983  1.00  0.00    -0.237 OA
ATOM    101  O   UNL     1      10.906   1.857  18.205  1.00  0.00    -0.237 OA
ATOM    102  O   UNL     1      10.549   3.249  20.206  1.00  0.00    -0.744 OA
ENDBRANCH  95  99
ENDBRANCH  69  92
ENDBRANCH  43  44
ENDBRANCH  35  38
ENDBRANCH  33  34
ENDBRANCH  32  33
ENDBRANCH   1  32
TORSDOF 17
