REMARK SMILES O=C(NCCCCNC(=O)[C@@H](Cc1ccccc1)N1C(=O)/C(=C/c2ccc3ncccc3c2)SC1=S)c1ccc(-c2c3nc(c(-c4cc(S(=O)(=O)[O-])ccc4F)c4ccc([nH]4)c(-c4cc(S(=O)(=O)[O-])ccc4F)c4nc(c(-c5cc(S(=O)(=O)[O-])ccc5F)c5ccc2[nH]5)C=C4)C=C3)cc1
REMARK SMILES IDX 5 1 4 2 3 3 1 4 2 5 37 7 38 8 99 9 39 10 98 11 40 12 41 13
REMARK SMILES IDX 42 14 92 15 43 16 97 17 91 18 93 19 44 20 96 21 90 22 89 23
REMARK SMILES IDX 45 25 77 26 57 27 76 28 58 29 61 30 75 31 94 32 59 33 60 34
REMARK SMILES IDX 74 36 95 37 62 38 46 39 47 40 55 41 48 42 54 43 56 44 53 45
REMARK SMILES IDX 49 46 50 47 51 48 52 49 78 50 79 51 87 52 80 53 86 54 88 55
REMARK SMILES IDX 85 56 81 57 82 58 83 59 84 60 63 61 64 62 72 63 65 64 71 65
REMARK SMILES IDX 73 66 70 67 66 68 67 69 68 70 69 71 6 72 7 73 8 74 9 75
REMARK SMILES IDX 10 77 11 78 12 79 13 80 14 81 18 82 15 83 17 84 16 85 19 86
REMARK SMILES IDX 20 87 35 88 21 89 22 90 34 91 36 92 23 93 24 94 25 95 33 96
REMARK SMILES IDX 26 97 32 98 27 99 31 100 28 101 30 102 29 103
REMARK H PARENT 3 6 93 24 61 35 8 76
REMARK Flexibility Score: inf
ROOT
ATOM      1  C   UNL     1       5.466   2.009  -0.703  1.00  0.00     0.023 C 
ENDROOT
BRANCH   1   2
ATOM      2  C   UNL     1       4.771   0.917   0.097  1.00  0.00     0.116 C 
BRANCH   2   3
ATOM      3  N   UNL     1       3.317   1.011   0.135  1.00  0.00    -0.352 N 
ATOM      4  O   UNL     1       1.198   0.199  -0.042  1.00  0.00    -0.269 OA
ATOM      5  C   UNL     1       2.406  -0.007  -0.090  1.00  0.00     0.251 C 
ATOM      6  H   UNL     1       2.941   1.897   0.342  1.00  0.00     0.163 HD
BRANCH   5   7
ATOM      7  C   UNL     1       2.935  -1.345  -0.444  1.00  0.00     0.039 A 
ATOM      8  C   UNL     1       3.922  -1.919   0.356  1.00  0.00     0.014 A 
ATOM      9  C   UNL     1       2.579  -1.931  -1.662  1.00  0.00     0.014 A 
ATOM     10  C   UNL     1       4.705  -2.938  -0.167  1.00  0.00     0.010 A 
ATOM     11  C   UNL     1       3.283  -3.051  -2.121  1.00  0.00     0.010 A 
ATOM     12  C   UNL     1       4.382  -3.539  -1.397  1.00  0.00    -0.014 A 
BRANCH  12  13
ATOM     13  C   UNL     1       5.155  -4.735  -1.834  1.00  0.00     0.031 A 
ATOM     14  C   UNL     1       5.927  -4.764  -3.128  1.00  0.00     0.074 A 
ATOM     15  C   UNL     1       5.175  -5.799  -1.005  1.00  0.00     0.049 A 
ATOM     16  N   UNL     1       6.622  -5.747  -3.645  1.00  0.00    -0.248 NA
ATOM     17  C   UNL     1       5.915  -3.547  -3.954  1.00  0.00     0.031 C 
ATOM     18  C   UNL     1       4.462  -5.875   0.276  1.00  0.00     0.029 A 
ATOM     19  N   UNL     1       5.823  -7.003  -1.086  1.00  0.00    -0.354 N 
ATOM     20  C   UNL     1       7.105  -5.283  -4.865  1.00  0.00     0.074 A 
ATOM     21  C   UNL     1       6.615  -3.929  -5.017  1.00  0.00     0.031 C 
ATOM     22  C   UNL     1       4.765  -7.025   0.887  1.00  0.00     0.029 A 
ATOM     23  C   UNL     1       5.588  -7.825  -0.007  1.00  0.00     0.049 A 
ATOM     24  H   UNL     1       6.401  -7.256  -1.842  1.00  0.00     0.167 HD
ATOM     25  C   UNL     1       7.878  -5.937  -5.770  1.00  0.00     0.034 A 
ATOM     26  C   UNL     1       5.943  -9.102   0.222  1.00  0.00     0.034 A 
ATOM     27  C   UNL     1       8.365  -7.286  -5.584  1.00  0.00     0.049 A 
ATOM     28  C   UNL     1       6.756  -9.811  -0.824  1.00  0.00     0.074 A 
ATOM     29  C   UNL     1       9.193  -8.023  -6.414  1.00  0.00     0.029 A 
ATOM     30  N   UNL     1       8.060  -8.106  -4.504  1.00  0.00    -0.354 N 
ATOM     31  N   UNL     1       7.217  -9.346  -1.962  1.00  0.00    -0.248 NA
ATOM     32  C   UNL     1       7.093 -11.212  -0.559  1.00  0.00     0.031 C 
ATOM     33  C   UNL     1       9.319  -9.310  -5.882  1.00  0.00     0.029 A 
ATOM     34  C   UNL     1       8.645  -9.353  -4.672  1.00  0.00     0.049 A 
ATOM     35  H   UNL     1       7.509  -7.841  -3.733  1.00  0.00     0.167 HD
ATOM     36  C   UNL     1       7.913 -10.399  -2.542  1.00  0.00     0.074 A 
ATOM     37  C   UNL     1       7.842 -11.507  -1.611  1.00  0.00     0.031 C 
ATOM     38  C   UNL     1       8.548 -10.452  -3.740  1.00  0.00     0.034 A 
BRANCH  25  39
ATOM     39  C   UNL     1       8.209  -5.241  -7.071  1.00  0.00     0.023 A 
ATOM     40  C   UNL     1       9.036  -4.107  -7.130  1.00  0.00     0.031 A 
ATOM     41  C   UNL     1       7.724  -5.763  -8.287  1.00  0.00     0.131 A 
ATOM     42  C   UNL     1       9.326  -3.514  -8.371  1.00  0.00     0.055 A 
ATOM     43  C   UNL     1       8.069  -5.209  -9.521  1.00  0.00     0.041 A 
ATOM     44  F   UNL     1       6.914  -6.834  -8.294  1.00  0.00    -0.206 F 
ATOM     45  C   UNL     1       8.870  -4.073  -9.568  1.00  0.00     0.022 A 
BRANCH  42  46
ATOM     46  S   UNL     1      10.234  -1.944  -8.399  1.00  0.00     0.124 S 
ATOM     47  O   UNL     1       9.355  -1.079  -7.615  1.00  0.00    -0.237 OA
ATOM     48  O   UNL     1      11.502  -2.300  -7.772  1.00  0.00    -0.237 OA
ATOM     49  O   UNL     1      10.312  -1.616  -9.821  1.00  0.00    -0.744 OA
ENDBRANCH  42  46
ENDBRANCH  25  39
BRANCH  26  50
ATOM     50  C   UNL     1       5.468  -9.810   1.446  1.00  0.00     0.023 A 
ATOM     51  C   UNL     1       6.376 -10.355   2.364  1.00  0.00     0.031 A 
ATOM     52  C   UNL     1       4.093  -9.997   1.688  1.00  0.00     0.131 A 
ATOM     53  C   UNL     1       5.902 -11.113   3.445  1.00  0.00     0.055 A 
ATOM     54  C   UNL     1       3.626 -10.682   2.809  1.00  0.00     0.041 A 
ATOM     55  F   UNL     1       3.178  -9.499   0.842  1.00  0.00    -0.206 F 
ATOM     56  C   UNL     1       4.535 -11.264   3.686  1.00  0.00     0.022 A 
BRANCH  53  57
ATOM     57  S   UNL     1       7.107 -12.014   4.457  1.00  0.00     0.124 S 
ATOM     58  O   UNL     1       7.832 -12.774   3.446  1.00  0.00    -0.237 OA
ATOM     59  O   UNL     1       7.842 -10.925   5.091  1.00  0.00    -0.237 OA
ATOM     60  O   UNL     1       6.269 -12.807   5.354  1.00  0.00    -0.744 OA
ENDBRANCH  53  57
ENDBRANCH  26  50
BRANCH  38  61
ATOM     61  C   UNL     1       9.240 -11.749  -4.078  1.00  0.00     0.023 A 
ATOM     62  C   UNL     1       8.516 -12.937  -4.280  1.00  0.00     0.031 A 
ATOM     63  C   UNL     1      10.642 -11.805  -4.159  1.00  0.00     0.131 A 
ATOM     64  C   UNL     1       9.200 -14.144  -4.482  1.00  0.00     0.055 A 
ATOM     65  C   UNL     1      11.314 -12.996  -4.433  1.00  0.00     0.041 A 
ATOM     66  F   UNL     1      11.383 -10.701  -3.968  1.00  0.00    -0.206 F 
ATOM     67  C   UNL     1      10.593 -14.178  -4.579  1.00  0.00     0.022 A 
BRANCH  64  68
ATOM     68  S   UNL     1       8.247 -15.687  -4.502  1.00  0.00     0.124 S 
ATOM     69  O   UNL     1       7.616 -15.670  -3.187  1.00  0.00    -0.237 OA
ATOM     70  O   UNL     1       7.355 -15.489  -5.640  1.00  0.00    -0.237 OA
ATOM     71  O   UNL     1       9.268 -16.717  -4.688  1.00  0.00    -0.744 OA
ENDBRANCH  64  68
ENDBRANCH  38  61
ENDBRANCH  12  13
ENDBRANCH   5   7
ENDBRANCH   2   3
ENDBRANCH   1   2
BRANCH   1  72
ATOM     72  C   UNL     1       5.660   3.340   0.018  1.00  0.00     0.023 C 
BRANCH  72  73
ATOM     73  C   UNL     1       6.367   3.209   1.366  1.00  0.00     0.116 C 
BRANCH  73  74
ATOM     74  N   UNL     1       7.391   4.216   1.584  1.00  0.00    -0.354 N 
ATOM     75  C   UNL     1       7.455   5.352   2.325  1.00  0.00     0.243 C 
ATOM     76  H   UNL     1       8.220   4.036   1.085  1.00  0.00     0.163 HD
ATOM     77  O   UNL     1       8.590   5.806   2.528  1.00  0.00    -0.273 OA
BRANCH  75  78
ATOM     78  C   UNL     1       6.230   6.106   2.902  1.00  0.00     0.185 C 
BRANCH  78  79
ATOM     79  C   UNL     1       5.219   6.553   1.812  1.00  0.00     0.071 C 
BRANCH  79  80
ATOM     80  C   UNL     1       3.833   5.965   1.659  1.00  0.00    -0.045 A 
ATOM     81  C   UNL     1       2.948   6.620   0.782  1.00  0.00     0.004 A 
ATOM     82  C   UNL     1       3.399   4.774   2.244  1.00  0.00     0.004 A 
ATOM     83  C   UNL     1       1.706   6.069   0.463  1.00  0.00     0.000 A 
ATOM     84  C   UNL     1       2.165   4.210   1.914  1.00  0.00     0.000 A 
ATOM     85  C   UNL     1       1.325   4.849   1.012  1.00  0.00     0.000 A 
ENDBRANCH  79  80
ENDBRANCH  78  79
BRANCH  78  86
ATOM     86  N   UNL     1       5.688   5.765   4.233  1.00  0.00    -0.280 N 
ATOM     87  C   UNL     1       5.797   4.478   4.731  1.00  0.00     0.266 C 
ATOM     88  C   UNL     1       4.982   6.652   5.030  1.00  0.00     0.149 C 
ATOM     89  O   UNL     1       6.521   3.589   4.330  1.00  0.00    -0.268 OA
ATOM     90  C   UNL     1       4.862   4.285   5.868  1.00  0.00     0.081 C 
ATOM     91  S   UNL     1       4.232   5.794   6.371  1.00  0.00    -0.054 SA
ATOM     92  S   UNL     1       4.779   8.301   4.854  1.00  0.00    -0.052 S 
ATOM     93  C   UNL     1       4.565   3.058   6.318  1.00  0.00     0.029 C 
BRANCH  93  94
ATOM     94  C   UNL     1       3.591   2.757   7.369  1.00  0.00    -0.024 A 
ATOM     95  C   UNL     1       4.013   2.118   8.533  1.00  0.00     0.010 A 
ATOM     96  C   UNL     1       2.243   3.103   7.232  1.00  0.00     0.018 A 
ATOM     97  C   UNL     1       3.107   1.893   9.574  1.00  0.00     0.029 A 
ATOM     98  C   UNL     1       1.343   2.896   8.290  1.00  0.00     0.001 A 
ATOM     99  C   UNL     1       1.780   2.294   9.488  1.00  0.00     0.070 A 
ATOM    100  C   UNL     1       0.004   3.298   8.202  1.00  0.00     0.012 A 
ATOM    101  N   UNL     1       0.962   2.113  10.540  1.00  0.00    -0.256 NA
ATOM    102  C   UNL     1      -0.840   3.121   9.291  1.00  0.00     0.021 A 
ATOM    103  C   UNL     1      -0.317   2.532  10.426  1.00  0.00     0.112 A 
ENDBRANCH  93  94
ENDBRANCH  78  86
ENDBRANCH  75  78
ENDBRANCH  73  74
ENDBRANCH  72  73
ENDBRANCH   1  72
TORSDOF 18
