REMARK SMILES O=C(NCCCCNC(=O)C1(C/C=C/c2ccccc2)Cc2ccccc2C1)c1ccc(-c2c3nc(c(-c4cc(S(=O)(=O)[O-])ccc4F)c4ccc([nH]4)c(-c4cc(S(=O)(=O)[O-])ccc4F)c4nc(c(-c5cc(S(=O)(=O)[O-])ccc5F)c5ccc2[nH]5)C=C4)C=C3)cc1
REMARK SMILES IDX 5 1 4 2 3 3 1 4 2 5 29 7 30 8 91 9 31 10 90 11 32 12 33 13
REMARK SMILES IDX 34 14 84 15 35 16 89 17 83 18 85 19 36 20 88 21 82 22 81 23
REMARK SMILES IDX 37 25 69 26 49 27 68 28 50 29 53 30 67 31 86 32 51 33 52 34
REMARK SMILES IDX 66 36 87 37 54 38 38 39 39 40 47 41 40 42 46 43 48 44 45 45
REMARK SMILES IDX 41 46 42 47 43 48 44 49 70 50 71 51 79 52 72 53 78 54 80 55
REMARK SMILES IDX 77 56 73 57 74 58 75 59 76 60 55 61 56 62 64 63 57 64 63 65
REMARK SMILES IDX 65 66 62 67 58 68 59 69 60 70 61 71 6 72 7 73 8 74 9 75
REMARK SMILES IDX 10 77 11 78 21 79 28 80 22 81 27 82 23 83 26 84 24 85 25 86
REMARK SMILES IDX 12 87 13 88 14 89 15 90 16 91 20 92 17 93 19 94 18 95
REMARK H PARENT 3 6 85 24 53 35 8 76
REMARK Flexibility Score: inf
ROOT
ATOM      1  C   UNL     1       5.681  -1.041   1.679  1.00  0.00     0.023 C 
ENDROOT
BRANCH   1   2
ATOM      2  C   UNL     1       5.074  -0.695   0.334  1.00  0.00     0.116 C 
BRANCH   2   3
ATOM      3  N   UNL     1       3.665  -1.014   0.176  1.00  0.00    -0.352 N 
ATOM      4  O   UNL     1       1.531  -0.589  -0.511  1.00  0.00    -0.269 OA
ATOM      5  C   UNL     1       2.700  -0.226  -0.424  1.00  0.00     0.251 C 
ATOM      6  H   UNL     1       3.367  -1.881   0.533  1.00  0.00     0.163 HD
BRANCH   5   7
ATOM      7  C   UNL     1       3.105   1.103  -0.933  1.00  0.00     0.039 A 
ATOM      8  C   UNL     1       4.183   1.199  -1.813  1.00  0.00     0.014 A 
ATOM      9  C   UNL     1       2.500   2.254  -0.419  1.00  0.00     0.014 A 
ATOM     10  C   UNL     1       4.769   2.437  -2.035  1.00  0.00     0.010 A 
ATOM     11  C   UNL     1       3.031   3.510  -0.733  1.00  0.00     0.010 A 
ATOM     12  C   UNL     1       4.196   3.609  -1.509  1.00  0.00    -0.014 A 
BRANCH  12  13
ATOM     13  C   UNL     1       4.815   4.918  -1.845  1.00  0.00     0.031 A 
ATOM     14  C   UNL     1       5.427   5.799  -0.789  1.00  0.00     0.074 A 
ATOM     15  C   UNL     1       4.866   5.277  -3.142  1.00  0.00     0.049 A 
ATOM     16  N   UNL     1       6.038   6.949  -0.929  1.00  0.00    -0.248 NA
ATOM     17  C   UNL     1       5.333   5.337   0.602  1.00  0.00     0.031 C 
ATOM     18  C   UNL     1       4.298   4.498  -4.247  1.00  0.00     0.029 A 
ATOM     19  N   UNL     1       5.439   6.357  -3.759  1.00  0.00    -0.354 N 
ATOM     20  C   UNL     1       6.384   7.361   0.354  1.00  0.00     0.074 A 
ATOM     21  C   UNL     1       5.887   6.346   1.261  1.00  0.00     0.031 C 
ATOM     22  C   UNL     1       4.604   5.092  -5.407  1.00  0.00     0.029 A 
ATOM     23  C   UNL     1       5.317   6.332  -5.128  1.00  0.00     0.049 A 
ATOM     24  H   UNL     1       5.895   7.080  -3.270  1.00  0.00     0.167 HD
ATOM     25  C   UNL     1       7.056   8.479   0.733  1.00  0.00     0.034 A 
ATOM     26  C   UNL     1       5.712   7.218  -6.062  1.00  0.00     0.034 A 
ATOM     27  C   UNL     1       7.543   9.476  -0.194  1.00  0.00     0.049 A 
ATOM     28  C   UNL     1       6.433   8.456  -5.617  1.00  0.00     0.074 A 
ATOM     29  C   UNL     1       8.255  10.634   0.075  1.00  0.00     0.029 A 
ATOM     30  N   UNL     1       7.362   9.440  -1.573  1.00  0.00    -0.354 N 
ATOM     31  N   UNL     1       6.754   8.828  -4.399  1.00  0.00    -0.248 NA
ATOM     32  C   UNL     1       6.844   9.393  -6.667  1.00  0.00     0.031 C 
ATOM     33  C   UNL     1       8.446  11.326  -1.128  1.00  0.00     0.029 A 
ATOM     34  C   UNL     1       7.920  10.567  -2.161  1.00  0.00     0.049 A 
ATOM     35  H   UNL     1       6.904   8.719  -2.062  1.00  0.00     0.167 HD
ATOM     36  C   UNL     1       7.416  10.042  -4.538  1.00  0.00     0.074 A 
ATOM     37  C   UNL     1       7.465  10.326  -5.960  1.00  0.00     0.031 C 
ATOM     38  C   UNL     1       7.936  10.848  -3.578  1.00  0.00     0.034 A 
BRANCH  25  39
ATOM     39  C   UNL     1       7.252   8.706   2.216  1.00  0.00     0.023 A 
ATOM     40  C   UNL     1       8.017   7.832   3.009  1.00  0.00     0.031 A 
ATOM     41  C   UNL     1       6.639   9.800   2.854  1.00  0.00     0.131 A 
ATOM     42  C   UNL     1       8.087   8.023   4.399  1.00  0.00     0.055 A 
ATOM     43  C   UNL     1       6.777  10.029   4.225  1.00  0.00     0.041 A 
ATOM     44  F   UNL     1       5.881  10.661   2.156  1.00  0.00    -0.206 F 
ATOM     45  C   UNL     1       7.491   9.129   5.009  1.00  0.00     0.022 A 
BRANCH  42  46
ATOM     46  S   UNL     1       8.838   6.722   5.417  1.00  0.00     0.124 S 
ATOM     47  O   UNL     1       8.053   5.552   5.030  1.00  0.00    -0.237 OA
ATOM     48  O   UNL     1      10.226   6.736   4.971  1.00  0.00    -0.237 OA
ATOM     49  O   UNL     1       8.616   7.185   6.785  1.00  0.00    -0.744 OA
ENDBRANCH  42  46
ENDBRANCH  25  39
BRANCH  26  50
ATOM     50  C   UNL     1       5.394   6.968  -7.493  1.00  0.00     0.023 A 
ATOM     51  C   UNL     1       6.404   6.708  -8.430  1.00  0.00     0.031 A 
ATOM     52  C   UNL     1       4.058   6.958  -7.937  1.00  0.00     0.131 A 
ATOM     53  C   UNL     1       6.064   6.466  -9.770  1.00  0.00     0.055 A 
ATOM     54  C   UNL     1       3.722   6.671  -9.259  1.00  0.00     0.041 A 
ATOM     55  F   UNL     1       3.055   7.189  -7.075  1.00  0.00    -0.206 F 
ATOM     56  C   UNL     1       4.730   6.430 -10.187  1.00  0.00     0.022 A 
BRANCH  53  57
ATOM     57  S   UNL     1       7.397   6.240 -10.978  1.00  0.00     0.124 S 
ATOM     58  O   UNL     1       8.121   7.501 -10.863  1.00  0.00    -0.237 OA
ATOM     59  O   UNL     1       8.078   5.059 -10.460  1.00  0.00    -0.237 OA
ATOM     60  O   UNL     1       6.684   6.043 -12.239  1.00  0.00    -0.744 OA
ENDBRANCH  53  57
ENDBRANCH  26  50
BRANCH  38  61
ATOM     61  C   UNL     1       8.627  12.100  -4.054  1.00  0.00     0.023 A 
ATOM     62  C   UNL     1       7.910  13.162  -4.633  1.00  0.00     0.031 A 
ATOM     63  C   UNL     1      10.024  12.217  -3.953  1.00  0.00     0.131 A 
ATOM     64  C   UNL     1       8.600  14.273  -5.140  1.00  0.00     0.055 A 
ATOM     65  C   UNL     1      10.699  13.350  -4.410  1.00  0.00     0.041 A 
ATOM     66  F   UNL     1      10.755  11.230  -3.411  1.00  0.00    -0.206 F 
ATOM     67  C   UNL     1       9.988  14.380  -5.019  1.00  0.00     0.022 A 
BRANCH  64  68
ATOM     68  S   UNL     1       7.666  15.543  -6.038  1.00  0.00     0.124 S 
ATOM     69  O   UNL     1       7.094  14.775  -7.140  1.00  0.00    -0.237 OA
ATOM     70  O   UNL     1       6.722  16.010  -5.028  1.00  0.00    -0.237 OA
ATOM     71  O   UNL     1       8.690  16.512  -6.424  1.00  0.00    -0.744 OA
ENDBRANCH  64  68
ENDBRANCH  38  61
ENDBRANCH  12  13
ENDBRANCH   5   7
ENDBRANCH   2   3
ENDBRANCH   1   2
BRANCH   1  72
ATOM     72  C   UNL     1       6.019  -2.492   2.009  1.00  0.00     0.023 C 
BRANCH  72  73
ATOM     73  C   UNL     1       6.062  -3.517   0.877  1.00  0.00     0.116 C 
BRANCH  73  74
ATOM     74  N   UNL     1       7.053  -4.543   1.163  1.00  0.00    -0.356 N 
ATOM     75  C   UNL     1       7.154  -5.369   2.232  1.00  0.00     0.227 C 
ATOM     76  H   UNL     1       7.753  -4.652   0.479  1.00  0.00     0.163 HD
ATOM     77  O   UNL     1       8.299  -5.447   2.701  1.00  0.00    -0.274 OA
BRANCH  75  78
ATOM     78  C   UNL     1       6.061  -6.343   2.707  1.00  0.00     0.061 C 
ATOM     79  C   UNL     1       6.484  -7.719   2.062  1.00  0.00     0.053 C 
ATOM     80  C   UNL     1       6.238  -6.582   4.247  1.00  0.00     0.053 C 
ATOM     81  C   UNL     1       6.229  -8.705   3.160  1.00  0.00    -0.044 A 
ATOM     82  C   UNL     1       6.073  -8.062   4.386  1.00  0.00    -0.044 A 
ATOM     83  C   UNL     1       6.187 -10.085   3.070  1.00  0.00     0.004 A 
ATOM     84  C   UNL     1       5.853  -8.778   5.551  1.00  0.00     0.004 A 
ATOM     85  C   UNL     1       5.959 -10.819   4.237  1.00  0.00     0.000 A 
ATOM     86  C   UNL     1       5.788 -10.169   5.469  1.00  0.00     0.000 A 
BRANCH  78  87
ATOM     87  C   UNL     1       4.567  -6.101   2.338  1.00  0.00     0.045 C 
BRANCH  87  88
ATOM     88  C   UNL     1       3.853  -4.959   3.018  1.00  0.00    -0.025 C 
ATOM     89  C   UNL     1       2.894  -4.222   2.432  1.00  0.00     0.004 C 
BRANCH  89  90
ATOM     90  C   UNL     1       2.312  -2.979   2.979  1.00  0.00    -0.026 A 
ATOM     91  C   UNL     1       1.254  -2.375   2.288  1.00  0.00     0.008 A 
ATOM     92  C   UNL     1       2.873  -2.283   4.062  1.00  0.00     0.008 A 
ATOM     93  C   UNL     1       0.808  -1.094   2.632  1.00  0.00     0.001 A 
ATOM     94  C   UNL     1       2.429  -1.002   4.405  1.00  0.00     0.001 A 
ATOM     95  C   UNL     1       1.406  -0.402   3.680  1.00  0.00     0.000 A 
ENDBRANCH  89  90
ENDBRANCH  87  88
ENDBRANCH  78  87
ENDBRANCH  75  78
ENDBRANCH  73  74
ENDBRANCH  72  73
ENDBRANCH   1  72
TORSDOF 17
