REMARK SMILES C[C@H](C(=O)NCCCCNC(=O)c1ccc(-c2c3nc(c(-c4cc(S(=O)(=O)[O-])ccc4F)c4ccc([nH]4)c(-c4cc(S(=O)(=O)[O-])ccc4F)c4nc(c(-c5cc(S(=O)(=O)[O-])ccc5F)c5ccc2[nH]5)C=C4)C=C3)cc1)[C@@H](C)Sc1ccc2c(c1)OCCCO2
REMARK SMILES IDX 6 1 5 2 3 3 4 4 2 6 1 7 76 8 77 9 78 10 79 11 80 12 84 13
REMARK SMILES IDX 81 14 83 15 82 16 85 17 86 18 87 19 89 21 88 22 7 24 8 25
REMARK SMILES IDX 9 26 10 27 11 28 12 30 13 31 14 32 75 33 15 34 74 35 16 36
REMARK SMILES IDX 17 37 18 38 68 39 19 40 73 41 67 42 69 43 20 44 72 45 66 46
REMARK SMILES IDX 65 47 21 49 53 50 33 51 52 52 34 53 37 54 51 55 70 56 35 57
REMARK SMILES IDX 36 58 50 60 71 61 38 62 22 63 23 64 31 65 24 66 30 67 32 68
REMARK SMILES IDX 29 69 25 70 26 71 27 72 28 73 54 74 55 75 63 76 56 77 62 78
REMARK SMILES IDX 64 79 61 80 57 81 58 82 59 83 60 84 39 85 40 86 48 87 41 88
REMARK SMILES IDX 47 89 49 90 46 91 42 92 43 93 44 94 45 95
REMARK H PARENT 5 5 10 29 69 48 37 59
REMARK Flexibility Score: 90.00
ROOT
ATOM      1  C   UNL     1      -1.557   0.942  -0.726  1.00  0.00     0.116 C 
ENDROOT
BRANCH   1   2
ATOM      2  N   UNL     1      -0.134   0.706  -0.563  1.00  0.00    -0.356 N 
ATOM      3  C   UNL     1       0.584  -0.203   0.144  1.00  0.00     0.223 C 
ATOM      4  O   UNL     1       1.759  -0.356  -0.223  1.00  0.00    -0.275 OA
ATOM      5  H   UNL     1       0.427   1.335  -1.071  1.00  0.00     0.163 HD
BRANCH   3   6
ATOM      6  C   UNL     1       0.125  -0.941   1.417  1.00  0.00     0.088 C 
ATOM      7  C   UNL     1       0.717  -0.154   2.594  1.00  0.00     0.019 C 
BRANCH   6   8
ATOM      8  C   UNL     1      -1.363  -1.302   1.593  1.00  0.00     0.061 C 
ATOM      9  C   UNL     1      -1.884  -2.114   0.395  1.00  0.00     0.020 C 
BRANCH   8  10
ATOM     10  S   UNL     1      -1.846  -2.132   3.223  1.00  0.00    -0.122 SA
BRANCH  10  11
ATOM     11  C   UNL     1      -1.104  -3.740   3.000  1.00  0.00     0.011 A 
ATOM     12  C   UNL     1      -1.805  -4.712   2.272  1.00  0.00     0.019 A 
ATOM     13  C   UNL     1       0.253  -3.901   3.284  1.00  0.00     0.065 A 
ATOM     14  C   UNL     1      -1.094  -5.675   1.563  1.00  0.00     0.051 A 
ATOM     15  C   UNL     1       0.958  -4.856   2.572  1.00  0.00     0.162 A 
ATOM     16  C   UNL     1       0.295  -5.640   1.628  1.00  0.00     0.161 A 
BRANCH  15  17
ATOM     17  O   UNL     1       2.319  -4.932   2.671  1.00  0.00    -0.490 OA
BRANCH  17  18
ATOM     18  C   UNL     1       2.940  -4.057   1.729  1.00  0.00     0.233 C 
BRANCH  18  19
ATOM     19  C   UNL     1       2.849  -4.518   0.271  1.00  0.00     0.083 CG0
ATOM     20  G   UNL     1       1.476  -5.000  -0.196  1.00  0.00     0.000 G0
ENDBRANCH  18  19
ENDBRANCH  17  18
ENDBRANCH  15  17
BRANCH  16  21
ATOM     21  O   UNL     1       1.005  -6.140   0.561  1.00  0.00    -0.490 OA
BRANCH  21  22
ATOM     22  C   UNL     1       1.476  -5.000  -0.196  1.00  0.00     0.233 CG0
ATOM     23  G   UNL     1       2.849  -4.518   0.271  1.00  0.00     0.000 G0
ENDBRANCH  21  22
ENDBRANCH  16  21
ENDBRANCH  10  11
ENDBRANCH   8  10
ENDBRANCH   6   8
ENDBRANCH   3   6
ENDBRANCH   1   2
BRANCH   1  24
ATOM     24  C   UNL     1      -1.969   2.394  -0.552  1.00  0.00     0.023 C 
BRANCH  24  25
ATOM     25  C   UNL     1      -1.699   3.290  -1.756  1.00  0.00     0.023 C 
BRANCH  25  26
ATOM     26  C   UNL     1      -2.227   2.783  -3.095  1.00  0.00     0.116 C 
BRANCH  26  27
ATOM     27  N   UNL     1      -3.631   2.397  -3.071  1.00  0.00    -0.352 N 
ATOM     28  C   UNL     1      -4.611   2.650  -4.003  1.00  0.00     0.251 C 
ATOM     29  H   UNL     1      -3.918   1.887  -2.280  1.00  0.00     0.163 HD
ATOM     30  O   UNL     1      -5.772   2.323  -3.773  1.00  0.00    -0.269 OA
BRANCH  28  31
ATOM     31  C   UNL     1      -4.259   3.353  -5.253  1.00  0.00     0.039 A 
ATOM     32  C   UNL     1      -5.029   4.447  -5.655  1.00  0.00     0.014 A 
ATOM     33  C   UNL     1      -3.141   2.966  -5.996  1.00  0.00     0.014 A 
ATOM     34  C   UNL     1      -4.633   5.197  -6.764  1.00  0.00     0.010 A 
ATOM     35  C   UNL     1      -2.700   3.766  -7.045  1.00  0.00     0.010 A 
ATOM     36  C   UNL     1      -3.443   4.887  -7.444  1.00  0.00    -0.014 A 
BRANCH  36  37
ATOM     37  C   UNL     1      -2.974   5.712  -8.588  1.00  0.00     0.031 A 
ATOM     38  C   UNL     1      -2.857   5.097  -9.957  1.00  0.00     0.074 A 
ATOM     39  C   UNL     1      -2.601   6.991  -8.384  1.00  0.00     0.049 A 
ATOM     40  N   UNL     1      -2.427   5.630 -11.072  1.00  0.00    -0.248 NA
ATOM     41  C   UNL     1      -3.241   3.683 -10.078  1.00  0.00     0.031 C 
ATOM     42  C   UNL     1      -2.621   7.683  -7.093  1.00  0.00     0.029 A 
ATOM     43  N   UNL     1      -2.132   7.939  -9.258  1.00  0.00    -0.354 N 
ATOM     44  C   UNL     1      -2.473   4.613 -12.020  1.00  0.00     0.074 A 
ATOM     45  C   UNL     1      -2.899   3.416 -11.328  1.00  0.00     0.031 C 
ATOM     46  C   UNL     1      -2.225   8.954  -7.268  1.00  0.00     0.029 A 
ATOM     47  C   UNL     1      -1.880   9.158  -8.671  1.00  0.00     0.049 A 
ATOM     48  H   UNL     1      -1.988   7.763 -10.216  1.00  0.00     0.167 HD
ATOM     49  C   UNL     1      -2.212   4.678 -13.350  1.00  0.00     0.034 A 
ATOM     50  C   UNL     1      -1.425  10.309  -9.206  1.00  0.00     0.034 A 
ATOM     51  C   UNL     1      -1.806   5.886 -14.025  1.00  0.00     0.049 A 
ATOM     52  C   UNL     1      -1.129  10.355 -10.684  1.00  0.00     0.074 A 
ATOM     53  C   UNL     1      -1.576   6.085 -15.375  1.00  0.00     0.029 A 
ATOM     54  N   UNL     1      -1.560   7.102 -13.398  1.00  0.00    -0.354 N 
ATOM     55  N   UNL     1      -1.239   9.401 -11.581  1.00  0.00    -0.248 NA
ATOM     56  C   UNL     1      -0.662  11.638 -11.223  1.00  0.00     0.031 C 
ATOM     57  C   UNL     1      -1.125   7.398 -15.554  1.00  0.00     0.029 A 
ATOM     58  C   UNL     1      -1.151   8.045 -14.329  1.00  0.00     0.049 A 
ATOM     59  H   UNL     1      -1.662   7.270 -12.434  1.00  0.00     0.167 HD
ATOM     60  C   UNL     1      -0.891   9.983 -12.797  1.00  0.00     0.074 A 
ATOM     61  C   UNL     1      -0.582  11.371 -12.518  1.00  0.00     0.031 C 
ATOM     62  C   UNL     1      -0.837   9.424 -14.034  1.00  0.00     0.034 A 
BRANCH  49  63
ATOM     63  C   UNL     1      -2.337   3.396 -14.143  1.00  0.00     0.023 A 
ATOM     64  C   UNL     1      -3.554   2.696 -14.232  1.00  0.00     0.031 A 
ATOM     65  C   UNL     1      -1.214   2.838 -14.778  1.00  0.00     0.131 A 
ATOM     66  C   UNL     1      -3.598   1.439 -14.853  1.00  0.00     0.055 A 
ATOM     67  C   UNL     1      -1.286   1.630 -15.476  1.00  0.00     0.041 A 
ATOM     68  F   UNL     1      -0.018   3.445 -14.713  1.00  0.00    -0.206 F 
ATOM     69  C   UNL     1      -2.478   0.913 -15.500  1.00  0.00     0.022 A 
BRANCH  66  70
ATOM     70  S   UNL     1      -5.090   0.427 -14.649  1.00  0.00     0.124 S 
ATOM     71  O   UNL     1      -5.178   0.324 -13.194  1.00  0.00    -0.237 OA
ATOM     72  O   UNL     1      -6.113   1.239 -15.296  1.00  0.00    -0.237 OA
ATOM     73  O   UNL     1      -4.754  -0.820 -15.334  1.00  0.00    -0.744 OA
ENDBRANCH  66  70
ENDBRANCH  49  63
BRANCH  50  74
ATOM     74  C   UNL     1      -1.234  11.518  -8.355  1.00  0.00     0.023 A 
ATOM     75  C   UNL     1      -2.000  12.676  -8.568  1.00  0.00     0.031 A 
ATOM     76  C   UNL     1      -0.254  11.554  -7.348  1.00  0.00     0.131 A 
ATOM     77  C   UNL     1      -1.741  13.836  -7.821  1.00  0.00     0.055 A 
ATOM     78  C   UNL     1      -0.036  12.693  -6.570  1.00  0.00     0.041 A 
ATOM     79  F   UNL     1       0.503  10.473  -7.097  1.00  0.00    -0.206 F 
ATOM     80  C   UNL     1      -0.772  13.848  -6.815  1.00  0.00     0.022 A 
BRANCH  77  81
ATOM     81  S   UNL     1      -2.632  15.358  -8.244  1.00  0.00     0.124 S 
ATOM     82  O   UNL     1      -2.261  15.540  -9.642  1.00  0.00    -0.237 OA
ATOM     83  O   UNL     1      -4.018  14.977  -7.991  1.00  0.00    -0.237 OA
ATOM     84  O   UNL     1      -2.080  16.343  -7.317  1.00  0.00    -0.744 OA
ENDBRANCH  77  81
ENDBRANCH  50  74
BRANCH  62  85
ATOM     85  C   UNL     1      -0.478  10.338 -15.182  1.00  0.00     0.023 A 
ATOM     86  C   UNL     1       0.789  10.937 -15.287  1.00  0.00     0.031 A 
ATOM     87  C   UNL     1      -1.432  10.631 -16.174  1.00  0.00     0.131 A 
ATOM     88  C   UNL     1       1.047  11.851 -16.320  1.00  0.00     0.055 A 
ATOM     89  C   UNL     1      -1.147  11.488 -17.238  1.00  0.00     0.041 A 
ATOM     90  F   UNL     1      -2.659  10.090 -16.123  1.00  0.00    -0.206 F 
ATOM     91  C   UNL     1       0.093  12.116 -17.306  1.00  0.00     0.022 A 
BRANCH  88  92
ATOM     92  S   UNL     1       2.608  12.773 -16.296  1.00  0.00     0.124 S 
ATOM     93  O   UNL     1       2.557  13.423 -14.990  1.00  0.00    -0.237 OA
ATOM     94  O   UNL     1       3.599  11.712 -16.441  1.00  0.00    -0.237 OA
ATOM     95  O   UNL     1       2.493  13.674 -17.442  1.00  0.00    -0.744 OA
ENDBRANCH  88  92
ENDBRANCH  62  85
ENDBRANCH  36  37
ENDBRANCH  28  31
ENDBRANCH  26  27
ENDBRANCH  25  26
ENDBRANCH  24  25
ENDBRANCH   1  24
TORSDOF 17
