REMARK SMILES CC(C)Cc1ccc([C@@H](C)C(=O)NCCCCNC(=O)c2ccc(-c3c4nc(c(-c5cc(S(=O)(=O)[O-])ccc5F)c5ccc([nH]5)c(-c5cc(S(=O)(=O)[O-])ccc5F)c5nc(c(-c6cc(S(=O)(=O)[O-])ccc6F)c6ccc3[nH]6)C=C5)C=C4)cc2)cc1
REMARK SMILES IDX 15 1 14 2 13 3 11 4 12 5 9 7 10 8 8 9 5 10 6 11 85 12 7 13
REMARK SMILES IDX 84 14 4 15 2 16 1 17 3 18 16 19 17 20 18 21 19 22 20 24
REMARK SMILES IDX 21 25 22 26 83 27 23 28 82 29 24 30 25 31 26 32 76 33 27 34
REMARK SMILES IDX 81 35 75 36 77 37 28 38 80 39 74 40 73 41 29 43 61 44 41 45
REMARK SMILES IDX 60 46 42 47 45 48 59 49 78 50 43 51 44 52 58 54 79 55 46 56
REMARK SMILES IDX 30 57 31 58 39 59 32 60 38 61 40 62 37 63 33 64 34 65 35 66
REMARK SMILES IDX 36 67 62 68 63 69 71 70 64 71 70 72 72 73 69 74 65 75 66 76
REMARK SMILES IDX 67 77 68 78 47 79 48 80 56 81 49 82 55 83 57 84 54 85 50 86
REMARK SMILES IDX 51 87 52 88 53 89
REMARK H PARENT 13 6 18 23 77 42 45 53
REMARK Flexibility Score: inf
ROOT
ATOM      1  C   UNL     1      -2.470   5.807  -0.549  1.00  0.00     0.023 C 
ENDROOT
BRANCH   1   2
ATOM      2  C   UNL     1      -2.327   6.461   0.826  1.00  0.00     0.116 C 
BRANCH   2   3
ATOM      3  N   UNL     1      -3.334   6.002   1.761  1.00  0.00    -0.356 N 
ATOM      4  C   UNL     1      -3.319   5.005   2.688  1.00  0.00     0.227 C 
ATOM      5  O   UNL     1      -4.370   4.816   3.313  1.00  0.00    -0.274 OA
ATOM      6  H   UNL     1      -4.183   6.500   1.717  1.00  0.00     0.163 HD
BRANCH   4   7
ATOM      7  C   UNL     1      -2.086   4.146   3.002  1.00  0.00     0.105 C 
ATOM      8  C   UNL     1      -0.904   4.935   3.570  1.00  0.00     0.023 C 
BRANCH   7   9
ATOM      9  C   UNL     1      -1.741   3.144   1.913  1.00  0.00    -0.036 A 
ATOM     10  C   UNL     1      -1.186   1.255  -0.124  1.00  0.00    -0.048 A 
ATOM     11  C   UNL     1      -0.596   2.522  -0.137  1.00  0.00     0.004 A 
ATOM     12  C   UNL     1      -2.085   0.948   0.902  1.00  0.00     0.004 A 
ATOM     13  C   UNL     1      -0.829   3.429   0.894  1.00  0.00     0.005 A 
ATOM     14  C   UNL     1      -2.371   1.888   1.899  1.00  0.00     0.005 A 
BRANCH  10  15
ATOM     15  C   UNL     1      -0.843   0.240  -1.190  1.00  0.00     0.038 C 
BRANCH  15  16
ATOM     16  C   UNL     1       0.679   0.068  -1.404  1.00  0.00    -0.013 C 
ATOM     17  C   UNL     1       1.381  -0.424  -0.135  1.00  0.00     0.008 C 
ATOM     18  C   UNL     1       0.954  -0.889  -2.562  1.00  0.00     0.008 C 
ENDBRANCH  15  16
ENDBRANCH  10  15
ENDBRANCH   7   9
ENDBRANCH   4   7
ENDBRANCH   2   3
ENDBRANCH   1   2
BRANCH   1  19
ATOM     19  C   UNL     1      -3.398   6.532  -1.520  1.00  0.00     0.023 C 
BRANCH  19  20
ATOM     20  C   UNL     1      -2.973   7.947  -1.895  1.00  0.00     0.116 C 
BRANCH  20  21
ATOM     21  N   UNL     1      -1.639   8.036  -2.471  1.00  0.00    -0.352 N 
ATOM     22  C   UNL     1      -1.178   8.923  -3.421  1.00  0.00     0.251 C 
ATOM     23  H   UNL     1      -0.983   7.380  -2.140  1.00  0.00     0.163 HD
ATOM     24  O   UNL     1      -0.043   8.823  -3.862  1.00  0.00    -0.269 OA
BRANCH  22  25
ATOM     25  C   UNL     1      -2.103   9.959  -3.934  1.00  0.00     0.039 A 
ATOM     26  C   UNL     1      -2.281  10.081  -5.314  1.00  0.00     0.014 A 
ATOM     27  C   UNL     1      -2.853  10.740  -3.052  1.00  0.00     0.014 A 
ATOM     28  C   UNL     1      -3.281  10.921  -5.807  1.00  0.00     0.010 A 
ATOM     29  C   UNL     1      -3.900  11.514  -3.541  1.00  0.00     0.010 A 
ATOM     30  C   UNL     1      -4.132  11.604  -4.922  1.00  0.00    -0.014 A 
BRANCH  30  31
ATOM     31  C   UNL     1      -5.286  12.400  -5.415  1.00  0.00     0.031 A 
ATOM     32  C   UNL     1      -5.346  13.879  -5.150  1.00  0.00     0.074 A 
ATOM     33  C   UNL     1      -6.322  11.774  -6.007  1.00  0.00     0.049 A 
ATOM     34  N   UNL     1      -6.308  14.728  -5.404  1.00  0.00    -0.248 NA
ATOM     35  C   UNL     1      -4.186  14.470  -4.468  1.00  0.00     0.031 C 
ATOM     36  C   UNL     1      -6.411  10.332  -6.251  1.00  0.00     0.029 A 
ATOM     37  N   UNL     1      -7.508  12.264  -6.493  1.00  0.00    -0.354 N 
ATOM     38  C   UNL     1      -5.881  15.948  -4.891  1.00  0.00     0.074 A 
ATOM     39  C   UNL     1      -4.601  15.709  -4.258  1.00  0.00     0.031 C 
ATOM     40  C   UNL     1      -7.582  10.057  -6.849  1.00  0.00     0.029 A 
ATOM     41  C   UNL     1      -8.343  11.293  -6.997  1.00  0.00     0.049 A 
ATOM     42  H   UNL     1      -7.740  13.220  -6.481  1.00  0.00     0.167 HD
ATOM     43  C   UNL     1      -6.490  17.158  -4.962  1.00  0.00     0.034 A 
ATOM     44  C   UNL     1      -9.586  11.385  -7.508  1.00  0.00     0.034 A 
ATOM     45  C   UNL     1      -7.755  17.378  -5.621  1.00  0.00     0.049 A 
ATOM     46  C   UNL     1     -10.236  12.741  -7.600  1.00  0.00     0.074 A 
ATOM     47  C   UNL     1      -8.417  18.573  -5.840  1.00  0.00     0.029 A 
ATOM     48  N   UNL     1      -8.557  16.377  -6.156  1.00  0.00    -0.354 N 
ATOM     49  N   UNL     1      -9.782  13.902  -7.188  1.00  0.00    -0.248 NA
ATOM     50  C   UNL     1     -11.556  12.801  -8.238  1.00  0.00     0.031 C 
ATOM     51  C   UNL     1      -9.646  18.289  -6.449  1.00  0.00     0.029 A 
ATOM     52  C   UNL     1      -9.722  16.923  -6.674  1.00  0.00     0.049 A 
ATOM     53  H   UNL     1      -8.330  15.419  -6.167  1.00  0.00     0.167 HD
ATOM     54  C   UNL     1     -10.756  14.834  -7.533  1.00  0.00     0.074 A 
ATOM     55  C   UNL     1     -11.811  14.101  -8.204  1.00  0.00     0.031 C 
ATOM     56  C   UNL     1     -10.776  16.175  -7.319  1.00  0.00     0.034 A 
BRANCH  43  57
ATOM     57  C   UNL     1      -5.800  18.321  -4.288  1.00  0.00     0.023 A 
ATOM     58  C   UNL     1      -4.522  18.754  -4.684  1.00  0.00     0.031 A 
ATOM     59  C   UNL     1      -6.406  18.975  -3.201  1.00  0.00     0.131 A 
ATOM     60  C   UNL     1      -3.854  19.740  -3.944  1.00  0.00     0.055 A 
ATOM     61  C   UNL     1      -5.772  20.018  -2.522  1.00  0.00     0.041 A 
ATOM     62  F   UNL     1      -7.617  18.596  -2.763  1.00  0.00    -0.206 F 
ATOM     63  C   UNL     1      -4.480  20.393  -2.880  1.00  0.00     0.022 A 
BRANCH  60  64
ATOM     64  S   UNL     1      -2.098  20.036  -4.287  1.00  0.00     0.124 S 
ATOM     65  O   UNL     1      -1.527  18.708  -4.073  1.00  0.00    -0.237 OA
ATOM     66  O   UNL     1      -2.122  20.506  -5.667  1.00  0.00    -0.237 OA
ATOM     67  O   UNL     1      -1.718  21.037  -3.292  1.00  0.00    -0.744 OA
ENDBRANCH  60  64
ENDBRANCH  43  57
BRANCH  44  68
ATOM     68  C   UNL     1     -10.304  10.159  -7.957  1.00  0.00     0.023 A 
ATOM     69  C   UNL     1     -10.584   9.937  -9.314  1.00  0.00     0.031 A 
ATOM     70  C   UNL     1     -10.734   9.197  -7.026  1.00  0.00     0.131 A 
ATOM     71  C   UNL     1     -11.305   8.796  -9.700  1.00  0.00     0.055 A 
ATOM     72  C   UNL     1     -11.413   8.042  -7.420  1.00  0.00     0.041 A 
ATOM     73  F   UNL     1     -10.480   9.358  -5.718  1.00  0.00    -0.206 F 
ATOM     74  C   UNL     1     -11.711   7.842  -8.764  1.00  0.00     0.022 A 
BRANCH  71  75
ATOM     75  S   UNL     1     -11.754   8.601 -11.447  1.00  0.00     0.124 S 
ATOM     76  O   UNL     1     -12.555   9.797 -11.684  1.00  0.00    -0.237 OA
ATOM     77  O   UNL     1     -10.446   8.566 -12.094  1.00  0.00    -0.237 OA
ATOM     78  O   UNL     1     -12.492   7.340 -11.471  1.00  0.00    -0.744 OA
ENDBRANCH  71  75
ENDBRANCH  44  68
BRANCH  56  79
ATOM     79  C   UNL     1     -11.970  16.931  -7.843  1.00  0.00     0.023 A 
ATOM     80  C   UNL     1     -13.251  16.763  -7.289  1.00  0.00     0.031 A 
ATOM     81  C   UNL     1     -11.825  17.825  -8.919  1.00  0.00     0.131 A 
ATOM     82  C   UNL     1     -14.347  17.439  -7.845  1.00  0.00     0.055 A 
ATOM     83  C   UNL     1     -12.910  18.538  -9.432  1.00  0.00     0.041 A 
ATOM     84  F   UNL     1     -10.625  18.021  -9.488  1.00  0.00    -0.206 F 
ATOM     85  C   UNL     1     -14.181  18.338  -8.903  1.00  0.00     0.022 A 
BRANCH  82  86
ATOM     86  S   UNL     1     -16.009  17.067  -7.222  1.00  0.00     0.124 S 
ATOM     87  O   UNL     1     -16.118  15.636  -7.484  1.00  0.00    -0.237 OA
ATOM     88  O   UNL     1     -15.910  17.453  -5.818  1.00  0.00    -0.237 OA
ATOM     89  O   UNL     1     -16.878  17.915  -8.037  1.00  0.00    -0.744 OA
ENDBRANCH  82  86
ENDBRANCH  56  79
ENDBRANCH  30  31
ENDBRANCH  22  25
ENDBRANCH  20  21
ENDBRANCH  19  20
ENDBRANCH   1  19
TORSDOF 17
