REMARK SMILES COC[C@H]1CCN(C(=O)N2CC[C@H](C(=O)NCCCCNC(=O)c3ccc(-c4c5nc(c(-c6cc(S(=O)(=O)[O-])ccc6F)c6ccc([nH]6)c(-c6cc(S(=O)(=O)[O-])ccc6F)c6nc(c(-c7cc(S(=O)(=O)[O-])ccc7F)c7ccc4[nH]7)C=C6)C=C5)cc3)[C@@H]2C)C1
REMARK SMILES IDX 18 1 17 2 16 3 14 4 15 5 13 7 10 8 11 9 87 10 12 11 88 12
REMARK SMILES IDX 8 13 9 14 7 15 4 16 5 17 89 18 6 19 3 20 2 21 1 22 19 23
REMARK SMILES IDX 20 24 21 25 22 26 23 28 24 29 25 30 86 31 26 32 85 33 27 34
REMARK SMILES IDX 28 35 29 36 79 37 30 38 84 39 78 40 80 41 31 42 83 43 77 44
REMARK SMILES IDX 76 45 32 47 64 48 44 49 63 50 45 51 48 52 62 53 81 54 46 55
REMARK SMILES IDX 47 56 61 58 82 59 49 60 33 61 34 62 42 63 35 64 41 65 43 66
REMARK SMILES IDX 40 67 36 68 37 69 38 70 39 71 65 72 66 73 74 74 67 75 73 76
REMARK SMILES IDX 75 77 72 78 68 79 69 80 70 81 71 82 50 83 51 84 59 85 52 86
REMARK SMILES IDX 58 87 60 88 57 89 53 90 54 91 55 92 56 93
REMARK H PARENT 16 6 21 27 80 46 48 57
REMARK Flexibility Score: inf
ROOT
ATOM      1  C   UNL     1       2.491  -4.162   7.114  1.00  0.00     0.023 C 
ENDROOT
BRANCH   1   2
ATOM      2  C   UNL     1       2.418  -5.356   6.170  1.00  0.00     0.116 C 
BRANCH   2   3
ATOM      3  N   UNL     1       2.377  -6.628   6.862  1.00  0.00    -0.356 N 
ATOM      4  C   UNL     1       1.542  -7.690   6.715  1.00  0.00     0.225 C 
ATOM      5  O   UNL     1       1.794  -8.699   7.382  1.00  0.00    -0.275 OA
ATOM      6  H   UNL     1       3.069  -6.742   7.553  1.00  0.00     0.163 HD
BRANCH   4   7
ATOM      7  C   UNL     1       0.317  -7.685   5.804  1.00  0.00     0.102 C 
ATOM      8  N   UNL     1      -0.030  -6.198   4.005  1.00  0.00    -0.321 N 
ATOM      9  C   UNL     1      -1.187  -6.045   4.865  1.00  0.00     0.122 C 
ATOM     10  C   UNL     1       0.550  -7.512   4.286  1.00  0.00     0.096 C 
ATOM     11  C   UNL     1      -0.725  -6.619   6.193  1.00  0.00     0.037 C 
ATOM     12  C   UNL     1       1.969  -7.751   3.784  1.00  0.00     0.032 C 
BRANCH   8  13
ATOM     13  C   UNL     1       0.111  -5.573   2.790  1.00  0.00     0.320 C 
ATOM     14  O   UNL     1       0.302  -6.218   1.759  1.00  0.00    -0.248 OA
BRANCH  13  15
ATOM     15  N   UNL     1       0.143  -4.195   2.792  1.00  0.00    -0.324 N 
ATOM     16  C   UNL     1       0.757  -2.038   1.990  1.00  0.00     0.036 C 
ATOM     17  C   UNL     1      -0.045  -1.916   3.282  1.00  0.00     0.029 C 
ATOM     18  C   UNL     1       0.454  -3.479   1.553  1.00  0.00     0.127 C 
ATOM     19  C   UNL     1       0.193  -3.273   3.916  1.00  0.00     0.122 C 
BRANCH  16  20
ATOM     20  C   UNL     1       0.379  -0.983   0.957  1.00  0.00     0.165 C 
BRANCH  20  21
ATOM     21  O   UNL     1       1.492  -0.688   0.113  1.00  0.00    -0.384 OA
ATOM     22  C   UNL     1       2.345   0.311   0.670  1.00  0.00     0.194 C 
ENDBRANCH  20  21
ENDBRANCH  16  20
ENDBRANCH  13  15
ENDBRANCH   8  13
ENDBRANCH   4   7
ENDBRANCH   2   3
ENDBRANCH   1   2
BRANCH   1  23
ATOM     23  C   UNL     1       3.809  -4.019   7.872  1.00  0.00     0.023 C 
BRANCH  23  24
ATOM     24  C   UNL     1       5.070  -4.019   7.012  1.00  0.00     0.116 C 
BRANCH  24  25
ATOM     25  N   UNL     1       5.066  -2.993   5.979  1.00  0.00    -0.352 N 
ATOM     26  C   UNL     1       6.055  -2.097   5.644  1.00  0.00     0.251 C 
ATOM     27  H   UNL     1       4.240  -2.931   5.446  1.00  0.00     0.163 HD
ATOM     28  O   UNL     1       5.825  -1.214   4.822  1.00  0.00    -0.269 OA
BRANCH  26  29
ATOM     29  C   UNL     1       7.372  -2.180   6.313  1.00  0.00     0.039 A 
ATOM     30  C   UNL     1       7.931  -1.020   6.856  1.00  0.00     0.014 A 
ATOM     31  C   UNL     1       8.031  -3.406   6.444  1.00  0.00     0.014 A 
ATOM     32  C   UNL     1       9.107  -1.106   7.606  1.00  0.00     0.010 A 
ATOM     33  C   UNL     1       9.162  -3.499   7.252  1.00  0.00     0.010 A 
ATOM     34  C   UNL     1       9.706  -2.353   7.850  1.00  0.00    -0.014 A 
BRANCH  34  35
ATOM     35  C   UNL     1      10.894  -2.481   8.736  1.00  0.00     0.031 A 
ATOM     36  C   UNL     1      12.201  -2.974   8.177  1.00  0.00     0.074 A 
ATOM     37  C   UNL     1      10.777  -2.222  10.054  1.00  0.00     0.049 A 
ATOM     38  N   UNL     1      13.319  -3.245   8.800  1.00  0.00    -0.248 NA
ATOM     39  C   UNL     1      12.244  -3.225   6.729  1.00  0.00     0.031 C 
ATOM     40  C   UNL     1       9.552  -1.778  10.724  1.00  0.00     0.029 A 
ATOM     41  N   UNL     1      11.695  -2.307  11.072  1.00  0.00    -0.354 N 
ATOM     42  C   UNL     1      14.194  -3.709   7.824  1.00  0.00     0.074 A 
ATOM     43  C   UNL     1      13.455  -3.740   6.580  1.00  0.00     0.031 C 
ATOM     44  C   UNL     1       9.801  -1.608  12.033  1.00  0.00     0.029 A 
ATOM     45  C   UNL     1      11.187  -1.974  12.307  1.00  0.00     0.049 A 
ATOM     46  H   UNL     1      12.630  -2.580  10.931  1.00  0.00     0.167 HD
ATOM     47  C   UNL     1      15.500  -4.056   7.949  1.00  0.00     0.034 A 
ATOM     48  C   UNL     1      11.768  -1.975  13.524  1.00  0.00     0.034 A 
ATOM     49  C   UNL     1      16.229  -4.007   9.193  1.00  0.00     0.049 A 
ATOM     50  C   UNL     1      13.216  -2.382  13.639  1.00  0.00     0.074 A 
ATOM     51  C   UNL     1      17.564  -4.292   9.422  1.00  0.00     0.029 A 
ATOM     52  N   UNL     1      15.685  -3.652  10.420  1.00  0.00    -0.354 N 
ATOM     53  N   UNL     1      14.041  -2.777  12.697  1.00  0.00    -0.248 NA
ATOM     54  C   UNL     1      13.813  -2.331  14.980  1.00  0.00     0.031 C 
ATOM     55  C   UNL     1      17.813  -4.164  10.793  1.00  0.00     0.029 A 
ATOM     56  C   UNL     1      16.651  -3.732  11.412  1.00  0.00     0.049 A 
ATOM     57  H   UNL     1      14.749  -3.382  10.566  1.00  0.00     0.167 HD
ATOM     58  C   UNL     1      15.264  -2.987  13.329  1.00  0.00     0.074 A 
ATOM     59  C   UNL     1      15.070  -2.663  14.727  1.00  0.00     0.031 C 
ATOM     60  C   UNL     1      16.442  -3.407  12.802  1.00  0.00     0.034 A 
BRANCH  47  61
ATOM     61  C   UNL     1      16.212  -4.534   6.707  1.00  0.00     0.023 A 
ATOM     62  C   UNL     1      16.406  -3.690   5.600  1.00  0.00     0.031 A 
ATOM     63  C   UNL     1      16.683  -5.856   6.618  1.00  0.00     0.131 A 
ATOM     64  C   UNL     1      16.986  -4.194   4.427  1.00  0.00     0.055 A 
ATOM     65  C   UNL     1      17.333  -6.329   5.476  1.00  0.00     0.041 A 
ATOM     66  F   UNL     1      16.510  -6.714   7.635  1.00  0.00    -0.206 F 
ATOM     67  C   UNL     1      17.474  -5.501   4.366  1.00  0.00     0.022 A 
BRANCH  64  68
ATOM     68  S   UNL     1      16.973  -3.157   2.940  1.00  0.00     0.124 S 
ATOM     69  O   UNL     1      15.540  -2.958   2.733  1.00  0.00    -0.237 OA
ATOM     70  O   UNL     1      17.725  -1.983   3.367  1.00  0.00    -0.237 OA
ATOM     71  O   UNL     1      17.632  -3.989   1.935  1.00  0.00    -0.744 OA
ENDBRANCH  64  68
ENDBRANCH  47  61
BRANCH  48  72
ATOM     72  C   UNL     1      10.992  -1.591  14.738  1.00  0.00     0.023 A 
ATOM     73  C   UNL     1      11.340  -0.456  15.487  1.00  0.00     0.031 A 
ATOM     74  C   UNL     1       9.930  -2.387  15.204  1.00  0.00     0.131 A 
ATOM     75  C   UNL     1      10.671  -0.177  16.689  1.00  0.00     0.055 A 
ATOM     76  C   UNL     1       9.232  -2.075  16.372  1.00  0.00     0.041 A 
ATOM     77  F   UNL     1       9.552  -3.481  14.523  1.00  0.00    -0.206 F 
ATOM     78  C   UNL     1       9.612  -0.973  17.131  1.00  0.00     0.022 A 
BRANCH  75  79
ATOM     79  S   UNL     1      11.274   1.189  17.720  1.00  0.00     0.124 S 
ATOM     80  O   UNL     1      12.667   0.812  17.928  1.00  0.00    -0.237 OA
ATOM     81  O   UNL     1      11.042   2.342  16.857  1.00  0.00    -0.237 OA
ATOM     82  O   UNL     1      10.423   1.119  18.906  1.00  0.00    -0.744 OA
ENDBRANCH  75  79
ENDBRANCH  48  72
BRANCH  60  83
ATOM     83  C   UNL     1      17.622  -3.484  13.739  1.00  0.00     0.023 A 
ATOM     84  C   UNL     1      17.680  -4.426  14.781  1.00  0.00     0.031 A 
ATOM     85  C   UNL     1      18.696  -2.588  13.593  1.00  0.00     0.131 A 
ATOM     86  C   UNL     1      18.765  -4.415  15.671  1.00  0.00     0.055 A 
ATOM     87  C   UNL     1      19.799  -2.619  14.447  1.00  0.00     0.041 A 
ATOM     88  F   UNL     1      18.690  -1.668  12.616  1.00  0.00    -0.206 F 
ATOM     89  C   UNL     1      19.831  -3.528  15.502  1.00  0.00     0.022 A 
BRANCH  86  90
ATOM     90  S   UNL     1      18.723  -5.519  17.109  1.00  0.00     0.124 S 
ATOM     91  O   UNL     1      17.501  -5.093  17.784  1.00  0.00    -0.237 OA
ATOM     92  O   UNL     1      18.680  -6.839  16.488  1.00  0.00    -0.237 OA
ATOM     93  O   UNL     1      19.963  -5.209  17.817  1.00  0.00    -0.744 OA
ENDBRANCH  86  90
ENDBRANCH  60  83
ENDBRANCH  34  35
ENDBRANCH  26  29
ENDBRANCH  24  25
ENDBRANCH  23  24
ENDBRANCH   1  23
TORSDOF 18
