REMARK SMILES CC(C)[C@@H](NC(=O)[C@@](C)([NH3+])C(F)(F)F)C(=O)NCCCCNC(=O)c1ccc(-c2c3nc(c(-c4cc(S(=O)(=O)[O-])ccc4F)c4ccc([nH]4)c(-c4cc(S(=O)(=O)[O-])ccc4F)c4nc(c(-c5cc(S(=O)(=O)[O-])ccc5F)c5ccc2[nH]5)C=C4)C=C3)cc1
REMARK SMILES IDX 19 1 18 2 17 3 15 4 16 5 4 7 2 8 1 9 3 10 5 11 6 12 7 14
REMARK SMILES IDX 8 15 9 16 10 17 11 21 12 22 13 23 14 24 20 25 21 26 22 27
REMARK SMILES IDX 23 28 24 30 25 31 26 32 87 33 27 34 86 35 28 36 29 37 30 38
REMARK SMILES IDX 80 39 31 40 85 41 79 42 81 43 32 44 84 45 78 46 77 47 33 49
REMARK SMILES IDX 65 50 45 51 64 52 46 53 49 54 63 55 82 56 47 57 48 58 62 60
REMARK SMILES IDX 83 61 50 62 34 63 35 64 43 65 36 66 42 67 44 68 41 69 37 70
REMARK SMILES IDX 38 71 39 72 40 73 66 74 67 75 75 76 68 77 74 78 76 79 73 80
REMARK SMILES IDX 69 81 70 82 71 83 72 84 51 85 52 86 60 87 53 88 59 89 61 90
REMARK SMILES IDX 58 91 54 92 55 93 56 94 57 95
REMARK H PARENT 17 6 5 13 10 18 10 19 10 20 22 29 81 48 49 59
REMARK Flexibility Score: inf
ROOT
ATOM      1  C   UNL     1       1.951  -2.498   4.497  1.00  0.00     0.023 C 
ENDROOT
BRANCH   1   2
ATOM      2  C   UNL     1       0.911  -2.090   3.461  1.00  0.00     0.116 C 
BRANCH   2   3
ATOM      3  N   UNL     1       0.200  -0.880   3.851  1.00  0.00    -0.354 N 
ATOM      4  C   UNL     1      -0.694  -0.136   3.137  1.00  0.00     0.242 C 
ATOM      5  O   UNL     1      -1.427   0.645   3.751  1.00  0.00    -0.273 OA
ATOM      6  H   UNL     1       0.392  -0.552   4.759  1.00  0.00     0.163 HD
BRANCH   4   7
ATOM      7  C   UNL     1      -0.789  -0.245   1.608  1.00  0.00     0.174 C 
BRANCH   7   8
ATOM      8  C   UNL     1       0.591   0.173   0.987  1.00  0.00     0.015 C 
ATOM      9  C   UNL     1       0.602   0.242  -0.542  1.00  0.00     0.010 C 
ATOM     10  C   UNL     1       1.115   1.509   1.542  1.00  0.00     0.010 C 
ENDBRANCH   7   8
BRANCH   7  11
ATOM     11  N   UNL     1      -1.231  -1.588   1.183  1.00  0.00    -0.338 N 
ATOM     12  C   UNL     1      -2.411  -2.275   1.326  1.00  0.00     0.291 C 
ATOM     13  H   UNL     1      -0.539  -2.094   0.699  1.00  0.00     0.164 HD
ATOM     14  O   UNL     1      -2.606  -3.096   0.421  1.00  0.00    -0.267 OA
BRANCH  12  15
ATOM     15  C   UNL     1      -3.406  -2.133   2.517  1.00  0.00     0.267 C 
ATOM     16  C   UNL     1      -2.786  -2.511   3.870  1.00  0.00     0.100 C 
BRANCH  15  17
ATOM     17  N   UNL     1      -3.902  -0.716   2.590  1.00  0.00    -0.337 N 
ATOM     18  H   UNL     1      -3.113  -0.086   2.736  1.00  0.00     0.345 HD
ATOM     19  H   UNL     1      -4.559  -0.624   3.365  1.00  0.00     0.345 HD
ATOM     20  H   UNL     1      -4.372  -0.475   1.717  1.00  0.00     0.345 HD
ENDBRANCH  15  17
BRANCH  15  21
ATOM     21  C   UNL     1      -4.535  -3.195   2.293  1.00  0.00     0.453 C 
ATOM     22  F   UNL     1      -5.288  -2.967   1.198  1.00  0.00    -0.164 F 
ATOM     23  F   UNL     1      -4.051  -4.459   2.227  1.00  0.00    -0.164 F 
ATOM     24  F   UNL     1      -5.388  -3.177   3.359  1.00  0.00    -0.164 F 
ENDBRANCH  15  21
ENDBRANCH  12  15
ENDBRANCH   7  11
ENDBRANCH   4   7
ENDBRANCH   2   3
ENDBRANCH   1   2
BRANCH   1  25
ATOM     25  C   UNL     1       1.370  -2.888   5.856  1.00  0.00     0.023 C 
BRANCH  25  26
ATOM     26  C   UNL     1       0.335  -4.006   5.816  1.00  0.00     0.116 C 
BRANCH  26  27
ATOM     27  N   UNL     1       0.869  -5.242   5.271  1.00  0.00    -0.352 N 
ATOM     28  C   UNL     1       1.071  -6.453   5.894  1.00  0.00     0.251 C 
ATOM     29  H   UNL     1       1.123  -5.209   4.320  1.00  0.00     0.163 HD
ATOM     30  O   UNL     1       1.717  -7.326   5.336  1.00  0.00    -0.269 OA
BRANCH  28  31
ATOM     31  C   UNL     1       0.530  -6.664   7.255  1.00  0.00     0.039 A 
ATOM     32  C   UNL     1       1.373  -7.174   8.243  1.00  0.00     0.014 A 
ATOM     33  C   UNL     1      -0.794  -6.332   7.557  1.00  0.00     0.014 A 
ATOM     34  C   UNL     1       0.907  -7.281   9.555  1.00  0.00     0.010 A 
ATOM     35  C   UNL     1      -1.228  -6.363   8.880  1.00  0.00     0.010 A 
ATOM     36  C   UNL     1      -0.382  -6.837   9.894  1.00  0.00    -0.014 A 
BRANCH  36  37
ATOM     37  C   UNL     1      -0.852  -6.859  11.305  1.00  0.00     0.031 A 
ATOM     38  C   UNL     1      -2.026  -7.715  11.699  1.00  0.00     0.074 A 
ATOM     39  C   UNL     1      -0.252  -6.071  12.221  1.00  0.00     0.049 A 
ATOM     40  N   UNL     1      -2.609  -7.832  12.864  1.00  0.00    -0.248 NA
ATOM     41  C   UNL     1      -2.639  -8.526  10.636  1.00  0.00     0.031 C 
ATOM     42  C   UNL     1       0.869  -5.167  11.952  1.00  0.00     0.029 A 
ATOM     43  N   UNL     1      -0.500  -5.897  13.560  1.00  0.00    -0.354 N 
ATOM     44  C   UNL     1      -3.662  -8.720  12.674  1.00  0.00     0.074 A 
ATOM     45  C   UNL     1      -3.673  -9.061  11.267  1.00  0.00     0.031 C 
ATOM     46  C   UNL     1       1.228  -4.558  13.093  1.00  0.00     0.029 A 
ATOM     47  C   UNL     1       0.335  -4.985  14.166  1.00  0.00     0.049 A 
ATOM     48  H   UNL     1      -1.209  -6.380  14.043  1.00  0.00     0.167 HD
ATOM     49  C   UNL     1      -4.526  -9.222  13.592  1.00  0.00     0.034 A 
ATOM     50  C   UNL     1       0.369  -4.531  15.435  1.00  0.00     0.034 A 
ATOM     51  C   UNL     1      -4.496  -8.877  14.993  1.00  0.00     0.049 A 
ATOM     52  C   UNL     1      -0.624  -5.080  16.430  1.00  0.00     0.074 A 
ATOM     53  C   UNL     1      -5.286  -9.371  16.017  1.00  0.00     0.029 A 
ATOM     54  N   UNL     1      -3.644  -7.943  15.567  1.00  0.00    -0.354 N 
ATOM     55  N   UNL     1      -1.575  -5.966  16.245  1.00  0.00    -0.248 NA
ATOM     56  C   UNL     1      -0.531  -4.576  17.806  1.00  0.00     0.031 C 
ATOM     57  C   UNL     1      -4.969  -8.678  17.189  1.00  0.00     0.029 A 
ATOM     58  C   UNL     1      -3.917  -7.818  16.922  1.00  0.00     0.049 A 
ATOM     59  H   UNL     1      -2.947  -7.442  15.084  1.00  0.00     0.167 HD
ATOM     60  C   UNL     1      -2.171  -6.149  17.491  1.00  0.00     0.074 A 
ATOM     61  C   UNL     1      -1.459  -5.295  18.419  1.00  0.00     0.031 C 
ATOM     62  C   UNL     1      -3.208  -6.954  17.837  1.00  0.00     0.034 A 
BRANCH  49  63
ATOM     63  C   UNL     1      -5.592 -10.173  13.101  1.00  0.00     0.023 A 
ATOM     64  C   UNL     1      -5.270 -11.411  12.516  1.00  0.00     0.031 A 
ATOM     65  C   UNL     1      -6.952  -9.832  13.207  1.00  0.00     0.131 A 
ATOM     66  C   UNL     1      -6.286 -12.226  11.995  1.00  0.00     0.055 A 
ATOM     67  C   UNL     1      -7.963 -10.687  12.764  1.00  0.00     0.041 A 
ATOM     68  F   UNL     1      -7.323  -8.655  13.736  1.00  0.00    -0.206 F 
ATOM     69  C   UNL     1      -7.632 -11.886  12.140  1.00  0.00     0.022 A 
BRANCH  66  70
ATOM     70  S   UNL     1      -5.815 -13.667  10.999  1.00  0.00     0.124 S 
ATOM     71  O   UNL     1      -5.028 -13.046   9.936  1.00  0.00    -0.237 OA
ATOM     72  O   UNL     1      -5.071 -14.481  11.953  1.00  0.00    -0.237 OA
ATOM     73  O   UNL     1      -7.098 -14.222  10.571  1.00  0.00    -0.744 OA
ENDBRANCH  66  70
ENDBRANCH  49  63
BRANCH  50  74
ATOM     74  C   UNL     1       1.357  -3.489  15.842  1.00  0.00     0.023 A 
ATOM     75  C   UNL     1       2.334  -3.753  16.815  1.00  0.00     0.031 A 
ATOM     76  C   UNL     1       1.305  -2.192  15.298  1.00  0.00     0.131 A 
ATOM     77  C   UNL     1       3.182  -2.723  17.254  1.00  0.00     0.055 A 
ATOM     78  C   UNL     1       2.191  -1.188  15.693  1.00  0.00     0.041 A 
ATOM     79  F   UNL     1       0.393  -1.884  14.362  1.00  0.00    -0.206 F 
ATOM     80  C   UNL     1       3.127  -1.448  16.689  1.00  0.00     0.022 A 
BRANCH  77  81
ATOM     81  S   UNL     1       4.293  -3.049  18.651  1.00  0.00     0.124 S 
ATOM     82  O   UNL     1       3.354  -3.457  19.688  1.00  0.00    -0.237 OA
ATOM     83  O   UNL     1       5.154  -4.097  18.114  1.00  0.00    -0.237 OA
ATOM     84  O   UNL     1       4.947  -1.760  18.871  1.00  0.00    -0.744 OA
ENDBRANCH  77  81
ENDBRANCH  50  74
BRANCH  62  85
ATOM     85  C   UNL     1      -3.602  -6.983  19.296  1.00  0.00     0.023 A 
ATOM     86  C   UNL     1      -4.132  -5.855  19.946  1.00  0.00     0.031 A 
ATOM     87  C   UNL     1      -3.434  -8.160  20.048  1.00  0.00     0.131 A 
ATOM     88  C   UNL     1      -4.419  -5.910  21.319  1.00  0.00     0.055 A 
ATOM     89  C   UNL     1      -3.787  -8.229  21.396  1.00  0.00     0.041 A 
ATOM     90  F   UNL     1      -2.927  -9.267  19.482  1.00  0.00    -0.206 F 
ATOM     91  C   UNL     1      -4.269  -7.095  22.043  1.00  0.00     0.022 A 
BRANCH  88  92
ATOM     92  S   UNL     1      -4.895  -4.381  22.171  1.00  0.00     0.124 S 
ATOM     93  O   UNL     1      -3.751  -3.516  21.902  1.00  0.00    -0.237 OA
ATOM     94  O   UNL     1      -6.138  -4.021  21.497  1.00  0.00    -0.237 OA
ATOM     95  O   UNL     1      -5.043  -4.797  23.565  1.00  0.00    -0.744 OA
ENDBRANCH  88  92
ENDBRANCH  62  85
ENDBRANCH  36  37
ENDBRANCH  28  31
ENDBRANCH  26  27
ENDBRANCH  25  26
ENDBRANCH   1  25
TORSDOF 19
