REMARK SMILES CCc1ccc(-c2cc(Cl)cc3c2O[C@H](C(F)(F)F)C(C(=O)NCCCCNC(=O)c2ccc(-c4c5nc(c(-c6cc(S(=O)(=O)[O-])ccc6F)c6ccc([nH]6)c(-c6cc(S(=O)(=O)[O-])ccc6F)c6nc(c(-c7cc(S(=O)(=O)[O-])ccc7F)c7ccc4[nH]7)C=C6)C=C5)cc2)=C3)cc1
REMARK SMILES IDX 26 1 25 2 24 3 23 4 21 5 22 6 20 8 7 9 8 10 13 11 9 12 12 13
REMARK SMILES IDX 14 14 10 15 11 16 94 17 15 18 6 19 3 20 4 21 96 22 5 23
REMARK SMILES IDX 95 24 2 25 1 26 16 27 17 28 18 29 19 30 27 31 28 32 29 33
REMARK SMILES IDX 30 35 31 36 32 37 93 38 33 39 92 40 34 41 35 42 36 43 86 44
REMARK SMILES IDX 37 45 91 46 85 47 87 48 38 49 90 50 84 51 83 52 39 54 71 55
REMARK SMILES IDX 51 56 70 57 52 58 55 59 69 60 88 61 53 62 54 63 68 65 89 66
REMARK SMILES IDX 56 67 40 68 41 69 49 70 42 71 48 72 50 73 47 74 43 75 44 76
REMARK SMILES IDX 45 77 46 78 72 79 73 80 81 81 74 82 80 83 82 84 79 85 75 86
REMARK SMILES IDX 76 87 77 88 78 89 57 90 58 91 66 92 59 93 65 94 67 95 64 96
REMARK SMILES IDX 60 97 61 98 62 99 63 100
REMARK H PARENT 23 7 28 34 87 53 55 64
REMARK Flexibility Score: inf
ROOT
ATOM      1  C   UNL     1       0.653  -7.642  13.831  1.00  0.00     0.023 C 
ENDROOT
BRANCH   1   2
ATOM      2  C   UNL     1      -0.175  -6.444  13.344  1.00  0.00     0.023 C 
BRANCH   2   3
ATOM      3  C   UNL     1       0.639  -5.282  12.758  1.00  0.00     0.116 C 
BRANCH   3   4
ATOM      4  N   UNL     1       1.400  -5.747  11.618  1.00  0.00    -0.352 N 
ATOM      5  C   UNL     1       1.488  -5.221  10.375  1.00  0.00     0.251 C 
ATOM      6  O   UNL     1       1.656  -5.980   9.427  1.00  0.00    -0.270 OA
ATOM      7  H   UNL     1       1.929  -6.564  11.769  1.00  0.00     0.163 HD
BRANCH   5   8
ATOM      8  C   UNL     1       1.489  -3.733  10.229  1.00  0.00     0.067 C 
ATOM      9  C   UNL     1       1.633  -3.542   6.163  1.00  0.00     0.026 A 
ATOM     10  C   UNL     1       2.651  -4.441   5.741  1.00  0.00     0.033 A 
ATOM     11  C   UNL     1       1.611  -3.227   7.534  1.00  0.00     0.135 A 
ATOM     12  C   UNL     1       3.672  -4.873   6.584  1.00  0.00     0.042 A 
ATOM     13  C   UNL     1       2.723  -3.580   8.342  1.00  0.00     0.019 A 
ATOM     14  O   UNL     1       0.522  -2.636   8.160  1.00  0.00    -0.475 OA
ATOM     15  Cl  UNL     1       4.837  -5.995   6.005  1.00  0.00    -0.084 Cl
ATOM     16  C   UNL     1       3.756  -4.386   7.872  1.00  0.00     0.032 A 
ATOM     17  C   UNL     1       2.666  -3.252   9.784  1.00  0.00     0.025 C 
ATOM     18  C   UNL     1       0.258  -3.160   9.536  1.00  0.00     0.314 C 
BRANCH   9  19
ATOM     19  C   UNL     1       0.863  -2.923   5.049  1.00  0.00    -0.015 A 
ATOM     20  C   UNL     1       0.487  -1.896   2.403  1.00  0.00    -0.048 A 
ATOM     21  C   UNL     1       0.171  -3.225   2.717  1.00  0.00     0.004 A 
ATOM     22  C   UNL     1       0.853  -1.053   3.458  1.00  0.00     0.004 A 
ATOM     23  C   UNL     1       0.337  -3.725   4.018  1.00  0.00     0.009 A 
ATOM     24  C   UNL     1       1.032  -1.558   4.763  1.00  0.00     0.009 A 
BRANCH  20  25
ATOM     25  C   UNL     1       0.439  -1.478   0.947  1.00  0.00     0.032 C 
ATOM     26  C   UNL     1       1.044  -0.130   0.570  1.00  0.00     0.009 C 
ENDBRANCH  20  25
ENDBRANCH   9  19
BRANCH  18  27
ATOM     27  C   UNL     1      -0.349  -2.073  10.453  1.00  0.00     0.429 C 
ATOM     28  F   UNL     1      -0.165  -0.822   9.973  1.00  0.00    -0.167 F 
ATOM     29  F   UNL     1      -1.682  -2.257  10.617  1.00  0.00    -0.167 F 
ATOM     30  F   UNL     1       0.188  -2.087  11.702  1.00  0.00    -0.167 F 
ENDBRANCH  18  27
ENDBRANCH   5   8
ENDBRANCH   3   4
ENDBRANCH   2   3
ENDBRANCH   1   2
BRANCH   1  31
ATOM     31  C   UNL     1       1.736  -7.304  14.848  1.00  0.00     0.116 C 
BRANCH  31  32
ATOM     32  N   UNL     1       1.172  -6.800  16.090  1.00  0.00    -0.352 N 
ATOM     33  C   UNL     1       1.319  -7.285  17.366  1.00  0.00     0.251 C 
ATOM     34  H   UNL     1       0.606  -6.000  16.003  1.00  0.00     0.163 HD
ATOM     35  O   UNL     1       0.593  -6.859  18.263  1.00  0.00    -0.269 OA
BRANCH  33  36
ATOM     36  C   UNL     1       2.325  -8.332  17.650  1.00  0.00     0.039 A 
ATOM     37  C   UNL     1       1.963  -9.421  18.447  1.00  0.00     0.014 A 
ATOM     38  C   UNL     1       3.618  -8.246  17.126  1.00  0.00     0.014 A 
ATOM     39  C   UNL     1       2.877 -10.455  18.663  1.00  0.00     0.010 A 
ATOM     40  C   UNL     1       4.500  -9.314  17.277  1.00  0.00     0.010 A 
ATOM     41  C   UNL     1       4.140 -10.430  18.047  1.00  0.00    -0.014 A 
BRANCH  41  42
ATOM     42  C   UNL     1       5.090 -11.566  18.194  1.00  0.00     0.031 A 
ATOM     43  C   UNL     1       6.426 -11.358  18.854  1.00  0.00     0.074 A 
ATOM     44  C   UNL     1       4.777 -12.769  17.671  1.00  0.00     0.049 A 
ATOM     45  N   UNL     1       7.412 -12.204  19.015  1.00  0.00    -0.248 NA
ATOM     46  C   UNL     1       6.701 -10.011  19.374  1.00  0.00     0.031 C 
ATOM     47  C   UNL     1       3.534 -13.081  16.962  1.00  0.00     0.029 A 
ATOM     48  N   UNL     1       5.479 -13.948  17.641  1.00  0.00    -0.354 N 
ATOM     49  C   UNL     1       8.430 -11.488  19.636  1.00  0.00     0.074 A 
ATOM     50  C   UNL     1       7.961 -10.124  19.765  1.00  0.00     0.031 C 
ATOM     51  C   UNL     1       3.552 -14.370  16.587  1.00  0.00     0.029 A 
ATOM     52  C   UNL     1       4.825 -14.965  16.981  1.00  0.00     0.049 A 
ATOM     53  H   UNL     1       6.366 -14.057  18.053  1.00  0.00     0.167 HD
ATOM     54  C   UNL     1       9.635 -11.932  20.076  1.00  0.00     0.034 A 
ATOM     55  C   UNL     1       5.212 -16.227  16.707  1.00  0.00     0.034 A 
ATOM     56  C   UNL     1      10.080 -13.299  19.945  1.00  0.00     0.049 A 
ATOM     57  C   UNL     1       6.561 -16.696  17.189  1.00  0.00     0.074 A 
ATOM     58  C   UNL     1      11.246 -13.874  20.420  1.00  0.00     0.029 A 
ATOM     59  N   UNL     1       9.390 -14.303  19.275  1.00  0.00    -0.354 N 
ATOM     60  N   UNL     1       7.484 -16.026  17.840  1.00  0.00    -0.248 NA
ATOM     61  C   UNL     1       6.915 -18.093  16.912  1.00  0.00     0.031 C 
ATOM     62  C   UNL     1      11.300 -15.197  19.967  1.00  0.00     0.029 A 
ATOM     63  C   UNL     1      10.125 -15.479  19.288  1.00  0.00     0.049 A 
ATOM     64  H   UNL     1       8.507 -14.195  18.853  1.00  0.00     0.167 HD
ATOM     65  C   UNL     1       8.517 -16.930  18.073  1.00  0.00     0.074 A 
ATOM     66  C   UNL     1       8.094 -18.195  17.507  1.00  0.00     0.031 C 
ATOM     67  C   UNL     1       9.704 -16.733  18.703  1.00  0.00     0.034 A 
BRANCH  54  68
ATOM     68  C   UNL     1      10.565 -10.917  20.702  1.00  0.00     0.023 A 
ATOM     69  C   UNL     1      10.214 -10.203  21.862  1.00  0.00     0.031 A 
ATOM     70  C   UNL     1      11.810 -10.633  20.111  1.00  0.00     0.131 A 
ATOM     71  C   UNL     1      11.051  -9.182  22.338  1.00  0.00     0.055 A 
ATOM     72  C   UNL     1      12.681  -9.681  20.645  1.00  0.00     0.041 A 
ATOM     73  F   UNL     1      12.196 -11.265  18.992  1.00  0.00    -0.206 F 
ATOM     74  C   UNL     1      12.295  -8.934  21.755  1.00  0.00     0.022 A 
BRANCH  71  75
ATOM     75  S   UNL     1      10.415  -8.072  23.625  1.00  0.00     0.124 S 
ATOM     76  O   UNL     1       9.198  -7.560  22.997  1.00  0.00    -0.237 OA
ATOM     77  O   UNL     1      10.221  -8.975  24.753  1.00  0.00    -0.237 OA
ATOM     78  O   UNL     1      11.483  -7.088  23.787  1.00  0.00    -0.744 OA
ENDBRANCH  71  75
ENDBRANCH  54  68
BRANCH  55  79
ATOM     79  C   UNL     1       4.322 -17.129  15.919  1.00  0.00     0.023 A 
ATOM     80  C   UNL     1       3.768 -18.286  16.488  1.00  0.00     0.031 A 
ATOM     81  C   UNL     1       4.029 -16.852  14.571  1.00  0.00     0.131 A 
ATOM     82  C   UNL     1       2.981 -19.143  15.702  1.00  0.00     0.055 A 
ATOM     83  C   UNL     1       3.202 -17.678  13.809  1.00  0.00     0.041 A 
ATOM     84  F   UNL     1       4.530 -15.755  13.979  1.00  0.00    -0.206 F 
ATOM     85  C   UNL     1       2.681 -18.839  14.372  1.00  0.00     0.022 A 
BRANCH  82  86
ATOM     86  S   UNL     1       2.409 -20.706  16.423  1.00  0.00     0.124 S 
ATOM     87  O   UNL     1       3.669 -21.351  16.774  1.00  0.00    -0.237 OA
ATOM     88  O   UNL     1       1.592 -20.244  17.540  1.00  0.00    -0.237 OA
ATOM     89  O   UNL     1       1.668 -21.334  15.331  1.00  0.00    -0.744 OA
ENDBRANCH  82  86
ENDBRANCH  55  79
BRANCH  67  90
ATOM     90  C   UNL     1      10.614 -17.930  18.849  1.00  0.00     0.023 A 
ATOM     91  C   UNL     1      11.201 -18.559  17.736  1.00  0.00     0.031 A 
ATOM     92  C   UNL     1      10.892 -18.454  20.125  1.00  0.00     0.131 A 
ATOM     93  C   UNL     1      11.988 -19.707  17.916  1.00  0.00     0.055 A 
ATOM     94  C   UNL     1      11.730 -19.555  20.302  1.00  0.00     0.041 A 
ATOM     95  F   UNL     1      10.355 -17.900  21.223  1.00  0.00    -0.206 F 
ATOM     96  C   UNL     1      12.273 -20.197  19.193  1.00  0.00     0.022 A 
BRANCH  93  97
ATOM     97  S   UNL     1      12.553 -20.616  16.451  1.00  0.00     0.124 S 
ATOM     98  O   UNL     1      11.293 -20.936  15.789  1.00  0.00    -0.237 OA
ATOM     99  O   UNL     1      13.395 -19.631  15.779  1.00  0.00    -0.237 OA
ATOM    100  O   UNL     1      13.267 -21.761  17.012  1.00  0.00    -0.744 OA
ENDBRANCH  93  97
ENDBRANCH  67  90
ENDBRANCH  41  42
ENDBRANCH  33  36
ENDBRANCH  31  32
ENDBRANCH   1  31
TORSDOF 17
