REMARK SMILES C[C@H]([NH2+][C@@H](C)[C@]12C[C@H]3C[C@H](C[C@H](C3)C1)C2)[C@@H](C)C(=O)NCCCCNC(=O)c1ccc(-c2c3nc(c(-c4cc(S(=O)(=O)[O-])ccc4F)c4ccc([nH]4)c(-c4cc(S(=O)(=O)[O-])ccc4F)c4nc(c(-c5cc(S(=O)(=O)[O-])ccc5F)c5ccc2[nH]5)C=C4)C=C3)cc1
REMARK SMILES IDX 22 1 21 2 20 3 18 4 19 5 16 7 17 8 2 9 1 10 3 11 4 14 5 15
REMARK SMILES IDX 6 16 7 17 14 18 15 19 8 20 12 21 10 22 9 23 13 24 11 25
REMARK SMILES IDX 23 26 24 27 25 28 26 29 27 31 28 32 29 33 90 34 30 35 89 36
REMARK SMILES IDX 31 37 32 38 33 39 83 40 34 41 88 42 82 43 84 44 35 45 87 46
REMARK SMILES IDX 81 47 80 48 36 50 68 51 48 52 67 53 49 54 52 55 66 56 85 57
REMARK SMILES IDX 50 58 51 59 65 61 86 62 53 63 37 64 38 65 46 66 39 67 45 68
REMARK SMILES IDX 47 69 44 70 40 71 41 72 42 73 43 74 69 75 70 76 78 77 71 78
REMARK SMILES IDX 77 79 79 80 76 81 72 82 73 83 74 84 75 85 54 86 55 87 63 88
REMARK SMILES IDX 56 89 62 90 64 91 61 92 57 93 58 94 59 95 60 96
REMARK H PARENT 20 6 3 12 3 13 25 30 84 49 52 60
REMARK Flexibility Score: inf
ROOT
ATOM      1  C   UNL     1       0.823  -0.693   4.845  1.00  0.00     0.023 C 
ENDROOT
BRANCH   1   2
ATOM      2  C   UNL     1      -0.517  -1.079   4.205  1.00  0.00     0.116 C 
BRANCH   2   3
ATOM      3  N   UNL     1      -1.425   0.033   3.989  1.00  0.00    -0.356 N 
ATOM      4  C   UNL     1      -1.805   0.662   2.844  1.00  0.00     0.228 C 
ATOM      5  O   UNL     1      -2.651   1.557   2.933  1.00  0.00    -0.275 OA
ATOM      6  H   UNL     1      -1.835   0.392   4.808  1.00  0.00     0.163 HD
BRANCH   4   7
ATOM      7  C   UNL     1      -1.201   0.316   1.484  1.00  0.00     0.133 C 
ATOM      8  C   UNL     1      -1.772  -1.000   0.961  1.00  0.00     0.024 C 
BRANCH   7   9
ATOM      9  C   UNL     1       0.350   0.436   1.427  1.00  0.00     0.191 C 
ATOM     10  C   UNL     1       0.794   1.594   2.336  1.00  0.00     0.076 C 
BRANCH   9  11
ATOM     11  N   UNL     1       0.783   0.502   0.005  1.00  0.00    -0.341 N 
ATOM     12  H   UNL     1       0.104   1.079  -0.492  1.00  0.00     0.346 HD
ATOM     13  H   UNL     1       0.837  -0.474  -0.288  1.00  0.00     0.346 HD
BRANCH  11  14
ATOM     14  C   UNL     1       2.118   1.046  -0.292  1.00  0.00     0.185 C 
ATOM     15  C   UNL     1       2.725   0.097  -1.345  1.00  0.00     0.076 C 
BRANCH  14  16
ATOM     16  C   UNL     1       2.123   2.562  -0.769  1.00  0.00     0.023 C 
ATOM     17  C   UNL     1       3.529   3.185  -0.526  1.00  0.00     0.016 C 
ATOM     18  C   UNL     1       1.126   3.426   0.044  1.00  0.00     0.016 C 
ATOM     19  C   UNL     1       1.782   2.753  -2.272  1.00  0.00     0.016 C 
ATOM     20  C   UNL     1       3.540   4.687  -0.885  1.00  0.00    -0.010 C 
ATOM     21  C   UNL     1       1.100   4.894  -0.349  1.00  0.00    -0.010 C 
ATOM     22  C   UNL     1       1.797   4.248  -2.658  1.00  0.00    -0.010 C 
ATOM     23  C   UNL     1       3.187   4.847  -2.371  1.00  0.00     0.007 C 
ATOM     24  C   UNL     1       2.496   5.453  -0.055  1.00  0.00     0.007 C 
ATOM     25  C   UNL     1       0.748   5.000  -1.830  1.00  0.00     0.007 C 
ENDBRANCH  14  16
ENDBRANCH  11  14
ENDBRANCH   9  11
ENDBRANCH   7   9
ENDBRANCH   4   7
ENDBRANCH   2   3
ENDBRANCH   1   2
BRANCH   1  26
ATOM     26  C   UNL     1       0.697   0.014   6.193  1.00  0.00     0.023 C 
BRANCH  26  27
ATOM     27  C   UNL     1      -0.048  -0.818   7.225  1.00  0.00     0.116 C 
BRANCH  27  28
ATOM     28  N   UNL     1       0.486  -2.172   7.299  1.00  0.00    -0.352 N 
ATOM     29  C   UNL     1       0.790  -2.926   8.398  1.00  0.00     0.251 C 
ATOM     30  H   UNL     1       0.652  -2.607   6.431  1.00  0.00     0.163 HD
ATOM     31  O   UNL     1       1.461  -3.941   8.276  1.00  0.00    -0.269 OA
BRANCH  29  32
ATOM     32  C   UNL     1       0.301  -2.483   9.712  1.00  0.00     0.039 A 
ATOM     33  C   UNL     1       1.155  -2.565  10.809  1.00  0.00     0.014 A 
ATOM     34  C   UNL     1      -0.997  -1.979   9.844  1.00  0.00     0.014 A 
ATOM     35  C   UNL     1       0.710  -2.104  12.044  1.00  0.00     0.010 A 
ATOM     36  C   UNL     1      -1.399  -1.427  11.049  1.00  0.00     0.010 A 
ATOM     37  C   UNL     1      -0.557  -1.508  12.165  1.00  0.00    -0.014 A 
BRANCH  37  38
ATOM     38  C   UNL     1      -1.023  -0.990  13.470  1.00  0.00     0.031 A 
ATOM     39  C   UNL     1      -2.222  -1.606  14.134  1.00  0.00     0.074 A 
ATOM     40  C   UNL     1      -0.372   0.046  14.032  1.00  0.00     0.049 A 
ATOM     41  N   UNL     1      -2.776  -1.302  15.279  1.00  0.00    -0.248 NA
ATOM     42  C   UNL     1      -2.908  -2.683  13.402  1.00  0.00     0.031 C 
ATOM     43  C   UNL     1       0.769   0.748  13.438  1.00  0.00     0.029 A 
ATOM     44  N   UNL     1      -0.566   0.681  15.229  1.00  0.00    -0.354 N 
ATOM     45  C   UNL     1      -3.874  -2.147  15.402  1.00  0.00     0.074 A 
ATOM     46  C   UNL     1      -3.954  -2.915  14.179  1.00  0.00     0.031 C 
ATOM     47  C   UNL     1       1.205   1.682  14.297  1.00  0.00     0.029 A 
ATOM     48  C   UNL     1       0.347   1.679  15.476  1.00  0.00     0.049 A 
ATOM     49  H   UNL     1      -1.291   0.447  15.852  1.00  0.00     0.167 HD
ATOM     50  C   UNL     1      -4.716  -2.290  16.454  1.00  0.00     0.034 A 
ATOM     51  C   UNL     1       0.475   2.496  16.539  1.00  0.00     0.034 A 
ATOM     52  C   UNL     1      -4.609  -1.513  17.664  1.00  0.00     0.049 A 
ATOM     53  C   UNL     1      -0.486   2.331  17.688  1.00  0.00     0.074 A 
ATOM     54  C   UNL     1      -5.375  -1.596  18.812  1.00  0.00     0.029 A 
ATOM     55  N   UNL     1      -3.680  -0.500  17.878  1.00  0.00    -0.354 N 
ATOM     56  N   UNL     1      -1.484   1.485  17.818  1.00  0.00    -0.248 NA
ATOM     57  C   UNL     1      -0.291   3.217  18.839  1.00  0.00     0.031 C 
ATOM     58  C   UNL     1      -4.961  -0.586  19.688  1.00  0.00     0.029 A 
ATOM     59  C   UNL     1      -3.876   0.070  19.127  1.00  0.00     0.049 A 
ATOM     60  H   UNL     1      -2.985  -0.228  17.237  1.00  0.00     0.167 HD
ATOM     61  C   UNL     1      -2.015   1.719  19.083  1.00  0.00     0.074 A 
ATOM     62  C   UNL     1      -1.209   2.765  19.680  1.00  0.00     0.031 C 
ATOM     63  C   UNL     1      -3.071   1.126  19.698  1.00  0.00     0.034 A 
BRANCH  50  64
ATOM     64  C   UNL     1      -5.829  -3.303  16.321  1.00  0.00     0.023 A 
ATOM     65  C   UNL     1      -5.565  -4.672  16.130  1.00  0.00     0.031 A 
ATOM     66  C   UNL     1      -7.173  -2.894  16.353  1.00  0.00     0.131 A 
ATOM     67  C   UNL     1      -6.622  -5.566  15.900  1.00  0.00     0.055 A 
ATOM     68  C   UNL     1      -8.224  -3.803  16.214  1.00  0.00     0.041 A 
ATOM     69  F   UNL     1      -7.490  -1.598  16.505  1.00  0.00    -0.206 F 
ATOM     70  C   UNL     1      -7.952  -5.146  15.970  1.00  0.00     0.022 A 
BRANCH  67  71
ATOM     71  S   UNL     1      -6.229  -7.251  15.357  1.00  0.00     0.124 S 
ATOM     72  O   UNL     1      -5.474  -6.998  14.132  1.00  0.00    -0.237 OA
ATOM     73  O   UNL     1      -5.465  -7.776  16.482  1.00  0.00    -0.237 OA
ATOM     74  O   UNL     1      -7.542  -7.861  15.154  1.00  0.00    -0.744 OA
ENDBRANCH  67  71
ENDBRANCH  50  64
BRANCH  51  75
ATOM     75  C   UNL     1       1.547   3.532  16.572  1.00  0.00     0.023 A 
ATOM     76  C   UNL     1       2.558   3.498  17.546  1.00  0.00     0.031 A 
ATOM     77  C   UNL     1       1.552   4.598  15.654  1.00  0.00     0.131 A 
ATOM     78  C   UNL     1       3.497   4.538  17.615  1.00  0.00     0.055 A 
ATOM     79  C   UNL     1       2.526   5.597  15.689  1.00  0.00     0.041 A 
ATOM     80  F   UNL     1       0.613   4.676  14.698  1.00  0.00    -0.206 F 
ATOM     81  C   UNL     1       3.498   5.579  16.684  1.00  0.00     0.022 A 
BRANCH  78  82
ATOM     82  S   UNL     1       4.663   4.563  19.005  1.00  0.00     0.124 S 
ATOM     83  O   UNL     1       3.759   4.564  20.149  1.00  0.00    -0.237 OA
ATOM     84  O   UNL     1       5.420   3.335  18.786  1.00  0.00    -0.237 OA
ATOM     85  O   UNL     1       5.412   5.801  18.798  1.00  0.00    -0.744 OA
ENDBRANCH  78  82
ENDBRANCH  51  75
BRANCH  63  86
ATOM     86  C   UNL     1      -3.377   1.575  21.107  1.00  0.00     0.023 A 
ATOM     87  C   UNL     1      -3.774   2.893  21.394  1.00  0.00     0.031 A 
ATOM     88  C   UNL     1      -3.235   0.681  22.183  1.00  0.00     0.131 A 
ATOM     89  C   UNL     1      -3.933   3.301  22.726  1.00  0.00     0.055 A 
ATOM     90  C   UNL     1      -3.472   1.071  23.501  1.00  0.00     0.041 A 
ATOM     91  F   UNL     1      -2.856  -0.590  21.970  1.00  0.00    -0.206 F 
ATOM     92  C   UNL     1      -3.804   2.393  23.780  1.00  0.00     0.022 A 
BRANCH  89  93
ATOM     93  S   UNL     1      -4.175   5.065  23.070  1.00  0.00     0.124 S 
ATOM     94  O   UNL     1      -3.006   5.661  22.430  1.00  0.00    -0.237 OA
ATOM     95  O   UNL     1      -5.458   5.334  22.430  1.00  0.00    -0.237 OA
ATOM     96  O   UNL     1      -4.183   5.132  24.530  1.00  0.00    -0.744 OA
ENDBRANCH  89  93
ENDBRANCH  63  86
ENDBRANCH  37  38
ENDBRANCH  29  32
ENDBRANCH  27  28
ENDBRANCH  26  27
ENDBRANCH   1  26
TORSDOF 18
