REMARK SMILES COC(=O)c1ccc(Cl)c(-c2ccc(F)cc2C(=O)NCCCCNC(=O)c2ccc(-c3c4nc(c(-c5cc(S(=O)(=O)[O-])ccc5F)c5ccc([nH]5)c(-c5cc(S(=O)(=O)[O-])ccc5F)c5nc(c(-c6cc(S(=O)(=O)[O-])ccc6F)c6ccc3[nH]6)C=C5)C=C4)cc2)c1
REMARK SMILES IDX 22 1 21 2 20 3 18 4 19 5 17 7 11 8 12 9 13 10 16 11 14 12
REMARK SMILES IDX 15 13 10 14 5 15 6 16 91 17 7 18 8 19 9 20 3 21 4 22 2 23
REMARK SMILES IDX 1 24 23 25 24 26 25 27 26 28 27 30 28 31 29 32 90 33 30 34
REMARK SMILES IDX 89 35 31 36 32 37 33 38 83 39 34 40 88 41 82 42 84 43 35 44
REMARK SMILES IDX 87 45 81 46 80 47 36 49 68 50 48 51 67 52 49 53 52 54 66 55
REMARK SMILES IDX 85 56 50 57 51 58 65 60 86 61 53 62 37 63 38 64 46 65 39 66
REMARK SMILES IDX 45 67 47 68 44 69 40 70 41 71 42 72 43 73 69 74 70 75 78 76
REMARK SMILES IDX 71 77 77 78 79 79 76 80 72 81 73 82 74 83 75 84 54 85 55 86
REMARK SMILES IDX 63 87 56 88 62 89 64 90 61 91 57 92 58 93 59 94 60 95
REMARK H PARENT 20 6 25 29 84 48 52 59
REMARK Flexibility Score: inf
ROOT
ATOM      1  C   UNL     1      -0.113  -2.026   5.676  1.00  0.00     0.023 C 
ENDROOT
BRANCH   1   2
ATOM      2  C   UNL     1       0.686  -3.062   4.899  1.00  0.00     0.116 C 
BRANCH   2   3
ATOM      3  N   UNL     1       2.099  -2.799   4.764  1.00  0.00    -0.352 N 
ATOM      4  C   UNL     1       3.135  -3.680   4.561  1.00  0.00     0.252 C 
ATOM      5  O   UNL     1       4.266  -3.226   4.384  1.00  0.00    -0.269 OA
ATOM      6  H   UNL     1       2.359  -1.852   4.828  1.00  0.00     0.163 HD
BRANCH   4   7
ATOM      7  C   UNL     1       2.982  -5.164   4.618  1.00  0.00     0.050 A 
ATOM      8  C   UNL     1       2.103  -5.949   3.828  1.00  0.00    -0.004 A 
ATOM      9  C   UNL     1       2.181  -7.356   3.954  1.00  0.00     0.012 A 
ATOM     10  C   UNL     1       3.091  -7.966   4.819  1.00  0.00     0.040 A 
ATOM     11  C   UNL     1       3.915  -5.796   5.465  1.00  0.00     0.053 A 
ATOM     12  C   UNL     1       3.956  -7.179   5.560  1.00  0.00     0.124 A 
ATOM     13  F   UNL     1       4.853  -7.763   6.365  1.00  0.00    -0.207 F 
BRANCH   8  14
ATOM     14  C   UNL     1       1.158  -5.387   2.840  1.00  0.00     0.002 A 
ATOM     15  C   UNL     1       0.797  -3.890   0.948  1.00  0.00     0.060 A 
ATOM     16  C   UNL     1      -0.587  -4.018   1.074  1.00  0.00     0.017 A 
ATOM     17  C   UNL     1       1.662  -4.590   1.797  1.00  0.00     0.026 A 
ATOM     18  C   UNL     1      -1.107  -4.866   2.052  1.00  0.00     0.022 A 
ATOM     19  C   UNL     1      -0.247  -5.545   2.928  1.00  0.00     0.048 A 
ATOM     20  Cl  UNL     1      -0.997  -6.465   4.191  1.00  0.00    -0.084 Cl
BRANCH  15  21
ATOM     21  C   UNL     1       1.402  -2.977  -0.035  1.00  0.00     0.337 C 
ATOM     22  O   UNL     1       2.289  -3.310  -0.801  1.00  0.00    -0.246 OA
BRANCH  21  23
ATOM     23  O   UNL     1       0.912  -1.733   0.182  1.00  0.00    -0.465 OA
ATOM     24  C   UNL     1       1.578  -0.703  -0.553  1.00  0.00     0.282 C 
ENDBRANCH  21  23
ENDBRANCH  15  21
ENDBRANCH   8  14
ENDBRANCH   4   7
ENDBRANCH   2   3
ENDBRANCH   1   2
BRANCH   1  25
ATOM     25  C   UNL     1      -0.184  -0.617   5.082  1.00  0.00     0.023 C 
BRANCH  25  26
ATOM     26  C   UNL     1      -0.459  -0.472   3.585  1.00  0.00     0.116 C 
BRANCH  26  27
ATOM     27  N   UNL     1      -1.658  -1.140   3.102  1.00  0.00    -0.352 N 
ATOM     28  C   UNL     1      -2.612  -0.707   2.203  1.00  0.00     0.251 C 
ATOM     29  H   UNL     1      -1.813  -2.039   3.474  1.00  0.00     0.163 HD
ATOM     30  O   UNL     1      -3.519  -1.470   1.877  1.00  0.00    -0.269 OA
BRANCH  28  31
ATOM     31  C   UNL     1      -2.587   0.683   1.684  1.00  0.00     0.039 A 
ATOM     32  C   UNL     1      -3.757   1.447   1.749  1.00  0.00     0.014 A 
ATOM     33  C   UNL     1      -1.414   1.261   1.197  1.00  0.00     0.014 A 
ATOM     34  C   UNL     1      -3.711   2.816   1.465  1.00  0.00     0.010 A 
ATOM     35  C   UNL     1      -1.351   2.638   0.978  1.00  0.00     0.010 A 
ATOM     36  C   UNL     1      -2.489   3.438   1.155  1.00  0.00    -0.014 A 
BRANCH  36  37
ATOM     37  C   UNL     1      -2.362   4.922   1.141  1.00  0.00     0.031 A 
ATOM     38  C   UNL     1      -1.973   5.663  -0.107  1.00  0.00     0.074 A 
ATOM     39  C   UNL     1      -2.514   5.598   2.299  1.00  0.00     0.049 A 
ATOM     40  N   UNL     1      -1.747   6.942  -0.268  1.00  0.00    -0.248 NA
ATOM     41  C   UNL     1      -1.790   4.862  -1.326  1.00  0.00     0.031 C 
ATOM     42  C   UNL     1      -2.832   4.992   3.596  1.00  0.00     0.029 A 
ATOM     43  N   UNL     1      -2.419   6.939   2.580  1.00  0.00    -0.354 N 
ATOM     44  C   UNL     1      -1.391   7.103  -1.602  1.00  0.00     0.074 A 
ATOM     45  C   UNL     1      -1.386   5.780  -2.193  1.00  0.00     0.031 C 
ATOM     46  C   UNL     1      -2.942   5.959   4.520  1.00  0.00     0.029 A 
ATOM     47  C   UNL     1      -2.661   7.248   3.899  1.00  0.00     0.049 A 
ATOM     48  H   UNL     1      -2.198   7.617   1.901  1.00  0.00     0.167 HD
ATOM     49  C   UNL     1      -1.112   8.247  -2.274  1.00  0.00     0.034 A 
ATOM     50  C   UNL     1      -2.655   8.431   4.544  1.00  0.00     0.034 A 
ATOM     51  C   UNL     1      -1.135   9.563  -1.683  1.00  0.00     0.049 A 
ATOM     52  C   UNL     1      -2.339   9.686   3.778  1.00  0.00     0.074 A 
ATOM     53  C   UNL     1      -0.924  10.786  -2.299  1.00  0.00     0.029 A 
ATOM     54  N   UNL     1      -1.379   9.832  -0.344  1.00  0.00    -0.354 N 
ATOM     55  N   UNL     1      -2.028   9.817   2.511  1.00  0.00    -0.248 NA
ATOM     56  C   UNL     1      -2.373  10.949   4.527  1.00  0.00     0.031 C 
ATOM     57  C   UNL     1      -0.990  11.787  -1.325  1.00  0.00     0.029 A 
ATOM     58  C   UNL     1      -1.301  11.196  -0.111  1.00  0.00     0.049 A 
ATOM     59  H   UNL     1      -1.578   9.153   0.340  1.00  0.00     0.167 HD
ATOM     60  C   UNL     1      -1.847  11.181   2.307  1.00  0.00     0.074 A 
ATOM     61  C   UNL     1      -2.086  11.831   3.579  1.00  0.00     0.031 C 
ATOM     62  C   UNL     1      -1.521  11.833   1.164  1.00  0.00     0.034 A 
BRANCH  49  63
ATOM     63  C   UNL     1      -0.751   8.127  -3.732  1.00  0.00     0.023 A 
ATOM     64  C   UNL     1      -1.698   7.728  -4.689  1.00  0.00     0.031 A 
ATOM     65  C   UNL     1       0.548   8.436  -4.173  1.00  0.00     0.131 A 
ATOM     66  C   UNL     1      -1.321   7.598  -6.033  1.00  0.00     0.055 A 
ATOM     67  C   UNL     1       0.901   8.367  -5.521  1.00  0.00     0.041 A 
ATOM     68  F   UNL     1       1.495   8.810  -3.298  1.00  0.00    -0.206 F 
ATOM     69  C   UNL     1      -0.034   7.938  -6.460  1.00  0.00     0.022 A 
BRANCH  66  70
ATOM     70  S   UNL     1      -2.513   6.901  -7.206  1.00  0.00     0.124 S 
ATOM     71  O   UNL     1      -2.645   5.533  -6.711  1.00  0.00    -0.237 OA
ATOM     72  O   UNL     1      -3.678   7.760  -7.025  1.00  0.00    -0.237 OA
ATOM     73  O   UNL     1      -1.839   7.030  -8.497  1.00  0.00    -0.744 OA
ENDBRANCH  66  70
ENDBRANCH  49  63
BRANCH  50  74
ATOM     74  C   UNL     1      -2.962   8.483   5.998  1.00  0.00     0.023 A 
ATOM     75  C   UNL     1      -4.179   9.011   6.456  1.00  0.00     0.031 A 
ATOM     76  C   UNL     1      -2.050   7.993   6.948  1.00  0.00     0.131 A 
ATOM     77  C   UNL     1      -4.444   9.056   7.833  1.00  0.00     0.055 A 
ATOM     78  C   UNL     1      -2.331   8.010   8.315  1.00  0.00     0.041 A 
ATOM     79  F   UNL     1      -0.880   7.465   6.554  1.00  0.00    -0.206 F 
ATOM     80  C   UNL     1      -3.534   8.549   8.764  1.00  0.00     0.022 A 
BRANCH  77  81
ATOM     81  S   UNL     1      -5.998   9.801   8.398  1.00  0.00     0.124 S 
ATOM     82  O   UNL     1      -5.818  11.194   8.007  1.00  0.00    -0.237 OA
ATOM     83  O   UNL     1      -6.992   9.045   7.642  1.00  0.00    -0.237 OA
ATOM     84  O   UNL     1      -5.993   9.548   9.837  1.00  0.00    -0.744 OA
ENDBRANCH  77  81
ENDBRANCH  50  74
BRANCH  62  85
ATOM     85  C   UNL     1      -1.428  13.333   1.228  1.00  0.00     0.023 A 
ATOM     86  C   UNL     1      -0.348  13.976   1.855  1.00  0.00     0.031 A 
ATOM     87  C   UNL     1      -2.417  14.127   0.622  1.00  0.00     0.131 A 
ATOM     88  C   UNL     1      -0.295  15.378   1.884  1.00  0.00     0.055 A 
ATOM     89  C   UNL     1      -2.339  15.519   0.618  1.00  0.00     0.041 A 
ATOM     90  F   UNL     1      -3.468  13.557   0.010  1.00  0.00    -0.206 F 
ATOM     91  C   UNL     1      -1.275  16.153   1.256  1.00  0.00     0.022 A 
BRANCH  88  92
ATOM     92  S   UNL     1       1.063  16.184   2.775  1.00  0.00     0.124 S 
ATOM     93  O   UNL     1       0.780  15.812   4.157  1.00  0.00    -0.237 OA
ATOM     94  O   UNL     1       2.244  15.568   2.179  1.00  0.00    -0.237 OA
ATOM     95  O   UNL     1       0.884  17.601   2.464  1.00  0.00    -0.744 OA
ENDBRANCH  88  92
ENDBRANCH  62  85
ENDBRANCH  36  37
ENDBRANCH  28  31
ENDBRANCH  26  27
ENDBRANCH  25  26
ENDBRANCH   1  25
TORSDOF 17
