REMARK SMILES C[C@]12c3ccccc3[C@](C)(c3ccccc31)[C@@H]1C(=O)N(c3ccc(C(=O)NCCCCNC(=O)c4ccc(-c5c6nc(c(-c7cc(S(=O)(=O)[O-])ccc7F)c7ccc([nH]7)c(-c7cc(S(=O)(=O)[O-])ccc7F)c7nc(c(-c8cc(S(=O)(=O)[O-])ccc8F)c8ccc5[nH]8)C=C7)C=C6)cc4)cc3)C(=O)[C@H]12
REMARK SMILES IDX 30 1 29 2 28 3 27 4 25 5 26 6 24 8 21 9 22 10 99 11 23 12
REMARK SMILES IDX 98 13 20 14 1 15 2 16 16 17 3 18 102 19 15 20 11 21 8 22
REMARK SMILES IDX 4 23 17 24 100 25 14 26 12 27 9 28 7 29 5 30 18 31 101 32
REMARK SMILES IDX 13 33 10 34 6 35 19 36 31 37 32 38 33 39 34 41 35 42 36 43
REMARK SMILES IDX 97 44 37 45 96 46 38 47 39 48 40 49 90 50 41 51 95 52 89 53
REMARK SMILES IDX 91 54 42 55 94 56 88 57 87 58 43 60 75 61 55 62 74 63 56 64
REMARK SMILES IDX 59 65 73 66 92 67 57 68 58 69 72 71 93 72 60 73 44 74 45 75
REMARK SMILES IDX 53 76 46 77 52 78 54 79 51 80 47 81 48 82 49 83 50 84 76 85
REMARK SMILES IDX 77 86 85 87 78 88 84 89 86 90 83 91 79 92 80 93 81 94 82 95
REMARK SMILES IDX 61 96 62 97 70 98 63 99 69 100 71 101 68 102 64 103 65 104
REMARK SMILES IDX 66 105 67 106
REMARK H PARENT 27 7 32 40 91 59 59 70
REMARK Flexibility Score: inf
ROOT
ATOM      1  C   UNL     1      -3.725   5.697   9.152  1.00  0.00     0.023 C 
ENDROOT
BRANCH   1   2
ATOM      2  C   UNL     1      -3.116   4.655   8.224  1.00  0.00     0.023 C 
BRANCH   2   3
ATOM      3  C   UNL     1      -4.091   3.921   7.311  1.00  0.00     0.116 C 
BRANCH   3   4
ATOM      4  N   UNL     1      -4.816   4.781   6.390  1.00  0.00    -0.352 N 
ATOM      5  C   UNL     1      -5.093   4.609   5.052  1.00  0.00     0.251 C 
ATOM      6  O   UNL     1      -5.705   5.479   4.438  1.00  0.00    -0.269 OA
ATOM      7  H   UNL     1      -5.163   5.615   6.783  1.00  0.00     0.163 HD
BRANCH   5   8
ATOM      8  C   UNL     1      -4.595   3.420   4.320  1.00  0.00     0.039 A 
ATOM      9  C   UNL     1      -3.291   1.300   3.013  1.00  0.00     0.052 A 
ATOM     10  C   UNL     1      -3.365   2.566   2.417  1.00  0.00     0.027 A 
ATOM     11  C   UNL     1      -3.982   1.083   4.213  1.00  0.00     0.027 A 
ATOM     12  C   UNL     1      -4.024   3.618   3.059  1.00  0.00     0.016 A 
ATOM     13  C   UNL     1      -4.644   2.133   4.855  1.00  0.00     0.016 A 
BRANCH   9  14
ATOM     14  N   UNL     1      -2.480   0.279   2.462  1.00  0.00    -0.250 N 
ATOM     15  C   UNL     1       1.179  -0.301  -0.145  1.00  0.00     0.022 C 
ATOM     16  C   UNL     1       0.433  -1.354   0.673  1.00  0.00     0.030 C 
ATOM     17  C   UNL     1       1.262  -2.024   1.801  1.00  0.00    -0.033 A 
ATOM     18  C   UNL     1      -0.106  -2.563  -0.159  1.00  0.00    -0.033 A 
ATOM     19  C   UNL     1      -0.922  -0.827   1.206  1.00  0.00     0.108 C 
ATOM     20  C   UNL     1       2.593  -1.760   2.110  1.00  0.00     0.005 A 
ATOM     21  C   UNL     1       0.561  -3.058   2.515  1.00  0.00    -0.033 A 
ATOM     22  C   UNL     1      -0.921  -3.465   0.610  1.00  0.00    -0.033 A 
ATOM     23  C   UNL     1       0.095  -2.777  -1.520  1.00  0.00     0.005 A 
ATOM     24  C   UNL     1      -1.350  -1.692   2.392  1.00  0.00     0.108 C 
ATOM     25  C   UNL     1      -1.299   0.519   1.740  1.00  0.00     0.238 C 
ATOM     26  C   UNL     1       3.228  -2.519   3.098  1.00  0.00     0.000 A 
ATOM     27  C   UNL     1       1.211  -3.815   3.486  1.00  0.00     0.005 A 
ATOM     28  C   UNL     1      -0.949  -3.160   2.128  1.00  0.00     0.030 C 
ATOM     29  C   UNL     1      -1.539  -4.541  -0.020  1.00  0.00     0.005 A 
ATOM     30  C   UNL     1      -0.525  -3.868  -2.128  1.00  0.00     0.000 A 
ATOM     31  C   UNL     1      -2.683  -1.090   2.675  1.00  0.00     0.238 C 
ATOM     32  O   UNL     1      -0.719   1.562   1.505  1.00  0.00    -0.274 OA
ATOM     33  C   UNL     1       2.548  -3.542   3.770  1.00  0.00     0.000 A 
ATOM     34  C   UNL     1      -1.760  -4.135   2.980  1.00  0.00     0.022 C 
ATOM     35  C   UNL     1      -1.341  -4.734  -1.389  1.00  0.00     0.000 A 
ATOM     36  O   UNL     1      -3.659  -1.682   3.105  1.00  0.00    -0.274 OA
ENDBRANCH   9  14
ENDBRANCH   5   8
ENDBRANCH   3   4
ENDBRANCH   2   3
ENDBRANCH   1   2
BRANCH   1  37
ATOM     37  C   UNL     1      -4.926   5.233   9.963  1.00  0.00     0.116 C 
BRANCH  37  38
ATOM     38  N   UNL     1      -4.644   4.108  10.848  1.00  0.00    -0.352 N 
ATOM     39  C   UNL     1      -4.764   4.007  12.218  1.00  0.00     0.251 C 
ATOM     40  H   UNL     1      -4.318   3.296  10.397  1.00  0.00     0.163 HD
ATOM     41  O   UNL     1      -4.377   2.993  12.790  1.00  0.00    -0.269 OA
BRANCH  39  42
ATOM     42  C   UNL     1      -5.310   5.144  12.993  1.00  0.00     0.039 A 
ATOM     43  C   UNL     1      -6.422   5.841  12.529  1.00  0.00     0.014 A 
ATOM     44  C   UNL     1      -4.661   5.562  14.158  1.00  0.00     0.014 A 
ATOM     45  C   UNL     1      -6.723   7.082  13.071  1.00  0.00     0.010 A 
ATOM     46  C   UNL     1      -5.059   6.749  14.787  1.00  0.00     0.010 A 
ATOM     47  C   UNL     1      -6.048   7.558  14.209  1.00  0.00    -0.014 A 
BRANCH  47  48
ATOM     48  C   UNL     1      -6.424   8.889  14.764  1.00  0.00     0.031 A 
ATOM     49  C   UNL     1      -5.426  10.014  14.860  1.00  0.00     0.074 A 
ATOM     50  C   UNL     1      -7.708   9.101  15.117  1.00  0.00     0.049 A 
ATOM     51  N   UNL     1      -5.622  11.253  15.236  1.00  0.00    -0.248 NA
ATOM     52  C   UNL     1      -4.030   9.719  14.498  1.00  0.00     0.031 C 
ATOM     53  C   UNL     1      -8.758   8.082  15.081  1.00  0.00     0.029 A 
ATOM     54  N   UNL     1      -8.361  10.234  15.533  1.00  0.00    -0.354 N 
ATOM     55  C   UNL     1      -4.381  11.878  15.173  1.00  0.00     0.074 A 
ATOM     56  C   UNL     1      -3.428  10.871  14.764  1.00  0.00     0.031 C 
ATOM     57  C   UNL     1      -9.933   8.650  15.379  1.00  0.00     0.029 A 
ATOM     58  C   UNL     1      -9.713  10.052  15.720  1.00  0.00     0.049 A 
ATOM     59  H   UNL     1      -7.907  11.094  15.684  1.00  0.00     0.167 HD
ATOM     60  C   UNL     1      -4.072  13.175  15.415  1.00  0.00     0.034 A 
ATOM     61  C   UNL     1     -10.673  10.905  16.131  1.00  0.00     0.034 A 
ATOM     62  C   UNL     1      -5.041  14.174  15.798  1.00  0.00     0.049 A 
ATOM     63  C   UNL     1     -10.298  12.334  16.412  1.00  0.00     0.074 A 
ATOM     64  C   UNL     1      -4.832  15.524  16.017  1.00  0.00     0.029 A 
ATOM     65  N   UNL     1      -6.392  13.942  16.020  1.00  0.00    -0.354 N 
ATOM     66  N   UNL     1      -9.133  12.922  16.275  1.00  0.00    -0.248 NA
ATOM     67  C   UNL     1     -11.363  13.220  16.899  1.00  0.00     0.031 C 
ATOM     68  C   UNL     1      -6.031  16.090  16.449  1.00  0.00     0.029 A 
ATOM     69  C   UNL     1      -7.016  15.116  16.414  1.00  0.00     0.049 A 
ATOM     70  H   UNL     1      -6.840  13.072  15.912  1.00  0.00     0.167 HD
ATOM     71  C   UNL     1      -9.326  14.248  16.651  1.00  0.00     0.074 A 
ATOM     72  C   UNL     1     -10.731  14.384  16.975  1.00  0.00     0.031 C 
ATOM     73  C   UNL     1      -8.418  15.253  16.735  1.00  0.00     0.034 A 
BRANCH  60  74
ATOM     74  C   UNL     1      -2.636  13.629  15.264  1.00  0.00     0.023 A 
ATOM     75  C   UNL     1      -1.955  14.182  16.367  1.00  0.00     0.031 A 
ATOM     76  C   UNL     1      -2.001  13.664  14.010  1.00  0.00     0.131 A 
ATOM     77  C   UNL     1      -0.706  14.789  16.184  1.00  0.00     0.055 A 
ATOM     78  C   UNL     1      -0.733  14.223  13.843  1.00  0.00     0.041 A 
ATOM     79  F   UNL     1      -2.607  13.157  12.924  1.00  0.00    -0.206 F 
ATOM     80  C   UNL     1      -0.087  14.804  14.930  1.00  0.00     0.022 A 
BRANCH  77  81
ATOM     81  S   UNL     1       0.125  15.659  17.543  1.00  0.00     0.124 S 
ATOM     82  O   UNL     1       1.397  14.944  17.623  1.00  0.00    -0.237 OA
ATOM     83  O   UNL     1       0.208  17.022  17.025  1.00  0.00    -0.237 OA
ATOM     84  O   UNL     1      -0.768  15.467  18.680  1.00  0.00    -0.744 OA
ENDBRANCH  77  81
ENDBRANCH  60  74
BRANCH  61  85
ATOM     85  C   UNL     1     -12.076  10.409  16.255  1.00  0.00     0.023 A 
ATOM     86  C   UNL     1     -12.386   9.332  17.108  1.00  0.00     0.031 A 
ATOM     87  C   UNL     1     -13.099  10.914  15.436  1.00  0.00     0.131 A 
ATOM     88  C   UNL     1     -13.652   8.739  17.053  1.00  0.00     0.055 A 
ATOM     89  C   UNL     1     -14.387  10.376  15.451  1.00  0.00     0.041 A 
ATOM     90  F   UNL     1     -12.853  11.931  14.595  1.00  0.00    -0.206 F 
ATOM     91  C   UNL     1     -14.662   9.267  16.246  1.00  0.00     0.022 A 
BRANCH  88  92
ATOM     92  S   UNL     1     -13.976   7.168  17.902  1.00  0.00     0.124 S 
ATOM     93  O   UNL     1     -15.073   7.524  18.796  1.00  0.00    -0.237 OA
ATOM     94  O   UNL     1     -14.330   6.295  16.785  1.00  0.00    -0.237 OA
ATOM     95  O   UNL     1     -12.707   6.858  18.551  1.00  0.00    -0.744 OA
ENDBRANCH  88  92
ENDBRANCH  61  85
BRANCH  73  96
ATOM     96  C   UNL     1      -8.887  16.610  17.213  1.00  0.00     0.023 A 
ATOM     97  C   UNL     1      -8.747  17.740  16.385  1.00  0.00     0.031 A 
ATOM     98  C   UNL     1      -9.334  16.806  18.531  1.00  0.00     0.131 A 
ATOM     99  C   UNL     1      -9.006  19.018  16.897  1.00  0.00     0.055 A 
ATOM    100  C   UNL     1      -9.650  18.076  19.018  1.00  0.00     0.041 A 
ATOM    101  F   UNL     1      -9.472  15.765  19.367  1.00  0.00    -0.206 F 
ATOM    102  C   UNL     1      -9.470  19.190  18.205  1.00  0.00     0.022 A 
BRANCH  99 103
ATOM    103  S   UNL     1      -8.657  20.508  15.923  1.00  0.00     0.124 S 
ATOM    104  O   UNL     1      -9.977  21.128  15.835  1.00  0.00    -0.237 OA
ATOM    105  O   UNL     1      -7.695  21.209  16.770  1.00  0.00    -0.237 OA
ATOM    106  O   UNL     1      -8.127  19.991  14.666  1.00  0.00    -0.744 OA
ENDBRANCH  99 103
ENDBRANCH  73  96
ENDBRANCH  47  48
ENDBRANCH  39  42
ENDBRANCH  37  38
ENDBRANCH   1  37
TORSDOF 15
