REMARK SMILES C/C=C/c1cncc(-c2ccc([C@@H](C)C(=O)NCCCCNC(=O)c3ccc(-c4c5nc(c(-c6cc(S(=O)(=O)[O-])ccc6F)c6ccc([nH]6)c(-c6cc(S(=O)(=O)[O-])ccc6F)c6nc(c(-c7cc(S(=O)(=O)[O-])ccc7F)c7ccc4[nH]7)C=C6)C=C5)cc3)cc2)c1
REMARK SMILES IDX 19 1 18 2 17 3 15 4 16 5 13 7 14 8 12 9 9 10 10 11 89 12
REMARK SMILES IDX 11 13 88 14 8 15 4 16 5 17 90 18 6 19 7 20 3 21 1 22 2 23
REMARK SMILES IDX 20 24 21 25 22 26 23 27 24 29 25 30 26 31 87 32 27 33 86 34
REMARK SMILES IDX 28 35 29 36 30 37 80 38 31 39 85 40 79 41 81 42 32 43 84 44
REMARK SMILES IDX 78 45 77 46 33 48 65 49 45 50 64 51 46 52 49 53 63 54 82 55
REMARK SMILES IDX 47 56 48 57 62 59 83 60 50 61 34 62 35 63 43 64 36 65 42 66
REMARK SMILES IDX 44 67 41 68 37 69 38 70 39 71 40 72 66 73 67 74 75 75 68 76
REMARK SMILES IDX 74 77 76 78 73 79 69 80 70 81 71 82 72 83 51 84 52 85 60 86
REMARK SMILES IDX 53 87 59 88 61 89 58 90 54 91 55 92 56 93 57 94
REMARK H PARENT 17 6 22 28 81 47 49 58
REMARK Flexibility Score: inf
ROOT
ATOM      1  C   UNL     1       0.400   9.107   4.188  1.00  0.00     0.023 C 
ENDROOT
BRANCH   1   2
ATOM      2  C   UNL     1       1.130  10.436   3.992  1.00  0.00     0.116 C 
BRANCH   2   3
ATOM      3  N   UNL     1       2.541  10.250   3.725  1.00  0.00    -0.356 N 
ATOM      4  C   UNL     1       3.233  10.179   2.555  1.00  0.00     0.227 C 
ATOM      5  O   UNL     1       4.444   9.935   2.639  1.00  0.00    -0.274 OA
ATOM      6  H   UNL     1       3.098  10.159   4.532  1.00  0.00     0.163 HD
BRANCH   4   7
ATOM      7  C   UNL     1       2.597  10.398   1.173  1.00  0.00     0.105 C 
ATOM      8  C   UNL     1       2.011  11.797   0.975  1.00  0.00     0.023 C 
BRANCH   7   9
ATOM      9  C   UNL     1       1.735   9.233   0.710  1.00  0.00    -0.036 A 
ATOM     10  C   UNL     1       0.220   6.920  -0.038  1.00  0.00    -0.017 A 
ATOM     11  C   UNL     1      -0.382   8.040   0.560  1.00  0.00     0.009 A 
ATOM     12  C   UNL     1       1.600   7.003  -0.282  1.00  0.00     0.009 A 
ATOM     13  C   UNL     1       0.352   9.185   0.895  1.00  0.00     0.005 A 
ATOM     14  C   UNL     1       2.346   8.127   0.102  1.00  0.00     0.005 A 
BRANCH  10  15
ATOM     15  C   UNL     1      -0.569   5.717  -0.388  1.00  0.00     0.001 A 
ATOM     16  C   UNL     1      -0.807   3.300  -0.686  1.00  0.00    -0.007 A 
ATOM     17  C   UNL     1      -2.128   3.531  -1.055  1.00  0.00     0.119 A 
ATOM     18  C   UNL     1      -0.030   4.418  -0.352  1.00  0.00     0.020 A 
ATOM     19  N   UNL     1      -2.701   4.752  -1.110  1.00  0.00    -0.263 NA
ATOM     20  C   UNL     1      -1.910   5.801  -0.778  1.00  0.00     0.119 A 
BRANCH  16  21
ATOM     21  C   UNL     1      -0.272   1.935  -0.733  1.00  0.00     0.005 C 
ATOM     22  C   UNL     1       1.070   0.009   0.122  1.00  0.00     0.035 C 
ATOM     23  C   UNL     1       0.555   1.412   0.185  1.00  0.00    -0.030 C 
ENDBRANCH  16  21
ENDBRANCH  10  15
ENDBRANCH   7   9
ENDBRANCH   4   7
ENDBRANCH   2   3
ENDBRANCH   1   2
BRANCH   1  24
ATOM     24  C   UNL     1       0.418   8.565   5.616  1.00  0.00     0.023 C 
BRANCH  24  25
ATOM     25  C   UNL     1      -0.257   9.449   6.660  1.00  0.00     0.116 C 
BRANCH  25  26
ATOM     26  N   UNL     1      -1.645   9.767   6.359  1.00  0.00    -0.352 N 
ATOM     27  C   UNL     1      -2.680   9.990   7.241  1.00  0.00     0.251 C 
ATOM     28  H   UNL     1      -1.874   9.831   5.403  1.00  0.00     0.163 HD
ATOM     29  O   UNL     1      -3.816  10.168   6.824  1.00  0.00    -0.269 OA
BRANCH  27  30
ATOM     30  C   UNL     1      -2.403   9.956   8.695  1.00  0.00     0.039 A 
ATOM     31  C   UNL     1      -3.204   9.158   9.516  1.00  0.00     0.014 A 
ATOM     32  C   UNL     1      -1.321  10.657   9.231  1.00  0.00     0.014 A 
ATOM     33  C   UNL     1      -2.866   8.999  10.862  1.00  0.00     0.010 A 
ATOM     34  C   UNL     1      -0.942  10.435  10.550  1.00  0.00     0.010 A 
ATOM     35  C   UNL     1      -1.708   9.600  11.379  1.00  0.00    -0.014 A 
BRANCH  35  36
ATOM     36  C   UNL     1      -1.277   9.373  12.783  1.00  0.00     0.031 A 
ATOM     37  C   UNL     1      -1.218  10.527  13.745  1.00  0.00     0.074 A 
ATOM     38  C   UNL     1      -0.866   8.148  13.166  1.00  0.00     0.049 A 
ATOM     39  N   UNL     1      -0.788  10.556  14.980  1.00  0.00    -0.248 NA
ATOM     40  C   UNL     1      -1.667  11.830  13.233  1.00  0.00     0.031 C 
ATOM     41  C   UNL     1      -0.828   6.961  12.307  1.00  0.00     0.029 A 
ATOM     42  N   UNL     1      -0.393   7.697  14.372  1.00  0.00    -0.354 N 
ATOM     43  C   UNL     1      -0.897  11.882  15.387  1.00  0.00     0.074 A 
ATOM     44  C   UNL     1      -1.368  12.633  14.242  1.00  0.00     0.031 C 
ATOM     45  C   UNL     1      -0.384   5.914  13.023  1.00  0.00     0.029 A 
ATOM     46  C   UNL     1      -0.068   6.360  14.376  1.00  0.00     0.049 A 
ATOM     47  H   UNL     1      -0.295   8.277  15.162  1.00  0.00     0.167 HD
ATOM     48  C   UNL     1      -0.652  12.419  16.609  1.00  0.00     0.034 A 
ATOM     49  C   UNL     1       0.433   5.585  15.358  1.00  0.00     0.034 A 
ATOM     50  C   UNL     1      -0.202  11.651  17.744  1.00  0.00     0.049 A 
ATOM     51  C   UNL     1       0.701   6.202  16.706  1.00  0.00     0.074 A 
ATOM     52  C   UNL     1       0.018  12.076  19.043  1.00  0.00     0.029 A 
ATOM     53  N   UNL     1       0.102  10.295  17.715  1.00  0.00    -0.354 N 
ATOM     54  N   UNL     1       0.540   7.447  17.093  1.00  0.00    -0.248 NA
ATOM     55  C   UNL     1       1.206   5.306  17.754  1.00  0.00     0.031 C 
ATOM     56  C   UNL     1       0.510  10.994  19.782  1.00  0.00     0.029 A 
ATOM     57  C   UNL     1       0.532   9.875  18.964  1.00  0.00     0.049 A 
ATOM     58  H   UNL     1       0.024   9.717  16.922  1.00  0.00     0.167 HD
ATOM     59  C   UNL     1       0.895   7.475  18.438  1.00  0.00     0.074 A 
ATOM     60  C   UNL     1       1.265   6.121  18.797  1.00  0.00     0.031 C 
ATOM     61  C   UNL     1       0.908   8.522  19.302  1.00  0.00     0.034 A 
BRANCH  48  62
ATOM     62  C   UNL     1      -0.849  13.910  16.758  1.00  0.00     0.023 A 
ATOM     63  C   UNL     1      -2.105  14.511  16.558  1.00  0.00     0.031 A 
ATOM     64  C   UNL     1       0.239  14.749  17.053  1.00  0.00     0.131 A 
ATOM     65  C   UNL     1      -2.223  15.908  16.559  1.00  0.00     0.055 A 
ATOM     66  C   UNL     1       0.097  16.136  17.142  1.00  0.00     0.041 A 
ATOM     67  F   UNL     1       1.467  14.238  17.236  1.00  0.00    -0.206 F 
ATOM     68  C   UNL     1      -1.135  16.725  16.875  1.00  0.00     0.022 A 
BRANCH  65  69
ATOM     69  S   UNL     1      -3.775  16.644  15.976  1.00  0.00     0.124 S 
ATOM     70  O   UNL     1      -3.866  16.104  14.622  1.00  0.00    -0.237 OA
ATOM     71  O   UNL     1      -4.746  16.133  16.936  1.00  0.00    -0.237 OA
ATOM     72  O   UNL     1      -3.522  18.082  16.049  1.00  0.00    -0.744 OA
ENDBRANCH  65  69
ENDBRANCH  48  62
BRANCH  49  73
ATOM     73  C   UNL     1       0.709   4.141  15.115  1.00  0.00     0.023 A 
ATOM     74  C   UNL     1      -0.024   3.146  15.782  1.00  0.00     0.031 A 
ATOM     75  C   UNL     1       1.735   3.733  14.245  1.00  0.00     0.131 A 
ATOM     76  C   UNL     1       0.308   1.794  15.605  1.00  0.00     0.055 A 
ATOM     77  C   UNL     1       2.031   2.384  14.036  1.00  0.00     0.041 A 
ATOM     78  F   UNL     1       2.461   4.644  13.576  1.00  0.00    -0.206 F 
ATOM     79  C   UNL     1       1.323   1.406  14.728  1.00  0.00     0.022 A 
BRANCH  76  80
ATOM     80  S   UNL     1      -0.560   0.550  16.600  1.00  0.00     0.124 S 
ATOM     81  O   UNL     1      -0.256   0.990  17.957  1.00  0.00    -0.237 OA
ATOM     82  O   UNL     1      -1.941   0.724  16.163  1.00  0.00    -0.237 OA
ATOM     83  O   UNL     1       0.067  -0.706  16.195  1.00  0.00    -0.744 OA
ENDBRANCH  76  80
ENDBRANCH  49  73
BRANCH  61  84
ATOM     84  C   UNL     1       1.294   8.223  20.729  1.00  0.00     0.023 A 
ATOM     85  C   UNL     1       2.600   7.835  21.076  1.00  0.00     0.031 A 
ATOM     86  C   UNL     1       0.333   8.307  21.752  1.00  0.00     0.131 A 
ATOM     87  C   UNL     1       2.895   7.490  22.404  1.00  0.00     0.055 A 
ATOM     88  C   UNL     1       0.647   8.019  23.080  1.00  0.00     0.041 A 
ATOM     89  F   UNL     1      -0.929   8.672  21.474  1.00  0.00    -0.206 F 
ATOM     90  C   UNL     1       1.931   7.595  23.410  1.00  0.00     0.022 A 
BRANCH  87  91
ATOM     91  S   UNL     1       4.535   6.815  22.784  1.00  0.00     0.124 S 
ATOM     92  O   UNL     1       4.589   5.641  21.918  1.00  0.00    -0.237 OA
ATOM     93  O   UNL     1       5.419   7.917  22.419  1.00  0.00    -0.237 OA
ATOM     94  O   UNL     1       4.464   6.527  24.215  1.00  0.00    -0.744 OA
ENDBRANCH  87  91
ENDBRANCH  61  84
ENDBRANCH  35  36
ENDBRANCH  27  30
ENDBRANCH  25  26
ENDBRANCH  24  25
ENDBRANCH   1  24
TORSDOF 17
