REMARK SMILES CCC[NH2+][C@@H]1COC[C@@H]1C(=O)N[C@@](C)(CC)C(=O)NCCCCNC(=O)c1ccc(-c2c3nc(c(-c4cc(S(=O)(=O)[O-])ccc4F)c4ccc([nH]4)c(-c4cc(S(=O)(=O)[O-])ccc4F)c4nc(c(-c5cc(S(=O)(=O)[O-])ccc5F)c5ccc2[nH]5)C=C4)C=C3)cc1
REMARK SMILES IDX 20 1 19 2 17 3 18 4 13 6 14 7 12 8 10 9 11 10 9 12 5 13 6 14
REMARK SMILES IDX 7 15 8 16 4 17 3 20 2 21 1 22 15 23 16 24 21 25 22 26 23 27
REMARK SMILES IDX 24 28 25 29 26 31 27 32 28 33 89 34 29 35 88 36 30 37 31 38
REMARK SMILES IDX 32 39 82 40 33 41 87 42 81 43 83 44 34 45 86 46 80 47 79 48
REMARK SMILES IDX 35 50 67 51 47 52 66 53 48 54 51 55 65 56 84 57 49 58 50 59
REMARK SMILES IDX 64 61 85 62 52 63 36 64 37 65 45 66 38 67 44 68 46 69 43 70
REMARK SMILES IDX 39 71 40 72 41 73 42 74 68 75 69 76 77 77 70 78 76 79 78 80
REMARK SMILES IDX 75 81 71 82 72 83 73 84 74 85 53 86 54 87 62 88 55 89 61 90
REMARK SMILES IDX 63 91 60 92 56 93 57 94 58 95 59 96
REMARK H PARENT 19 5 12 11 4 18 4 19 24 30 83 49 51 60
REMARK Flexibility Score: inf
ROOT
ATOM      1  C   UNL     1      -2.111   5.113   5.620  1.00  0.00     0.116 C 
ENDROOT
BRANCH   1   2
ATOM      2  N   UNL     1      -1.136   5.636   4.691  1.00  0.00    -0.354 N 
ATOM      3  C   UNL     1      -1.280   6.010   3.397  1.00  0.00     0.245 C 
ATOM      4  O   UNL     1      -0.735   7.082   3.100  1.00  0.00    -0.272 OA
ATOM      5  H   UNL     1      -0.227   5.737   5.055  1.00  0.00     0.163 HD
BRANCH   3   6
ATOM      6  C   UNL     1      -2.143   5.268   2.344  1.00  0.00     0.116 C 
ATOM      7  C   UNL     1      -3.365   6.240   2.221  1.00  0.00     0.045 C 
BRANCH   6   8
ATOM      8  N   UNL     1      -1.488   5.288   0.995  1.00  0.00    -0.341 N 
ATOM      9  C   UNL     1      -0.325   4.962   0.398  1.00  0.00     0.232 C 
ATOM     10  O   UNL     1      -0.458   4.780  -0.829  1.00  0.00    -0.274 OA
ATOM     11  H   UNL     1      -2.111   5.661   0.329  1.00  0.00     0.164 HD
BRANCH   9  12
ATOM     12  C   UNL     1       1.103   4.842   0.947  1.00  0.00     0.164 C 
ATOM     13  C   UNL     1       1.567   3.578   1.647  1.00  0.00     0.223 C 
ATOM     14  C   UNL     1       1.512   3.970   3.119  1.00  0.00     0.225 C 
ATOM     15  O   UNL     1       1.697   5.391   3.187  1.00  0.00    -0.374 OA
ATOM     16  C   UNL     1       1.632   5.926   1.855  1.00  0.00     0.180 C 
BRANCH  13  17
ATOM     17  N   UNL     1       0.906   2.355   1.209  1.00  0.00    -0.341 N 
ATOM     18  H   UNL     1      -0.090   2.437   1.410  1.00  0.00     0.346 HD
ATOM     19  H   UNL     1       1.092   2.254   0.211  1.00  0.00     0.346 HD
BRANCH  17  20
ATOM     20  C   UNL     1       1.412   1.152   1.863  1.00  0.00     0.260 C 
BRANCH  20  21
ATOM     21  C   UNL     1       0.735  -0.104   1.303  1.00  0.00     0.058 C 
ATOM     22  C   UNL     1       1.069  -0.377  -0.157  1.00  0.00     0.010 C 
ENDBRANCH  20  21
ENDBRANCH  17  20
ENDBRANCH  13  17
ENDBRANCH   9  12
ENDBRANCH   6   8
BRANCH   6  23
ATOM     23  C   UNL     1      -2.794   3.888   2.622  1.00  0.00     0.035 C 
ATOM     24  C   UNL     1      -1.959   2.639   2.465  1.00  0.00     0.007 C 
ENDBRANCH   6  23
ENDBRANCH   3   6
ENDBRANCH   1   2
BRANCH   1  25
ATOM     25  C   UNL     1      -1.714   3.768   6.218  1.00  0.00     0.023 C 
BRANCH  25  26
ATOM     26  C   UNL     1      -0.364   3.733   6.944  1.00  0.00     0.023 C 
BRANCH  26  27
ATOM     27  C   UNL     1      -0.095   4.859   7.939  1.00  0.00     0.116 C 
BRANCH  27  28
ATOM     28  N   UNL     1      -1.155   5.033   8.917  1.00  0.00    -0.352 N 
ATOM     29  C   UNL     1      -1.080   5.295  10.264  1.00  0.00     0.251 C 
ATOM     30  H   UNL     1      -2.068   4.951   8.560  1.00  0.00     0.163 HD
ATOM     31  O   UNL     1      -2.115   5.341  10.920  1.00  0.00    -0.269 OA
BRANCH  29  32
ATOM     32  C   UNL     1       0.233   5.467  10.929  1.00  0.00     0.039 A 
ATOM     33  C   UNL     1       0.441   4.825  12.154  1.00  0.00     0.014 A 
ATOM     34  C   UNL     1       1.249   6.246  10.370  1.00  0.00     0.014 A 
ATOM     35  C   UNL     1       1.687   4.903  12.780  1.00  0.00     0.010 A 
ATOM     36  C   UNL     1       2.511   6.273  10.964  1.00  0.00     0.010 A 
ATOM     37  C   UNL     1       2.745   5.596  12.171  1.00  0.00    -0.014 A 
BRANCH  37  38
ATOM     38  C   UNL     1       4.100   5.614  12.780  1.00  0.00     0.031 A 
ATOM     39  C   UNL     1       4.686   6.902  13.287  1.00  0.00     0.074 A 
ATOM     40  C   UNL     1       4.826   4.479  12.821  1.00  0.00     0.049 A 
ATOM     41  N   UNL     1       5.875   7.135  13.781  1.00  0.00    -0.248 NA
ATOM     42  C   UNL     1       3.827   8.092  13.199  1.00  0.00     0.031 C 
ATOM     43  C   UNL     1       4.380   3.173  12.329  1.00  0.00     0.029 A 
ATOM     44  N   UNL     1       6.094   4.240  13.288  1.00  0.00    -0.354 N 
ATOM     45  C   UNL     1       5.914   8.498  14.052  1.00  0.00     0.074 A 
ATOM     46  C   UNL     1       4.647   9.046  13.612  1.00  0.00     0.031 C 
ATOM     47  C   UNL     1       5.351   2.269  12.537  1.00  0.00     0.029 A 
ATOM     48  C   UNL     1       6.502   2.935  13.138  1.00  0.00     0.049 A 
ATOM     49  H   UNL     1       6.658   4.938  13.693  1.00  0.00     0.167 HD
ATOM     50  C   UNL     1       6.906   9.222  14.630  1.00  0.00     0.034 A 
ATOM     51  C   UNL     1       7.675   2.344  13.440  1.00  0.00     0.034 A 
ATOM     52  C   UNL     1       8.159   8.659  15.072  1.00  0.00     0.049 A 
ATOM     53  C   UNL     1       8.771   3.171  14.060  1.00  0.00     0.074 A 
ATOM     54  C   UNL     1       9.210   9.287  15.718  1.00  0.00     0.029 A 
ATOM     55  N   UNL     1       8.538   7.332  14.903  1.00  0.00    -0.354 N 
ATOM     56  N   UNL     1       8.775   4.451  14.353  1.00  0.00    -0.248 NA
ATOM     57  C   UNL     1      10.016   2.471  14.400  1.00  0.00     0.031 C 
ATOM     58  C   UNL     1      10.243   8.358  15.887  1.00  0.00     0.029 A 
ATOM     59  C   UNL     1       9.815   7.131  15.407  1.00  0.00     0.049 A 
ATOM     60  H   UNL     1       7.981   6.636  14.486  1.00  0.00     0.167 HD
ATOM     61  C   UNL     1      10.012   4.702  14.938  1.00  0.00     0.074 A 
ATOM     62  C   UNL     1      10.722   3.438  14.967  1.00  0.00     0.031 C 
ATOM     63  C   UNL     1      10.515   5.869  15.416  1.00  0.00     0.034 A 
BRANCH  50  64
ATOM     64  C   UNL     1       6.675  10.706  14.787  1.00  0.00     0.023 A 
ATOM     65  C   UNL     1       5.636  11.210  15.591  1.00  0.00     0.031 A 
ATOM     66  C   UNL     1       7.475  11.631  14.093  1.00  0.00     0.131 A 
ATOM     67  C   UNL     1       5.371  12.588  15.612  1.00  0.00     0.055 A 
ATOM     68  C   UNL     1       7.258  13.008  14.185  1.00  0.00     0.041 A 
ATOM     69  F   UNL     1       8.470  11.211  13.296  1.00  0.00    -0.206 F 
ATOM     70  C   UNL     1       6.190  13.492  14.934  1.00  0.00     0.022 A 
BRANCH  67  71
ATOM     71  S   UNL     1       3.848  13.162  16.413  1.00  0.00     0.124 S 
ATOM     72  O   UNL     1       2.828  12.433  15.663  1.00  0.00    -0.237 OA
ATOM     73  O   UNL     1       4.043  12.747  17.797  1.00  0.00    -0.237 OA
ATOM     74  O   UNL     1       3.865  14.606  16.186  1.00  0.00    -0.744 OA
ENDBRANCH  67  71
ENDBRANCH  50  64
BRANCH  51  75
ATOM     75  C   UNL     1       7.885   0.896  13.155  1.00  0.00     0.023 A 
ATOM     76  C   UNL     1       8.054  -0.026  14.199  1.00  0.00     0.031 A 
ATOM     77  C   UNL     1       7.957   0.421  11.834  1.00  0.00     0.131 A 
ATOM     78  C   UNL     1       8.330  -1.371  13.906  1.00  0.00     0.055 A 
ATOM     79  C   UNL     1       8.185  -0.926  11.548  1.00  0.00     0.041 A 
ATOM     80  F   UNL     1       7.795   1.262  10.800  1.00  0.00    -0.206 F 
ATOM     81  C   UNL     1       8.386  -1.829  12.588  1.00  0.00     0.022 A 
BRANCH  78  82
ATOM     82  S   UNL     1       8.687  -2.502  15.278  1.00  0.00     0.124 S 
ATOM     83  O   UNL     1       9.837  -1.859  15.902  1.00  0.00    -0.237 OA
ATOM     84  O   UNL     1       7.440  -2.464  16.034  1.00  0.00    -0.237 OA
ATOM     85  O   UNL     1       8.967  -3.770  14.607  1.00  0.00    -0.744 OA
ENDBRANCH  78  82
ENDBRANCH  51  75
BRANCH  63  86
ATOM     86  C   UNL     1      11.882   5.812  16.050  1.00  0.00     0.023 A 
ATOM     87  C   UNL     1      13.039   5.560  15.292  1.00  0.00     0.031 A 
ATOM     88  C   UNL     1      12.024   5.992  17.437  1.00  0.00     0.131 A 
ATOM     89  C   UNL     1      14.282   5.442  15.934  1.00  0.00     0.055 A 
ATOM     90  C   UNL     1      13.270   5.928  18.062  1.00  0.00     0.041 A 
ATOM     91  F   UNL     1      10.951   6.233  18.208  1.00  0.00    -0.206 F 
ATOM     92  C   UNL     1      14.406   5.640  17.312  1.00  0.00     0.022 A 
BRANCH  89  93
ATOM     93  S   UNL     1      15.725   4.943  14.955  1.00  0.00     0.124 S 
ATOM     94  O   UNL     1      15.302   3.649  14.428  1.00  0.00    -0.237 OA
ATOM     95  O   UNL     1      15.831   6.024  13.980  1.00  0.00    -0.237 OA
ATOM     96  O   UNL     1      16.805   4.889  15.938  1.00  0.00    -0.744 OA
ENDBRANCH  89  93
ENDBRANCH  63  86
ENDBRANCH  37  38
ENDBRANCH  29  32
ENDBRANCH  27  28
ENDBRANCH  26  27
ENDBRANCH  25  26
ENDBRANCH   1  25
TORSDOF 20
