REMARK SMILES C[N@@H+]1CC[C@H]2CN(C(=O)c3csc(-c4ccncc4)n3)C[C@@]2(C(=O)NCCCCNC(=O)c2ccc(-c3c4nc(c(-c5cc(S(=O)(=O)[O-])ccc5F)c5ccc([nH]5)c(-c5cc(S(=O)(=O)[O-])ccc5F)c5nc(c(-c6cc(S(=O)(=O)[O-])ccc6F)c6ccc3[nH]6)C=C5)C=C4)cc2)C1
REMARK SMILES IDX 27 1 26 2 25 3 23 4 24 5 22 7 1 8 2 9 3 10 96 11 4 13 5 14
REMARK SMILES IDX 21 15 6 16 7 17 8 18 9 19 10 20 11 21 20 22 12 23 13 24
REMARK SMILES IDX 14 25 15 26 19 27 16 28 18 29 17 30 28 31 29 32 30 33 31 34
REMARK SMILES IDX 32 36 33 37 34 38 95 39 35 40 94 41 36 42 37 43 38 44 88 45
REMARK SMILES IDX 39 46 93 47 87 48 89 49 40 50 92 51 86 52 85 53 41 55 73 56
REMARK SMILES IDX 53 57 72 58 54 59 57 60 71 61 90 62 55 63 56 64 70 66 91 67
REMARK SMILES IDX 58 68 42 69 43 70 51 71 44 72 50 73 52 74 49 75 45 76 46 77
REMARK SMILES IDX 47 78 48 79 74 80 75 81 83 82 76 83 82 84 84 85 81 86 77 87
REMARK SMILES IDX 78 88 79 89 80 90 59 91 60 92 68 93 61 94 67 95 69 96 66 97
REMARK SMILES IDX 62 98 63 99 64 100 65 101
REMARK H PARENT 25 6 2 12 30 35 89 54 57 65
REMARK Flexibility Score: inf
ROOT
ATOM      1  C   UNL     1       0.306   2.980   4.308  1.00  0.00     0.023 C 
ENDROOT
BRANCH   1   2
ATOM      2  C   UNL     1       1.768   3.189   3.906  1.00  0.00     0.116 C 
BRANCH   2   3
ATOM      3  N   UNL     1       2.232   2.545   2.677  1.00  0.00    -0.355 N 
ATOM      4  C   UNL     1       2.111   2.833   1.341  1.00  0.00     0.234 C 
ATOM      5  O   UNL     1       3.013   2.389   0.620  1.00  0.00    -0.274 OA
ATOM      6  H   UNL     1       2.745   1.722   2.846  1.00  0.00     0.163 HD
BRANCH   4   7
ATOM      7  C   UNL     1       0.866   3.496   0.718  1.00  0.00     0.120 C 
ATOM      8  C   UNL     1       0.287   0.098   0.211  1.00  0.00     0.332 C 
ATOM      9  N   UNL     1      -0.267   1.368  -0.258  1.00  0.00    -0.336 N 
ATOM     10  C   UNL     1       0.332   1.729  -1.543  1.00  0.00     0.262 C 
ATOM     11  C   UNL     1      -0.265   2.433   0.767  1.00  0.00     0.281 C 
ATOM     12  H   UNL     1      -1.265   1.242  -0.429  1.00  0.00     0.347 HD
ATOM     13  C   UNL     1       0.236   3.218  -1.802  1.00  0.00     0.068 C 
ATOM     14  C   UNL     1       1.073   3.976  -0.771  1.00  0.00     0.037 C 
ATOM     15  C   UNL     1       0.547   4.815   1.446  1.00  0.00     0.143 C 
ATOM     16  C   UNL     1       0.714   5.460  -0.820  1.00  0.00     0.125 C 
ATOM     17  N   UNL     1       0.886   5.889   0.531  1.00  0.00    -0.336 N 
BRANCH  17  18
ATOM     18  C   UNL     1       1.211   7.198   0.839  1.00  0.00     0.273 C 
ATOM     19  O   UNL     1       1.017   8.121   0.051  1.00  0.00    -0.267 OA
BRANCH  18  20
ATOM     20  C   UNL     1       1.856   7.434   2.136  1.00  0.00     0.139 A 
ATOM     21  C   UNL     1       1.538   8.483   2.977  1.00  0.00     0.101 A 
ATOM     22  N   UNL     1       2.945   6.666   2.562  1.00  0.00    -0.231 NA
ATOM     23  S   UNL     1       2.584   8.496   4.334  1.00  0.00    -0.122 S 
ATOM     24  C   UNL     1       3.447   7.161   3.674  1.00  0.00     0.124 A 
BRANCH  24  25
ATOM     25  C   UNL     1       4.695   6.718   4.296  1.00  0.00     0.013 A 
ATOM     26  C   UNL     1       5.890   6.809   3.575  1.00  0.00     0.031 A 
ATOM     27  C   UNL     1       4.730   6.205   5.595  1.00  0.00     0.031 A 
ATOM     28  C   UNL     1       7.065   6.411   4.188  1.00  0.00     0.111 A 
ATOM     29  C   UNL     1       5.955   5.824   6.117  1.00  0.00     0.111 A 
ATOM     30  N   UNL     1       7.121   5.923   5.444  1.00  0.00    -0.265 NA
ENDBRANCH  24  25
ENDBRANCH  18  20
ENDBRANCH  17  18
ENDBRANCH   4   7
ENDBRANCH   2   3
ENDBRANCH   1   2
BRANCH   1  31
ATOM     31  C   UNL     1       0.033   1.756   5.191  1.00  0.00     0.023 C 
BRANCH  31  32
ATOM     32  C   UNL     1       0.865   1.673   6.472  1.00  0.00     0.116 C 
BRANCH  32  33
ATOM     33  N   UNL     1       0.917   2.918   7.224  1.00  0.00    -0.352 N 
ATOM     34  C   UNL     1       1.319   3.127   8.522  1.00  0.00     0.251 C 
ATOM     35  H   UNL     1       0.624   3.721   6.736  1.00  0.00     0.163 HD
ATOM     36  O   UNL     1       1.245   4.255   9.000  1.00  0.00    -0.269 OA
BRANCH  34  37
ATOM     37  C   UNL     1       1.771   1.985   9.346  1.00  0.00     0.039 A 
ATOM     38  C   UNL     1       1.231   1.836  10.626  1.00  0.00     0.014 A 
ATOM     39  C   UNL     1       2.686   1.050   8.858  1.00  0.00     0.014 A 
ATOM     40  C   UNL     1       1.549   0.707  11.383  1.00  0.00     0.010 A 
ATOM     41  C   UNL     1       2.945  -0.110   9.582  1.00  0.00     0.010 A 
ATOM     42  C   UNL     1       2.374  -0.297  10.849  1.00  0.00    -0.014 A 
BRANCH  42  43
ATOM     43  C   UNL     1       2.625  -1.553  11.600  1.00  0.00     0.031 A 
ATOM     44  C   UNL     1       4.010  -1.892  12.078  1.00  0.00     0.074 A 
ATOM     45  C   UNL     1       1.609  -2.415  11.798  1.00  0.00     0.049 A 
ATOM     46  N   UNL     1       4.422  -2.945  12.737  1.00  0.00    -0.248 NA
ATOM     47  C   UNL     1       5.075  -0.938  11.741  1.00  0.00     0.031 C 
ATOM     48  C   UNL     1       0.237  -2.229  11.314  1.00  0.00     0.029 A 
ATOM     49  N   UNL     1       1.567  -3.619  12.453  1.00  0.00    -0.354 N 
ATOM     50  C   UNL     1       5.796  -2.784  12.887  1.00  0.00     0.074 A 
ATOM     51  C   UNL     1       6.151  -1.566  12.190  1.00  0.00     0.031 C 
ATOM     52  C   UNL     1      -0.516  -3.265  11.718  1.00  0.00     0.029 A 
ATOM     53  C   UNL     1       0.320  -4.200  12.463  1.00  0.00     0.049 A 
ATOM     54  H   UNL     1       2.355  -4.029  12.877  1.00  0.00     0.167 HD
ATOM     55  C   UNL     1       6.674  -3.567  13.563  1.00  0.00     0.034 A 
ATOM     56  C   UNL     1      -0.103  -5.353  13.017  1.00  0.00     0.034 A 
ATOM     57  C   UNL     1       6.299  -4.774  14.261  1.00  0.00     0.049 A 
ATOM     58  C   UNL     1       0.881  -6.186  13.796  1.00  0.00     0.074 A 
ATOM     59  C   UNL     1       7.093  -5.618  15.017  1.00  0.00     0.029 A 
ATOM     60  N   UNL     1       5.018  -5.312  14.285  1.00  0.00    -0.354 N 
ATOM     61  N   UNL     1       2.165  -5.987  13.985  1.00  0.00    -0.248 NA
ATOM     62  C   UNL     1       0.351  -7.385  14.456  1.00  0.00     0.031 C 
ATOM     63  C   UNL     1       6.306  -6.690  15.455  1.00  0.00     0.029 A 
ATOM     64  C   UNL     1       5.004  -6.482  15.028  1.00  0.00     0.049 A 
ATOM     65  H   UNL     1       4.233  -4.918  13.839  1.00  0.00     0.167 HD
ATOM     66  C   UNL     1       2.589  -7.022  14.813  1.00  0.00     0.074 A 
ATOM     67  C   UNL     1       1.420  -7.829  15.100  1.00  0.00     0.031 C 
ATOM     68  C   UNL     1       3.832  -7.282  15.296  1.00  0.00     0.034 A 
BRANCH  55  69
ATOM     69  C   UNL     1       8.123  -3.140  13.559  1.00  0.00     0.023 A 
ATOM     70  C   UNL     1       8.532  -1.921  14.128  1.00  0.00     0.031 A 
ATOM     71  C   UNL     1       9.103  -3.938  12.944  1.00  0.00     0.131 A 
ATOM     72  C   UNL     1       9.862  -1.496  13.997  1.00  0.00     0.055 A 
ATOM     73  C   UNL     1      10.443  -3.549  12.890  1.00  0.00     0.041 A 
ATOM     74  F   UNL     1       8.772  -5.104  12.366  1.00  0.00    -0.206 F 
ATOM     75  C   UNL     1      10.827  -2.313  13.404  1.00  0.00     0.022 A 
BRANCH  72  76
ATOM     76  S   UNL     1      10.279   0.202  14.480  1.00  0.00     0.124 S 
ATOM     77  O   UNL     1       9.403   0.979  13.606  1.00  0.00    -0.237 OA
ATOM     78  O   UNL     1       9.943   0.218  15.899  1.00  0.00    -0.237 OA
ATOM     79  O   UNL     1      11.704   0.305  14.175  1.00  0.00    -0.744 OA
ENDBRANCH  72  76
ENDBRANCH  55  69
BRANCH  56  80
ATOM     80  C   UNL     1      -1.524  -5.777  12.882  1.00  0.00     0.023 A 
ATOM     81  C   UNL     1      -2.373  -5.822  13.999  1.00  0.00     0.031 A 
ATOM     82  C   UNL     1      -2.046  -6.173  11.638  1.00  0.00     0.131 A 
ATOM     83  C   UNL     1      -3.685  -6.298  13.861  1.00  0.00     0.055 A 
ATOM     84  C   UNL     1      -3.366  -6.603  11.497  1.00  0.00     0.041 A 
ATOM     85  F   UNL     1      -1.278  -6.134  10.537  1.00  0.00    -0.206 F 
ATOM     86  C   UNL     1      -4.191  -6.680  12.616  1.00  0.00     0.022 A 
BRANCH  83  87
ATOM     87  S   UNL     1      -4.704  -6.479  15.351  1.00  0.00     0.124 S 
ATOM     88  O   UNL     1      -3.893  -7.384  16.158  1.00  0.00    -0.237 OA
ATOM     89  O   UNL     1      -4.793  -5.102  15.824  1.00  0.00    -0.237 OA
ATOM     90  O   UNL     1      -5.952  -7.044  14.842  1.00  0.00    -0.744 OA
ENDBRANCH  83  87
ENDBRANCH  56  80
BRANCH  68  91
ATOM     91  C   UNL     1       3.965  -8.467  16.219  1.00  0.00     0.023 A 
ATOM     92  C   UNL     1       3.765  -9.783  15.767  1.00  0.00     0.031 A 
ATOM     93  C   UNL     1       4.259  -8.272  17.580  1.00  0.00     0.131 A 
ATOM     94  C   UNL     1       3.791 -10.848  16.680  1.00  0.00     0.055 A 
ATOM     95  C   UNL     1       4.343  -9.341  18.473  1.00  0.00     0.041 A 
ATOM     96  F   UNL     1       4.458  -7.037  18.066  1.00  0.00    -0.206 F 
ATOM     97  C   UNL     1       4.092 -10.636  18.028  1.00  0.00     0.022 A 
BRANCH  94  98
ATOM     98  S   UNL     1       3.312 -12.500  16.104  1.00  0.00     0.124 S 
ATOM     99  O   UNL     1       1.988 -12.254  15.541  1.00  0.00    -0.237 OA
ATOM    100  O   UNL     1       4.365 -12.811  15.144  1.00  0.00    -0.237 OA
ATOM    101  O   UNL     1       3.326 -13.306  17.324  1.00  0.00    -0.744 OA
ENDBRANCH  94  98
ENDBRANCH  68  91
ENDBRANCH  42  43
ENDBRANCH  34  37
ENDBRANCH  32  33
ENDBRANCH  31  32
ENDBRANCH   1  31
TORSDOF 17
