REMARK SMILES CCn1c(SCC(=O)NCCCCNC(=O)c2ccc(-c3c4nc(c(-c5cc(S(=O)(=O)[O-])ccc5F)c5ccc([nH]5)c(-c5cc(S(=O)(=O)[O-])ccc5F)c5nc(c(-c6cc(S(=O)(=O)[O-])ccc6F)c6ccc3[nH]6)C=C5)C=C4)cc2)nc2ccc(C)cc2c1=O
REMARK SMILES IDX 11 1 10 2 9 3 7 4 8 5 6 7 5 8 4 9 3 10 88 11 80 12 87 13
REMARK SMILES IDX 89 14 81 15 86 16 82 17 84 18 83 19 85 20 2 21 1 22 12 23
REMARK SMILES IDX 13 24 14 25 15 26 16 28 17 29 18 30 79 31 19 32 78 33 20 34
REMARK SMILES IDX 21 35 22 36 72 37 23 38 77 39 71 40 73 41 24 42 76 43 70 44
REMARK SMILES IDX 69 45 25 47 57 48 37 49 56 50 38 51 41 52 55 53 74 54 39 55
REMARK SMILES IDX 40 56 54 58 75 59 42 60 26 61 27 62 35 63 28 64 34 65 36 66
REMARK SMILES IDX 33 67 29 68 30 69 31 70 32 71 58 72 59 73 67 74 60 75 66 76
REMARK SMILES IDX 68 77 65 78 61 79 62 80 63 81 64 82 43 83 44 84 52 85 45 86
REMARK SMILES IDX 51 87 53 88 50 89 46 90 47 91 48 92 49 93
REMARK H PARENT 9 6 14 27 73 46 41 57
REMARK Flexibility Score: inf
ROOT
ATOM      1  C   UNL     1       0.928  -2.742   3.028  1.00  0.00     0.023 C 
ENDROOT
BRANCH   1   2
ATOM      2  C   UNL     1      -0.226  -1.748   3.163  1.00  0.00     0.116 C 
BRANCH   2   3
ATOM      3  N   UNL     1      -0.024  -0.507   2.440  1.00  0.00    -0.355 N 
ATOM      4  C   UNL     1      -0.571  -0.068   1.273  1.00  0.00     0.230 C 
ATOM      5  O   UNL     1      -0.407   1.124   0.989  1.00  0.00    -0.274 OA
ATOM      6  H   UNL     1       0.610   0.118   2.860  1.00  0.00     0.163 HD
BRANCH   4   7
ATOM      7  C   UNL     1      -1.416  -0.951   0.370  1.00  0.00     0.178 C 
BRANCH   7   8
ATOM      8  S   UNL     1      -0.720  -2.527  -0.052  1.00  0.00    -0.078 SA
BRANCH   8   9
ATOM      9  C   UNL     1       0.456  -2.573  -1.338  1.00  0.00     0.171 A 
ATOM     10  N   UNL     1       1.173  -1.523  -1.894  1.00  0.00    -0.287 N 
ATOM     11  C   UNL     1       2.086  -1.767  -2.934  1.00  0.00     0.262 A 
ATOM     12  N   UNL     1       0.629  -3.805  -1.706  1.00  0.00    -0.224 NA
ATOM     13  C   UNL     1       2.333  -3.163  -3.308  1.00  0.00     0.066 A 
ATOM     14  O   UNL     1       2.702  -0.890  -3.538  1.00  0.00    -0.269 OA
ATOM     15  C   UNL     1       1.590  -4.131  -2.657  1.00  0.00     0.079 A 
ATOM     16  C   UNL     1       3.311  -3.509  -4.249  1.00  0.00     0.019 A 
ATOM     17  C   UNL     1       1.837  -5.474  -2.943  1.00  0.00     0.029 A 
ATOM     18  C   UNL     1       3.555  -4.855  -4.542  1.00  0.00    -0.050 A 
ATOM     19  C   UNL     1       2.816  -5.837  -3.874  1.00  0.00     0.006 A 
ATOM     20  C   UNL     1       4.629  -5.223  -5.521  1.00  0.00     0.044 C 
BRANCH  10  21
ATOM     21  C   UNL     1       1.156  -0.129  -1.470  1.00  0.00     0.125 C 
ATOM     22  C   UNL     1       2.208   0.130  -0.400  1.00  0.00     0.028 C 
ENDBRANCH  10  21
ENDBRANCH   8   9
ENDBRANCH   7   8
ENDBRANCH   4   7
ENDBRANCH   2   3
ENDBRANCH   1   2
BRANCH   1  23
ATOM     23  C   UNL     1       2.301  -2.249   3.480  1.00  0.00     0.023 C 
BRANCH  23  24
ATOM     24  C   UNL     1       2.375  -1.667   4.884  1.00  0.00     0.116 C 
BRANCH  24  25
ATOM     25  N   UNL     1       1.860  -2.553   5.916  1.00  0.00    -0.352 N 
ATOM     26  C   UNL     1       2.376  -2.846   7.158  1.00  0.00     0.251 C 
ATOM     27  H   UNL     1       1.017  -3.011   5.693  1.00  0.00     0.163 HD
ATOM     28  O   UNL     1       1.813  -3.678   7.865  1.00  0.00    -0.269 OA
BRANCH  26  29
ATOM     29  C   UNL     1       3.631  -2.205   7.611  1.00  0.00     0.039 A 
ATOM     30  C   UNL     1       3.859  -0.843   7.415  1.00  0.00     0.014 A 
ATOM     31  C   UNL     1       4.620  -3.000   8.201  1.00  0.00     0.014 A 
ATOM     32  C   UNL     1       5.131  -0.320   7.625  1.00  0.00     0.010 A 
ATOM     33  C   UNL     1       5.871  -2.450   8.496  1.00  0.00     0.010 A 
ATOM     34  C   UNL     1       6.158  -1.120   8.153  1.00  0.00    -0.014 A 
BRANCH  34  35
ATOM     35  C   UNL     1       7.524  -0.550   8.314  1.00  0.00     0.031 A 
ATOM     36  C   UNL     1       8.680  -1.086   7.507  1.00  0.00     0.074 A 
ATOM     37  C   UNL     1       7.707   0.502   9.137  1.00  0.00     0.049 A 
ATOM     38  N   UNL     1       9.925  -0.684   7.489  1.00  0.00    -0.248 NA
ATOM     39  C   UNL     1       8.407  -2.216   6.603  1.00  0.00     0.031 C 
ATOM     40  C   UNL     1       6.657   1.120   9.948  1.00  0.00     0.029 A 
ATOM     41  N   UNL     1       8.820   1.260   9.403  1.00  0.00    -0.354 N 
ATOM     42  C   UNL     1      10.584  -1.513   6.587  1.00  0.00     0.074 A 
ATOM     43  C   UNL     1       9.610  -2.466   6.103  1.00  0.00     0.031 C 
ATOM     44  C   UNL     1       7.156   2.200  10.566  1.00  0.00     0.029 A 
ATOM     45  C   UNL     1       8.579   2.314  10.257  1.00  0.00     0.049 A 
ATOM     46  H   UNL     1       9.707   1.069   9.021  1.00  0.00     0.167 HD
ATOM     47  C   UNL     1      11.877  -1.471   6.187  1.00  0.00     0.034 A 
ATOM     48  C   UNL     1       9.408   3.263  10.740  1.00  0.00     0.034 A 
ATOM     49  C   UNL     1      12.832  -0.499   6.654  1.00  0.00     0.049 A 
ATOM     50  C   UNL     1      10.854   3.251  10.314  1.00  0.00     0.074 A 
ATOM     51  C   UNL     1      14.164  -0.372   6.298  1.00  0.00     0.029 A 
ATOM     52  N   UNL     1      12.563   0.517   7.559  1.00  0.00    -0.354 N 
ATOM     53  N   UNL     1      11.451   2.472   9.443  1.00  0.00    -0.248 NA
ATOM     54  C   UNL     1      11.742   4.240  10.939  1.00  0.00     0.031 C 
ATOM     55  C   UNL     1      14.713   0.684   7.024  1.00  0.00     0.029 A 
ATOM     56  C   UNL     1      13.710   1.261   7.786  1.00  0.00     0.049 A 
ATOM     57  H   UNL     1      11.688   0.685   7.977  1.00  0.00     0.167 HD
ATOM     58  C   UNL     1      12.775   2.897   9.395  1.00  0.00     0.074 A 
ATOM     59  C   UNL     1      12.886   4.016  10.306  1.00  0.00     0.031 C 
ATOM     60  C   UNL     1      13.806   2.397   8.669  1.00  0.00     0.034 A 
BRANCH  47  61
ATOM     61  C   UNL     1      12.363  -2.476   5.172  1.00  0.00     0.023 A 
ATOM     62  C   UNL     1      13.360  -3.406   5.524  1.00  0.00     0.031 A 
ATOM     63  C   UNL     1      11.967  -2.401   3.826  1.00  0.00     0.131 A 
ATOM     64  C   UNL     1      13.963  -4.189   4.531  1.00  0.00     0.055 A 
ATOM     65  C   UNL     1      12.543  -3.211   2.846  1.00  0.00     0.041 A 
ATOM     66  F   UNL     1      11.018  -1.530   3.442  1.00  0.00    -0.206 F 
ATOM     67  C   UNL     1      13.557  -4.099   3.195  1.00  0.00     0.022 A 
BRANCH  64  68
ATOM     68  S   UNL     1      15.340  -5.302   4.922  1.00  0.00     0.124 S 
ATOM     69  O   UNL     1      14.852  -6.579   4.402  1.00  0.00    -0.237 OA
ATOM     70  O   UNL     1      16.439  -4.702   4.172  1.00  0.00    -0.237 OA
ATOM     71  O   UNL     1      15.449  -5.228   6.375  1.00  0.00    -0.744 OA
ENDBRANCH  64  68
ENDBRANCH  47  61
BRANCH  48  72
ATOM     72  C   UNL     1       8.870   4.326  11.640  1.00  0.00     0.023 A 
ATOM     73  C   UNL     1       8.269   4.008  12.871  1.00  0.00     0.031 A 
ATOM     74  C   UNL     1       8.884   5.674  11.244  1.00  0.00     0.131 A 
ATOM     75  C   UNL     1       7.655   5.012  13.630  1.00  0.00     0.055 A 
ATOM     76  C   UNL     1       8.335   6.683  12.037  1.00  0.00     0.041 A 
ATOM     77  F   UNL     1       9.435   6.029  10.072  1.00  0.00    -0.206 F 
ATOM     78  C   UNL     1       7.700   6.351  13.230  1.00  0.00     0.022 A 
BRANCH  75  79
ATOM     79  S   UNL     1       6.659   4.595  15.088  1.00  0.00     0.124 S 
ATOM     80  O   UNL     1       7.437   5.191  16.168  1.00  0.00    -0.237 OA
ATOM     81  O   UNL     1       5.389   5.253  14.786  1.00  0.00    -0.237 OA
ATOM     82  O   UNL     1       6.616   3.136  15.067  1.00  0.00    -0.744 OA
ENDBRANCH  75  79
ENDBRANCH  48  72
BRANCH  60  83
ATOM     83  C   UNL     1      15.162   3.048   8.792  1.00  0.00     0.023 A 
ATOM     84  C   UNL     1      15.754   3.655   7.668  1.00  0.00     0.031 A 
ATOM     85  C   UNL     1      15.926   2.929   9.965  1.00  0.00     0.131 A 
ATOM     86  C   UNL     1      17.087   4.082   7.727  1.00  0.00     0.055 A 
ATOM     87  C   UNL     1      17.238   3.399  10.034  1.00  0.00     0.041 A 
ATOM     88  F   UNL     1      15.409   2.348  11.059  1.00  0.00    -0.206 F 
ATOM     89  C   UNL     1      17.829   3.964   8.907  1.00  0.00     0.022 A 
BRANCH  86  90
ATOM     90  S   UNL     1      17.933   4.719   6.255  1.00  0.00     0.124 S 
ATOM     91  O   UNL     1      18.285   6.074   6.673  1.00  0.00    -0.237 OA
ATOM     92  O   UNL     1      19.058   3.796   6.123  1.00  0.00    -0.237 OA
ATOM     93  O   UNL     1      16.925   4.634   5.204  1.00  0.00    -0.744 OA
ENDBRANCH  86  90
ENDBRANCH  60  83
ENDBRANCH  34  35
ENDBRANCH  26  29
ENDBRANCH  24  25
ENDBRANCH  23  24
ENDBRANCH   1  23
TORSDOF 17
