REMARK SMILES COc1ccc(-c2ccc3n(c2=O)C[C@H]2C[C@@H]3CN(C(=O)CCCC(=O)NCCCCNC(=O)c3ccc(-c4c5nc(c(-c6cc(S(=O)(=O)[O-])ccc6F)c6ccc([nH]6)c(-c6cc(S(=O)(=O)[O-])ccc6F)c6nc(c(-c7cc(S(=O)(=O)[O-])ccc7F)c7ccc4[nH]7)C=C6)C=C5)cc3)C2)cc1
REMARK SMILES IDX 28 1 27 2 25 3 26 4 24 6 23 7 22 8 20 9 21 10 19 11 7 12
REMARK SMILES IDX 8 13 12 14 9 15 11 16 13 17 10 18 14 19 17 20 15 21 16 22
REMARK SMILES IDX 18 23 98 24 6 25 3 26 4 27 100 28 5 29 99 30 2 31 1 32 29 33
REMARK SMILES IDX 30 34 31 35 32 36 33 37 34 39 35 40 36 41 97 42 37 43 96 44
REMARK SMILES IDX 38 45 39 46 40 47 90 48 41 49 95 50 89 51 91 52 42 53 94 54
REMARK SMILES IDX 88 55 87 56 43 58 75 59 55 60 74 61 56 62 59 63 73 64 92 65
REMARK SMILES IDX 57 66 58 67 72 69 93 70 60 71 44 72 45 73 53 74 46 75 52 76
REMARK SMILES IDX 54 77 51 78 47 79 48 80 49 81 50 82 76 83 77 84 85 85 78 86
REMARK SMILES IDX 84 87 86 88 83 89 79 90 80 91 81 92 82 93 61 94 62 95 70 96
REMARK SMILES IDX 63 97 69 98 71 99 68 100 64 101 65 102 66 103 67 104
REMARK H PARENT 27 5 32 38 91 57 59 68
REMARK Flexibility Score: inf
ROOT
ATOM      1  C   UNL     1      -0.678  10.655  -8.572  1.00  0.00     0.116 C 
ENDROOT
BRANCH   1   2
ATOM      2  N   UNL     1      -1.830  10.447  -7.729  1.00  0.00    -0.356 N 
ATOM      3  C   UNL     1      -2.228   9.431  -6.926  1.00  0.00     0.220 C 
ATOM      4  O   UNL     1      -3.182   9.685  -6.179  1.00  0.00    -0.275 OA
ATOM      5  H   UNL     1      -2.459  11.204  -7.739  1.00  0.00     0.163 HD
BRANCH   3   6
ATOM      6  C   UNL     1      -1.555   8.064  -6.822  1.00  0.00     0.100 C 
BRANCH   6   7
ATOM      7  C   UNL     1      -1.400   7.178  -8.051  1.00  0.00     0.020 C 
BRANCH   7   8
ATOM      8  C   UNL     1      -0.197   7.307  -8.982  1.00  0.00     0.101 C 
BRANCH   8   9
ATOM      9  C   UNL     1       1.196   6.845  -8.552  1.00  0.00     0.222 C 
ATOM     10  O   UNL     1       1.544   5.705  -8.883  1.00  0.00    -0.275 OA
BRANCH   9  11
ATOM     11  N   UNL     1       2.104   7.723  -7.971  1.00  0.00    -0.342 N 
ATOM     12  C   UNL     1       2.363   4.157  -4.449  1.00  0.00     0.047 A 
ATOM     13  C   UNL     1       3.361   3.922  -5.316  1.00  0.00     0.016 A 
ATOM     14  C   UNL     1       1.869   5.568  -4.278  1.00  0.00     0.258 A 
ATOM     15  C   UNL     1       3.985   4.988  -6.046  1.00  0.00     0.023 A 
ATOM     16  N   UNL     1       2.527   6.556  -5.028  1.00  0.00    -0.311 N 
ATOM     17  O   UNL     1       0.948   5.820  -3.501  1.00  0.00    -0.269 OA
ATOM     18  C   UNL     1       3.583   6.258  -5.892  1.00  0.00     0.026 A 
ATOM     19  C   UNL     1       2.091   7.934  -4.807  1.00  0.00     0.131 C 
ATOM     20  C   UNL     1       4.219   7.362  -6.719  1.00  0.00     0.056 C 
ATOM     21  C   UNL     1       2.593   8.966  -5.824  1.00  0.00     0.029 C 
ATOM     22  C   UNL     1       4.079   8.727  -6.043  1.00  0.00     0.019 C 
ATOM     23  C   UNL     1       3.532   7.415  -8.095  1.00  0.00     0.129 C 
ATOM     24  C   UNL     1       1.836   8.914  -7.169  1.00  0.00     0.125 C 
BRANCH  12  25
ATOM     25  C   UNL     1       1.816   3.045  -3.655  1.00  0.00    -0.013 A 
ATOM     26  C   UNL     1       0.812   0.958  -2.071  1.00  0.00     0.118 A 
ATOM     27  C   UNL     1      -0.035   1.654  -2.933  1.00  0.00     0.047 A 
ATOM     28  C   UNL     1       2.169   1.273  -2.027  1.00  0.00     0.047 A 
ATOM     29  C   UNL     1       0.461   2.703  -3.714  1.00  0.00     0.013 A 
ATOM     30  C   UNL     1       2.666   2.316  -2.810  1.00  0.00     0.013 A 
BRANCH  26  31
ATOM     31  O   UNL     1       0.240  -0.044  -1.334  1.00  0.00    -0.497 OA
ATOM     32  C   UNL     1       0.719  -0.112   0.007  1.00  0.00     0.278 C 
ENDBRANCH  26  31
ENDBRANCH  12  25
ENDBRANCH   9  11
ENDBRANCH   8   9
ENDBRANCH   7   8
ENDBRANCH   6   7
ENDBRANCH   3   6
ENDBRANCH   1   2
BRANCH   1  33
ATOM     33  C   UNL     1      -1.026  10.873 -10.043  1.00  0.00     0.023 C 
BRANCH  33  34
ATOM     34  C   UNL     1      -0.831  12.317 -10.495  1.00  0.00     0.023 C 
BRANCH  34  35
ATOM     35  C   UNL     1       0.609  12.823 -10.429  1.00  0.00     0.116 C 
BRANCH  35  36
ATOM     36  N   UNL     1       1.512  12.177 -11.371  1.00  0.00    -0.352 N 
ATOM     37  C   UNL     1       2.453  12.775 -12.184  1.00  0.00     0.251 C 
ATOM     38  H   UNL     1       1.443  11.197 -11.437  1.00  0.00     0.163 HD
ATOM     39  O   UNL     1       3.107  12.106 -12.980  1.00  0.00    -0.269 OA
BRANCH  37  40
ATOM     40  C   UNL     1       2.619  14.242 -12.113  1.00  0.00     0.039 A 
ATOM     41  C   UNL     1       2.425  15.001 -13.268  1.00  0.00     0.014 A 
ATOM     42  C   UNL     1       2.837  14.864 -10.880  1.00  0.00     0.014 A 
ATOM     43  C   UNL     1       2.349  16.392 -13.168  1.00  0.00     0.010 A 
ATOM     44  C   UNL     1       2.679  16.243 -10.773  1.00  0.00     0.010 A 
ATOM     45  C   UNL     1       2.418  17.021 -11.913  1.00  0.00    -0.014 A 
BRANCH  45  46
ATOM     46  C   UNL     1       2.199  18.486 -11.771  1.00  0.00     0.031 A 
ATOM     47  C   UNL     1       3.297  19.365 -11.240  1.00  0.00     0.074 A 
ATOM     48  C   UNL     1       0.988  19.012 -12.052  1.00  0.00     0.049 A 
ATOM     49  N   UNL     1       3.280  20.648 -10.983  1.00  0.00    -0.248 NA
ATOM     50  C   UNL     1       4.571  18.705 -10.919  1.00  0.00     0.031 C 
ATOM     51  C   UNL     1      -0.178  18.255 -12.515  1.00  0.00     0.029 A 
ATOM     52  N   UNL     1       0.532  20.306 -11.984  1.00  0.00    -0.354 N 
ATOM     53  C   UNL     1       4.534  20.945 -10.459  1.00  0.00     0.074 A 
ATOM     54  C   UNL     1       5.256  19.694 -10.368  1.00  0.00     0.031 C 
ATOM     55  C   UNL     1      -1.201  19.101 -12.718  1.00  0.00     0.029 A 
ATOM     56  C   UNL     1      -0.783  20.453 -12.363  1.00  0.00     0.049 A 
ATOM     57  H   UNL     1       1.094  21.059 -11.690  1.00  0.00     0.167 HD
ATOM     58  C   UNL     1       5.046  22.153 -10.112  1.00  0.00     0.034 A 
ATOM     59  C   UNL     1      -1.564  21.550 -12.416  1.00  0.00     0.034 A 
ATOM     60  C   UNL     1       4.320  23.394 -10.229  1.00  0.00     0.049 A 
ATOM     61  C   UNL     1      -0.975  22.883 -12.026  1.00  0.00     0.074 A 
ATOM     62  C   UNL     1       4.763  24.680  -9.970  1.00  0.00     0.029 A 
ATOM     63  N   UNL     1       2.995  23.505 -10.633  1.00  0.00    -0.354 N 
ATOM     64  N   UNL     1       0.235  23.155 -11.594  1.00  0.00    -0.248 NA
ATOM     65  C   UNL     1      -1.851  24.056 -12.144  1.00  0.00     0.031 C 
ATOM     66  C   UNL     1       3.691  25.560 -10.158  1.00  0.00     0.029 A 
ATOM     67  C   UNL     1       2.598  24.834 -10.603  1.00  0.00     0.049 A 
ATOM     68  H   UNL     1       2.422  22.751 -10.901  1.00  0.00     0.167 HD
ATOM     69  C   UNL     1       0.272  24.536 -11.418  1.00  0.00     0.074 A 
ATOM     70  C   UNL     1      -1.030  25.039 -11.803  1.00  0.00     0.031 C 
ATOM     71  C   UNL     1       1.292  25.319 -10.982  1.00  0.00     0.034 A 
BRANCH  58  72
ATOM     72  C   UNL     1       6.452  22.175  -9.562  1.00  0.00     0.023 A 
ATOM     73  C   UNL     1       7.550  21.750 -10.330  1.00  0.00     0.031 A 
ATOM     74  C   UNL     1       6.696  22.590  -8.241  1.00  0.00     0.131 A 
ATOM     75  C   UNL     1       8.823  21.665  -9.747  1.00  0.00     0.055 A 
ATOM     76  C   UNL     1       7.981  22.587  -7.694  1.00  0.00     0.041 A 
ATOM     77  F   UNL     1       5.686  22.988  -7.451  1.00  0.00    -0.206 F 
ATOM     78  C   UNL     1       9.052  22.105  -8.442  1.00  0.00     0.022 A 
BRANCH  75  79
ATOM     79  S   UNL     1      10.139  20.823 -10.668  1.00  0.00     0.124 S 
ATOM     80  O   UNL     1       9.562  19.493 -10.854  1.00  0.00    -0.237 OA
ATOM     81  O   UNL     1      10.258  21.641 -11.869  1.00  0.00    -0.237 OA
ATOM     82  O   UNL     1      11.282  20.876  -9.759  1.00  0.00    -0.744 OA
ENDBRANCH  75  79
ENDBRANCH  58  72
BRANCH  59  83
ATOM     83  C   UNL     1      -2.986  21.449 -12.854  1.00  0.00     0.023 A 
ATOM     84  C   UNL     1      -3.424  22.063 -14.038  1.00  0.00     0.031 A 
ATOM     85  C   UNL     1      -3.938  20.770 -12.073  1.00  0.00     0.131 A 
ATOM     86  C   UNL     1      -4.783  22.028 -14.385  1.00  0.00     0.055 A 
ATOM     87  C   UNL     1      -5.282  20.695 -12.448  1.00  0.00     0.041 A 
ATOM     88  F   UNL     1      -3.572  20.158 -10.935  1.00  0.00    -0.206 F 
ATOM     89  C   UNL     1      -5.713  21.338 -13.604  1.00  0.00     0.022 A 
BRANCH  86  90
ATOM     90  S   UNL     1      -5.335  22.968 -15.835  1.00  0.00     0.124 S 
ATOM     91  O   UNL     1      -4.911  24.320 -15.492  1.00  0.00    -0.237 OA
ATOM     92  O   UNL     1      -4.597  22.318 -16.914  1.00  0.00    -0.237 OA
ATOM     93  O   UNL     1      -6.780  22.751 -15.852  1.00  0.00    -0.744 OA
ENDBRANCH  86  90
ENDBRANCH  59  83
BRANCH  71  94
ATOM     94  C   UNL     1       1.047  26.806 -10.945  1.00  0.00     0.023 A 
ATOM     95  C   UNL     1       0.140  27.385 -10.040  1.00  0.00     0.031 A 
ATOM     96  C   UNL     1       1.730  27.656 -11.834  1.00  0.00     0.131 A 
ATOM     97  C   UNL     1      -0.098  28.767 -10.078  1.00  0.00     0.055 A 
ATOM     98  C   UNL     1       1.532  29.037 -11.828  1.00  0.00     0.041 A 
ATOM     99  F   UNL     1       2.607  27.155 -12.719  1.00  0.00    -0.206 F 
ATOM    100  C   UNL     1       0.605  29.598 -10.955  1.00  0.00     0.022 A 
BRANCH  97 101
ATOM    101  S   UNL     1      -1.398  29.457  -9.018  1.00  0.00     0.124 S 
ATOM    102  O   UNL     1      -2.579  28.732  -9.477  1.00  0.00    -0.237 OA
ATOM    103  O   UNL     1      -0.922  29.119  -7.681  1.00  0.00    -0.237 OA
ATOM    104  O   UNL     1      -1.381  30.883  -9.339  1.00  0.00    -0.744 OA
ENDBRANCH  97 101
ENDBRANCH  71  94
ENDBRANCH  45  46
ENDBRANCH  37  40
ENDBRANCH  35  36
ENDBRANCH  34  35
ENDBRANCH  33  34
ENDBRANCH   1  33
TORSDOF 20
