REMARK SMILES N#Cc1ccc(Cl)cc1NC(=O)Cn1nc(C(=O)NCCCCNC(=O)c2ccc(-c3c4nc(c(-c5cc(S(=O)(=O)[O-])ccc5F)c5ccc([nH]5)c(-c5cc(S(=O)(=O)[O-])ccc5F)c5nc(c(-c6cc(S(=O)(=O)[O-])ccc6F)c6ccc3[nH]6)C=C5)C=C4)cc2)c2ccccc2c1=O
REMARK SMILES IDX 21 1 20 2 19 3 17 4 18 5 16 7 14 8 15 9 96 10 95 11 97 12
REMARK SMILES IDX 90 13 94 14 91 15 93 16 92 17 13 18 11 19 10 20 12 22 9 23
REMARK SMILES IDX 3 24 4 25 5 26 8 27 6 28 7 29 2 30 1 31 22 32 23 33 24 34
REMARK SMILES IDX 25 35 26 37 27 38 28 39 89 40 29 41 88 42 30 43 31 44 32 45
REMARK SMILES IDX 82 46 33 47 87 48 81 49 83 50 34 51 86 52 80 53 79 54 35 56
REMARK SMILES IDX 67 57 47 58 66 59 48 60 51 61 65 62 84 63 49 64 50 65 64 67
REMARK SMILES IDX 85 68 52 69 36 70 37 71 45 72 38 73 44 74 46 75 43 76 39 77
REMARK SMILES IDX 40 78 41 79 42 80 68 81 69 82 77 83 70 84 76 85 78 86 75 87
REMARK SMILES IDX 71 88 72 89 73 90 74 91 53 92 54 93 62 94 55 95 61 96 63 97
REMARK SMILES IDX 60 98 56 99 57 100 58 101 59 102
REMARK H PARENT 19 6 10 21 24 36 83 55 51 66
REMARK Flexibility Score: inf
ROOT
ATOM      1  C   UNL     1       9.595  -2.121  -0.741  1.00  0.00     0.023 C 
ENDROOT
BRANCH   1   2
ATOM      2  C   UNL     1       8.444  -1.430  -1.465  1.00  0.00     0.116 C 
BRANCH   2   3
ATOM      3  N   UNL     1       8.522  -0.985  -2.847  1.00  0.00    -0.351 N 
ATOM      4  C   UNL     1       7.421  -0.817  -3.709  1.00  0.00     0.272 C 
ATOM      5  O   UNL     1       7.437  -0.020  -4.638  1.00  0.00    -0.267 OA
ATOM      6  H   UNL     1       9.415  -0.784  -3.208  1.00  0.00     0.163 HD
BRANCH   4   7
ATOM      7  C   UNL     1       6.243  -1.801  -3.611  1.00  0.00     0.156 A 
ATOM      8  N   UNL     1       5.943  -3.476  -2.147  1.00  0.00    -0.219 N 
ATOM      9  N   UNL     1       5.790  -2.115  -2.441  1.00  0.00    -0.163 NA
ATOM     10  C   UNL     1       6.768  -4.297  -2.979  1.00  0.00     0.275 A 
ATOM     11  C   UNL     1       6.721  -3.944  -4.429  1.00  0.00     0.051 A 
ATOM     12  O   UNL     1       7.407  -5.273  -2.605  1.00  0.00    -0.267 OA
ATOM     13  C   UNL     1       6.085  -2.752  -4.700  1.00  0.00     0.020 A 
ATOM     14  C   UNL     1       6.905  -4.872  -5.445  1.00  0.00     0.014 A 
ATOM     15  C   UNL     1       5.214  -2.649  -5.774  1.00  0.00     0.011 A 
ATOM     16  C   UNL     1       6.161  -4.716  -6.618  1.00  0.00     0.001 A 
ATOM     17  C   UNL     1       5.232  -3.671  -6.726  1.00  0.00     0.001 A 
BRANCH   8  18
ATOM     18  C   UNL     1       5.737  -3.816  -0.741  1.00  0.00     0.248 C 
BRANCH  18  19
ATOM     19  C   UNL     1       4.334  -3.527  -0.239  1.00  0.00     0.246 C 
ATOM     20  N   UNL     1       3.782  -2.312   0.037  1.00  0.00    -0.323 N 
ATOM     21  H   UNL     1       2.852  -2.428   0.338  1.00  0.00     0.170 HD
ATOM     22  O   UNL     1       3.563  -4.489  -0.080  1.00  0.00    -0.273 OA
BRANCH  20  23
ATOM     23  C   UNL     1       4.120  -0.929   0.028  1.00  0.00     0.060 A 
ATOM     24  C   UNL     1       3.051   0.006   0.079  1.00  0.00     0.076 A 
ATOM     25  C   UNL     1       3.273   1.392   0.034  1.00  0.00     0.023 A 
ATOM     26  C   UNL     1       4.558   1.885  -0.088  1.00  0.00     0.022 A 
ATOM     27  C   UNL     1       5.415  -0.402  -0.027  1.00  0.00     0.048 A 
ATOM     28  C   UNL     1       5.620   0.995  -0.129  1.00  0.00     0.043 A 
ATOM     29  Cl  UNL     1       7.162   1.724  -0.359  1.00  0.00    -0.084 Cl
BRANCH  24  30
ATOM     30  C   UNL     1       1.679  -0.415   0.127  1.00  0.00     0.101 C 
ATOM     31  N   UNL     1       0.579  -0.771   0.156  1.00  0.00    -0.192 NA
ENDBRANCH  24  30
ENDBRANCH  20  23
ENDBRANCH  18  19
ENDBRANCH   8  18
ENDBRANCH   4   7
ENDBRANCH   2   3
ENDBRANCH   1   2
BRANCH   1  32
ATOM     32  C   UNL     1      10.348  -1.271   0.290  1.00  0.00     0.023 C 
BRANCH  32  33
ATOM     33  C   UNL     1       9.551  -0.462   1.320  1.00  0.00     0.116 C 
BRANCH  33  34
ATOM     34  N   UNL     1       8.948  -1.149   2.451  1.00  0.00    -0.352 N 
ATOM     35  C   UNL     1       8.722  -0.596   3.708  1.00  0.00     0.251 C 
ATOM     36  H   UNL     1       8.677  -2.085   2.316  1.00  0.00     0.163 HD
ATOM     37  O   UNL     1       8.101  -1.215   4.566  1.00  0.00    -0.269 OA
BRANCH  35  38
ATOM     38  C   UNL     1       9.322   0.728   4.020  1.00  0.00     0.039 A 
ATOM     39  C   UNL     1       9.044   1.842   3.225  1.00  0.00     0.014 A 
ATOM     40  C   UNL     1      10.312   0.798   5.002  1.00  0.00     0.014 A 
ATOM     41  C   UNL     1       9.911   2.935   3.253  1.00  0.00     0.010 A 
ATOM     42  C   UNL     1      11.121   1.937   5.089  1.00  0.00     0.010 A 
ATOM     43  C   UNL     1      10.985   2.981   4.160  1.00  0.00    -0.014 A 
BRANCH  43  44
ATOM     44  C   UNL     1      11.982   4.093   4.101  1.00  0.00     0.031 A 
ATOM     45  C   UNL     1      13.438   3.814   3.802  1.00  0.00     0.074 A 
ATOM     46  C   UNL     1      11.579   5.365   4.288  1.00  0.00     0.049 A 
ATOM     47  N   UNL     1      14.443   4.652   3.737  1.00  0.00    -0.248 NA
ATOM     48  C   UNL     1      13.818   2.415   3.547  1.00  0.00     0.031 C 
ATOM     49  C   UNL     1      10.203   5.770   4.567  1.00  0.00     0.029 A 
ATOM     50  N   UNL     1      12.277   6.549   4.267  1.00  0.00    -0.354 N 
ATOM     51  C   UNL     1      15.571   3.885   3.457  1.00  0.00     0.074 A 
ATOM     52  C   UNL     1      15.134   2.508   3.402  1.00  0.00     0.031 C 
ATOM     53  C   UNL     1      10.148   7.106   4.656  1.00  0.00     0.029 A 
ATOM     54  C   UNL     1      11.496   7.654   4.519  1.00  0.00     0.049 A 
ATOM     55  H   UNL     1      13.244   6.601   4.088  1.00  0.00     0.167 HD
ATOM     56  C   UNL     1      16.847   4.293   3.246  1.00  0.00     0.034 A 
ATOM     57  C   UNL     1      11.819   8.957   4.652  1.00  0.00     0.034 A 
ATOM     58  C   UNL     1      17.266   5.673   3.277  1.00  0.00     0.049 A 
ATOM     59  C   UNL     1      13.253   9.381   4.461  1.00  0.00     0.074 A 
ATOM     60  C   UNL     1      18.530   6.185   3.036  1.00  0.00     0.029 A 
ATOM     61  N   UNL     1      16.449   6.757   3.562  1.00  0.00    -0.354 N 
ATOM     62  N   UNL     1      14.294   8.648   4.144  1.00  0.00    -0.248 NA
ATOM     63  C   UNL     1      13.561  10.807   4.638  1.00  0.00     0.031 C 
ATOM     64  C   UNL     1      18.496   7.560   3.257  1.00  0.00     0.029 A 
ATOM     65  C   UNL     1      17.191   7.928   3.537  1.00  0.00     0.049 A 
ATOM     66  H   UNL     1      15.484   6.703   3.752  1.00  0.00     0.167 HD
ATOM     67  C   UNL     1      15.371   9.526   4.055  1.00  0.00     0.074 A 
ATOM     68  C   UNL     1      14.850  10.849   4.326  1.00  0.00     0.031 C 
ATOM     69  C   UNL     1      16.672   9.255   3.782  1.00  0.00     0.034 A 
BRANCH  56  70
ATOM     70  C   UNL     1      17.911   3.260   2.940  1.00  0.00     0.023 A 
ATOM     71  C   UNL     1      19.034   3.137   3.783  1.00  0.00     0.031 A 
ATOM     72  C   UNL     1      17.903   2.526   1.740  1.00  0.00     0.131 A 
ATOM     73  C   UNL     1      20.121   2.344   3.390  1.00  0.00     0.055 A 
ATOM     74  C   UNL     1      18.965   1.695   1.379  1.00  0.00     0.041 A 
ATOM     75  F   UNL     1      16.862   2.610   0.896  1.00  0.00    -0.206 F 
ATOM     76  C   UNL     1      20.088   1.615   2.197  1.00  0.00     0.022 A 
BRANCH  73  77
ATOM     77  S   UNL     1      21.654   2.301   4.360  1.00  0.00     0.124 S 
ATOM     78  O   UNL     1      21.772   0.878   4.670  1.00  0.00    -0.237 OA
ATOM     79  O   UNL     1      22.632   2.815   3.406  1.00  0.00    -0.237 OA
ATOM     80  O   UNL     1      21.371   3.163   5.502  1.00  0.00    -0.744 OA
ENDBRANCH  73  77
ENDBRANCH  56  70
BRANCH  57  81
ATOM     81  C   UNL     1      10.738   9.945   4.945  1.00  0.00     0.023 A 
ATOM     82  C   UNL     1       9.951   9.831   6.107  1.00  0.00     0.031 A 
ATOM     83  C   UNL     1      10.399  10.942   4.016  1.00  0.00     0.131 A 
ATOM     84  C   UNL     1       8.817  10.637   6.263  1.00  0.00     0.055 A 
ATOM     85  C   UNL     1       9.318  11.802   4.219  1.00  0.00     0.041 A 
ATOM     86  F   UNL     1      11.109  11.084   2.886  1.00  0.00    -0.206 F 
ATOM     87  C   UNL     1       8.507  11.637   5.338  1.00  0.00     0.022 A 
BRANCH  84  88
ATOM     88  S   UNL     1       7.622  10.308   7.589  1.00  0.00     0.124 S 
ATOM     89  O   UNL     1       7.605  11.578   8.307  1.00  0.00    -0.237 OA
ATOM     90  O   UNL     1       6.415   9.996   6.828  1.00  0.00    -0.237 OA
ATOM     91  O   UNL     1       8.208   9.182   8.310  1.00  0.00    -0.744 OA
ENDBRANCH  84  88
ENDBRANCH  57  81
BRANCH  69  92
ATOM     92  C   UNL     1      17.666  10.395   3.733  1.00  0.00     0.023 A 
ATOM     93  C   UNL     1      18.391  10.642   2.551  1.00  0.00     0.031 A 
ATOM     94  C   UNL     1      18.018  11.116   4.887  1.00  0.00     0.131 A 
ATOM     95  C   UNL     1      19.466  11.540   2.564  1.00  0.00     0.055 A 
ATOM     96  C   UNL     1      19.050  12.056   4.879  1.00  0.00     0.041 A 
ATOM     97  F   UNL     1      17.369  10.910   6.045  1.00  0.00    -0.206 F 
ATOM     98  C   UNL     1      19.792  12.258   3.719  1.00  0.00     0.022 A 
BRANCH  95  99
ATOM     99  S   UNL     1      20.548  11.727   1.119  1.00  0.00     0.124 S 
ATOM    100  O   UNL     1      20.406  13.150   0.817  1.00  0.00    -0.237 OA
ATOM    101  O   UNL     1      21.847  11.331   1.655  1.00  0.00    -0.237 OA
ATOM    102  O   UNL     1      19.974  10.822   0.129  1.00  0.00    -0.744 OA
ENDBRANCH  95  99
ENDBRANCH  69  92
ENDBRANCH  43  44
ENDBRANCH  35  38
ENDBRANCH  33  34
ENDBRANCH  32  33
ENDBRANCH   1  32
TORSDOF 18
