REMARK SMILES Nc1nonc1C(=O)N1[C@@H]2CC[C@H]1C[C@H](CC(=O)NCCCCNC(=O)c1ccc(-c3c4nc(c(-c5cc(S(=O)(=O)[O-])ccc5F)c5ccc([nH]5)c(-c5cc(S(=O)(=O)[O-])ccc5F)c5nc(c(-c6cc(S(=O)(=O)[O-])ccc6F)c6ccc3[nH]6)C=C5)C=C4)cc1)C2
REMARK SMILES IDX 21 1 20 2 19 3 17 4 18 5 16 7 15 8 9 9 10 10 13 11 11 12
REMARK SMILES IDX 90 13 12 14 14 15 7 16 8 17 6 18 2 19 3 20 4 21 5 22 1 23
REMARK SMILES IDX 22 26 23 27 24 28 25 29 26 31 27 32 28 33 89 34 29 35 88 36
REMARK SMILES IDX 30 37 31 38 32 39 82 40 33 41 87 42 81 43 83 44 34 45 86 46
REMARK SMILES IDX 80 47 79 48 35 50 67 51 47 52 66 53 48 54 51 55 65 56 84 57
REMARK SMILES IDX 49 58 50 59 64 61 85 62 52 63 36 64 37 65 45 66 38 67 44 68
REMARK SMILES IDX 46 69 43 70 39 71 40 72 41 73 42 74 68 75 69 76 77 77 70 78
REMARK SMILES IDX 76 79 78 80 75 81 71 82 72 83 73 84 74 85 53 86 54 87 62 88
REMARK SMILES IDX 55 89 61 90 63 91 60 92 56 93 57 94 58 95 59 96
REMARK H PARENT 19 6 1 24 1 25 24 30 83 49 51 60
REMARK Flexibility Score: inf
ROOT
ATOM      1  C   UNL     1       5.214  -0.422   1.712  1.00  0.00     0.023 C 
ENDROOT
BRANCH   1   2
ATOM      2  C   UNL     1       5.463   0.366   0.419  1.00  0.00     0.116 C 
BRANCH   2   3
ATOM      3  N   UNL     1       6.402  -0.330  -0.448  1.00  0.00    -0.356 N 
ATOM      4  C   UNL     1       6.208  -1.150  -1.521  1.00  0.00     0.220 C 
ATOM      5  O   UNL     1       7.195  -1.682  -2.033  1.00  0.00    -0.275 OA
ATOM      6  H   UNL     1       7.349  -0.182  -0.220  1.00  0.00     0.163 HD
BRANCH   4   7
ATOM      7  C   UNL     1       4.819  -1.415  -2.085  1.00  0.00     0.103 C 
BRANCH   7   8
ATOM      8  C   UNL     1       4.177  -2.735  -1.589  1.00  0.00     0.002 C 
ATOM      9  N   UNL     1       1.539  -3.019  -0.503  1.00  0.00    -0.331 N 
ATOM     10  C   UNL     1       1.853  -3.843  -1.663  1.00  0.00     0.086 C 
ATOM     11  C   UNL     1       2.600  -3.320   0.434  1.00  0.00     0.086 C 
ATOM     12  C   UNL     1       2.384  -5.167  -1.075  1.00  0.00     0.027 C 
ATOM     13  C   UNL     1       2.934  -3.085  -2.447  1.00  0.00     0.029 C 
ATOM     14  C   UNL     1       2.744  -4.834   0.373  1.00  0.00     0.027 C 
ATOM     15  C   UNL     1       3.863  -2.635  -0.084  1.00  0.00     0.029 C 
BRANCH   9  16
ATOM     16  C   UNL     1       0.217  -2.966  -0.067  1.00  0.00     0.280 C 
ATOM     17  O   UNL     1      -0.407  -4.000   0.172  1.00  0.00    -0.267 OA
BRANCH  16  18
ATOM     18  C   UNL     1      -0.398  -1.637  -0.045  1.00  0.00     0.216 A 
ATOM     19  C   UNL     1       0.139  -0.328   0.094  1.00  0.00     0.201 A 
ATOM     20  N   UNL     1      -0.836   0.570  -0.030  1.00  0.00    -0.032 NA
ATOM     21  O   UNL     1      -1.994  -0.165  -0.194  1.00  0.00    -0.242 OA
ATOM     22  N   UNL     1      -1.729  -1.523  -0.198  1.00  0.00    -0.042 NA
BRANCH  19  23
ATOM     23  N   UNL     1       1.409   0.032   0.345  1.00  0.00    -0.379 N 
ATOM     24  H   UNL     1       1.646   0.985   0.417  1.00  0.00     0.158 HD
ATOM     25  H   UNL     1       2.103  -0.657   0.458  1.00  0.00     0.158 HD
ENDBRANCH  19  23
ENDBRANCH  16  18
ENDBRANCH   9  16
ENDBRANCH   7   8
ENDBRANCH   4   7
ENDBRANCH   2   3
ENDBRANCH   1   2
BRANCH   1  26
ATOM     26  C   UNL     1       6.057  -0.031   2.909  1.00  0.00     0.023 C 
BRANCH  26  27
ATOM     27  C   UNL     1       5.671   1.298   3.524  1.00  0.00     0.116 C 
BRANCH  27  28
ATOM     28  N   UNL     1       4.328   1.318   4.092  1.00  0.00    -0.352 N 
ATOM     29  C   UNL     1       3.913   1.896   5.277  1.00  0.00     0.251 C 
ATOM     30  H   UNL     1       3.630   0.865   3.566  1.00  0.00     0.163 HD
ATOM     31  O   UNL     1       2.765   1.756   5.663  1.00  0.00    -0.269 OA
BRANCH  29  32
ATOM     32  C   UNL     1       4.913   2.628   6.085  1.00  0.00     0.039 A 
ATOM     33  C   UNL     1       5.054   2.318   7.439  1.00  0.00     0.014 A 
ATOM     34  C   UNL     1       5.787   3.524   5.468  1.00  0.00     0.014 A 
ATOM     35  C   UNL     1       6.138   2.839   8.150  1.00  0.00     0.010 A 
ATOM     36  C   UNL     1       6.926   3.939   6.141  1.00  0.00     0.010 A 
ATOM     37  C   UNL     1       7.110   3.611   7.493  1.00  0.00    -0.014 A 
BRANCH  37  38
ATOM     38  C   UNL     1       8.309   4.130   8.200  1.00  0.00     0.031 A 
ATOM     39  C   UNL     1       8.533   5.618   8.265  1.00  0.00     0.074 A 
ATOM     40  C   UNL     1       9.225   3.279   8.702  1.00  0.00     0.049 A 
ATOM     41  N   UNL     1       9.566   6.284   8.712  1.00  0.00    -0.248 NA
ATOM     42  C   UNL     1       7.471   6.466   7.700  1.00  0.00     0.031 C 
ATOM     43  C   UNL     1       9.146   1.816   8.649  1.00  0.00     0.029 A 
ATOM     44  N   UNL     1      10.409   3.520   9.352  1.00  0.00    -0.354 N 
ATOM     45  C   UNL     1       9.287   7.623   8.459  1.00  0.00     0.074 A 
ATOM     46  C   UNL     1       8.033   7.663   7.739  1.00  0.00     0.031 C 
ATOM     47  C   UNL     1      10.216   1.294   9.273  1.00  0.00     0.029 A 
ATOM     48  C   UNL     1      11.077   2.379   9.731  1.00  0.00     0.049 A 
ATOM     49  H   UNL     1      10.749   4.427   9.530  1.00  0.00     0.167 HD
ATOM     50  C   UNL     1       9.990   8.723   8.826  1.00  0.00     0.034 A 
ATOM     51  C   UNL     1      12.252   2.229  10.375  1.00  0.00     0.034 A 
ATOM     52  C   UNL     1      11.219   8.664   9.576  1.00  0.00     0.049 A 
ATOM     53  C   UNL     1      13.012   3.465  10.787  1.00  0.00     0.074 A 
ATOM     54  C   UNL     1      11.998   9.708  10.042  1.00  0.00     0.029 A 
ATOM     55  N   UNL     1      11.844   7.490   9.978  1.00  0.00    -0.354 N 
ATOM     56  N   UNL     1      12.716   4.727  10.575  1.00  0.00    -0.248 NA
ATOM     57  C   UNL     1      14.256   3.257  11.539  1.00  0.00     0.031 C 
ATOM     58  C   UNL     1      13.117   9.165  10.685  1.00  0.00     0.029 A 
ATOM     59  C   UNL     1      13.003   7.784  10.677  1.00  0.00     0.049 A 
ATOM     60  H   UNL     1      11.511   6.582   9.793  1.00  0.00     0.167 HD
ATOM     61  C   UNL     1      13.718   5.462  11.203  1.00  0.00     0.074 A 
ATOM     62  C   UNL     1      14.617   4.503  11.809  1.00  0.00     0.031 C 
ATOM     63  C   UNL     1      13.881   6.808  11.276  1.00  0.00     0.034 A 
BRANCH  50  64
ATOM     64  C   UNL     1       9.437  10.065   8.409  1.00  0.00     0.023 A 
ATOM     65  C   UNL     1       8.174  10.506   8.846  1.00  0.00     0.031 A 
ATOM     66  C   UNL     1      10.147  10.889   7.519  1.00  0.00     0.131 A 
ATOM     67  C   UNL     1       7.620  11.680   8.319  1.00  0.00     0.055 A 
ATOM     68  C   UNL     1       9.629  12.106   7.071  1.00  0.00     0.041 A 
ATOM     69  F   UNL     1      11.347  10.514   7.050  1.00  0.00    -0.206 F 
ATOM     70  C   UNL     1       8.349  12.499   7.455  1.00  0.00     0.022 A 
BRANCH  67  71
ATOM     71  S   UNL     1       5.871  12.031   8.648  1.00  0.00     0.124 S 
ATOM     72  O   UNL     1       5.222  10.865   8.053  1.00  0.00    -0.237 OA
ATOM     73  O   UNL     1       5.833  12.111  10.103  1.00  0.00    -0.237 OA
ATOM     74  O   UNL     1       5.637  13.292   7.946  1.00  0.00    -0.744 OA
ENDBRANCH  67  71
ENDBRANCH  50  64
BRANCH  51  75
ATOM     75  C   UNL     1      12.784   0.871  10.687  1.00  0.00     0.023 A 
ATOM     76  C   UNL     1      12.929   0.443  12.017  1.00  0.00     0.031 A 
ATOM     77  C   UNL     1      13.206   0.001   9.667  1.00  0.00     0.131 A 
ATOM     78  C   UNL     1      13.531  -0.793  12.295  1.00  0.00     0.055 A 
ATOM     79  C   UNL     1      13.757  -1.252   9.947  1.00  0.00     0.041 A 
ATOM     80  F   UNL     1      13.082   0.355   8.378  1.00  0.00    -0.206 F 
ATOM     81  C   UNL     1      13.937  -1.648  11.268  1.00  0.00     0.022 A 
BRANCH  78  82
ATOM     82  S   UNL     1      13.864  -1.227  14.025  1.00  0.00     0.124 S 
ATOM     83  O   UNL     1      14.678  -0.099  14.463  1.00  0.00    -0.237 OA
ATOM     84  O   UNL     1      12.517  -1.301  14.581  1.00  0.00    -0.237 OA
ATOM     85  O   UNL     1      14.566  -2.504  13.926  1.00  0.00    -0.744 OA
ENDBRANCH  78  82
ENDBRANCH  51  75
BRANCH  63  86
ATOM     86  C   UNL     1      15.045   7.310  12.093  1.00  0.00     0.023 A 
ATOM     87  C   UNL     1      16.375   7.110  11.688  1.00  0.00     0.031 A 
ATOM     88  C   UNL     1      14.813   7.989  13.302  1.00  0.00     0.131 A 
ATOM     89  C   UNL     1      17.426   7.532  12.514  1.00  0.00     0.055 A 
ATOM     90  C   UNL     1      15.862   8.459  14.092  1.00  0.00     0.041 A 
ATOM     91  F   UNL     1      13.560   8.207  13.734  1.00  0.00    -0.206 F 
ATOM     92  C   UNL     1      17.178   8.219  13.706  1.00  0.00     0.022 A 
BRANCH  89  93
ATOM     93  S   UNL     1      19.124   7.093  12.054  1.00  0.00     0.124 S 
ATOM     94  O   UNL     1      19.055   5.636  11.993  1.00  0.00    -0.237 OA
ATOM     95  O   UNL     1      19.287   7.777  10.776  1.00  0.00    -0.237 OA
ATOM     96  O   UNL     1      19.927   7.630  13.151  1.00  0.00    -0.744 OA
ENDBRANCH  89  93
ENDBRANCH  63  86
ENDBRANCH  37  38
ENDBRANCH  29  32
ENDBRANCH  27  28
ENDBRANCH  26  27
ENDBRANCH   1  26
TORSDOF 18
