REMARK SMILES CCC[C@]1(C(=O)NCCCCNC(=O)c2ccc(-c3c4nc(c(-c5cc(S(=O)(=O)[O-])ccc5F)c5ccc([nH]5)c(-c5cc(S(=O)(=O)[O-])ccc5F)c5nc(c(-c6cc(S(=O)(=O)[O-])ccc6F)c6ccc3[nH]6)C=C5)C=C4)cc2)CCN(C(=O)c2cccnc2C)C1
REMARK SMILES IDX 10 1 9 2 8 3 7 4 5 5 6 6 4 8 78 9 90 10 79 11 80 12 3 13
REMARK SMILES IDX 2 14 1 15 81 16 82 17 83 18 84 19 88 20 85 21 87 22 89 23
REMARK SMILES IDX 86 24 11 25 12 26 13 27 14 29 15 30 16 31 77 32 17 33 76 34
REMARK SMILES IDX 18 35 19 36 20 37 70 38 21 39 75 40 69 41 71 42 22 43 74 44
REMARK SMILES IDX 68 45 67 46 23 48 55 49 35 50 54 51 36 52 39 53 53 54 72 55
REMARK SMILES IDX 37 56 38 57 52 59 73 60 40 61 24 62 25 63 33 64 26 65 32 66
REMARK SMILES IDX 34 67 31 68 27 69 28 70 29 71 30 72 56 73 57 74 65 75 58 76
REMARK SMILES IDX 64 77 66 78 63 79 59 80 60 81 61 82 62 83 41 84 42 85 50 86
REMARK SMILES IDX 43 87 49 88 51 89 48 90 44 91 45 92 46 93 47 94
REMARK H PARENT 7 7 12 28 71 47 39 58
REMARK Flexibility Score: inf
ROOT
ATOM      1  C   UNL     1      -3.117   1.667  -4.630  1.00  0.00     0.023 C 
ENDROOT
BRANCH   1   2
ATOM      2  C   UNL     1      -1.615   1.842  -4.410  1.00  0.00     0.023 C 
BRANCH   2   3
ATOM      3  C   UNL     1      -1.235   3.030  -3.531  1.00  0.00     0.116 C 
BRANCH   3   4
ATOM      4  N   UNL     1      -1.632   2.835  -2.153  1.00  0.00    -0.356 N 
ATOM      5  C   UNL     1      -0.918   2.662  -1.011  1.00  0.00     0.228 C 
ATOM      6  O   UNL     1      -1.589   2.675   0.026  1.00  0.00    -0.274 OA
ATOM      7  H   UNL     1      -2.607   2.826  -2.017  1.00  0.00     0.163 HD
BRANCH   5   8
ATOM      8  C   UNL     1       0.620   2.529  -0.969  1.00  0.00     0.068 C 
ATOM      9  C   UNL     1       1.240   1.474  -1.918  1.00  0.00     0.040 C 
ATOM     10  C   UNL     1       1.233   3.865  -1.498  1.00  0.00     0.136 C 
ATOM     11  C   UNL     1       2.558   2.091  -2.356  1.00  0.00     0.121 C 
ATOM     12  N   UNL     1       2.201   3.478  -2.523  1.00  0.00    -0.337 N 
BRANCH   8  13
ATOM     13  C   UNL     1       1.107   2.297   0.501  1.00  0.00     0.018 C 
BRANCH  13  14
ATOM     14  C   UNL     1       0.559   1.108   1.321  1.00  0.00    -0.002 C 
ATOM     15  C   UNL     1       0.794  -0.285   0.768  1.00  0.00     0.004 C 
ENDBRANCH  13  14
ENDBRANCH   8  13
BRANCH  12  16
ATOM     16  C   UNL     1       2.621   4.363  -3.497  1.00  0.00     0.255 C 
ATOM     17  O   UNL     1       2.260   5.536  -3.537  1.00  0.00    -0.269 OA
BRANCH  16  18
ATOM     18  C   UNL     1       3.586   3.904  -4.517  1.00  0.00     0.061 A 
ATOM     19  C   UNL     1       4.858   4.484  -4.500  1.00  0.00     0.017 A 
ATOM     20  C   UNL     1       3.282   2.988  -5.528  1.00  0.00     0.050 A 
ATOM     21  C   UNL     1       5.806   4.089  -5.437  1.00  0.00     0.021 A 
ATOM     22  N   UNL     1       4.219   2.564  -6.421  1.00  0.00    -0.261 NA
ATOM     23  C   UNL     1       1.922   2.389  -5.717  1.00  0.00     0.067 C 
ATOM     24  C   UNL     1       5.447   3.122  -6.359  1.00  0.00     0.111 A 
ENDBRANCH  16  18
ENDBRANCH  12  16
ENDBRANCH   5   8
ENDBRANCH   3   4
ENDBRANCH   2   3
ENDBRANCH   1   2
BRANCH   1  25
ATOM     25  C   UNL     1      -3.836   2.883  -5.203  1.00  0.00     0.116 C 
BRANCH  25  26
ATOM     26  N   UNL     1      -3.252   3.356  -6.449  1.00  0.00    -0.352 N 
ATOM     27  C   UNL     1      -3.885   3.744  -7.608  1.00  0.00     0.251 C 
ATOM     28  H   UNL     1      -2.269   3.406  -6.465  1.00  0.00     0.163 HD
ATOM     29  O   UNL     1      -3.229   3.986  -8.611  1.00  0.00    -0.269 OA
BRANCH  27  30
ATOM     30  C   UNL     1      -5.362   3.825  -7.633  1.00  0.00     0.039 A 
ATOM     31  C   UNL     1      -6.052   3.226  -8.688  1.00  0.00     0.014 A 
ATOM     32  C   UNL     1      -6.060   4.457  -6.599  1.00  0.00     0.014 A 
ATOM     33  C   UNL     1      -7.448   3.195  -8.668  1.00  0.00     0.010 A 
ATOM     34  C   UNL     1      -7.446   4.359  -6.544  1.00  0.00     0.010 A 
ATOM     35  C   UNL     1      -8.155   3.724  -7.575  1.00  0.00    -0.014 A 
BRANCH  35  36
ATOM     36  C   UNL     1      -9.635   3.620  -7.491  1.00  0.00     0.031 A 
ATOM     37  C   UNL     1     -10.477   4.866  -7.489  1.00  0.00     0.074 A 
ATOM     38  C   UNL     1     -10.211   2.410  -7.347  1.00  0.00     0.049 A 
ATOM     39  N   UNL     1     -11.771   4.990  -7.342  1.00  0.00    -0.248 NA
ATOM     40  C   UNL     1      -9.764   6.143  -7.639  1.00  0.00     0.031 C 
ATOM     41  C   UNL     1      -9.494   1.134  -7.292  1.00  0.00     0.029 A 
ATOM     42  N   UNL     1     -11.529   2.054  -7.211  1.00  0.00    -0.354 N 
ATOM     43  C   UNL     1     -12.025   6.358  -7.364  1.00  0.00     0.074 A 
ATOM     44  C   UNL     1     -10.743   7.020  -7.479  1.00  0.00     0.031 C 
ATOM     45  C   UNL     1     -10.383   0.135  -7.162  1.00  0.00     0.029 A 
ATOM     46  C   UNL     1     -11.726   0.699  -7.077  1.00  0.00     0.049 A 
ATOM     47  H   UNL     1     -12.266   2.707  -7.210  1.00  0.00     0.167 HD
ATOM     48  C   UNL     1     -13.219   6.999  -7.314  1.00  0.00     0.034 A 
ATOM     49  C   UNL     1     -12.859  -0.009  -6.895  1.00  0.00     0.034 A 
ATOM     50  C   UNL     1     -14.489   6.321  -7.218  1.00  0.00     0.049 A 
ATOM     51  C   UNL     1     -14.173   0.727  -6.828  1.00  0.00     0.074 A 
ATOM     52  C   UNL     1     -15.761   6.867  -7.226  1.00  0.00     0.029 A 
ATOM     53  N   UNL     1     -14.650   4.947  -7.085  1.00  0.00    -0.354 N 
ATOM     54  N   UNL     1     -14.402   2.018  -6.903  1.00  0.00    -0.248 NA
ATOM     55  C   UNL     1     -15.381  -0.091  -6.663  1.00  0.00     0.031 C 
ATOM     56  C   UNL     1     -16.684   5.834  -7.030  1.00  0.00     0.029 A 
ATOM     57  C   UNL     1     -15.996   4.632  -6.979  1.00  0.00     0.049 A 
ATOM     58  H   UNL     1     -13.915   4.292  -7.070  1.00  0.00     0.167 HD
ATOM     59  C   UNL     1     -15.784   2.163  -6.825  1.00  0.00     0.074 A 
ATOM     60  C   UNL     1     -16.335   0.827  -6.711  1.00  0.00     0.031 C 
ATOM     61  C   UNL     1     -16.531   3.296  -6.852  1.00  0.00     0.034 A 
BRANCH  48  62
ATOM     62  C   UNL     1     -13.199   8.509  -7.337  1.00  0.00     0.023 A 
ATOM     63  C   UNL     1     -12.697   9.227  -8.437  1.00  0.00     0.031 A 
ATOM     64  C   UNL     1     -13.665   9.243  -6.231  1.00  0.00     0.131 A 
ATOM     65  C   UNL     1     -12.601  10.626  -8.377  1.00  0.00     0.055 A 
ATOM     66  C   UNL     1     -13.644  10.639  -6.212  1.00  0.00     0.041 A 
ATOM     67  F   UNL     1     -14.137   8.614  -5.143  1.00  0.00    -0.206 F 
ATOM     68  C   UNL     1     -13.095  11.339  -7.282  1.00  0.00     0.022 A 
BRANCH  65  69
ATOM     69  S   UNL     1     -11.690  11.488  -9.687  1.00  0.00     0.124 S 
ATOM     70  O   UNL     1     -10.370  10.869  -9.584  1.00  0.00    -0.237 OA
ATOM     71  O   UNL     1     -12.461  11.155 -10.879  1.00  0.00    -0.237 OA
ATOM     72  O   UNL     1     -11.745  12.890  -9.278  1.00  0.00    -0.744 OA
ENDBRANCH  65  69
ENDBRANCH  48  62
BRANCH  49  73
ATOM     73  C   UNL     1     -12.808  -1.493  -6.757  1.00  0.00     0.023 A 
ATOM     74  C   UNL     1     -13.394  -2.328  -7.722  1.00  0.00     0.031 A 
ATOM     75  C   UNL     1     -12.203  -2.097  -5.641  1.00  0.00     0.131 A 
ATOM     76  C   UNL     1     -13.401  -3.718  -7.532  1.00  0.00     0.055 A 
ATOM     77  C   UNL     1     -12.168  -3.484  -5.482  1.00  0.00     0.041 A 
ATOM     78  F   UNL     1     -11.623  -1.345  -4.692  1.00  0.00    -0.206 F 
ATOM     79  C   UNL     1     -12.780  -4.303  -6.426  1.00  0.00     0.022 A 
BRANCH  76  80
ATOM     80  S   UNL     1     -14.301  -4.752  -8.720  1.00  0.00     0.124 S 
ATOM     81  O   UNL     1     -15.652  -4.215  -8.617  1.00  0.00    -0.237 OA
ATOM     82  O   UNL     1     -13.591  -4.472  -9.964  1.00  0.00    -0.237 OA
ATOM     83  O   UNL     1     -14.124  -6.105  -8.196  1.00  0.00    -0.744 OA
ENDBRANCH  76  80
ENDBRANCH  49  73
BRANCH  61  84
ATOM     84  C   UNL     1     -18.030   3.130  -6.801  1.00  0.00     0.023 A 
ATOM     85  C   UNL     1     -18.684   2.637  -5.659  1.00  0.00     0.031 A 
ATOM     86  C   UNL     1     -18.814   3.463  -7.920  1.00  0.00     0.131 A 
ATOM     87  C   UNL     1     -20.073   2.439  -5.679  1.00  0.00     0.055 A 
ATOM     88  C   UNL     1     -20.203   3.322  -7.914  1.00  0.00     0.041 A 
ATOM     89  F   UNL     1     -18.242   3.935  -9.040  1.00  0.00    -0.206 F 
ATOM     90  C   UNL     1     -20.838   2.795  -6.793  1.00  0.00     0.022 A 
BRANCH  87  91
ATOM     91  S   UNL     1     -20.858   1.624  -4.262  1.00  0.00     0.124 S 
ATOM     92  O   UNL     1     -20.154   0.347  -4.218  1.00  0.00    -0.237 OA
ATOM     93  O   UNL     1     -20.571   2.549  -3.171  1.00  0.00    -0.237 OA
ATOM     94  O   UNL     1     -22.266   1.542  -4.650  1.00  0.00    -0.744 OA
ENDBRANCH  87  91
ENDBRANCH  61  84
ENDBRANCH  35  36
ENDBRANCH  27  30
ENDBRANCH  25  26
ENDBRANCH   1  25
TORSDOF 18
