REMARK SMILES Cc1cc(C[N@@H+]2C[C@H](C)[C@H](C(=O)NCCCCNC(=O)c3ccc(-c4c5nc(c(-c6cc(S(=O)(=O)[O-])ccc6F)c6ccc([nH]6)c(-c6cc(S(=O)(=O)[O-])ccc6F)c6nc(c(-c7cc(S(=O)(=O)[O-])ccc7F)c7ccc4[nH]7)C=C6)C=C5)cc3)C2)ccc1Br
REMARK SMILES IDX 16 1 15 2 14 3 13 4 11 5 12 6 10 8 6 9 7 10 84 11 8 13 9 14
REMARK SMILES IDX 5 15 4 16 1 17 2 18 3 19 87 20 86 21 88 22 85 23 17 24 18 25
REMARK SMILES IDX 19 26 20 28 21 29 22 30 83 31 23 32 82 33 24 34 25 35 26 36
REMARK SMILES IDX 76 37 27 38 81 39 75 40 77 41 28 42 80 43 74 44 73 45 29 47
REMARK SMILES IDX 61 48 41 49 60 50 42 51 45 52 59 53 78 54 43 55 44 56 58 58
REMARK SMILES IDX 79 59 46 60 30 61 31 62 39 63 32 64 38 65 40 66 37 67 33 68
REMARK SMILES IDX 34 69 35 70 36 71 62 72 63 73 71 74 64 75 70 76 72 77 69 78
REMARK SMILES IDX 65 79 66 80 67 81 68 82 47 83 48 84 56 85 49 86 55 87 57 88
REMARK SMILES IDX 54 89 50 90 51 91 52 92 53 93
REMARK H PARENT 13 7 6 12 18 27 77 46 45 57
REMARK Flexibility Score: inf
ROOT
ATOM      1  C   UNL     1      -1.064   0.198  -3.453  1.00  0.00     0.023 C 
ENDROOT
BRANCH   1   2
ATOM      2  C   UNL     1       0.109   0.747  -2.648  1.00  0.00     0.023 C 
BRANCH   2   3
ATOM      3  C   UNL     1       1.444   0.038  -2.858  1.00  0.00     0.116 C 
BRANCH   3   4
ATOM      4  N   UNL     1       2.083   0.408  -4.107  1.00  0.00    -0.356 N 
ATOM      5  C   UNL     1       3.291   0.966  -4.375  1.00  0.00     0.229 C 
ATOM      6  O   UNL     1       3.541   1.192  -5.566  1.00  0.00    -0.275 OA
ATOM      7  H   UNL     1       1.540   0.219  -4.907  1.00  0.00     0.163 HD
BRANCH   5   8
ATOM      8  C   UNL     1       4.317   1.360  -3.318  1.00  0.00     0.142 C 
ATOM      9  N   UNL     1       5.124   1.060  -1.104  1.00  0.00    -0.330 N 
ATOM     10  C   UNL     1       4.933   2.489  -1.290  1.00  0.00     0.266 C 
ATOM     11  C   UNL     1       4.703   0.311  -2.282  1.00  0.00     0.276 C 
ATOM     12  H   UNL     1       6.134   0.932  -1.046  1.00  0.00     0.348 HD
ATOM     13  C   UNL     1       4.105   2.676  -2.562  1.00  0.00     0.059 C 
ATOM     14  C   UNL     1       2.675   3.087  -2.244  1.00  0.00     0.015 C 
BRANCH   9  15
ATOM     15  C   UNL     1       4.853   0.487   0.207  1.00  0.00     0.299 C 
BRANCH  15  16
ATOM     16  C   UNL     1       3.398   0.320   0.597  1.00  0.00     0.007 A 
ATOM     17  C   UNL     1       0.852  -2.514   0.739  1.00  0.00     0.045 C 
ATOM     18  C   UNL     1       1.429  -1.131   0.880  1.00  0.00    -0.036 A 
ATOM     19  C   UNL     1       2.775  -0.938   0.509  1.00  0.00     0.014 A 
ATOM     20  C   UNL     1       0.695  -0.019   1.314  1.00  0.00     0.020 A 
ATOM     21  C   UNL     1       1.305   1.234   1.418  1.00  0.00     0.016 A 
ATOM     22  Br  UNL     1      -1.143  -0.109   1.775  1.00  0.00    -0.051 Br
ATOM     23  C   UNL     1       2.648   1.398   1.079  1.00  0.00     0.011 A 
ENDBRANCH  15  16
ENDBRANCH   9  15
ENDBRANCH   5   8
ENDBRANCH   3   4
ENDBRANCH   2   3
ENDBRANCH   1   2
BRANCH   1  24
ATOM     24  C   UNL     1      -1.403  -1.268  -3.215  1.00  0.00     0.116 C 
BRANCH  24  25
ATOM     25  N   UNL     1      -1.617  -1.618  -1.818  1.00  0.00    -0.352 N 
ATOM     26  C   UNL     1      -2.469  -2.564  -1.294  1.00  0.00     0.251 C 
ATOM     27  H   UNL     1      -1.083  -1.113  -1.163  1.00  0.00     0.163 HD
ATOM     28  O   UNL     1      -2.521  -2.761  -0.084  1.00  0.00    -0.269 OA
BRANCH  26  29
ATOM     29  C   UNL     1      -3.370  -3.297  -2.202  1.00  0.00     0.039 A 
ATOM     30  C   UNL     1      -4.745  -3.253  -1.954  1.00  0.00     0.014 A 
ATOM     31  C   UNL     1      -2.870  -3.932  -3.341  1.00  0.00     0.014 A 
ATOM     32  C   UNL     1      -5.630  -3.756  -2.907  1.00  0.00     0.010 A 
ATOM     33  C   UNL     1      -3.755  -4.366  -4.320  1.00  0.00     0.010 A 
ATOM     34  C   UNL     1      -5.141  -4.261  -4.121  1.00  0.00    -0.014 A 
BRANCH  34  35
ATOM     35  C   UNL     1      -6.056  -4.662  -5.217  1.00  0.00     0.031 A 
ATOM     36  C   UNL     1      -6.087  -6.091  -5.672  1.00  0.00     0.074 A 
ATOM     37  C   UNL     1      -6.768  -3.719  -5.864  1.00  0.00     0.049 A 
ATOM     38  N   UNL     1      -6.685  -6.620  -6.707  1.00  0.00    -0.248 NA
ATOM     39  C   UNL     1      -5.301  -7.045  -4.875  1.00  0.00     0.031 C 
ATOM     40  C   UNL     1      -6.775  -2.289  -5.539  1.00  0.00     0.029 A 
ATOM     41  N   UNL     1      -7.608  -3.814  -6.944  1.00  0.00    -0.354 N 
ATOM     42  C   UNL     1      -6.324  -7.962  -6.705  1.00  0.00     0.074 A 
ATOM     43  C   UNL     1      -5.416  -8.151  -5.593  1.00  0.00     0.031 C 
ATOM     44  C   UNL     1      -7.590  -1.647  -6.392  1.00  0.00     0.029 A 
ATOM     45  C   UNL     1      -8.128  -2.607  -7.349  1.00  0.00     0.049 A 
ATOM     46  H   UNL     1      -7.819  -4.668  -7.388  1.00  0.00     0.167 HD
ATOM     47  C   UNL     1      -6.727  -8.947  -7.545  1.00  0.00     0.034 A 
ATOM     48  C   UNL     1      -8.934  -2.308  -8.386  1.00  0.00     0.034 A 
ATOM     49  C   UNL     1      -7.652  -8.740  -8.632  1.00  0.00     0.049 A 
ATOM     50  C   UNL     1      -9.390  -3.421  -9.291  1.00  0.00     0.074 A 
ATOM     51  C   UNL     1      -8.170  -9.668  -9.518  1.00  0.00     0.029 A 
ATOM     52  N   UNL     1      -8.199  -7.510  -8.980  1.00  0.00    -0.354 N 
ATOM     53  N   UNL     1      -9.066  -4.693  -9.259  1.00  0.00    -0.248 NA
ATOM     54  C   UNL     1     -10.324  -3.061 -10.366  1.00  0.00     0.031 C 
ATOM     55  C   UNL     1      -8.997  -8.994 -10.425  1.00  0.00     0.029 A 
ATOM     56  C   UNL     1      -9.037  -7.654 -10.074  1.00  0.00     0.049 A 
ATOM     57  H   UNL     1      -8.017  -6.661  -8.517  1.00  0.00     0.167 HD
ATOM     58  C   UNL     1      -9.777  -5.290 -10.294  1.00  0.00     0.074 A 
ATOM     59  C   UNL     1     -10.552  -4.240 -10.926  1.00  0.00     0.031 C 
ATOM     60  C   UNL     1      -9.795  -6.589 -10.685  1.00  0.00     0.034 A 
BRANCH  47  61
ATOM     61  C   UNL     1      -6.138 -10.319  -7.326  1.00  0.00     0.023 A 
ATOM     62  C   UNL     1      -6.365 -11.035  -6.138  1.00  0.00     0.031 A 
ATOM     63  C   UNL     1      -5.284 -10.890  -8.285  1.00  0.00     0.131 A 
ATOM     64  C   UNL     1      -5.675 -12.233  -5.899  1.00  0.00     0.055 A 
ATOM     65  C   UNL     1      -4.667 -12.126  -8.078  1.00  0.00     0.041 A 
ATOM     66  F   UNL     1      -5.013 -10.244  -9.430  1.00  0.00    -0.206 F 
ATOM     67  C   UNL     1      -4.846 -12.796  -6.871  1.00  0.00     0.022 A 
BRANCH  64  68
ATOM     68  S   UNL     1      -5.754 -12.958  -4.238  1.00  0.00     0.124 S 
ATOM     69  O   UNL     1      -5.183 -11.888  -3.424  1.00  0.00    -0.237 OA
ATOM     70  O   UNL     1      -7.182 -13.200  -4.066  1.00  0.00    -0.237 OA
ATOM     71  O   UNL     1      -4.927 -14.157  -4.348  1.00  0.00    -0.744 OA
ENDBRANCH  64  68
ENDBRANCH  47  61
BRANCH  48  72
ATOM     72  C   UNL     1      -9.355  -0.901  -8.632  1.00  0.00     0.023 A 
ATOM     73  C   UNL     1     -10.689  -0.506  -8.449  1.00  0.00     0.031 A 
ATOM     74  C   UNL     1      -8.433   0.064  -9.074  1.00  0.00     0.131 A 
ATOM     75  C   UNL     1     -11.075   0.811  -8.743  1.00  0.00     0.055 A 
ATOM     76  C   UNL     1      -8.813   1.383  -9.328  1.00  0.00     0.041 A 
ATOM     77  F   UNL     1      -7.143  -0.261  -9.251  1.00  0.00    -0.206 F 
ATOM     78  C   UNL     1     -10.144   1.760  -9.173  1.00  0.00     0.022 A 
BRANCH  75  79
ATOM     79  S   UNL     1     -12.829   1.251  -8.614  1.00  0.00     0.124 S 
ATOM     80  O   UNL     1     -13.444   0.302  -9.536  1.00  0.00    -0.237 OA
ATOM     81  O   UNL     1     -13.092   1.031  -7.196  1.00  0.00    -0.237 OA
ATOM     82  O   UNL     1     -12.862   2.648  -9.042  1.00  0.00    -0.744 OA
ENDBRANCH  75  79
ENDBRANCH  48  72
BRANCH  60  83
ATOM     83  C   UNL     1     -10.720  -6.942 -11.818  1.00  0.00     0.023 A 
ATOM     84  C   UNL     1     -10.445  -6.557 -13.141  1.00  0.00     0.031 A 
ATOM     85  C   UNL     1     -11.895  -7.669 -11.563  1.00  0.00     0.131 A 
ATOM     86  C   UNL     1     -11.359  -6.868 -14.159  1.00  0.00     0.055 A 
ATOM     87  C   UNL     1     -12.778  -8.014 -12.586  1.00  0.00     0.041 A 
ATOM     88  F   UNL     1     -12.200  -8.058 -10.315  1.00  0.00    -0.206 F 
ATOM     89  C   UNL     1     -12.517  -7.605 -13.892  1.00  0.00     0.022 A 
BRANCH  86  90
ATOM     90  S   UNL     1     -11.042  -6.248 -15.833  1.00  0.00     0.124 S 
ATOM     91  O   UNL     1     -11.072  -4.803 -15.633  1.00  0.00    -0.237 OA
ATOM     92  O   UNL     1      -9.736  -6.823 -16.139  1.00  0.00    -0.237 OA
ATOM     93  O   UNL     1     -12.153  -6.789 -16.615  1.00  0.00    -0.744 OA
ENDBRANCH  86  90
ENDBRANCH  60  83
ENDBRANCH  34  35
ENDBRANCH  26  29
ENDBRANCH  24  25
ENDBRANCH   1  24
TORSDOF 16
