REMARK SMILES C[C@H](C(=O)NCCCCNC(=O)c1ccc(-c2c3nc(c(-c4cc(S(=O)(=O)[O-])ccc4F)c4ccc([nH]4)c(-c4cc(S(=O)(=O)[O-])ccc4F)c4nc(c(-c5cc(S(=O)(=O)[O-])ccc5F)c5ccc2[nH]5)C=C4)C=C3)cc1)[C@@H](C)[N@@H+](C)C[C@H]1C[C@H](O)C1
REMARK SMILES IDX 6 1 5 2 3 3 4 4 2 6 1 7 76 8 77 9 78 10 79 11 80 13 81 14
REMARK SMILES IDX 85 15 82 16 83 17 84 18 7 20 8 21 9 22 10 23 11 24 12 26
REMARK SMILES IDX 13 27 14 28 75 29 15 30 74 31 16 32 17 33 18 34 68 35 19 36
REMARK SMILES IDX 73 37 67 38 69 39 20 40 72 41 66 42 65 43 21 45 53 46 33 47
REMARK SMILES IDX 52 48 34 49 37 50 51 51 70 52 35 53 36 54 50 56 71 57 38 58
REMARK SMILES IDX 22 59 23 60 31 61 24 62 30 63 32 64 29 65 25 66 26 67 27 68
REMARK SMILES IDX 28 69 54 70 55 71 63 72 56 73 62 74 64 75 61 76 57 77 58 78
REMARK SMILES IDX 59 79 60 80 39 81 40 82 48 83 41 84 47 85 49 86 46 87 42 88
REMARK SMILES IDX 43 89 44 90 45 91
REMARK H PARENT 5 5 78 12 84 19 10 25 69 44 37 55
REMARK Flexibility Score: inf
ROOT
ATOM      1  C   UNL     1      -0.247  -1.166  -1.534  1.00  0.00     0.116 C 
ENDROOT
BRANCH   1   2
ATOM      2  N   UNL     1       0.296   0.125  -1.166  1.00  0.00    -0.356 N 
ATOM      3  C   UNL     1       0.476   0.669   0.076  1.00  0.00     0.228 C 
ATOM      4  O   UNL     1       0.860   1.839   0.135  1.00  0.00    -0.275 OA
ATOM      5  H   UNL     1       0.577   0.693  -1.919  1.00  0.00     0.163 HD
BRANCH   3   6
ATOM      6  C   UNL     1       0.233  -0.175   1.340  1.00  0.00     0.133 C 
ATOM      7  C   UNL     1       1.195   0.337   2.431  1.00  0.00     0.024 C 
BRANCH   6   8
ATOM      8  C   UNL     1      -1.237  -0.144   1.874  1.00  0.00     0.192 C 
ATOM      9  C   UNL     1      -2.321  -0.156   0.793  1.00  0.00     0.076 C 
BRANCH   8  10
ATOM     10  N   UNL     1      -1.544  -1.087   2.979  1.00  0.00    -0.334 N 
ATOM     11  C   UNL     1      -2.933  -1.089   3.425  1.00  0.00     0.332 C 
ATOM     12  H   UNL     1      -0.975  -0.596   3.669  1.00  0.00     0.348 HD
BRANCH  10  13
ATOM     13  C   UNL     1      -0.889  -2.393   3.090  1.00  0.00     0.265 C 
BRANCH  13  14
ATOM     14  C   UNL     1      -1.439  -3.534   2.232  1.00  0.00     0.049 C 
ATOM     15  C   UNL     1      -0.854  -4.915   2.648  1.00  0.00     0.041 C 
ATOM     16  C   UNL     1      -0.836  -3.800   0.830  1.00  0.00     0.041 C 
ATOM     17  C   UNL     1      -0.772  -5.300   1.162  1.00  0.00     0.115 C 
BRANCH  17  18
ATOM     18  O   UNL     1      -1.831  -6.126   0.647  1.00  0.00    -0.393 OA
ATOM     19  H   UNL     1      -2.688  -5.735   0.880  1.00  0.00     0.210 HD
ENDBRANCH  17  18
ENDBRANCH  13  14
ENDBRANCH  10  13
ENDBRANCH   8  10
ENDBRANCH   6   8
ENDBRANCH   3   6
ENDBRANCH   1   2
BRANCH   1  20
ATOM     20  C   UNL     1      -1.595  -1.037  -2.246  1.00  0.00     0.023 C 
BRANCH  20  21
ATOM     21  C   UNL     1      -1.503  -0.992  -3.760  1.00  0.00     0.023 C 
BRANCH  21  22
ATOM     22  C   UNL     1      -1.027  -2.289  -4.388  1.00  0.00     0.116 C 
BRANCH  22  23
ATOM     23  N   UNL     1      -1.911  -3.419  -4.130  1.00  0.00    -0.352 N 
ATOM     24  C   UNL     1      -2.409  -4.339  -5.025  1.00  0.00     0.251 C 
ATOM     25  H   UNL     1      -2.188  -3.541  -3.193  1.00  0.00     0.163 HD
ATOM     26  O   UNL     1      -3.252  -5.154  -4.665  1.00  0.00    -0.269 OA
BRANCH  24  27
ATOM     27  C   UNL     1      -1.945  -4.295  -6.428  1.00  0.00     0.039 A 
ATOM     28  C   UNL     1      -2.880  -4.372  -7.462  1.00  0.00     0.014 A 
ATOM     29  C   UNL     1      -0.592  -4.101  -6.712  1.00  0.00     0.014 A 
ATOM     30  C   UNL     1      -2.458  -4.186  -8.780  1.00  0.00     0.010 A 
ATOM     31  C   UNL     1      -0.199  -3.789  -8.005  1.00  0.00     0.010 A 
ATOM     32  C   UNL     1      -1.121  -3.859  -9.059  1.00  0.00    -0.014 A 
BRANCH  32  33
ATOM     33  C   UNL     1      -0.645  -3.656 -10.451  1.00  0.00     0.031 A 
ATOM     34  C   UNL     1       0.430  -4.559 -11.001  1.00  0.00     0.074 A 
ATOM     35  C   UNL     1      -1.129  -2.640 -11.192  1.00  0.00     0.049 A 
ATOM     36  N   UNL     1       1.032  -4.524 -12.161  1.00  0.00    -0.248 NA
ATOM     37  C   UNL     1       0.932  -5.612 -10.102  1.00  0.00     0.031 C 
ATOM     38  C   UNL     1      -2.121  -1.660 -10.743  1.00  0.00     0.029 A 
ATOM     39  N   UNL     1      -0.855  -2.263 -12.482  1.00  0.00    -0.354 N 
ATOM     40  C   UNL     1       1.999  -5.524 -12.115  1.00  0.00     0.074 A 
ATOM     41  C   UNL     1       1.962  -6.084 -10.784  1.00  0.00     0.031 C 
ATOM     42  C   UNL     1      -2.406  -0.825 -11.757  1.00  0.00     0.029 A 
ATOM     43  C   UNL     1      -1.593  -1.185 -12.914  1.00  0.00     0.049 A 
ATOM     44  H   UNL     1      -0.190  -2.721 -13.046  1.00  0.00     0.167 HD
ATOM     45  C   UNL     1       2.816  -5.964 -13.104  1.00  0.00     0.034 A 
ATOM     46  C   UNL     1      -1.616  -0.569 -14.112  1.00  0.00     0.034 A 
ATOM     47  C   UNL     1       2.803  -5.421 -14.439  1.00  0.00     0.049 A 
ATOM     48  C   UNL     1      -0.729  -1.099 -15.211  1.00  0.00     0.074 A 
ATOM     49  C   UNL     1       3.531  -5.824 -15.543  1.00  0.00     0.029 A 
ATOM     50  N   UNL     1       2.011  -4.355 -14.851  1.00  0.00    -0.354 N 
ATOM     51  N   UNL     1       0.135  -2.089 -15.173  1.00  0.00    -0.248 NA
ATOM     52  C   UNL     1      -0.838  -0.444 -16.520  1.00  0.00     0.031 C 
ATOM     53  C   UNL     1       3.223  -4.968 -16.607  1.00  0.00     0.029 A 
ATOM     54  C   UNL     1       2.247  -4.077 -16.188  1.00  0.00     0.049 A 
ATOM     55  H   UNL     1       1.376  -3.869 -14.277  1.00  0.00     0.167 HD
ATOM     56  C   UNL     1       0.641  -2.199 -16.466  1.00  0.00     0.074 A 
ATOM     57  C   UNL     1      -0.026  -1.185 -17.258  1.00  0.00     0.031 C 
ATOM     58  C   UNL     1       1.568  -3.061 -16.958  1.00  0.00     0.034 A 
BRANCH  45  59
ATOM     59  C   UNL     1       3.788  -7.069 -12.761  1.00  0.00     0.023 A 
ATOM     60  C   UNL     1       3.349  -8.330 -12.315  1.00  0.00     0.031 A 
ATOM     61  C   UNL     1       5.174  -6.845 -12.825  1.00  0.00     0.131 A 
ATOM     62  C   UNL     1       4.278  -9.277 -11.858  1.00  0.00     0.055 A 
ATOM     63  C   UNL     1       6.097  -7.827 -12.459  1.00  0.00     0.041 A 
ATOM     64  F   UNL     1       5.657  -5.657 -13.221  1.00  0.00    -0.206 F 
ATOM     65  C   UNL     1       5.651  -9.045 -11.953  1.00  0.00     0.022 A 
BRANCH  62  66
ATOM     66  S   UNL     1       3.661 -10.741 -10.983  1.00  0.00     0.124 S 
ATOM     67  O   UNL     1       2.950 -10.133  -9.860  1.00  0.00    -0.237 OA
ATOM     68  O   UNL     1       2.829 -11.385 -11.992  1.00  0.00    -0.237 OA
ATOM     69  O   UNL     1       4.879 -11.464 -10.623  1.00  0.00    -0.744 OA
ENDBRANCH  62  66
ENDBRANCH  45  59
BRANCH  46  70
ATOM     70  C   UNL     1      -2.524   0.589 -14.356  1.00  0.00     0.023 A 
ATOM     71  C   UNL     1      -3.575   0.497 -15.283  1.00  0.00     0.031 A 
ATOM     72  C   UNL     1      -2.330   1.817 -13.701  1.00  0.00     0.131 A 
ATOM     73  C   UNL     1      -4.358   1.626 -15.570  1.00  0.00     0.055 A 
ATOM     74  C   UNL     1      -3.145   2.924 -13.952  1.00  0.00     0.041 A 
ATOM     75  F   UNL     1      -1.347   1.957 -12.797  1.00  0.00    -0.206 F 
ATOM     76  C   UNL     1      -4.157   2.836 -14.903  1.00  0.00     0.022 A 
BRANCH  73  77
ATOM     77  S   UNL     1      -5.591   1.514 -16.896  1.00  0.00     0.124 S 
ATOM     78  O   UNL     1      -4.768   1.127 -18.036  1.00  0.00    -0.237 OA
ATOM     79  O   UNL     1      -6.496   0.491 -16.381  1.00  0.00    -0.237 OA
ATOM     80  O   UNL     1      -6.149   2.863 -16.957  1.00  0.00    -0.744 OA
ENDBRANCH  73  77
ENDBRANCH  46  70
BRANCH  58  81
ATOM     81  C   UNL     1       1.862  -2.977 -18.436  1.00  0.00     0.023 A 
ATOM     82  C   UNL     1       2.468  -1.845 -19.008  1.00  0.00     0.031 A 
ATOM     83  C   UNL     1       1.506  -4.040 -19.285  1.00  0.00     0.131 A 
ATOM     84  C   UNL     1       2.635  -1.773 -20.399  1.00  0.00     0.055 A 
ATOM     85  C   UNL     1       1.737  -3.990 -20.660  1.00  0.00     0.041 A 
ATOM     86  F   UNL     1       0.924  -5.144 -18.791  1.00  0.00    -0.206 F 
ATOM     87  C   UNL     1       2.289  -2.845 -21.226  1.00  0.00     0.022 A 
BRANCH  84  88
ATOM     88  S   UNL     1       3.205  -0.212 -21.124  1.00  0.00     0.124 S 
ATOM     89  O   UNL     1       2.218   0.737 -20.618  1.00  0.00    -0.237 OA
ATOM     90  O   UNL     1       4.551  -0.086 -20.573  1.00  0.00    -0.237 OA
ATOM     91  O   UNL     1       3.146  -0.460 -22.563  1.00  0.00    -0.744 OA
ENDBRANCH  84  88
ENDBRANCH  58  81
ENDBRANCH  32  33
ENDBRANCH  24  27
ENDBRANCH  22  23
ENDBRANCH  21  22
ENDBRANCH  20  21
ENDBRANCH   1  20
TORSDOF 19
