REMARK SMILES O=C(CSc1nc(-c2ccccc2)c(-c2ccccc2)n1-c1ccccc1)NCCCCNC(=O)c1ccc(-c2c3nc(c(-c4cc(S(=O)(=O)[O-])ccc4F)c4ccc([nH]4)c(-c4cc(S(=O)(=O)[O-])ccc4F)c4nc(c(-c5cc(S(=O)(=O)[O-])ccc5F)c5ccc2[nH]5)C=C4)C=C3)cc1
REMARK SMILES IDX 30 1 29 2 28 3 1 4 2 5 3 7 4 8 5 9 6 10 21 11 7 12 14 13
REMARK SMILES IDX 22 14 23 15 27 16 24 17 26 18 25 19 8 20 9 21 13 22 10 23
REMARK SMILES IDX 12 24 11 25 15 26 16 27 20 28 17 29 19 30 18 31 31 32 32 33
REMARK SMILES IDX 33 34 34 35 35 37 36 38 37 39 98 40 38 41 97 42 39 43 40 44
REMARK SMILES IDX 41 45 91 46 42 47 96 48 90 49 92 50 43 51 95 52 89 53 88 54
REMARK SMILES IDX 44 56 76 57 56 58 75 59 57 60 60 61 74 62 93 63 58 64 59 65
REMARK SMILES IDX 73 67 94 68 61 69 45 70 46 71 54 72 47 73 53 74 55 75 52 76
REMARK SMILES IDX 48 77 49 78 50 79 51 80 77 81 78 82 86 83 79 84 85 85 87 86
REMARK SMILES IDX 84 87 80 88 81 89 82 90 83 91 62 92 63 93 71 94 64 95 70 96
REMARK SMILES IDX 72 97 69 98 65 99 66 100 67 101 68 102
REMARK H PARENT 28 6 33 36 92 55 60 66
REMARK Flexibility Score: inf
ROOT
ATOM      1  C   UNL     1       2.419  -3.361  -1.085  1.00  0.00     0.023 C 
ENDROOT
BRANCH   1   2
ATOM      2  C   UNL     1       2.055  -2.518   0.143  1.00  0.00     0.116 C 
BRANCH   2   3
ATOM      3  N   UNL     1       2.738  -1.240   0.194  1.00  0.00    -0.355 N 
ATOM      4  O   UNL     1       0.887   0.047  -0.258  1.00  0.00    -0.274 OA
ATOM      5  C   UNL     1       2.074  -0.039   0.055  1.00  0.00     0.230 C 
ATOM      6  H   UNL     1       3.713  -1.230   0.332  1.00  0.00     0.163 HD
BRANCH   5   7
ATOM      7  C   UNL     1       2.946   1.197   0.150  1.00  0.00     0.178 C 
BRANCH   7   8
ATOM      8  S   UNL     1       3.922   1.309   1.663  1.00  0.00    -0.078 SA
BRANCH   8   9
ATOM      9  C   UNL     1       2.723   1.634   2.886  1.00  0.00     0.174 A 
ATOM     10  N   UNL     1       2.141   0.676   3.572  1.00  0.00    -0.221 NA
ATOM     11  N   UNL     1       2.491   2.891   3.431  1.00  0.00    -0.287 N 
ATOM     12  C   UNL     1       1.500   1.317   4.604  1.00  0.00     0.098 A 
ATOM     13  C   UNL     1       1.697   2.692   4.559  1.00  0.00     0.082 A 
BRANCH  11  14
ATOM     14  C   UNL     1       2.890   4.158   2.933  1.00  0.00     0.048 A 
ATOM     15  C   UNL     1       3.535   5.066   3.780  1.00  0.00     0.027 A 
ATOM     16  C   UNL     1       2.501   4.548   1.647  1.00  0.00     0.027 A 
ATOM     17  C   UNL     1       3.806   6.358   3.327  1.00  0.00     0.002 A 
ATOM     18  C   UNL     1       2.768   5.844   1.206  1.00  0.00     0.002 A 
ATOM     19  C   UNL     1       3.420   6.747   2.044  1.00  0.00     0.000 A 
ENDBRANCH  11  14
BRANCH  12  20
ATOM     20  C   UNL     1       0.682   0.647   5.599  1.00  0.00     0.002 A 
ATOM     21  C   UNL     1       1.258  -0.250   6.503  1.00  0.00     0.010 A 
ATOM     22  C   UNL     1      -0.674   0.983   5.732  1.00  0.00     0.010 A 
ATOM     23  C   UNL     1       0.491  -0.776   7.548  1.00  0.00     0.001 A 
ATOM     24  C   UNL     1      -1.436   0.460   6.777  1.00  0.00     0.001 A 
ATOM     25  C   UNL     1      -0.850  -0.415   7.689  1.00  0.00     0.000 A 
ENDBRANCH  12  20
BRANCH  13  26
ATOM     26  C   UNL     1       1.098   3.744   5.392  1.00  0.00     0.001 A 
ATOM     27  C   UNL     1       1.303   3.759   6.777  1.00  0.00     0.010 A 
ATOM     28  C   UNL     1       0.234   4.690   4.823  1.00  0.00     0.010 A 
ATOM     29  C   UNL     1       0.650   4.699   7.577  1.00  0.00     0.001 A 
ATOM     30  C   UNL     1      -0.413   5.633   5.623  1.00  0.00     0.001 A 
ATOM     31  C   UNL     1      -0.209   5.633   7.001  1.00  0.00     0.000 A 
ENDBRANCH  13  26
ENDBRANCH   8   9
ENDBRANCH   7   8
ENDBRANCH   5   7
ENDBRANCH   2   3
ENDBRANCH   1   2
BRANCH   1  32
ATOM     32  C   UNL     1       3.907  -3.689  -1.273  1.00  0.00     0.023 C 
BRANCH  32  33
ATOM     33  C   UNL     1       4.571  -4.386  -0.091  1.00  0.00     0.116 C 
BRANCH  33  34
ATOM     34  N   UNL     1       4.087  -5.744   0.126  1.00  0.00    -0.352 N 
ATOM     35  C   UNL     1       4.537  -6.661   1.063  1.00  0.00     0.251 C 
ATOM     36  H   UNL     1       3.356  -6.045  -0.461  1.00  0.00     0.163 HD
ATOM     37  O   UNL     1       4.363  -7.856   0.882  1.00  0.00    -0.269 OA
BRANCH  35  38
ATOM     38  C   UNL     1       5.234  -6.174   2.276  1.00  0.00     0.039 A 
ATOM     39  C   UNL     1       6.331  -6.866   2.799  1.00  0.00     0.014 A 
ATOM     40  C   UNL     1       4.777  -5.013   2.898  1.00  0.00     0.014 A 
ATOM     41  C   UNL     1       7.016  -6.329   3.891  1.00  0.00     0.010 A 
ATOM     42  C   UNL     1       5.513  -4.429   3.909  1.00  0.00     0.010 A 
ATOM     43  C   UNL     1       6.624  -5.089   4.428  1.00  0.00    -0.014 A 
BRANCH  43  44
ATOM     44  C   UNL     1       7.504  -4.367   5.360  1.00  0.00     0.031 A 
ATOM     45  C   UNL     1       8.888  -4.191   4.827  1.00  0.00     0.074 A 
ATOM     46  C   UNL     1       7.072  -3.701   6.458  1.00  0.00     0.049 A 
ATOM     47  N   UNL     1       9.988  -4.681   5.294  1.00  0.00    -0.248 NA
ATOM     48  C   UNL     1       9.049  -3.544   3.510  1.00  0.00     0.031 C 
ATOM     49  C   UNL     1       5.688  -3.567   6.923  1.00  0.00     0.029 A 
ATOM     50  N   UNL     1       7.750  -2.899   7.335  1.00  0.00    -0.354 N 
ATOM     51  C   UNL     1      11.003  -4.168   4.489  1.00  0.00     0.074 A 
ATOM     52  C   UNL     1      10.357  -3.700   3.296  1.00  0.00     0.031 C 
ATOM     53  C   UNL     1       5.601  -2.565   7.826  1.00  0.00     0.029 A 
ATOM     54  C   UNL     1       6.936  -2.072   8.121  1.00  0.00     0.049 A 
ATOM     55  H   UNL     1       8.732  -2.903   7.408  1.00  0.00     0.167 HD
ATOM     56  C   UNL     1      12.236  -3.905   5.008  1.00  0.00     0.034 A 
ATOM     57  C   UNL     1       7.312  -1.042   8.935  1.00  0.00     0.034 A 
ATOM     58  C   UNL     1      12.423  -4.614   6.257  1.00  0.00     0.049 A 
ATOM     59  C   UNL     1       8.747  -1.243   9.242  1.00  0.00     0.074 A 
ATOM     60  C   UNL     1      12.356  -5.941   6.638  1.00  0.00     0.029 A 
ATOM     61  N   UNL     1      12.338  -3.893   7.428  1.00  0.00    -0.354 N 
ATOM     62  N   UNL     1       9.194  -2.241   9.950  1.00  0.00    -0.248 NA
ATOM     63  C   UNL     1       9.723  -0.618   8.365  1.00  0.00     0.031 C 
ATOM     64  C   UNL     1      11.734  -5.925   7.922  1.00  0.00     0.029 A 
ATOM     65  C   UNL     1      11.552  -4.595   8.305  1.00  0.00     0.049 A 
ATOM     66  H   UNL     1      12.768  -3.024   7.604  1.00  0.00     0.167 HD
ATOM     67  C   UNL     1      10.333  -2.663   9.284  1.00  0.00     0.074 A 
ATOM     68  C   UNL     1      10.668  -1.562   8.380  1.00  0.00     0.031 C 
ATOM     69  C   UNL     1      10.720  -3.973   9.319  1.00  0.00     0.034 A 
BRANCH  56  70
ATOM     70  C   UNL     1      13.080  -2.694   4.638  1.00  0.00     0.023 A 
ATOM     71  C   UNL     1      14.271  -2.507   5.368  1.00  0.00     0.031 A 
ATOM     72  C   UNL     1      12.662  -1.581   3.872  1.00  0.00     0.131 A 
ATOM     73  C   UNL     1      14.887  -1.246   5.444  1.00  0.00     0.055 A 
ATOM     74  C   UNL     1      13.319  -0.346   3.897  1.00  0.00     0.041 A 
ATOM     75  F   UNL     1      11.558  -1.582   3.118  1.00  0.00    -0.206 F 
ATOM     76  C   UNL     1      14.415  -0.160   4.718  1.00  0.00     0.022 A 
BRANCH  73  77
ATOM     77  S   UNL     1      16.197  -1.011   6.671  1.00  0.00     0.124 S 
ATOM     78  O   UNL     1      15.510  -1.402   7.897  1.00  0.00    -0.237 OA
ATOM     79  O   UNL     1      17.226  -1.925   6.187  1.00  0.00    -0.237 OA
ATOM     80  O   UNL     1      16.518   0.409   6.554  1.00  0.00    -0.744 OA
ENDBRANCH  73  77
ENDBRANCH  56  70
BRANCH  57  81
ATOM     81  C   UNL     1       6.601   0.239   9.249  1.00  0.00     0.023 A 
ATOM     82  C   UNL     1       6.963   1.085  10.329  1.00  0.00     0.031 A 
ATOM     83  C   UNL     1       5.707   0.787   8.303  1.00  0.00     0.131 A 
ATOM     84  C   UNL     1       6.449   2.405  10.417  1.00  0.00     0.055 A 
ATOM     85  C   UNL     1       5.208   2.090   8.392  1.00  0.00     0.041 A 
ATOM     86  F   UNL     1       5.355   0.104   7.203  1.00  0.00    -0.206 F 
ATOM     87  C   UNL     1       5.586   2.910   9.442  1.00  0.00     0.022 A 
BRANCH  84  88
ATOM     88  S   UNL     1       6.969   3.541  11.752  1.00  0.00     0.124 S 
ATOM     89  O   UNL     1       6.306   2.974  12.921  1.00  0.00    -0.237 OA
ATOM     90  O   UNL     1       8.423   3.436  11.713  1.00  0.00    -0.237 OA
ATOM     91  O   UNL     1       6.442   4.838  11.322  1.00  0.00    -0.744 OA
ENDBRANCH  84  88
ENDBRANCH  57  81
BRANCH  69  92
ATOM     92  C   UNL     1      10.108  -4.880  10.371  1.00  0.00     0.023 A 
ATOM     93  C   UNL     1       8.724  -5.092  10.576  1.00  0.00     0.031 A 
ATOM     94  C   UNL     1      11.001  -5.633  11.156  1.00  0.00     0.131 A 
ATOM     95  C   UNL     1       8.288  -6.012  11.552  1.00  0.00     0.055 A 
ATOM     96  C   UNL     1      10.566  -6.561  12.099  1.00  0.00     0.041 A 
ATOM     97  F   UNL     1      12.329  -5.495  11.000  1.00  0.00    -0.206 F 
ATOM     98  C   UNL     1       9.206  -6.748  12.307  1.00  0.00     0.022 A 
BRANCH  95  99
ATOM     99  S   UNL     1       6.512  -6.245  11.895  1.00  0.00     0.124 S 
ATOM    100  O   UNL     1       5.989  -4.886  11.953  1.00  0.00    -0.237 OA
ATOM    101  O   UNL     1       6.074  -7.051  10.758  1.00  0.00    -0.237 OA
ATOM    102  O   UNL     1       6.504  -6.954  13.177  1.00  0.00    -0.744 OA
ENDBRANCH  95  99
ENDBRANCH  69  92
ENDBRANCH  43  44
ENDBRANCH  35  38
ENDBRANCH  33  34
ENDBRANCH  32  33
ENDBRANCH   1  32
TORSDOF 19
