REMARK SMILES O=C(NCCCCNC(=O)c1ccc(-c2ccn(C(F)F)c(=O)c2)cc1O)c1ccc(-c2c3nc(c(-c4cc(S(=O)(=O)[O-])ccc4F)c4ccc([nH]4)c(-c4cc(S(=O)(=O)[O-])ccc4F)c4nc(c(-c5cc(S(=O)(=O)[O-])ccc5F)c5ccc2[nH]5)C=C4)C=C3)cc1
REMARK SMILES IDX 5 1 4 2 3 3 1 4 2 5 28 7 29 8 90 9 30 10 89 11 31 12 32 13
REMARK SMILES IDX 33 14 83 15 34 16 88 17 82 18 84 19 35 20 87 21 81 22 80 23
REMARK SMILES IDX 36 25 68 26 48 27 67 28 49 29 52 30 66 31 85 32 50 33 51 34
REMARK SMILES IDX 65 36 86 37 53 38 37 39 38 40 46 41 39 42 45 43 47 44 44 45
REMARK SMILES IDX 40 46 41 47 42 48 43 49 69 50 70 51 78 52 71 53 77 54 79 55
REMARK SMILES IDX 76 56 72 57 73 58 74 59 75 60 54 61 55 62 63 63 56 64 62 65
REMARK SMILES IDX 64 66 61 67 57 68 58 69 59 70 60 71 6 72 7 73 8 74 9 75
REMARK SMILES IDX 10 77 11 78 12 79 26 80 13 81 25 82 14 83 27 84 15 86 16 87
REMARK SMILES IDX 24 88 17 89 22 90 18 91 23 92 19 93 20 94 21 95
REMARK H PARENT 3 6 84 24 52 35 8 76 27 85
REMARK Flexibility Score: inf
ROOT
ATOM      1  C   UNL     1       5.062  -2.037  -1.644  1.00  0.00     0.023 C 
ENDROOT
BRANCH   1   2
ATOM      2  C   UNL     1       4.734  -0.646  -1.112  1.00  0.00     0.116 C 
BRANCH   2   3
ATOM      3  N   UNL     1       3.307  -0.373  -1.090  1.00  0.00    -0.352 N 
ATOM      4  O   UNL     1       1.291   0.099  -0.223  1.00  0.00    -0.269 OA
ATOM      5  C   UNL     1       2.509   0.065  -0.061  1.00  0.00     0.251 C 
ATOM      6  H   UNL     1       2.840  -0.524  -1.944  1.00  0.00     0.163 HD
BRANCH   5   7
ATOM      7  C   UNL     1       3.095   0.481   1.234  1.00  0.00     0.039 A 
ATOM      8  C   UNL     1       2.428   0.134   2.414  1.00  0.00     0.014 A 
ATOM      9  C   UNL     1       4.259   1.252   1.298  1.00  0.00     0.014 A 
ATOM     10  C   UNL     1       2.942   0.533   3.651  1.00  0.00     0.010 A 
ATOM     11  C   UNL     1       4.814   1.581   2.534  1.00  0.00     0.010 A 
ATOM     12  C   UNL     1       4.146   1.252   3.723  1.00  0.00    -0.014 A 
BRANCH  12  13
ATOM     13  C   UNL     1       4.679   1.729   5.026  1.00  0.00     0.031 A 
ATOM     14  C   UNL     1       4.753   3.208   5.307  1.00  0.00     0.074 A 
ATOM     15  C   UNL     1       5.114   0.844   5.945  1.00  0.00     0.049 A 
ATOM     16  N   UNL     1       5.201   3.825   6.369  1.00  0.00    -0.248 NA
ATOM     17  C   UNL     1       4.282   4.113   4.245  1.00  0.00     0.031 C 
ATOM     18  C   UNL     1       5.123  -0.609   5.774  1.00  0.00     0.029 A 
ATOM     19  N   UNL     1       5.626   1.034   7.205  1.00  0.00    -0.354 N 
ATOM     20  C   UNL     1       5.080   5.184   6.098  1.00  0.00     0.074 A 
ATOM     21  C   UNL     1       4.576   5.303   4.749  1.00  0.00     0.031 C 
ATOM     22  C   UNL     1       5.573  -1.180   6.903  1.00  0.00     0.029 A 
ATOM     23  C   UNL     1       5.919  -0.137   7.867  1.00  0.00     0.049 A 
ATOM     24  H   UNL     1       5.770   1.925   7.599  1.00  0.00     0.167 HD
ATOM     25  C   UNL     1       5.335   6.236   6.910  1.00  0.00     0.034 A 
ATOM     26  C   UNL     1       6.396  -0.346   9.112  1.00  0.00     0.034 A 
ATOM     27  C   UNL     1       5.797   6.105   8.267  1.00  0.00     0.049 A 
ATOM     28  C   UNL     1       6.653   0.844  10.005  1.00  0.00     0.074 A 
ATOM     29  C   UNL     1       6.051   7.110   9.184  1.00  0.00     0.029 A 
ATOM     30  N   UNL     1       6.053   4.903   8.909  1.00  0.00    -0.354 N 
ATOM     31  N   UNL     1       6.471   2.120   9.755  1.00  0.00    -0.248 NA
ATOM     32  C   UNL     1       7.165   0.570  11.356  1.00  0.00     0.031 C 
ATOM     33  C   UNL     1       6.499   6.518  10.365  1.00  0.00     0.029 A 
ATOM     34  C   UNL     1       6.466   5.141  10.208  1.00  0.00     0.049 A 
ATOM     35  H   UNL     1       5.955   4.012   8.501  1.00  0.00     0.167 HD
ATOM     36  C   UNL     1       6.803   2.793  10.928  1.00  0.00     0.074 A 
ATOM     37  C   UNL     1       7.183   1.784  11.892  1.00  0.00     0.031 C 
ATOM     38  C   UNL     1       6.797   4.127  11.179  1.00  0.00     0.034 A 
BRANCH  25  39
ATOM     39  C   UNL     1       5.087   7.628   6.386  1.00  0.00     0.023 A 
ATOM     40  C   UNL     1       6.152   8.540   6.266  1.00  0.00     0.031 A 
ATOM     41  C   UNL     1       3.783   8.088   6.125  1.00  0.00     0.131 A 
ATOM     42  C   UNL     1       5.890   9.873   5.928  1.00  0.00     0.055 A 
ATOM     43  C   UNL     1       3.533   9.407   5.745  1.00  0.00     0.041 A 
ATOM     44  F   UNL     1       2.734   7.256   6.224  1.00  0.00    -0.206 F 
ATOM     45  C   UNL     1       4.589  10.309   5.658  1.00  0.00     0.022 A 
BRANCH  42  46
ATOM     46  S   UNL     1       7.219  11.107   5.878  1.00  0.00     0.124 S 
ATOM     47  O   UNL     1       7.100  11.623   4.516  1.00  0.00    -0.237 OA
ATOM     48  O   UNL     1       6.815  12.032   6.933  1.00  0.00    -0.237 OA
ATOM     49  O   UNL     1       8.427  10.333   6.143  1.00  0.00    -0.744 OA
ENDBRANCH  42  46
ENDBRANCH  25  39
BRANCH  26  50
ATOM     50  C   UNL     1       6.558  -1.743   9.614  1.00  0.00     0.023 A 
ATOM     51  C   UNL     1       7.463  -2.640   9.019  1.00  0.00     0.031 A 
ATOM     52  C   UNL     1       5.742  -2.221  10.654  1.00  0.00     0.131 A 
ATOM     53  C   UNL     1       7.495  -3.978   9.438  1.00  0.00     0.055 A 
ATOM     54  C   UNL     1       5.821  -3.538  11.111  1.00  0.00     0.041 A 
ATOM     55  F   UNL     1       4.852  -1.408  11.243  1.00  0.00    -0.206 F 
ATOM     56  C   UNL     1       6.692  -4.428  10.492  1.00  0.00     0.022 A 
BRANCH  53  57
ATOM     57  S   UNL     1       8.492  -5.209   8.553  1.00  0.00     0.124 S 
ATOM     58  O   UNL     1       9.427  -5.642   9.587  1.00  0.00    -0.237 OA
ATOM     59  O   UNL     1       7.482  -6.191   8.166  1.00  0.00    -0.237 OA
ATOM     60  O   UNL     1       9.074  -4.452   7.450  1.00  0.00    -0.744 OA
ENDBRANCH  53  57
ENDBRANCH  26  50
BRANCH  38  61
ATOM     61  C   UNL     1       7.171   4.611  12.559  1.00  0.00     0.023 A 
ATOM     62  C   UNL     1       6.224   5.311  13.333  1.00  0.00     0.031 A 
ATOM     63  C   UNL     1       8.490   4.527  13.036  1.00  0.00     0.131 A 
ATOM     64  C   UNL     1       6.620   5.933  14.524  1.00  0.00     0.055 A 
ATOM     65  C   UNL     1       8.868   5.111  14.246  1.00  0.00     0.041 A 
ATOM     66  F   UNL     1       9.431   3.885  12.327  1.00  0.00    -0.206 F 
ATOM     67  C   UNL     1       7.935   5.830  14.988  1.00  0.00     0.022 A 
BRANCH  64  68
ATOM     68  S   UNL     1       5.471   6.980  15.460  1.00  0.00     0.124 S 
ATOM     69  O   UNL     1       5.348   6.243  16.716  1.00  0.00    -0.237 OA
ATOM     70  O   UNL     1       6.202   8.241  15.547  1.00  0.00    -0.237 OA
ATOM     71  O   UNL     1       4.268   7.010  14.635  1.00  0.00    -0.744 OA
ENDBRANCH  64  68
ENDBRANCH  38  61
ENDBRANCH  12  13
ENDBRANCH   5   7
ENDBRANCH   2   3
ENDBRANCH   1   2
BRANCH   1  72
ATOM     72  C   UNL     1       4.569  -2.337  -3.058  1.00  0.00     0.023 C 
BRANCH  72  73
ATOM     73  C   UNL     1       4.964  -1.316  -4.120  1.00  0.00     0.116 C 
BRANCH  73  74
ATOM     74  N   UNL     1       6.404  -1.198  -4.282  1.00  0.00    -0.352 N 
ATOM     75  C   UNL     1       7.137  -1.256  -5.441  1.00  0.00     0.255 C 
ATOM     76  H   UNL     1       6.919  -1.060  -3.454  1.00  0.00     0.163 HD
ATOM     77  O   UNL     1       8.363  -1.189  -5.418  1.00  0.00    -0.269 OA
BRANCH  75  78
ATOM     78  C   UNL     1       6.451  -1.492  -6.725  1.00  0.00     0.081 A 
ATOM     79  C   UNL     1       6.760  -2.671  -7.413  1.00  0.00     0.018 A 
ATOM     80  C   UNL     1       5.506  -0.603  -7.245  1.00  0.00     0.128 A 
ATOM     81  C   UNL     1       6.073  -2.994  -8.584  1.00  0.00     0.010 A 
ATOM     82  C   UNL     1       4.813  -0.929  -8.410  1.00  0.00     0.055 A 
ATOM     83  C   UNL     1       5.078  -2.137  -9.075  1.00  0.00    -0.014 A 
BRANCH  80  84
ATOM     84  O   UNL     1       5.233   0.571  -6.602  1.00  0.00    -0.507 OA
ATOM     85  H   UNL     1       5.697   0.795  -5.819  1.00  0.00     0.293 HD
ENDBRANCH  80  84
BRANCH  83  86
ATOM     86  C   UNL     1       4.277  -2.489 -10.264  1.00  0.00    -0.011 A 
ATOM     87  C   UNL     1       4.211  -1.643 -11.439  1.00  0.00     0.027 A 
ATOM     88  C   UNL     1       3.519  -3.599 -10.214  1.00  0.00     0.080 A 
ATOM     89  C   UNL     1       3.372  -1.934 -12.440  1.00  0.00     0.095 A 
ATOM     90  C   UNL     1       2.603  -3.953 -11.334  1.00  0.00     0.255 A 
ATOM     91  N   UNL     1       2.568  -3.057 -12.391  1.00  0.00    -0.258 N 
ATOM     92  O   UNL     1       1.939  -4.980 -11.247  1.00  0.00    -0.269 OA
BRANCH  91  93
ATOM     93  C   UNL     1       1.641  -3.340 -13.454  1.00  0.00     0.451 C 
ATOM     94  F   UNL     1       1.910  -4.532 -14.039  1.00  0.00    -0.185 F 
ATOM     95  F   UNL     1       0.367  -3.375 -12.993  1.00  0.00    -0.185 F 
ENDBRANCH  91  93
ENDBRANCH  83  86
ENDBRANCH  75  78
ENDBRANCH  73  74
ENDBRANCH  72  73
ENDBRANCH   1  72
TORSDOF 17
