REMARK SMILES CSCCC(=O)N1[C@H](C)CCC[C@@H]1C(=O)NCCCCNC(=O)c1ccc(-c2c3nc(c(-c4cc(S(=O)(=O)[O-])ccc4F)c4ccc([nH]4)c(-c4cc(S(=O)(=O)[O-])ccc4F)c4nc(c(-c5cc(S(=O)(=O)[O-])ccc5F)c5ccc2[nH]5)C=C4)C=C3)cc1
REMARK SMILES IDX 18 1 17 2 16 3 14 4 15 5 13 7 7 8 8 9 9 10 10 11 12 12 11 13
REMARK SMILES IDX 5 14 6 15 4 16 3 17 2 18 1 19 19 20 20 21 21 22 22 23 23 25
REMARK SMILES IDX 24 26 25 27 86 28 26 29 85 30 27 31 28 32 29 33 79 34 30 35
REMARK SMILES IDX 84 36 78 37 80 38 31 39 83 40 77 41 76 42 32 44 64 45 44 46
REMARK SMILES IDX 63 47 45 48 48 49 62 50 81 51 46 52 47 53 61 55 82 56 49 57
REMARK SMILES IDX 33 58 34 59 42 60 35 61 41 62 43 63 40 64 36 65 37 66 38 67
REMARK SMILES IDX 39 68 65 69 66 70 74 71 67 72 73 73 75 74 72 75 68 76 69 77
REMARK SMILES IDX 70 78 71 79 50 80 51 81 59 82 52 83 58 84 60 85 57 86 53 87
REMARK SMILES IDX 54 88 55 89 56 90
REMARK H PARENT 16 6 21 24 80 43 48 54
REMARK Flexibility Score: inf
ROOT
ATOM      1  C   UNL     1      -3.462  -3.032   1.083  1.00  0.00     0.023 C 
ENDROOT
BRANCH   1   2
ATOM      2  C   UNL     1      -2.429  -1.958   1.393  1.00  0.00     0.116 C 
BRANCH   2   3
ATOM      3  N   UNL     1      -2.945  -0.627   1.609  1.00  0.00    -0.354 N 
ATOM      4  C   UNL     1      -2.307   0.509   2.017  1.00  0.00     0.242 C 
ATOM      5  O   UNL     1      -2.944   1.563   1.880  1.00  0.00    -0.273 OA
ATOM      6  H   UNL     1      -3.908  -0.523   1.434  1.00  0.00     0.163 HD
BRANCH   4   7
ATOM      7  C   UNL     1      -0.828   0.568   2.510  1.00  0.00     0.174 C 
ATOM      8  N   UNL     1       0.103   0.920   1.431  1.00  0.00    -0.328 N 
ATOM      9  C   UNL     1       0.667  -0.134   0.596  1.00  0.00     0.082 C 
ATOM     10  C   UNL     1      -0.070  -0.286  -0.734  1.00  0.00     0.031 C 
ATOM     11  C   UNL     1       0.858  -1.472   1.335  1.00  0.00     0.025 C 
ATOM     12  C   UNL     1      -0.309  -0.531   3.431  1.00  0.00     0.035 C 
ATOM     13  C   UNL     1       0.836  -1.364   2.856  1.00  0.00     0.005 C 
BRANCH   8  14
ATOM     14  C   UNL     1       0.686   2.181   1.443  1.00  0.00     0.224 C 
ATOM     15  O   UNL     1       1.149   2.680   2.467  1.00  0.00    -0.275 OA
BRANCH  14  16
ATOM     16  C   UNL     1       0.598   2.966   0.149  1.00  0.00     0.111 C 
BRANCH  16  17
ATOM     17  C   UNL     1       1.945   3.381  -0.427  1.00  0.00     0.079 C 
BRANCH  17  18
ATOM     18  S   UNL     1       2.377   2.528  -1.990  1.00  0.00    -0.165 SA
ATOM     19  C   UNL     1       3.406   1.173  -1.375  1.00  0.00     0.085 C 
ENDBRANCH  17  18
ENDBRANCH  16  17
ENDBRANCH  14  16
ENDBRANCH   8  14
ENDBRANCH   4   7
ENDBRANCH   2   3
ENDBRANCH   1   2
BRANCH   1  20
ATOM     20  C   UNL     1      -4.166  -2.913  -0.269  1.00  0.00     0.023 C 
BRANCH  20  21
ATOM     21  C   UNL     1      -3.283  -2.648  -1.487  1.00  0.00     0.116 C 
BRANCH  21  22
ATOM     22  N   UNL     1      -2.305  -3.694  -1.762  1.00  0.00    -0.352 N 
ATOM     23  C   UNL     1      -2.253  -4.622  -2.780  1.00  0.00     0.251 C 
ATOM     24  H   UNL     1      -1.563  -3.747  -1.117  1.00  0.00     0.163 HD
ATOM     25  O   UNL     1      -1.364  -5.471  -2.779  1.00  0.00    -0.269 OA
BRANCH  23  26
ATOM     26  C   UNL     1      -3.293  -4.635  -3.833  1.00  0.00     0.039 A 
ATOM     27  C   UNL     1      -3.938  -5.838  -4.132  1.00  0.00     0.014 A 
ATOM     28  C   UNL     1      -3.670  -3.462  -4.489  1.00  0.00     0.014 A 
ATOM     29  C   UNL     1      -5.044  -5.838  -4.987  1.00  0.00     0.010 A 
ATOM     30  C   UNL     1      -4.827  -3.447  -5.265  1.00  0.00     0.010 A 
ATOM     31  C   UNL     1      -5.543  -4.631  -5.504  1.00  0.00    -0.014 A 
BRANCH  31  32
ATOM     32  C   UNL     1      -6.827  -4.575  -6.258  1.00  0.00     0.031 A 
ATOM     33  C   UNL     1      -6.857  -4.057  -7.672  1.00  0.00     0.074 A 
ATOM     34  C   UNL     1      -7.981  -4.900  -5.637  1.00  0.00     0.049 A 
ATOM     35  N   UNL     1      -7.886  -3.816  -8.444  1.00  0.00    -0.248 NA
ATOM     36  C   UNL     1      -5.560  -3.732  -8.283  1.00  0.00     0.031 C 
ATOM     37  C   UNL     1      -8.097  -5.362  -4.250  1.00  0.00     0.029 A 
ATOM     38  N   UNL     1      -9.282  -4.875  -6.080  1.00  0.00    -0.354 N 
ATOM     39  C   UNL     1      -7.364  -3.289  -9.620  1.00  0.00     0.074 A 
ATOM     40  C   UNL     1      -5.931  -3.196  -9.436  1.00  0.00     0.031 C 
ATOM     41  C   UNL     1      -9.388  -5.597  -3.967  1.00  0.00     0.029 A 
ATOM     42  C   UNL     1     -10.202  -5.255  -5.129  1.00  0.00     0.049 A 
ATOM     43  H   UNL     1      -9.533  -4.611  -6.995  1.00  0.00     0.167 HD
ATOM     44  C   UNL     1      -8.016  -2.934 -10.755  1.00  0.00     0.034 A 
ATOM     45  C   UNL     1     -11.549  -5.307  -5.177  1.00  0.00     0.034 A 
ATOM     46  C   UNL     1      -9.441  -3.061 -10.938  1.00  0.00     0.049 A 
ATOM     47  C   UNL     1     -12.249  -4.914  -6.454  1.00  0.00     0.074 A 
ATOM     48  C   UNL     1     -10.190  -2.801 -12.074  1.00  0.00     0.029 A 
ATOM     49  N   UNL     1     -10.336  -3.480  -9.962  1.00  0.00    -0.354 N 
ATOM     50  N   UNL     1     -11.730  -4.475  -7.578  1.00  0.00    -0.248 NA
ATOM     51  C   UNL     1     -13.713  -5.034  -6.474  1.00  0.00     0.031 C 
ATOM     52  C   UNL     1     -11.540  -3.003 -11.767  1.00  0.00     0.029 A 
ATOM     53  C   UNL     1     -11.629  -3.460 -10.462  1.00  0.00     0.049 A 
ATOM     54  H   UNL     1     -10.088  -3.752  -9.049  1.00  0.00     0.167 HD
ATOM     55  C   UNL     1     -12.805  -4.300  -8.447  1.00  0.00     0.074 A 
ATOM     56  C   UNL     1     -13.994  -4.695  -7.723  1.00  0.00     0.031 C 
ATOM     57  C   UNL     1     -12.807  -3.856  -9.729  1.00  0.00     0.034 A 
BRANCH  44  58
ATOM     58  C   UNL     1      -7.193  -2.358 -11.882  1.00  0.00     0.023 A 
ATOM     59  C   UNL     1      -6.210  -3.117 -12.542  1.00  0.00     0.031 A 
ATOM     60  C   UNL     1      -7.389  -1.030 -12.300  1.00  0.00     0.131 A 
ATOM     61  C   UNL     1      -5.415  -2.523 -13.533  1.00  0.00     0.055 A 
ATOM     62  C   UNL     1      -6.648  -0.468 -13.341  1.00  0.00     0.041 A 
ATOM     63  F   UNL     1      -8.300  -0.251 -11.695  1.00  0.00    -0.206 F 
ATOM     64  C   UNL     1      -5.644  -1.212 -13.956  1.00  0.00     0.022 A 
BRANCH  61  65
ATOM     65  S   UNL     1      -3.996  -3.451 -14.175  1.00  0.00     0.124 S 
ATOM     66  O   UNL     1      -3.201  -3.646 -12.965  1.00  0.00    -0.237 OA
ATOM     67  O   UNL     1      -4.623  -4.647 -14.727  1.00  0.00    -0.237 OA
ATOM     68  O   UNL     1      -3.409  -2.543 -15.159  1.00  0.00    -0.744 OA
ENDBRANCH  61  65
ENDBRANCH  44  58
BRANCH  45  69
ATOM     69  C   UNL     1     -12.339  -5.729  -3.983  1.00  0.00     0.023 A 
ATOM     70  C   UNL     1     -13.130  -6.889  -4.012  1.00  0.00     0.031 A 
ATOM     71  C   UNL     1     -12.367  -4.944  -2.816  1.00  0.00     0.131 A 
ATOM     72  C   UNL     1     -13.960  -7.199  -2.923  1.00  0.00     0.055 A 
ATOM     73  C   UNL     1     -13.150  -5.288  -1.713  1.00  0.00     0.041 A 
ATOM     74  F   UNL     1     -11.626  -3.828  -2.731  1.00  0.00    -0.206 F 
ATOM     75  C   UNL     1     -13.967  -6.413  -1.769  1.00  0.00     0.022 A 
BRANCH  72  76
ATOM     76  S   UNL     1     -15.114  -8.591  -3.080  1.00  0.00     0.124 S 
ATOM     77  O   UNL     1     -15.861  -8.224  -4.278  1.00  0.00    -0.237 OA
ATOM     78  O   UNL     1     -14.203  -9.723  -3.213  1.00  0.00    -0.237 OA
ATOM     79  O   UNL     1     -15.872  -8.546  -1.832  1.00  0.00    -0.744 OA
ENDBRANCH  72  76
ENDBRANCH  45  69
BRANCH  57  80
ATOM     80  C   UNL     1     -14.136  -3.828 -10.443  1.00  0.00     0.023 A 
ATOM     81  C   UNL     1     -15.163  -2.945 -10.067  1.00  0.00     0.031 A 
ATOM     82  C   UNL     1     -14.379  -4.709 -11.513  1.00  0.00     0.131 A 
ATOM     83  C   UNL     1     -16.404  -2.999 -10.719  1.00  0.00     0.055 A 
ATOM     84  C   UNL     1     -15.595  -4.717 -12.196  1.00  0.00     0.041 A 
ATOM     85  F   UNL     1     -13.433  -5.574 -11.913  1.00  0.00    -0.206 F 
ATOM     86  C   UNL     1     -16.620  -3.868 -11.792  1.00  0.00     0.022 A 
BRANCH  83  87
ATOM     87  S   UNL     1     -17.764  -1.976 -10.091  1.00  0.00     0.124 S 
ATOM     88  O   UNL     1     -17.887  -2.448  -8.715  1.00  0.00    -0.237 OA
ATOM     89  O   UNL     1     -17.240  -0.624 -10.256  1.00  0.00    -0.237 OA
ATOM     90  O   UNL     1     -18.883  -2.318 -10.966  1.00  0.00    -0.744 OA
ENDBRANCH  83  87
ENDBRANCH  57  80
ENDBRANCH  31  32
ENDBRANCH  23  26
ENDBRANCH  21  22
ENDBRANCH  20  21
ENDBRANCH   1  20
TORSDOF 18
