REMARK SMILES C[NH+](C)Cc1noc(C[C@@](C)(C(=O)NCCCCNC(=O)c2ccc(-c3c4nc(c(-c5cc(S(=O)(=O)[O-])ccc5F)c5ccc([nH]5)c(-c5cc(S(=O)(=O)[O-])ccc5F)c5nc(c(-c6cc(S(=O)(=O)[O-])ccc6F)c6ccc3[nH]6)C=C5)C=C4)cc2)c2ccccc2)n1
REMARK SMILES IDX 16 1 15 2 14 3 12 4 13 5 10 7 11 8 9 9 8 10 5 11 6 12 91 13
REMARK SMILES IDX 7 14 4 15 2 16 1 17 3 18 85 20 86 21 90 22 87 23 89 24 88 25
REMARK SMILES IDX 17 26 18 27 19 28 20 29 21 31 22 32 23 33 84 34 24 35 83 36
REMARK SMILES IDX 25 37 26 38 27 39 77 40 28 41 82 42 76 43 78 44 29 45 81 46
REMARK SMILES IDX 75 47 74 48 30 50 62 51 42 52 61 53 43 54 46 55 60 56 79 57
REMARK SMILES IDX 44 58 45 59 59 61 80 62 47 63 31 64 32 65 40 66 33 67 39 68
REMARK SMILES IDX 41 69 38 70 34 71 35 72 36 73 37 74 63 75 64 76 72 77 65 78
REMARK SMILES IDX 71 79 73 80 70 81 66 82 67 83 68 84 69 85 48 86 49 87 57 88
REMARK SMILES IDX 50 89 56 90 58 91 55 92 51 93 52 94 53 95 54 96
REMARK H PARENT 14 6 2 19 19 30 78 49 46 60
REMARK Flexibility Score: inf
ROOT
ATOM      1  C   UNL     1      -1.809  -5.598   4.022  1.00  0.00     0.023 C 
ENDROOT
BRANCH   1   2
ATOM      2  C   UNL     1      -1.167  -4.999   5.272  1.00  0.00     0.116 C 
BRANCH   2   3
ATOM      3  N   UNL     1       0.229  -5.388   5.424  1.00  0.00    -0.355 N 
ATOM      4  C   UNL     1       1.405  -4.690   5.496  1.00  0.00     0.230 C 
ATOM      5  O   UNL     1       2.376  -5.378   5.824  1.00  0.00    -0.274 OA
ATOM      6  H   UNL     1       0.354  -6.362   5.490  1.00  0.00     0.163 HD
BRANCH   4   7
ATOM      7  C   UNL     1       1.491  -3.150   5.235  1.00  0.00     0.080 C 
ATOM      8  C   UNL     1       0.746  -2.513   6.438  1.00  0.00     0.027 C 
BRANCH   7   9
ATOM      9  C   UNL     1       0.883  -2.891   3.830  1.00  0.00     0.122 C 
BRANCH   9  10
ATOM     10  C   UNL     1       0.640  -1.472   3.480  1.00  0.00     0.228 A 
ATOM     11  C   UNL     1       0.554   0.456   2.682  1.00  0.00     0.226 A 
ATOM     12  N   UNL     1      -0.460   0.445   3.561  1.00  0.00    -0.056 NA
ATOM     13  N   UNL     1       1.268  -0.714   2.614  1.00  0.00    -0.190 NA
ATOM     14  O   UNL     1      -0.420  -0.852   4.075  1.00  0.00    -0.339 OA
BRANCH  11  15
ATOM     15  C   UNL     1       0.869   1.632   1.812  1.00  0.00     0.344 C 
BRANCH  15  16
ATOM     16  N   UNL     1       0.366   1.524   0.422  1.00  0.00    -0.333 N 
ATOM     17  C   UNL     1       0.936   0.378  -0.288  1.00  0.00     0.332 C 
ATOM     18  C   UNL     1      -1.094   1.496   0.366  1.00  0.00     0.332 C 
ATOM     19  H   UNL     1       0.679   2.368  -0.057  1.00  0.00     0.348 HD
ENDBRANCH  15  16
ENDBRANCH  11  15
ENDBRANCH   9  10
ENDBRANCH   7   9
BRANCH   7  20
ATOM     20  C   UNL     1       2.943  -2.557   5.198  1.00  0.00    -0.032 A 
ATOM     21  C   UNL     1       4.077  -3.316   4.861  1.00  0.00     0.005 A 
ATOM     22  C   UNL     1       3.152  -1.173   5.404  1.00  0.00     0.005 A 
ATOM     23  C   UNL     1       5.352  -2.738   4.794  1.00  0.00     0.000 A 
ATOM     24  C   UNL     1       4.419  -0.590   5.307  1.00  0.00     0.000 A 
ATOM     25  C   UNL     1       5.523  -1.376   5.014  1.00  0.00     0.000 A 
ENDBRANCH   7  20
ENDBRANCH   4   7
ENDBRANCH   2   3
ENDBRANCH   1   2
BRANCH   1  26
ATOM     26  C   UNL     1      -1.942  -7.120   4.023  1.00  0.00     0.023 C 
BRANCH  26  27
ATOM     27  C   UNL     1      -2.646  -7.717   5.236  1.00  0.00     0.116 C 
BRANCH  27  28
ATOM     28  N   UNL     1      -3.975  -7.168   5.456  1.00  0.00    -0.352 N 
ATOM     29  C   UNL     1      -5.137  -7.824   5.788  1.00  0.00     0.251 C 
ATOM     30  H   UNL     1      -4.053  -6.192   5.353  1.00  0.00     0.163 HD
ATOM     31  O   UNL     1      -6.197  -7.206   5.818  1.00  0.00    -0.269 OA
BRANCH  29  32
ATOM     32  C   UNL     1      -5.105  -9.277   6.063  1.00  0.00     0.039 A 
ATOM     33  C   UNL     1      -6.048 -10.100   5.442  1.00  0.00     0.014 A 
ATOM     34  C   UNL     1      -4.131  -9.828   6.900  1.00  0.00     0.014 A 
ATOM     35  C   UNL     1      -5.965 -11.485   5.600  1.00  0.00     0.010 A 
ATOM     36  C   UNL     1      -4.006 -11.212   6.997  1.00  0.00     0.010 A 
ATOM     37  C   UNL     1      -4.918 -12.055   6.343  1.00  0.00    -0.014 A 
BRANCH  37  38
ATOM     38  C   UNL     1      -4.756 -13.530   6.436  1.00  0.00     0.031 A 
ATOM     39  C   UNL     1      -4.885 -14.222   7.764  1.00  0.00     0.074 A 
ATOM     40  C   UNL     1      -4.430 -14.233   5.333  1.00  0.00     0.049 A 
ATOM     41  N   UNL     1      -4.719 -15.486   8.058  1.00  0.00    -0.248 NA
ATOM     42  C   UNL     1      -5.212 -13.374   8.920  1.00  0.00     0.031 C 
ATOM     43  C   UNL     1      -4.229 -13.665   3.998  1.00  0.00     0.029 A 
ATOM     44  N   UNL     1      -4.203 -15.575   5.158  1.00  0.00    -0.354 N 
ATOM     45  C   UNL     1      -4.910 -15.585   9.432  1.00  0.00     0.074 A 
ATOM     46  C   UNL     1      -5.140 -14.241   9.919  1.00  0.00     0.031 C 
ATOM     47  C   UNL     1      -3.934 -14.653   3.139  1.00  0.00     0.029 A 
ATOM     48  C   UNL     1      -3.882 -15.918   3.864  1.00  0.00     0.049 A 
ATOM     49  H   UNL     1      -4.263 -16.231   5.889  1.00  0.00     0.167 HD
ATOM     50  C   UNL     1      -4.918 -16.696  10.211  1.00  0.00     0.034 A 
ATOM     51  C   UNL     1      -3.573 -17.114   3.326  1.00  0.00     0.034 A 
ATOM     52  C   UNL     1      -4.699 -18.029   9.707  1.00  0.00     0.049 A 
ATOM     53  C   UNL     1      -3.574 -18.333   4.213  1.00  0.00     0.074 A 
ATOM     54  C   UNL     1      -4.745 -19.230  10.393  1.00  0.00     0.029 A 
ATOM     55  N   UNL     1      -4.382 -18.340   8.389  1.00  0.00    -0.354 N 
ATOM     56  N   UNL     1      -3.816 -18.417   5.501  1.00  0.00    -0.248 NA
ATOM     57  C   UNL     1      -3.271 -19.619   3.571  1.00  0.00     0.031 C 
ATOM     58  C   UNL     1      -4.393 -20.257   9.510  1.00  0.00     0.029 A 
ATOM     59  C   UNL     1      -4.200 -19.708   8.252  1.00  0.00     0.049 A 
ATOM     60  H   UNL     1      -4.299 -17.684   7.660  1.00  0.00     0.167 HD
ATOM     61  C   UNL     1      -3.724 -19.770   5.816  1.00  0.00     0.074 A 
ATOM     62  C   UNL     1      -3.418 -20.464   4.581  1.00  0.00     0.031 C 
ATOM     63  C   UNL     1      -3.882 -20.384   7.016  1.00  0.00     0.034 A 
BRANCH  50  64
ATOM     64  C   UNL     1      -5.150 -16.503  11.691  1.00  0.00     0.023 A 
ATOM     65  C   UNL     1      -6.351 -15.962  12.186  1.00  0.00     0.031 A 
ATOM     66  C   UNL     1      -4.149 -16.834  12.621  1.00  0.00     0.131 A 
ATOM     67  C   UNL     1      -6.488 -15.693  13.556  1.00  0.00     0.055 A 
ATOM     68  C   UNL     1      -4.324 -16.643  13.993  1.00  0.00     0.041 A 
ATOM     69  F   UNL     1      -2.973 -17.336  12.209  1.00  0.00    -0.206 F 
ATOM     70  C   UNL     1      -5.493 -16.054  14.466  1.00  0.00     0.022 A 
BRANCH  67  71
ATOM     71  S   UNL     1      -7.921 -14.729  14.108  1.00  0.00     0.124 S 
ATOM     72  O   UNL     1      -7.759 -13.495  13.343  1.00  0.00    -0.237 OA
ATOM     73  O   UNL     1      -9.041 -15.578  13.721  1.00  0.00    -0.237 OA
ATOM     74  O   UNL     1      -7.708 -14.592  15.548  1.00  0.00    -0.744 OA
ENDBRANCH  67  71
ENDBRANCH  50  64
BRANCH  51  75
ATOM     75  C   UNL     1      -3.234 -17.226   1.878  1.00  0.00     0.023 A 
ATOM     76  C   UNL     1      -4.057 -17.944   0.996  1.00  0.00     0.031 A 
ATOM     77  C   UNL     1      -2.062 -16.645   1.362  1.00  0.00     0.131 A 
ATOM     78  C   UNL     1      -3.675 -18.101  -0.345  1.00  0.00     0.055 A 
ATOM     79  C   UNL     1      -1.712 -16.762   0.016  1.00  0.00     0.041 A 
ATOM     80  F   UNL     1      -1.244 -15.941   2.162  1.00  0.00    -0.206 F 
ATOM     81  C   UNL     1      -2.514 -17.505  -0.844  1.00  0.00     0.022 A 
BRANCH  78  82
ATOM     82  S   UNL     1      -4.679 -19.167  -1.415  1.00  0.00     0.124 S 
ATOM     83  O   UNL     1      -4.631 -20.437  -0.700  1.00  0.00    -0.237 OA
ATOM     84  O   UNL     1      -5.964 -18.475  -1.409  1.00  0.00    -0.237 OA
ATOM     85  O   UNL     1      -3.965 -19.140  -2.690  1.00  0.00    -0.744 OA
ENDBRANCH  78  82
ENDBRANCH  51  75
BRANCH  63  86
ATOM     86  C   UNL     1      -3.769 -21.889   7.035  1.00  0.00     0.023 A 
ATOM     87  C   UNL     1      -2.551 -22.543   6.785  1.00  0.00     0.031 A 
ATOM     88  C   UNL     1      -4.903 -22.678   7.297  1.00  0.00     0.131 A 
ATOM     89  C   UNL     1      -2.505 -23.945   6.749  1.00  0.00     0.055 A 
ATOM     90  C   UNL     1      -4.840 -24.072   7.318  1.00  0.00     0.041 A 
ATOM     91  F   UNL     1      -6.093 -22.106   7.540  1.00  0.00    -0.206 F 
ATOM     92  C   UNL     1      -3.638 -24.713   7.031  1.00  0.00     0.022 A 
BRANCH  89  93
ATOM     93  S   UNL     1      -0.963 -24.755   6.244  1.00  0.00     0.124 S 
ATOM     94  O   UNL     1      -0.756 -24.206   4.907  1.00  0.00    -0.237 OA
ATOM     95  O   UNL     1      -0.025 -24.308   7.269  1.00  0.00    -0.237 OA
ATOM     96  O   UNL     1      -1.292 -26.178   6.286  1.00  0.00    -0.744 OA
ENDBRANCH  89  93
ENDBRANCH  63  86
ENDBRANCH  37  38
ENDBRANCH  29  32
ENDBRANCH  27  28
ENDBRANCH  26  27
ENDBRANCH   1  26
TORSDOF 19
