REMARK SMILES CCCc1cc(S(F)(F)(F)(F)F)cc2c1O[C@@H](C(F)(F)F)C(C(=O)NCCCCNC(=O)c1ccc(-c3c4nc(c(-c5cc(S(=O)(=O)[O-])ccc5F)c5ccc([nH]5)c(-c5cc(S(=O)(=O)[O-])ccc5F)c5nc(c(-c6cc(S(=O)(=O)[O-])ccc6F)c6ccc3[nH]6)C=C5)C=C4)cc1)=C2
REMARK SMILES IDX 28 1 27 2 26 3 25 4 23 5 24 6 22 8 4 9 5 10 15 11 6 12 14 13
REMARK SMILES IDX 16 14 13 15 96 16 17 17 3 18 2 19 1 20 7 21 8 22 9 23 10 24
REMARK SMILES IDX 11 25 12 26 18 27 19 28 20 29 21 30 29 31 30 32 31 33 32 35
REMARK SMILES IDX 33 36 34 37 95 38 35 39 94 40 36 41 37 42 38 43 88 44 39 45
REMARK SMILES IDX 93 46 87 47 89 48 40 49 92 50 86 51 85 52 41 54 73 55 53 56
REMARK SMILES IDX 72 57 54 58 57 59 71 60 90 61 55 62 56 63 70 65 91 66 58 67
REMARK SMILES IDX 42 68 43 69 51 70 44 71 50 72 52 73 49 74 45 75 46 76 47 77
REMARK SMILES IDX 48 78 74 79 75 80 83 81 76 82 82 83 84 84 81 85 77 86 78 87
REMARK SMILES IDX 79 88 80 89 59 90 60 91 68 92 61 93 67 94 69 95 66 96 62 97
REMARK SMILES IDX 63 98 64 99 65 100
REMARK H PARENT 25 7 30 34 89 53 57 64
REMARK Flexibility Score: inf
ROOT
ATOM      1  C   UNL     1      -6.420   6.272   3.060  1.00  0.00     0.023 C 
ENDROOT
BRANCH   1   2
ATOM      2  C   UNL     1      -5.021   5.809   2.687  1.00  0.00     0.023 C 
BRANCH   2   3
ATOM      3  C   UNL     1      -4.564   4.739   3.664  1.00  0.00     0.116 C 
BRANCH   3   4
ATOM      4  N   UNL     1      -5.488   3.597   3.609  1.00  0.00    -0.352 N 
ATOM      5  C   UNL     1      -4.992   2.266   3.233  1.00  0.00     0.251 C 
ATOM      6  O   UNL     1      -5.791   1.279   3.185  1.00  0.00    -0.270 OA
ATOM      7  H   UNL     1      -6.441   3.725   3.824  1.00  0.00     0.163 HD
BRANCH   5   8
ATOM      8  C   UNL     1      -3.521   2.070   2.901  1.00  0.00     0.067 C 
ATOM      9  C   UNL     1       0.571   1.352   2.466  1.00  0.00    -0.004 A 
ATOM     10  C   UNL     1       1.445   2.413   2.315  1.00  0.00     0.032 A 
ATOM     11  C   UNL     1      -0.763   1.619   2.661  1.00  0.00     0.131 A 
ATOM     12  C   UNL     1       0.998   3.707   2.363  1.00  0.00     0.108 A 
ATOM     13  C   UNL     1      -1.253   2.912   2.696  1.00  0.00     0.019 A 
ATOM     14  O   UNL     1      -1.600   0.561   2.921  1.00  0.00    -0.475 OA
ATOM     15  C   UNL     1      -0.347   3.955   2.546  1.00  0.00     0.036 A 
ATOM     16  C   UNL     1      -2.674   3.090   2.946  1.00  0.00     0.025 C 
ATOM     17  C   UNL     1      -2.989   0.698   2.509  1.00  0.00     0.314 C 
BRANCH   9  18
ATOM     18  C   UNL     1       1.077  -0.080   2.418  1.00  0.00     0.039 C 
BRANCH  18  19
ATOM     19  C   UNL     1       0.571  -0.754   1.153  1.00  0.00     0.001 C 
ATOM     20  C   UNL     1       1.077   0.004  -0.063  1.00  0.00     0.004 C 
ENDBRANCH  18  19
ENDBRANCH   9  18
BRANCH  12  21
ATOM     21  S   UNL     1       2.162   5.082   2.187  1.00  0.00     0.310 S 
ATOM     22  F   UNL     1       2.481   5.093   3.741  1.00  0.00    -0.094 F 
ATOM     23  F   UNL     1       0.979   6.076   2.493  1.00  0.00    -0.094 F 
ATOM     24  F   UNL     1       3.156   6.268   2.037  1.00  0.00    -0.094 F 
ATOM     25  F   UNL     1       3.361   4.066   2.023  1.00  0.00    -0.094 F 
ATOM     26  F   UNL     1       1.187   3.866   2.449  1.00  0.00    -0.094 F 
ENDBRANCH  12  21
BRANCH  17  27
ATOM     27  C   UNL     1      -3.818  -0.372   3.200  1.00  0.00     0.429 C 
ATOM     28  F   UNL     1      -5.090  -0.258   2.826  1.00  0.00    -0.167 F 
ATOM     29  F   UNL     1      -3.363  -1.575   2.861  1.00  0.00    -0.167 F 
ATOM     30  F   UNL     1      -3.729  -0.220   4.518  1.00  0.00    -0.167 F 
ENDBRANCH  17  27
ENDBRANCH   5   8
ENDBRANCH   3   4
ENDBRANCH   2   3
ENDBRANCH   1   2
BRANCH   1  31
ATOM     31  C   UNL     1      -6.405   6.845   4.468  1.00  0.00     0.116 C 
BRANCH  31  32
ATOM     32  N   UNL     1      -5.480   7.986   4.523  1.00  0.00    -0.352 N 
ATOM     33  C   UNL     1      -5.977   9.317   4.899  1.00  0.00     0.251 C 
ATOM     34  H   UNL     1      -4.528   7.858   4.308  1.00  0.00     0.163 HD
ATOM     35  O   UNL     1      -5.177  10.304   4.947  1.00  0.00    -0.269 OA
BRANCH  33  36
ATOM     36  C   UNL     1      -7.447   9.514   5.232  1.00  0.00     0.039 A 
ATOM     37  C   UNL     1      -8.122  10.602   4.705  1.00  0.00     0.014 A 
ATOM     38  C   UNL     1      -8.060   8.639   6.021  1.00  0.00     0.014 A 
ATOM     39  C   UNL     1      -9.379  10.844   5.308  1.00  0.00     0.010 A 
ATOM     40  C   UNL     1      -9.339   8.873   6.464  1.00  0.00     0.010 A 
ATOM     41  C   UNL     1     -10.045   9.961   6.031  1.00  0.00    -0.014 A 
BRANCH  41  42
ATOM     42  C   UNL     1     -11.517  10.146   6.364  1.00  0.00     0.031 A 
ATOM     43  C   UNL     1     -11.881  10.221   7.709  1.00  0.00     0.074 A 
ATOM     44  C   UNL     1     -12.414  10.230   5.313  1.00  0.00     0.049 A 
ATOM     45  N   UNL     1     -13.101  10.415   8.212  1.00  0.00    -0.248 NA
ATOM     46  C   UNL     1     -10.934  10.098   8.827  1.00  0.00     0.031 C 
ATOM     47  C   UNL     1     -12.053  10.163   3.953  1.00  0.00     0.029 A 
ATOM     48  N   UNL     1     -13.781  10.388   5.379  1.00  0.00    -0.354 N 
ATOM     49  C   UNL     1     -13.051  10.448   9.545  1.00  0.00     0.074 A 
ATOM     50  C   UNL     1     -11.657  10.238   9.960  1.00  0.00     0.031 C 
ATOM     51  C   UNL     1     -13.187  10.267   3.211  1.00  0.00     0.029 A 
ATOM     52  C   UNL     1     -14.275  10.402   4.093  1.00  0.00     0.049 A 
ATOM     53  H   UNL     1     -14.312  10.476   6.203  1.00  0.00     0.167 HD
ATOM     54  C   UNL     1     -14.111  10.646  10.431  1.00  0.00     0.034 A 
ATOM     55  C   UNL     1     -15.596  10.523   3.694  1.00  0.00     0.034 A 
ATOM     56  C   UNL     1     -15.427  10.810  10.029  1.00  0.00     0.049 A 
ATOM     57  C   UNL     1     -16.666  10.663   4.582  1.00  0.00     0.074 A 
ATOM     58  C   UNL     1     -16.507  11.018  10.908  1.00  0.00     0.029 A 
ATOM     59  N   UNL     1     -15.925  10.800   8.744  1.00  0.00    -0.354 N 
ATOM     60  N   UNL     1     -16.609  10.735   5.913  1.00  0.00    -0.248 NA
ATOM     61  C   UNL     1     -18.072  10.759   4.171  1.00  0.00     0.031 C 
ATOM     62  C   UNL     1     -17.642  11.123  10.165  1.00  0.00     0.029 A 
ATOM     63  C   UNL     1     -17.288  10.981   8.809  1.00  0.00     0.049 A 
ATOM     64  H   UNL     1     -15.396  10.683   7.922  1.00  0.00     0.167 HD
ATOM     65  C   UNL     1     -17.836  10.887   6.417  1.00  0.00     0.074 A 
ATOM     66  C   UNL     1     -18.795  10.897   5.304  1.00  0.00     0.031 C 
ATOM     67  C   UNL     1     -18.193  11.021   7.760  1.00  0.00     0.034 A 
BRANCH  54  68
ATOM     68  C   UNL     1     -13.806  10.684  11.919  1.00  0.00     0.023 A 
ATOM     69  C   UNL     1     -12.936  11.644  12.410  1.00  0.00     0.031 A 
ATOM     70  C   UNL     1     -14.376   9.795  12.724  1.00  0.00     0.131 A 
ATOM     71  C   UNL     1     -12.504  11.401  13.735  1.00  0.00     0.055 A 
ATOM     72  C   UNL     1     -14.001   9.704  14.043  1.00  0.00     0.041 A 
ATOM     73  F   UNL     1     -15.318   8.985  12.249  1.00  0.00    -0.206 F 
ATOM     74  C   UNL     1     -13.102  10.582  14.581  1.00  0.00     0.022 A 
BRANCH  71  75
ATOM     75  S   UNL     1     -11.026  12.274  14.312  1.00  0.00     0.124 S 
ATOM     76  O   UNL     1      -9.835  11.901  13.426  1.00  0.00    -0.237 OA
ATOM     77  O   UNL     1     -11.264  13.784  14.237  1.00  0.00    -0.237 OA
ATOM     78  O   UNL     1     -10.696  11.828  15.929  1.00  0.00    -0.744 OA
ENDBRANCH  71  75
ENDBRANCH  54  68
BRANCH  55  79
ATOM     79  C   UNL     1     -15.899  10.502   2.204  1.00  0.00     0.023 A 
ATOM     80  C   UNL     1     -16.517  11.596   1.621  1.00  0.00     0.031 A 
ATOM     81  C   UNL     1     -15.567   9.435   1.487  1.00  0.00     0.131 A 
ATOM     82  C   UNL     1     -17.007  11.350   0.317  1.00  0.00     0.055 A 
ATOM     83  C   UNL     1     -15.964   9.322   0.176  1.00  0.00     0.041 A 
ATOM     84  F   UNL     1     -14.843   8.467   2.042  1.00  0.00    -0.206 F 
ATOM     85  C   UNL     1     -16.630  10.340  -0.447  1.00  0.00     0.022 A 
BRANCH  82  86
ATOM     86  S   UNL     1     -18.236  12.498  -0.352  1.00  0.00     0.124 S 
ATOM     87  O   UNL     1     -19.474  12.501   0.548  1.00  0.00    -0.237 OA
ATOM     88  O   UNL     1     -17.641  13.907  -0.406  1.00  0.00    -0.237 OA
ATOM     89  O   UNL     1     -18.678  12.005  -1.929  1.00  0.00    -0.744 OA
ENDBRANCH  82  86
ENDBRANCH  55  79
BRANCH  67  90
ATOM     90  C   UNL     1     -19.662  11.224   8.091  1.00  0.00     0.023 A 
ATOM     91  C   UNL     1     -20.582  10.257   7.719  1.00  0.00     0.031 A 
ATOM     92  C   UNL     1     -20.041  12.325   8.729  1.00  0.00     0.131 A 
ATOM     93  C   UNL     1     -21.928  10.681   7.811  1.00  0.00     0.055 A 
ATOM     94  C   UNL     1     -21.374  12.609   8.903  1.00  0.00     0.041 A 
ATOM     95  F   UNL     1     -19.121  13.160   9.204  1.00  0.00    -0.206 F 
ATOM     96  C   UNL     1     -22.339  11.726   8.506  1.00  0.00     0.022 A 
BRANCH  93  97
ATOM     97  S   UNL     1     -23.175   9.724   6.913  1.00  0.00     0.124 S 
ATOM     98  O   UNL     1     -22.851   9.740   5.418  1.00  0.00    -0.237 OA
ATOM     99  O   UNL     1     -23.174   8.280   7.420  1.00  0.00    -0.237 OA
ATOM    100  O   UNL     1     -24.718  10.416   7.169  1.00  0.00    -0.744 OA
ENDBRANCH  93  97
ENDBRANCH  67  90
ENDBRANCH  41  42
ENDBRANCH  33  36
ENDBRANCH  31  32
ENDBRANCH   1  31
TORSDOF 18
