REMARK SMILES C[C@@H](C(=O)NCCCCNC(=O)c1ccc(-c2c3nc(c(-c4cc(S(=O)(=O)[O-])ccc4F)c4ccc([nH]4)c(-c4cc(S(=O)(=O)[O-])ccc4F)c4nc(c(-c5cc(S(=O)(=O)[O-])ccc5F)c5ccc2[nH]5)C=C4)C=C3)cc1)c1ccc(C[SiH](C)C)cc1
REMARK SMILES IDX 7 1 6 2 5 3 3 4 4 5 2 7 1 8 76 9 77 10 85 11 78 12 84 13
REMARK SMILES IDX 79 14 80 15 81 16 82 17 83 18 8 20 9 21 10 22 11 23 12 25
REMARK SMILES IDX 13 26 14 27 75 28 15 29 74 30 16 31 17 32 18 33 68 34 19 35
REMARK SMILES IDX 73 36 67 37 69 38 20 39 72 40 66 41 65 42 21 44 53 45 33 46
REMARK SMILES IDX 52 47 34 48 37 49 51 50 70 51 35 52 36 53 50 55 71 56 38 57
REMARK SMILES IDX 22 58 23 59 31 60 24 61 30 62 32 63 29 64 25 65 26 66 27 67
REMARK SMILES IDX 28 68 54 69 55 70 63 71 56 72 62 73 64 74 61 75 57 76 58 77
REMARK SMILES IDX 59 78 60 79 39 80 40 81 48 82 41 83 47 84 49 85 46 86 42 87
REMARK SMILES IDX 43 88 44 89 45 90
REMARK H PARENT 5 6 81 19 10 24 69 43 37 54
REMARK Flexibility Score: inf
ROOT
ATOM      1  C   UNL     1       4.356   1.004  -0.178  1.00  0.00     0.023 C 
ENDROOT
BRANCH   1   2
ATOM      2  C   UNL     1       3.504   1.383   1.038  1.00  0.00     0.116 C 
BRANCH   2   3
ATOM      3  N   UNL     1       2.496   2.358   0.676  1.00  0.00    -0.356 N 
ATOM      4  C   UNL     1       1.194   2.166   0.306  1.00  0.00     0.227 C 
ATOM      5  O   UNL     1       0.683   3.071  -0.355  1.00  0.00    -0.274 OA
ATOM      6  H   UNL     1       2.791   3.297   0.701  1.00  0.00     0.163 HD
BRANCH   4   7
ATOM      7  C   UNL     1       0.473   0.862   0.693  1.00  0.00     0.105 C 
ATOM      8  C   UNL     1       0.782  -0.187  -0.386  1.00  0.00     0.023 C 
BRANCH   7   9
ATOM      9  C   UNL     1      -1.042   0.951   0.929  1.00  0.00    -0.036 A 
ATOM     10  C   UNL     1      -1.766   2.147   0.870  1.00  0.00     0.005 A 
ATOM     11  C   UNL     1      -1.764  -0.220   1.230  1.00  0.00     0.005 A 
ATOM     12  C   UNL     1      -3.157   2.163   1.005  1.00  0.00     0.004 A 
ATOM     13  C   UNL     1      -3.155  -0.205   1.385  1.00  0.00     0.004 A 
ATOM     14  C   UNL     1      -3.869   0.988   1.257  1.00  0.00    -0.051 A 
BRANCH  14  15
ATOM     15  C   UNL     1      -5.374   1.010   1.369  1.00  0.00     0.021 C 
BRANCH  15  16
ATOM     16  Si  UNL     1      -6.095   1.749   2.948  1.00  0.00     0.035 Si
ATOM     17  C   UNL     1      -5.550   3.515   3.183  1.00  0.00    -0.013 C 
ATOM     18  C   UNL     1      -7.959   1.673   2.862  1.00  0.00    -0.013 C 
ATOM     19  H   UNL     1      -5.622   0.995   4.055  1.00  0.00     0.014 H 
ENDBRANCH  15  16
ENDBRANCH  14  15
ENDBRANCH   7   9
ENDBRANCH   4   7
ENDBRANCH   2   3
ENDBRANCH   1   2
BRANCH   1  20
ATOM     20  C   UNL     1       5.124   2.164  -0.818  1.00  0.00     0.023 C 
BRANCH  20  21
ATOM     21  C   UNL     1       6.095   2.881   0.109  1.00  0.00     0.116 C 
BRANCH  21  22
ATOM     22  N   UNL     1       7.122   1.995   0.632  1.00  0.00    -0.352 N 
ATOM     23  C   UNL     1       8.470   2.226   0.759  1.00  0.00     0.251 C 
ATOM     24  H   UNL     1       6.810   1.112   0.936  1.00  0.00     0.163 HD
ATOM     25  O   UNL     1       9.220   1.307   1.077  1.00  0.00    -0.269 OA
BRANCH  23  26
ATOM     26  C   UNL     1       9.007   3.574   0.475  1.00  0.00     0.039 A 
ATOM     27  C   UNL     1      10.131   3.698  -0.345  1.00  0.00     0.014 A 
ATOM     28  C   UNL     1       8.385   4.710   1.000  1.00  0.00     0.014 A 
ATOM     29  C   UNL     1      10.597   4.969  -0.690  1.00  0.00     0.010 A 
ATOM     30  C   UNL     1       8.809   5.973   0.600  1.00  0.00     0.010 A 
ATOM     31  C   UNL     1       9.921   6.116  -0.246  1.00  0.00    -0.014 A 
BRANCH  31  32
ATOM     32  C   UNL     1      10.368   7.481  -0.622  1.00  0.00     0.031 A 
ATOM     33  C   UNL     1      10.848   8.423   0.448  1.00  0.00     0.074 A 
ATOM     34  C   UNL     1      10.259   7.900  -1.897  1.00  0.00     0.049 A 
ATOM     35  N   UNL     1      11.139   9.695   0.366  1.00  0.00    -0.248 NA
ATOM     36  C   UNL     1      10.981   7.860   1.800  1.00  0.00     0.031 C 
ATOM     37  C   UNL     1       9.776   7.088  -3.016  1.00  0.00     0.029 A 
ATOM     38  N   UNL     1      10.527   9.120  -2.464  1.00  0.00    -0.354 N 
ATOM     39  C   UNL     1      11.462  10.093   1.659  1.00  0.00     0.074 A 
ATOM     40  C   UNL     1      11.274   8.937   2.510  1.00  0.00     0.031 C 
ATOM     41  C   UNL     1       9.791   7.830  -4.135  1.00  0.00     0.029 A 
ATOM     42  C   UNL     1      10.239   9.180  -3.808  1.00  0.00     0.049 A 
ATOM     43  H   UNL     1      10.890   9.882  -1.957  1.00  0.00     0.167 HD
ATOM     44  C   UNL     1      11.894  11.304   2.092  1.00  0.00     0.034 A 
ATOM     45  C   UNL     1      10.309  10.212  -4.672  1.00  0.00     0.034 A 
ATOM     46  C   UNL     1      12.092  12.438   1.223  1.00  0.00     0.049 A 
ATOM     47  C   UNL     1      10.783  11.552  -4.171  1.00  0.00     0.074 A 
ATOM     48  C   UNL     1      12.574  13.697   1.540  1.00  0.00     0.029 A 
ATOM     49  N   UNL     1      11.816  12.453  -0.139  1.00  0.00    -0.354 N 
ATOM     50  N   UNL     1      11.117  11.907  -2.952  1.00  0.00    -0.248 NA
ATOM     51  C   UNL     1      10.898  12.627  -5.165  1.00  0.00     0.031 C 
ATOM     52  C   UNL     1      12.534  14.487   0.386  1.00  0.00     0.029 A 
ATOM     53  C   UNL     1      12.095  13.704  -0.670  1.00  0.00     0.049 A 
ATOM     54  H   UNL     1      11.472  11.687  -0.653  1.00  0.00     0.167 HD
ATOM     55  C   UNL     1      11.513  13.239  -3.039  1.00  0.00     0.074 A 
ATOM     56  C   UNL     1      11.382  13.620  -4.431  1.00  0.00     0.031 C 
ATOM     57  C   UNL     1      11.954  14.069  -2.060  1.00  0.00     0.034 A 
BRANCH  44  58
ATOM     58  C   UNL     1      12.145  11.458   3.574  1.00  0.00     0.023 A 
ATOM     59  C   UNL     1      13.114  10.689   4.242  1.00  0.00     0.031 A 
ATOM     60  C   UNL     1      11.368  12.344   4.340  1.00  0.00     0.131 A 
ATOM     61  C   UNL     1      13.217  10.749   5.639  1.00  0.00     0.055 A 
ATOM     62  C   UNL     1      11.538  12.467   5.721  1.00  0.00     0.041 A 
ATOM     63  F   UNL     1      10.414  13.091   3.765  1.00  0.00    -0.206 F 
ATOM     64  C   UNL     1      12.453  11.652   6.382  1.00  0.00     0.022 A 
BRANCH  61  65
ATOM     65  S   UNL     1      14.239   9.512   6.484  1.00  0.00     0.124 S 
ATOM     66  O   UNL     1      13.616   8.265   6.045  1.00  0.00    -0.237 OA
ATOM     67  O   UNL     1      15.569   9.784   5.951  1.00  0.00    -0.237 OA
ATOM     68  O   UNL     1      14.057   9.825   7.900  1.00  0.00    -0.744 OA
ENDBRANCH  61  65
ENDBRANCH  44  58
BRANCH  45  69
ATOM     69  C   UNL     1       9.911  10.027  -6.096  1.00  0.00     0.023 A 
ATOM     70  C   UNL     1      10.860  10.108  -7.127  1.00  0.00     0.031 A 
ATOM     71  C   UNL     1       8.570   9.793  -6.448  1.00  0.00     0.131 A 
ATOM     72  C   UNL     1      10.450   9.995  -8.464  1.00  0.00     0.055 A 
ATOM     73  C   UNL     1       8.175   9.635  -7.778  1.00  0.00     0.041 A 
ATOM     74  F   UNL     1       7.626   9.698  -5.499  1.00  0.00    -0.206 F 
ATOM     75  C   UNL     1       9.116   9.747  -8.796  1.00  0.00     0.022 A 
BRANCH  72  76
ATOM     76  S   UNL     1      11.682  10.240  -9.773  1.00  0.00     0.124 S 
ATOM     77  O   UNL     1      12.135  11.600  -9.504  1.00  0.00    -0.237 OA
ATOM     78  O   UNL     1      12.640   9.176  -9.491  1.00  0.00    -0.237 OA
ATOM     79  O   UNL     1      10.910  10.071 -11.002  1.00  0.00    -0.744 OA
ENDBRANCH  72  76
ENDBRANCH  45  69
BRANCH  57  80
ATOM     80  C   UNL     1      12.381  15.454  -2.476  1.00  0.00     0.023 A 
ATOM     81  C   UNL     1      11.457  16.413  -2.927  1.00  0.00     0.031 A 
ATOM     82  C   UNL     1      13.739  15.815  -2.421  1.00  0.00     0.131 A 
ATOM     83  C   UNL     1      11.910  17.672  -3.349  1.00  0.00     0.055 A 
ATOM     84  C   UNL     1      14.176  17.087  -2.791  1.00  0.00     0.041 A 
ATOM     85  F   UNL     1      14.663  14.936  -2.000  1.00  0.00    -0.206 F 
ATOM     86  C   UNL     1      13.261  18.020  -3.269  1.00  0.00     0.022 A 
BRANCH  83  87
ATOM     87  S   UNL     1      10.718  18.829  -4.077  1.00  0.00     0.124 S 
ATOM     88  O   UNL     1      10.215  18.070  -5.217  1.00  0.00    -0.237 OA
ATOM     89  O   UNL     1       9.775  19.037  -2.983  1.00  0.00    -0.237 OA
ATOM     90  O   UNL     1      11.534  19.993  -4.419  1.00  0.00    -0.744 OA
ENDBRANCH  83  87
ENDBRANCH  57  80
ENDBRANCH  31  32
ENDBRANCH  23  26
ENDBRANCH  21  22
ENDBRANCH  20  21
ENDBRANCH   1  20
TORSDOF 17
