REMARK SMILES CC(C)[C@H](C(=O)NCCCCNC(=O)c1ccc(-c2c3nc(c(-c4cc(S(=O)(=O)[O-])ccc4F)c4ccc([nH]4)c(-c4cc(S(=O)(=O)[O-])ccc4F)c4nc(c(-c5cc(S(=O)(=O)[O-])ccc5F)c5ccc2[nH]5)C=C4)C=C3)cc1)N1C(=O)/C(=C/c2ccccc2Cl)SC1=S
REMARK SMILES IDX 10 1 9 2 8 3 7 4 5 5 6 6 4 8 2 9 1 10 3 11 78 12 79 13 91 14
REMARK SMILES IDX 80 15 81 16 90 17 92 18 82 19 83 20 84 21 88 22 85 23 87 24
REMARK SMILES IDX 89 25 86 26 11 27 12 28 13 29 14 31 15 32 16 33 77 34 17 35
REMARK SMILES IDX 76 36 18 37 19 38 20 39 70 40 21 41 75 42 69 43 71 44 22 45
REMARK SMILES IDX 74 46 68 47 67 48 23 50 55 51 35 52 54 53 36 54 39 55 53 56
REMARK SMILES IDX 72 57 37 58 38 59 52 61 73 62 40 63 24 64 25 65 33 66 26 67
REMARK SMILES IDX 32 68 34 69 31 70 27 71 28 72 29 73 30 74 56 75 57 76 65 77
REMARK SMILES IDX 58 78 64 79 66 80 63 81 59 82 60 83 61 84 62 85 41 86 42 87
REMARK SMILES IDX 50 88 43 89 49 90 51 91 48 92 44 93 45 94 46 95 47 96
REMARK H PARENT 7 7 12 30 71 49 39 60
REMARK Flexibility Score: inf
ROOT
ATOM      1  C   UNL     1       2.398  -4.919   0.814  1.00  0.00     0.023 C 
ENDROOT
BRANCH   1   2
ATOM      2  C   UNL     1       0.894  -4.677   0.729  1.00  0.00     0.023 C 
BRANCH   2   3
ATOM      3  C   UNL     1       0.394  -3.381   1.368  1.00  0.00     0.116 C 
BRANCH   3   4
ATOM      4  N   UNL     1       0.852  -2.212   0.649  1.00  0.00    -0.354 N 
ATOM      5  C   UNL     1       0.235  -1.333  -0.186  1.00  0.00     0.243 C 
ATOM      6  O   UNL     1       0.925  -0.356  -0.505  1.00  0.00    -0.273 OA
ATOM      7  H   UNL     1       1.806  -2.012   0.793  1.00  0.00     0.163 HD
BRANCH   5   8
ATOM      8  C   UNL     1      -1.294  -1.373  -0.519  1.00  0.00     0.184 C 
BRANCH   8   9
ATOM      9  C   UNL     1      -1.628  -0.361  -1.673  1.00  0.00     0.015 C 
ATOM     10  C   UNL     1      -2.524  -0.877  -2.801  1.00  0.00     0.010 C 
ATOM     11  C   UNL     1      -2.247   0.917  -1.084  1.00  0.00     0.010 C 
ENDBRANCH   8   9
BRANCH   8  12
ATOM     12  N   UNL     1      -1.913  -2.704  -0.663  1.00  0.00    -0.280 N 
ATOM     13  C   UNL     1      -1.319  -3.636  -1.492  1.00  0.00     0.266 C 
ATOM     14  C   UNL     1      -3.140  -3.070  -0.140  1.00  0.00     0.149 C 
ATOM     15  O   UNL     1      -0.359  -3.441  -2.220  1.00  0.00    -0.268 OA
ATOM     16  C   UNL     1      -1.996  -4.955  -1.342  1.00  0.00     0.081 C 
ATOM     17  S   UNL     1      -3.502  -4.745  -0.558  1.00  0.00    -0.054 SA
ATOM     18  S   UNL     1      -4.202  -2.156   0.767  1.00  0.00    -0.052 S 
ATOM     19  C   UNL     1      -1.400  -6.091  -1.722  1.00  0.00     0.031 C 
BRANCH  19  20
ATOM     20  C   UNL     1      -1.940  -7.460  -1.671  1.00  0.00    -0.006 A 
ATOM     21  C   UNL     1      -2.185  -8.103  -0.447  1.00  0.00     0.010 A 
ATOM     22  C   UNL     1      -2.154  -8.176  -2.862  1.00  0.00     0.048 A 
ATOM     23  C   UNL     1      -2.642  -9.427  -0.420  1.00  0.00     0.001 A 
ATOM     24  C   UNL     1      -2.606  -9.497  -2.831  1.00  0.00     0.021 A 
ATOM     25  Cl  UNL     1      -1.873  -7.463  -4.416  1.00  0.00    -0.084 Cl
ATOM     26  C   UNL     1      -2.850 -10.123  -1.610  1.00  0.00     0.002 A 
ENDBRANCH  19  20
ENDBRANCH   8  12
ENDBRANCH   5   8
ENDBRANCH   3   4
ENDBRANCH   2   3
ENDBRANCH   1   2
BRANCH   1  27
ATOM     27  C   UNL     1       2.939  -5.082   2.224  1.00  0.00     0.116 C 
BRANCH  27  28
ATOM     28  N   UNL     1       2.303  -6.177   2.947  1.00  0.00    -0.352 N 
ATOM     29  C   UNL     1       2.851  -7.332   3.456  1.00  0.00     0.251 C 
ATOM     30  H   UNL     1       1.334  -6.075   3.093  1.00  0.00     0.163 HD
ATOM     31  O   UNL     1       2.116  -8.220   3.877  1.00  0.00    -0.269 OA
BRANCH  29  32
ATOM     32  C   UNL     1       4.319  -7.504   3.454  1.00  0.00     0.039 A 
ATOM     33  C   UNL     1       4.868  -8.707   3.004  1.00  0.00     0.014 A 
ATOM     34  C   UNL     1       5.149  -6.451   3.841  1.00  0.00     0.014 A 
ATOM     35  C   UNL     1       6.252  -8.811   2.837  1.00  0.00     0.010 A 
ATOM     36  C   UNL     1       6.511  -6.522   3.580  1.00  0.00     0.010 A 
ATOM     37  C   UNL     1       7.077  -7.698   3.063  1.00  0.00    -0.014 A 
BRANCH  37  38
ATOM     38  C   UNL     1       8.531  -7.714   2.757  1.00  0.00     0.031 A 
ATOM     39  C   UNL     1       9.525  -7.452   3.854  1.00  0.00     0.074 A 
ATOM     40  C   UNL     1       8.945  -7.847   1.481  1.00  0.00     0.049 A 
ATOM     41  N   UNL     1      10.813  -7.242   3.775  1.00  0.00    -0.248 NA
ATOM     42  C   UNL     1       8.982  -7.370   5.218  1.00  0.00     0.031 C 
ATOM     43  C   UNL     1       8.074  -8.068   0.324  1.00  0.00     0.029 A 
ATOM     44  N   UNL     1      10.205  -7.796   0.939  1.00  0.00    -0.354 N 
ATOM     45  C   UNL     1      11.232  -6.981   5.076  1.00  0.00     0.074 A 
ATOM     46  C   UNL     1      10.046  -6.988   5.906  1.00  0.00     0.031 C 
ATOM     47  C   UNL     1       8.827  -8.159  -0.784  1.00  0.00     0.029 A 
ATOM     48  C   UNL     1      10.225  -7.944  -0.429  1.00  0.00     0.049 A 
ATOM     49  H   UNL     1      11.018  -7.666   1.478  1.00  0.00     0.167 HD
ATOM     50  C   UNL     1      12.491  -6.781   5.537  1.00  0.00     0.034 A 
ATOM     51  C   UNL     1      11.252  -7.888  -1.301  1.00  0.00     0.034 A 
ATOM     52  C   UNL     1      13.661  -6.795   4.694  1.00  0.00     0.049 A 
ATOM     53  C   UNL     1      12.636  -7.613  -0.775  1.00  0.00     0.074 A 
ATOM     54  C   UNL     1      14.990  -6.673   5.057  1.00  0.00     0.029 A 
ATOM     55  N   UNL     1      13.639  -6.933   3.311  1.00  0.00    -0.354 N 
ATOM     56  N   UNL     1      13.024  -7.408   0.463  1.00  0.00    -0.248 NA
ATOM     57  C   UNL     1      13.720  -7.554  -1.764  1.00  0.00     0.031 C 
ATOM     58  C   UNL     1      15.765  -6.672   3.892  1.00  0.00     0.029 A 
ATOM     59  C   UNL     1      14.927  -6.862   2.804  1.00  0.00     0.049 A 
ATOM     60  H   UNL     1      12.827  -7.063   2.770  1.00  0.00     0.167 HD
ATOM     61  C   UNL     1      14.401  -7.218   0.402  1.00  0.00     0.074 A 
ATOM     62  C   UNL     1      14.777  -7.344  -0.992  1.00  0.00     0.031 C 
ATOM     63  C   UNL     1      15.278  -6.969   1.407  1.00  0.00     0.034 A 
BRANCH  50  64
ATOM     64  C   UNL     1      12.648  -6.509   7.015  1.00  0.00     0.023 A 
ATOM     65  C   UNL     1      12.246  -7.450   7.981  1.00  0.00     0.031 A 
ATOM     66  C   UNL     1      13.145  -5.276   7.469  1.00  0.00     0.131 A 
ATOM     67  C   UNL     1      12.251  -7.106   9.340  1.00  0.00     0.055 A 
ATOM     68  C   UNL     1      13.236  -4.974   8.830  1.00  0.00     0.041 A 
ATOM     69  F   UNL     1      13.527  -4.329   6.597  1.00  0.00    -0.206 F 
ATOM     70  C   UNL     1      12.767  -5.884   9.774  1.00  0.00     0.022 A 
BRANCH  67  71
ATOM     71  S   UNL     1      11.408  -8.207  10.510  1.00  0.00     0.124 S 
ATOM     72  O   UNL     1      10.055  -8.241   9.959  1.00  0.00    -0.237 OA
ATOM     73  O   UNL     1      12.177  -9.440  10.392  1.00  0.00    -0.237 OA
ATOM     74  O   UNL     1      11.535  -7.511  11.788  1.00  0.00    -0.744 OA
ENDBRANCH  67  71
ENDBRANCH  50  64
BRANCH  51  75
ATOM     75  C   UNL     1      11.014  -8.080  -2.759  1.00  0.00     0.023 A 
ATOM     76  C   UNL     1      11.533  -9.200  -3.428  1.00  0.00     0.031 A 
ATOM     77  C   UNL     1      10.289  -7.139  -3.511  1.00  0.00     0.131 A 
ATOM     78  C   UNL     1      11.349  -9.336  -4.812  1.00  0.00     0.055 A 
ATOM     79  C   UNL     1      10.070  -7.301  -4.881  1.00  0.00     0.041 A 
ATOM     80  F   UNL     1       9.767  -6.054  -2.919  1.00  0.00    -0.206 F 
ATOM     81  C   UNL     1      10.611  -8.401  -5.541  1.00  0.00     0.022 A 
BRANCH  78  82
ATOM     82  S   UNL     1      12.146 -10.727  -5.661  1.00  0.00     0.124 S 
ATOM     83  O   UNL     1      13.554 -10.487  -5.367  1.00  0.00    -0.237 OA
ATOM     84  O   UNL     1      11.538 -11.875  -4.998  1.00  0.00    -0.237 OA
ATOM     85  O   UNL     1      11.758 -10.540  -7.058  1.00  0.00    -0.744 OA
ENDBRANCH  78  82
ENDBRANCH  51  75
BRANCH  63  86
ATOM     86  C   UNL     1      16.731  -6.846   1.030  1.00  0.00     0.023 A 
ATOM     87  C   UNL     1      17.212  -5.743   0.303  1.00  0.00     0.031 A 
ATOM     88  C   UNL     1      17.647  -7.843   1.409  1.00  0.00     0.131 A 
ATOM     89  C   UNL     1      18.566  -5.683  -0.057  1.00  0.00     0.055 A 
ATOM     90  C   UNL     1      19.003  -7.752   1.092  1.00  0.00     0.041 A 
ATOM     91  F   UNL     1      17.238  -8.917   2.102  1.00  0.00    -0.206 F 
ATOM     92  C   UNL     1      19.467  -6.671   0.347  1.00  0.00     0.022 A 
BRANCH  89  93
ATOM     93  S   UNL     1      19.128  -4.320  -1.114  1.00  0.00     0.124 S 
ATOM     94  O   UNL     1      18.361  -4.548  -2.334  1.00  0.00    -0.237 OA
ATOM     95  O   UNL     1      18.754  -3.144  -0.336  1.00  0.00    -0.237 OA
ATOM     96  O   UNL     1      20.567  -4.550  -1.234  1.00  0.00    -0.744 OA
ENDBRANCH  89  93
ENDBRANCH  63  86
ENDBRANCH  37  38
ENDBRANCH  29  32
ENDBRANCH  27  28
ENDBRANCH   1  27
TORSDOF 17
