REMARK SMILES CCCN1C(=O)CO[C@H](C(=O)NCCCCNC(=O)c2ccc(-c3c4nc(c(-c5cc(S(=O)(=O)[O-])ccc5F)c5ccc([nH]5)c(-c5cc(S(=O)(=O)[O-])ccc5F)c5nc(c(-c6cc(S(=O)(=O)[O-])ccc6F)c6ccc3[nH]6)C=C5)C=C4)cc2)[C@@H]1c1cncn1C1CC1
REMARK SMILES IDX 15 1 14 2 13 3 12 4 10 5 11 6 9 8 4 9 5 10 83 11 6 12 7 13
REMARK SMILES IDX 8 14 3 15 2 16 1 17 84 18 85 19 88 20 86 21 87 22 89 23
REMARK SMILES IDX 90 24 91 25 16 26 17 27 18 28 19 30 20 31 21 32 82 33 22 34
REMARK SMILES IDX 81 35 23 36 24 37 25 38 75 39 26 40 80 41 74 42 76 43 27 44
REMARK SMILES IDX 79 45 73 46 72 47 28 49 60 50 40 51 59 52 41 53 44 54 58 55
REMARK SMILES IDX 77 56 42 57 43 58 57 60 78 61 45 62 29 63 30 64 38 65 31 66
REMARK SMILES IDX 37 67 39 68 36 69 32 70 33 71 34 72 35 73 61 74 62 75 70 76
REMARK SMILES IDX 63 77 69 78 71 79 68 80 64 81 65 82 66 83 67 84 46 85 47 86
REMARK SMILES IDX 55 87 48 88 54 89 56 90 53 91 49 92 50 93 51 94 52 95
REMARK H PARENT 12 7 17 29 76 48 44 59
REMARK Flexibility Score: inf
ROOT
ATOM      1  C   UNL     1      -2.283   5.147   7.630  1.00  0.00     0.023 C 
ENDROOT
BRANCH   1   2
ATOM      2  C   UNL     1      -1.152   5.191   6.602  1.00  0.00     0.023 C 
BRANCH   2   3
ATOM      3  C   UNL     1      -1.170   4.084   5.558  1.00  0.00     0.116 C 
BRANCH   3   4
ATOM      4  N   UNL     1      -2.351   4.068   4.720  1.00  0.00    -0.354 N 
ATOM      5  C   UNL     1      -2.487   3.546   3.466  1.00  0.00     0.251 C 
ATOM      6  O   UNL     1      -3.631   3.385   3.027  1.00  0.00    -0.272 OA
ATOM      7  H   UNL     1      -3.156   4.485   5.103  1.00  0.00     0.163 HD
BRANCH   5   8
ATOM      8  C   UNL     1      -1.271   3.148   2.603  1.00  0.00     0.236 C 
ATOM      9  N   UNL     1       0.320   1.306   1.912  1.00  0.00    -0.329 N 
ATOM     10  C   UNL     1       1.111   2.287   1.315  1.00  0.00     0.249 C 
ATOM     11  C   UNL     1      -0.839   1.664   2.739  1.00  0.00     0.172 C 
ATOM     12  O   UNL     1       2.069   2.022   0.588  1.00  0.00    -0.272 OA
ATOM     13  C   UNL     1       0.720   3.754   1.575  1.00  0.00     0.261 C 
ATOM     14  O   UNL     1      -0.150   4.020   2.664  1.00  0.00    -0.356 OA
BRANCH   9  15
ATOM     15  C   UNL     1       0.607  -0.113   1.664  1.00  0.00     0.120 C 
BRANCH  15  16
ATOM     16  C   UNL     1      -0.104  -0.701   0.445  1.00  0.00     0.018 C 
ATOM     17  C   UNL     1       0.507  -0.257  -0.875  1.00  0.00     0.006 C 
ENDBRANCH  15  16
ENDBRANCH   9  15
BRANCH  11  18
ATOM     18  C   UNL     1      -0.778   1.097   4.136  1.00  0.00     0.064 A 
ATOM     19  C   UNL     1      -1.905   0.568   4.770  1.00  0.00     0.136 A 
ATOM     20  N   UNL     1       0.225   0.915   5.082  1.00  0.00    -0.330 N 
ATOM     21  N   UNL     1      -1.638   0.095   6.013  1.00  0.00    -0.245 NA
ATOM     22  C   UNL     1      -0.357   0.299   6.170  1.00  0.00     0.199 A 
BRANCH  20  23
ATOM     23  C   UNL     1       1.631   1.268   5.206  1.00  0.00     0.088 C 
ATOM     24  C   UNL     1       2.693   1.288   4.139  1.00  0.00     0.027 C 
ATOM     25  C   UNL     1       2.220   2.572   4.723  1.00  0.00     0.027 C 
ENDBRANCH  20  23
ENDBRANCH  11  18
ENDBRANCH   5   8
ENDBRANCH   3   4
ENDBRANCH   2   3
ENDBRANCH   1   2
BRANCH   1  26
ATOM     26  C   UNL     1      -2.558   3.790   8.274  1.00  0.00     0.116 C 
BRANCH  26  27
ATOM     27  N   UNL     1      -1.411   3.246   8.985  1.00  0.00    -0.352 N 
ATOM     28  C   UNL     1      -1.277   2.894  10.311  1.00  0.00     0.251 C 
ATOM     29  H   UNL     1      -0.607   3.107   8.434  1.00  0.00     0.163 HD
ATOM     30  O   UNL     1      -0.185   2.546  10.737  1.00  0.00    -0.269 OA
BRANCH  28  31
ATOM     31  C   UNL     1      -2.445   2.986  11.218  1.00  0.00     0.039 A 
ATOM     32  C   UNL     1      -2.297   3.642  12.443  1.00  0.00     0.014 A 
ATOM     33  C   UNL     1      -3.686   2.459  10.852  1.00  0.00     0.014 A 
ATOM     34  C   UNL     1      -3.415   3.854  13.255  1.00  0.00     0.010 A 
ATOM     35  C   UNL     1      -4.812   2.741  11.625  1.00  0.00     0.010 A 
ATOM     36  C   UNL     1      -4.691   3.451  12.829  1.00  0.00    -0.014 A 
BRANCH  36  37
ATOM     37  C   UNL     1      -5.910   3.781  13.619  1.00  0.00     0.031 A 
ATOM     38  C   UNL     1      -6.766   2.683  14.190  1.00  0.00     0.074 A 
ATOM     39  C   UNL     1      -6.286   5.069  13.760  1.00  0.00     0.049 A 
ATOM     40  N   UNL     1      -7.901   2.767  14.835  1.00  0.00    -0.248 NA
ATOM     41  C   UNL     1      -6.295   1.306  13.979  1.00  0.00     0.031 C 
ATOM     42  C   UNL     1      -5.571   6.224  13.211  1.00  0.00     0.029 A 
ATOM     43  N   UNL     1      -7.370   5.625  14.396  1.00  0.00    -0.354 N 
ATOM     44  C   UNL     1      -8.289   1.457  15.095  1.00  0.00     0.074 A 
ATOM     45  C   UNL     1      -7.297   0.600  14.480  1.00  0.00     0.031 C 
ATOM     46  C   UNL     1      -6.223   7.348  13.551  1.00  0.00     0.029 A 
ATOM     47  C   UNL     1      -7.424   6.997  14.301  1.00  0.00     0.049 A 
ATOM     48  H   UNL     1      -8.044   5.092  14.875  1.00  0.00     0.167 HD
ATOM     49  C   UNL     1      -9.359   1.010  15.799  1.00  0.00     0.034 A 
ATOM     50  C   UNL     1      -8.343   7.874  14.753  1.00  0.00     0.034 A 
ATOM     51  C   UNL     1     -10.336   1.877  16.415  1.00  0.00     0.049 A 
ATOM     52  C   UNL     1      -9.534   7.355  15.519  1.00  0.00     0.074 A 
ATOM     53  C   UNL     1     -11.422   1.532  17.201  1.00  0.00     0.029 A 
ATOM     54  N   UNL     1     -10.353   3.262  16.306  1.00  0.00    -0.354 N 
ATOM     55  N   UNL     1      -9.853   6.114  15.808  1.00  0.00    -0.248 NA
ATOM     56  C   UNL     1     -10.480   8.355  16.030  1.00  0.00     0.031 C 
ATOM     57  C   UNL     1     -12.132   2.698  17.509  1.00  0.00     0.029 A 
ATOM     58  C   UNL     1     -11.447   3.781  16.982  1.00  0.00     0.049 A 
ATOM     59  H   UNL     1      -9.685   3.797  15.819  1.00  0.00     0.167 HD
ATOM     60  C   UNL     1     -11.023   6.190  16.560  1.00  0.00     0.074 A 
ATOM     61  C   UNL     1     -11.341   7.596  16.692  1.00  0.00     0.031 C 
ATOM     62  C   UNL     1     -11.764   5.186  17.096  1.00  0.00     0.034 A 
BRANCH  49  63
ATOM     63  C   UNL     1      -9.536  -0.487  15.915  1.00  0.00     0.023 A 
ATOM     64  C   UNL     1      -8.578  -1.296  16.554  1.00  0.00     0.031 A 
ATOM     65  C   UNL     1     -10.658  -1.119  15.352  1.00  0.00     0.131 A 
ATOM     66  C   UNL     1      -8.716  -2.692  16.539  1.00  0.00     0.055 A 
ATOM     67  C   UNL     1     -10.833  -2.504  15.416  1.00  0.00     0.041 A 
ATOM     68  F   UNL     1     -11.598  -0.405  14.713  1.00  0.00    -0.206 F 
ATOM     69  C   UNL     1      -9.850  -3.300  15.997  1.00  0.00     0.022 A 
BRANCH  66  70
ATOM     70  S   UNL     1      -7.321  -3.705  17.100  1.00  0.00     0.124 S 
ATOM     71  O   UNL     1      -6.254  -3.260  16.206  1.00  0.00    -0.237 OA
ATOM     72  O   UNL     1      -7.188  -3.312  18.498  1.00  0.00    -0.237 OA
ATOM     73  O   UNL     1      -7.779  -5.074  16.877  1.00  0.00    -0.744 OA
ENDBRANCH  66  70
ENDBRANCH  49  63
BRANCH  50  74
ATOM     74  C   UNL     1      -8.190   9.334  14.486  1.00  0.00     0.023 A 
ATOM     75  C   UNL     1      -7.989  10.245  15.535  1.00  0.00     0.031 A 
ATOM     76  C   UNL     1      -8.282   9.843  13.179  1.00  0.00     0.131 A 
ATOM     77  C   UNL     1      -7.934  11.622  15.265  1.00  0.00     0.055 A 
ATOM     78  C   UNL     1      -8.175  11.208  12.909  1.00  0.00     0.041 A 
ATOM     79  F   UNL     1      -8.468   9.014  12.139  1.00  0.00    -0.206 F 
ATOM     80  C   UNL     1      -8.012  12.108  13.958  1.00  0.00     0.022 A 
BRANCH  77  81
ATOM     81  S   UNL     1      -7.839  12.778  16.660  1.00  0.00     0.124 S 
ATOM     82  O   UNL     1      -9.042  12.438  17.410  1.00  0.00    -0.237 OA
ATOM     83  O   UNL     1      -6.570  12.404  17.276  1.00  0.00    -0.237 OA
ATOM     84  O   UNL     1      -7.853  14.090  16.015  1.00  0.00    -0.744 OA
ENDBRANCH  77  81
ENDBRANCH  50  74
BRANCH  62  85
ATOM     85  C   UNL     1     -12.968   5.586  17.915  1.00  0.00     0.023 A 
ATOM     86  C   UNL     1     -14.087   6.208  17.333  1.00  0.00     0.031 A 
ATOM     87  C   UNL     1     -12.987   5.354  19.302  1.00  0.00     0.131 A 
ATOM     88  C   UNL     1     -15.153   6.628  18.143  1.00  0.00     0.055 A 
ATOM     89  C   UNL     1     -14.077   5.719  20.093  1.00  0.00     0.041 A 
ATOM     90  F   UNL     1     -11.945   4.767  19.911  1.00  0.00    -0.206 F 
ATOM     91  C   UNL     1     -15.162   6.372  19.517  1.00  0.00     0.022 A 
BRANCH  88  92
ATOM     92  S   UNL     1     -16.490   7.598  17.393  1.00  0.00     0.124 S 
ATOM     93  O   UNL     1     -15.766   8.743  16.849  1.00  0.00    -0.237 OA
ATOM     94  O   UNL     1     -17.040   6.667  16.413  1.00  0.00    -0.237 OA
ATOM     95  O   UNL     1     -17.370   7.901  18.521  1.00  0.00    -0.744 OA
ENDBRANCH  88  92
ENDBRANCH  62  85
ENDBRANCH  36  37
ENDBRANCH  28  31
ENDBRANCH  26  27
ENDBRANCH   1  26
TORSDOF 18
