REMARK SMILES Cc1ccc(-c2nn(CCC(=O)NCCCCNC(=O)c3ccc(-c4c5nc(c(-c6cc(S(=O)(=O)[O-])ccc6F)c6ccc([nH]6)c(-c6cc(S(=O)(=O)[O-])ccc6F)c6nc(c(-c7cc(S(=O)(=O)[O-])ccc7F)c7ccc4[nH]7)C=C6)C=C5)cc3)c(=O)c3noc(C)c23)cc1C
REMARK SMILES IDX 15 1 14 2 13 3 11 4 12 5 10 7 9 8 8 9 6 10 7 11 91 12 86 13
REMARK SMILES IDX 89 14 84 15 87 16 88 17 90 18 85 19 5 20 1 21 2 22 3 23
REMARK SMILES IDX 93 24 4 25 92 26 94 27 16 28 17 29 18 30 19 31 20 33 21 34
REMARK SMILES IDX 22 35 83 36 23 37 82 38 24 39 25 40 26 41 76 42 27 43 81 44
REMARK SMILES IDX 75 45 77 46 28 47 80 48 74 49 73 50 29 52 61 53 41 54 60 55
REMARK SMILES IDX 42 56 45 57 59 58 78 59 43 60 44 61 58 63 79 64 46 65 30 66
REMARK SMILES IDX 31 67 39 68 32 69 38 70 40 71 37 72 33 73 34 74 35 75 36 76
REMARK SMILES IDX 62 77 63 78 71 79 64 80 70 81 72 82 69 83 65 84 66 85 67 86
REMARK SMILES IDX 68 87 47 88 48 89 56 90 49 91 55 92 57 93 54 94 50 95 51 96
REMARK SMILES IDX 52 97 53 98
REMARK H PARENT 13 6 18 32 77 51 45 62
REMARK Flexibility Score: inf
ROOT
ATOM      1  C   UNL     1      -5.440  -4.607   0.924  1.00  0.00     0.023 C 
ENDROOT
BRANCH   1   2
ATOM      2  C   UNL     1      -5.234  -5.100  -0.505  1.00  0.00     0.116 C 
BRANCH   2   3
ATOM      3  N   UNL     1      -6.461  -4.960  -1.270  1.00  0.00    -0.356 N 
ATOM      4  C   UNL     1      -6.812  -4.037  -2.207  1.00  0.00     0.221 C 
ATOM      5  O   UNL     1      -7.975  -4.028  -2.618  1.00  0.00    -0.275 OA
ATOM      6  H   UNL     1      -7.147  -5.641  -1.081  1.00  0.00     0.163 HD
BRANCH   4   7
ATOM      7  C   UNL     1      -5.794  -3.071  -2.775  1.00  0.00     0.124 C 
BRANCH   7   8
ATOM      8  C   UNL     1      -5.909  -1.670  -2.180  1.00  0.00     0.158 C 
BRANCH   8   9
ATOM      9  N   UNL     1      -5.094  -1.477  -0.980  1.00  0.00    -0.227 N 
ATOM     10  C   UNL     1      -2.911  -1.100  -0.177  1.00  0.00     0.104 A 
ATOM     11  N   UNL     1      -3.716  -1.228  -1.197  1.00  0.00    -0.169 NA
ATOM     12  C   UNL     1      -3.407  -1.318   1.149  1.00  0.00     0.078 A 
ATOM     13  C   UNL     1      -4.786  -1.372   1.381  1.00  0.00     0.183 A 
ATOM     14  C   UNL     1      -2.832  -1.549   2.374  1.00  0.00     0.143 A 
ATOM     15  C   UNL     1      -5.735  -1.383   0.283  1.00  0.00     0.296 A 
ATOM     16  N   UNL     1      -5.067  -1.530   2.679  1.00  0.00    -0.074 NA
ATOM     17  O   UNL     1      -3.830  -1.655   3.303  1.00  0.00    -0.360 OA
ATOM     18  C   UNL     1      -1.458  -1.752   2.876  1.00  0.00     0.091 C 
ATOM     19  O   UNL     1      -6.950  -1.380   0.434  1.00  0.00    -0.265 OA
BRANCH  10  20
ATOM     20  C   UNL     1      -1.572  -0.506  -0.322  1.00  0.00     0.003 A 
ATOM     21  C   UNL     1       2.185   1.566   0.009  1.00  0.00     0.044 C 
ATOM     22  C   UNL     1       0.894   0.807  -0.150  1.00  0.00    -0.048 A 
ATOM     23  C   UNL     1      -0.301   1.540  -0.216  1.00  0.00     0.004 A 
ATOM     24  C   UNL     1       0.849  -0.605  -0.207  1.00  0.00    -0.048 A 
ATOM     25  C   UNL     1      -1.526   0.890  -0.300  1.00  0.00     0.011 A 
ATOM     26  C   UNL     1      -0.398  -1.257  -0.301  1.00  0.00     0.014 A 
ATOM     27  C   UNL     1       2.085  -1.459  -0.095  1.00  0.00     0.044 C 
ENDBRANCH  10  20
ENDBRANCH   8   9
ENDBRANCH   7   8
ENDBRANCH   4   7
ENDBRANCH   2   3
ENDBRANCH   1   2
BRANCH   1  28
ATOM     28  C   UNL     1      -5.581  -5.676   2.010  1.00  0.00     0.023 C 
BRANCH  28  29
ATOM     29  C   UNL     1      -4.311  -6.477   2.321  1.00  0.00     0.116 C 
BRANCH  29  30
ATOM     30  N   UNL     1      -3.172  -5.622   2.620  1.00  0.00    -0.352 N 
ATOM     31  C   UNL     1      -2.216  -5.685   3.597  1.00  0.00     0.251 C 
ATOM     32  H   UNL     1      -3.071  -4.858   2.007  1.00  0.00     0.163 HD
ATOM     33  O   UNL     1      -1.414  -4.755   3.689  1.00  0.00    -0.269 OA
BRANCH  31  34
ATOM     34  C   UNL     1      -2.120  -6.817   4.537  1.00  0.00     0.039 A 
ATOM     35  C   UNL     1      -1.822  -6.524   5.874  1.00  0.00     0.014 A 
ATOM     36  C   UNL     1      -2.217  -8.144   4.114  1.00  0.00     0.014 A 
ATOM     37  C   UNL     1      -1.681  -7.556   6.797  1.00  0.00     0.010 A 
ATOM     38  C   UNL     1      -2.085  -9.178   5.042  1.00  0.00     0.010 A 
ATOM     39  C   UNL     1      -1.843  -8.887   6.390  1.00  0.00    -0.014 A 
BRANCH  39  40
ATOM     40  C   UNL     1      -1.882  -9.913   7.449  1.00  0.00     0.031 A 
ATOM     41  C   UNL     1      -3.062 -10.839   7.370  1.00  0.00     0.074 A 
ATOM     42  C   UNL     1      -0.744 -10.376   8.006  1.00  0.00     0.049 A 
ATOM     43  N   UNL     1      -3.139 -11.836   6.537  1.00  0.00    -0.248 NA
ATOM     44  C   UNL     1      -4.335 -10.521   8.020  1.00  0.00     0.031 C 
ATOM     45  C   UNL     1       0.485 -10.644   7.249  1.00  0.00     0.029 A 
ATOM     46  N   UNL     1      -0.513 -10.932   9.241  1.00  0.00    -0.354 N 
ATOM     47  C   UNL     1      -4.453 -12.275   6.531  1.00  0.00     0.074 A 
ATOM     48  C   UNL     1      -5.160 -11.421   7.460  1.00  0.00     0.031 C 
ATOM     49  C   UNL     1       1.263 -11.474   7.974  1.00  0.00     0.029 A 
ATOM     50  C   UNL     1       0.654 -11.690   9.284  1.00  0.00     0.049 A 
ATOM     51  H   UNL     1      -1.109 -10.807  10.014  1.00  0.00     0.167 HD
ATOM     52  C   UNL     1      -4.886 -13.317   5.771  1.00  0.00     0.034 A 
ATOM     53  C   UNL     1       0.805 -12.802  10.057  1.00  0.00     0.034 A 
ATOM     54  C   UNL     1      -3.870 -13.986   5.013  1.00  0.00     0.049 A 
ATOM     55  C   UNL     1       0.057 -13.814   9.220  1.00  0.00     0.074 A 
ATOM     56  C   UNL     1      -3.375 -13.962   3.728  1.00  0.00     0.029 A 
ATOM     57  N   UNL     1      -3.083 -14.905   5.667  1.00  0.00    -0.354 N 
ATOM     58  N   UNL     1       0.485 -14.375   8.120  1.00  0.00    -0.248 NA
ATOM     59  C   UNL     1      -1.391 -13.903   9.421  1.00  0.00     0.031 C 
ATOM     60  C   UNL     1      -2.047 -14.489   3.826  1.00  0.00     0.029 A 
ATOM     61  C   UNL     1      -1.813 -14.760   5.173  1.00  0.00     0.049 A 
ATOM     62  H   UNL     1      -3.376 -15.544   6.357  1.00  0.00     0.167 HD
ATOM     63  C   UNL     1      -0.658 -14.628   7.358  1.00  0.00     0.074 A 
ATOM     64  C   UNL     1      -1.780 -14.343   8.232  1.00  0.00     0.031 C 
ATOM     65  C   UNL     1      -0.638 -14.863   6.012  1.00  0.00     0.034 A 
BRANCH  52  66
ATOM     66  C   UNL     1      -6.247 -13.895   5.802  1.00  0.00     0.023 A 
ATOM     67  C   UNL     1      -6.416 -15.121   6.460  1.00  0.00     0.031 A 
ATOM     68  C   UNL     1      -7.301 -13.408   5.019  1.00  0.00     0.131 A 
ATOM     69  C   UNL     1      -7.590 -15.860   6.287  1.00  0.00     0.055 A 
ATOM     70  C   UNL     1      -8.485 -14.139   4.866  1.00  0.00     0.041 A 
ATOM     71  F   UNL     1      -7.177 -12.252   4.349  1.00  0.00    -0.206 F 
ATOM     72  C   UNL     1      -8.628 -15.380   5.488  1.00  0.00     0.022 A 
BRANCH  69  73
ATOM     73  S   UNL     1      -7.679 -17.497   7.056  1.00  0.00     0.124 S 
ATOM     74  O   UNL     1      -6.521 -18.167   6.474  1.00  0.00    -0.237 OA
ATOM     75  O   UNL     1      -7.580 -17.162   8.473  1.00  0.00    -0.237 OA
ATOM     76  O   UNL     1      -8.979 -18.004   6.623  1.00  0.00    -0.744 OA
ENDBRANCH  69  73
ENDBRANCH  52  66
BRANCH  53  77
ATOM     77  C   UNL     1       0.573 -12.604  11.526  1.00  0.00     0.023 A 
ATOM     78  C   UNL     1       1.157 -11.470  12.132  1.00  0.00     0.031 A 
ATOM     79  C   UNL     1      -0.189 -13.436  12.361  1.00  0.00     0.131 A 
ATOM     80  C   UNL     1       0.861 -11.120  13.457  1.00  0.00     0.055 A 
ATOM     81  C   UNL     1      -0.498 -13.080  13.681  1.00  0.00     0.041 A 
ATOM     82  F   UNL     1      -0.682 -14.601  11.921  1.00  0.00    -0.206 F 
ATOM     83  C   UNL     1       0.006 -11.903  14.228  1.00  0.00     0.022 A 
BRANCH  80  84
ATOM     84  S   UNL     1       1.532  -9.569  14.115  1.00  0.00     0.124 S 
ATOM     85  O   UNL     1       2.933  -9.912  14.337  1.00  0.00    -0.237 OA
ATOM     86  O   UNL     1       1.268  -8.629  13.029  1.00  0.00    -0.237 OA
ATOM     87  O   UNL     1       0.743  -9.345  15.324  1.00  0.00    -0.744 OA
ENDBRANCH  80  84
ENDBRANCH  53  77
BRANCH  65  88
ATOM     88  C   UNL     1       0.711 -14.994   5.382  1.00  0.00     0.023 A 
ATOM     89  C   UNL     1       1.518 -16.104   5.672  1.00  0.00     0.031 A 
ATOM     90  C   UNL     1       1.183 -14.054   4.449  1.00  0.00     0.131 A 
ATOM     91  C   UNL     1       2.743 -16.268   5.014  1.00  0.00     0.055 A 
ATOM     92  C   UNL     1       2.390 -14.236   3.772  1.00  0.00     0.041 A 
ATOM     93  F   UNL     1       0.475 -12.950   4.155  1.00  0.00    -0.206 F 
ATOM     94  C   UNL     1       3.173 -15.353   4.049  1.00  0.00     0.022 A 
BRANCH  91  95
ATOM     95  S   UNL     1       3.755 -17.722   5.395  1.00  0.00     0.124 S 
ATOM     96  O   UNL     1       4.237 -17.428   6.741  1.00  0.00    -0.237 OA
ATOM     97  O   UNL     1       2.798 -18.818   5.282  1.00  0.00    -0.237 OA
ATOM     98  O   UNL     1       4.783 -17.701   4.354  1.00  0.00    -0.744 OA
ENDBRANCH  91  95
ENDBRANCH  65  88
ENDBRANCH  39  40
ENDBRANCH  31  34
ENDBRANCH  29  30
ENDBRANCH  28  29
ENDBRANCH   1  28
TORSDOF 17
