REMARK SMILES Cc1n[nH]c(C(=O)N[C@@H](CC(C)C)C(=O)NCCCCNC(=O)c2ccc(-c3c4nc(c(-c5cc(S(=O)(=O)[O-])ccc5F)c5ccc([nH]5)c(-c5cc(S(=O)(=O)[O-])ccc5F)c5nc(c(-c6cc(S(=O)(=O)[O-])ccc6F)c6ccc3[nH]6)C=C5)C=C4)cc2)n1
REMARK SMILES IDX 19 1 18 2 17 3 16 4 14 5 15 6 9 8 8 9 6 10 7 11 5 13 1 14
REMARK SMILES IDX 2 15 3 16 87 17 4 18 10 20 11 21 12 22 13 23 20 24 21 25
REMARK SMILES IDX 22 26 23 28 24 29 25 30 86 31 26 32 85 33 27 34 28 35 29 36
REMARK SMILES IDX 79 37 30 38 84 39 78 40 80 41 31 42 83 43 77 44 76 45 32 47
REMARK SMILES IDX 64 48 44 49 63 50 45 51 48 52 62 53 81 54 46 55 47 56 61 58
REMARK SMILES IDX 82 59 49 60 33 61 34 62 42 63 35 64 41 65 43 66 40 67 36 68
REMARK SMILES IDX 37 69 38 70 39 71 65 72 66 73 74 74 67 75 73 76 75 77 72 78
REMARK SMILES IDX 68 79 69 80 70 81 71 82 50 83 51 84 59 85 52 86 58 87 60 88
REMARK SMILES IDX 57 89 53 90 54 91 55 92 56 93
REMARK H PARENT 16 7 8 12 4 19 21 27 80 46 48 57
REMARK Flexibility Score: inf
ROOT
ATOM      1  C   UNL     1      -1.882  10.419  -0.800  1.00  0.00     0.023 C 
ENDROOT
BRANCH   1   2
ATOM      2  C   UNL     1      -0.691   9.514  -0.456  1.00  0.00     0.023 C 
BRANCH   2   3
ATOM      3  C   UNL     1      -0.863   8.613   0.766  1.00  0.00     0.116 C 
BRANCH   3   4
ATOM      4  N   UNL     1      -1.884   7.592   0.611  1.00  0.00    -0.354 N 
ATOM      5  C   UNL     1      -2.054   6.380   1.213  1.00  0.00     0.242 C 
ATOM      6  O   UNL     1      -3.154   5.834   1.065  1.00  0.00    -0.273 OA
ATOM      7  H   UNL     1      -2.579   7.815  -0.049  1.00  0.00     0.163 HD
BRANCH   5   8
ATOM      8  C   UNL     1      -0.983   5.677   2.081  1.00  0.00     0.172 C 
BRANCH   8   9
ATOM      9  N   UNL     1       0.295   5.574   1.381  1.00  0.00    -0.338 N 
ATOM     10  C   UNL     1       0.892   4.592   0.625  1.00  0.00     0.289 C 
ATOM     11  O   UNL     1       1.853   5.007  -0.036  1.00  0.00    -0.266 OA
ATOM     12  H   UNL     1       0.849   6.383   1.469  1.00  0.00     0.164 HD
BRANCH  10  13
ATOM     13  C   UNL     1       0.507   3.187   0.624  1.00  0.00     0.214 A 
ATOM     14  C   UNL     1       1.147  -0.217  -0.172  1.00  0.00     0.092 C 
ATOM     15  C   UNL     1       0.628   1.082   0.297  1.00  0.00     0.148 A 
ATOM     16  N   UNL     1      -0.461   1.198   1.057  1.00  0.00    -0.159 NA
ATOM     17  N   UNL     1       1.234   2.268  -0.003  1.00  0.00    -0.207 NA
ATOM     18  N   UNL     1      -0.525   2.530   1.234  1.00  0.00    -0.255 N 
ATOM     19  H   UNL     1      -1.236   2.981   1.745  1.00  0.00     0.192 HD
ENDBRANCH  10  13
ENDBRANCH   8   9
BRANCH   8  20
ATOM     20  C   UNL     1      -0.825   6.071   3.564  1.00  0.00     0.038 C 
BRANCH  20  21
ATOM     21  C   UNL     1      -0.780   7.557   3.950  1.00  0.00    -0.015 C 
ATOM     22  C   UNL     1      -2.183   8.164   4.041  1.00  0.00     0.007 C 
ATOM     23  C   UNL     1      -0.094   7.745   5.310  1.00  0.00     0.007 C 
ENDBRANCH  20  21
ENDBRANCH   8  20
ENDBRANCH   5   8
ENDBRANCH   3   4
ENDBRANCH   2   3
ENDBRANCH   1   2
BRANCH   1  24
ATOM     24  C   UNL     1      -2.377  11.312   0.335  1.00  0.00     0.116 C 
BRANCH  24  25
ATOM     25  N   UNL     1      -1.386  12.284   0.773  1.00  0.00    -0.352 N 
ATOM     26  C   UNL     1      -1.566  13.331   1.661  1.00  0.00     0.251 C 
ATOM     27  H   UNL     1      -0.483  12.186   0.394  1.00  0.00     0.163 HD
ATOM     28  O   UNL     1      -0.775  14.261   1.677  1.00  0.00    -0.269 OA
BRANCH  26  29
ATOM     29  C   UNL     1      -2.732  13.315   2.572  1.00  0.00     0.039 A 
ATOM     30  C   UNL     1      -3.486  14.474   2.771  1.00  0.00     0.014 A 
ATOM     31  C   UNL     1      -3.073  12.132   3.230  1.00  0.00     0.014 A 
ATOM     32  C   UNL     1      -4.634  14.411   3.561  1.00  0.00     0.010 A 
ATOM     33  C   UNL     1      -4.247  12.052   3.958  1.00  0.00     0.010 A 
ATOM     34  C   UNL     1      -5.034  13.190   4.133  1.00  0.00    -0.014 A 
BRANCH  34  35
ATOM     35  C   UNL     1      -6.374  13.068   4.724  1.00  0.00     0.031 A 
ATOM     36  C   UNL     1      -7.478  13.465   3.805  1.00  0.00     0.074 A 
ATOM     37  C   UNL     1      -6.660  12.444   5.888  1.00  0.00     0.049 A 
ATOM     38  N   UNL     1      -8.290  14.463   3.922  1.00  0.00    -0.248 NA
ATOM     39  C   UNL     1      -7.601  12.752   2.522  1.00  0.00     0.031 C 
ATOM     40  C   UNL     1      -5.728  11.734   6.766  1.00  0.00     0.029 A 
ATOM     41  N   UNL     1      -7.872  12.214   6.482  1.00  0.00    -0.354 N 
ATOM     42  C   UNL     1      -9.186  14.357   2.861  1.00  0.00     0.074 A 
ATOM     43  C   UNL     1      -8.586  13.434   1.936  1.00  0.00     0.031 C 
ATOM     44  C   UNL     1      -6.421  10.976   7.645  1.00  0.00     0.029 A 
ATOM     45  C   UNL     1      -7.840  11.256   7.496  1.00  0.00     0.049 A 
ATOM     46  H   UNL     1      -8.695  12.684   6.216  1.00  0.00     0.167 HD
ATOM     47  C   UNL     1     -10.455  14.846   2.960  1.00  0.00     0.034 A 
ATOM     48  C   UNL     1      -8.891  10.707   8.163  1.00  0.00     0.034 A 
ATOM     49  C   UNL     1     -10.561  15.765   4.075  1.00  0.00     0.049 A 
ATOM     50  C   UNL     1     -10.032  11.638   8.032  1.00  0.00     0.074 A 
ATOM     51  C   UNL     1      -9.933  16.942   4.434  1.00  0.00     0.029 A 
ATOM     52  N   UNL     1     -11.181  15.312   5.218  1.00  0.00    -0.354 N 
ATOM     53  N   UNL     1     -10.057  12.820   8.577  1.00  0.00    -0.248 NA
ATOM     54  C   UNL     1     -10.984  11.439   6.951  1.00  0.00     0.031 C 
ATOM     55  C   UNL     1      -9.808  16.878   5.854  1.00  0.00     0.029 A 
ATOM     56  C   UNL     1     -10.435  15.711   6.297  1.00  0.00     0.049 A 
ATOM     57  H   UNL     1     -12.015  14.791   5.254  1.00  0.00     0.167 HD
ATOM     58  C   UNL     1     -10.668  13.631   7.638  1.00  0.00     0.074 A 
ATOM     59  C   UNL     1     -11.343  12.707   6.732  1.00  0.00     0.031 C 
ATOM     60  C   UNL     1     -10.322  14.949   7.527  1.00  0.00     0.034 A 
BRANCH  47  61
ATOM     61  C   UNL     1     -11.688  14.208   2.337  1.00  0.00     0.023 A 
ATOM     62  C   UNL     1     -12.933  14.789   2.655  1.00  0.00     0.031 A 
ATOM     63  C   UNL     1     -11.755  12.933   1.730  1.00  0.00     0.131 A 
ATOM     64  C   UNL     1     -14.131  14.065   2.522  1.00  0.00     0.055 A 
ATOM     65  C   UNL     1     -12.958  12.245   1.534  1.00  0.00     0.041 A 
ATOM     66  F   UNL     1     -10.673  12.240   1.366  1.00  0.00    -0.206 F 
ATOM     67  C   UNL     1     -14.152  12.790   1.968  1.00  0.00     0.022 A 
BRANCH  64  68
ATOM     68  S   UNL     1     -15.628  14.744   3.280  1.00  0.00     0.124 S 
ATOM     69  O   UNL     1     -15.184  14.949   4.655  1.00  0.00    -0.237 OA
ATOM     70  O   UNL     1     -15.847  15.947   2.485  1.00  0.00    -0.237 OA
ATOM     71  O   UNL     1     -16.614  13.683   3.091  1.00  0.00    -0.744 OA
ENDBRANCH  64  68
ENDBRANCH  47  61
BRANCH  48  72
ATOM     72  C   UNL     1      -9.031   9.334   8.720  1.00  0.00     0.023 A 
ATOM     73  C   UNL     1      -9.982   9.001   9.711  1.00  0.00     0.031 A 
ATOM     74  C   UNL     1      -8.384   8.256   8.076  1.00  0.00     0.131 A 
ATOM     75  C   UNL     1     -10.258   7.646  10.009  1.00  0.00     0.055 A 
ATOM     76  C   UNL     1      -8.658   6.920   8.376  1.00  0.00     0.041 A 
ATOM     77  F   UNL     1      -7.527   8.467   7.064  1.00  0.00    -0.206 F 
ATOM     78  C   UNL     1      -9.606   6.609   9.337  1.00  0.00     0.022 A 
BRANCH  75  79
ATOM     79  S   UNL     1     -11.561   7.203  11.206  1.00  0.00     0.124 S 
ATOM     80  O   UNL     1     -10.960   7.588  12.478  1.00  0.00    -0.237 OA
ATOM     81  O   UNL     1     -12.693   8.002  10.752  1.00  0.00    -0.237 OA
ATOM     82  O   UNL     1     -11.720   5.760  11.017  1.00  0.00    -0.744 OA
ENDBRANCH  75  79
ENDBRANCH  48  72
BRANCH  60  83
ATOM     83  C   UNL     1      -9.595  15.595   8.691  1.00  0.00     0.023 A 
ATOM     84  C   UNL     1      -8.403  15.112   9.281  1.00  0.00     0.031 A 
ATOM     85  C   UNL     1     -10.121  16.800   9.189  1.00  0.00     0.131 A 
ATOM     86  C   UNL     1      -7.807  15.814  10.347  1.00  0.00     0.055 A 
ATOM     87  C   UNL     1      -9.514  17.507  10.225  1.00  0.00     0.041 A 
ATOM     88  F   UNL     1     -11.238  17.328   8.659  1.00  0.00    -0.206 F 
ATOM     89  C   UNL     1      -8.360  17.009  10.817  1.00  0.00     0.022 A 
BRANCH  86  90
ATOM     90  S   UNL     1      -6.325  15.160  11.181  1.00  0.00     0.124 S 
ATOM     91  O   UNL     1      -6.600  13.734  11.313  1.00  0.00    -0.237 OA
ATOM     92  O   UNL     1      -5.258  15.519  10.251  1.00  0.00    -0.237 OA
ATOM     93  O   UNL     1      -6.299  15.895  12.447  1.00  0.00    -0.744 OA
ENDBRANCH  86  90
ENDBRANCH  60  83
ENDBRANCH  34  35
ENDBRANCH  26  29
ENDBRANCH  24  25
ENDBRANCH   1  24
TORSDOF 18
