REMARK SMILES CCSCc1cc(F)cc(/C=C/C(=O)NCCCCNC(=O)c2ccc(-c3c4nc(c(-c5cc(S(=O)(=O)[O-])ccc5F)c5ccc([nH]5)c(-c5cc(S(=O)(=O)[O-])ccc5F)c5nc(c(-c6cc(S(=O)(=O)[O-])ccc6F)c6ccc3[nH]6)C=C5)C=C4)cc2)c1
REMARK SMILES IDX 17 1 16 2 15 3 13 4 14 5 12 7 11 8 10 9 5 10 6 11 86 12 7 13
REMARK SMILES IDX 8 14 9 15 4 16 3 17 2 18 1 19 18 20 19 21 20 22 21 23 22 25
REMARK SMILES IDX 23 26 24 27 85 28 25 29 84 30 26 31 27 32 28 33 78 34 29 35
REMARK SMILES IDX 83 36 77 37 79 38 30 39 82 40 76 41 75 42 31 44 63 45 43 46
REMARK SMILES IDX 62 47 44 48 47 49 61 50 80 51 45 52 46 53 60 55 81 56 48 57
REMARK SMILES IDX 32 58 33 59 41 60 34 61 40 62 42 63 39 64 35 65 36 66 37 67
REMARK SMILES IDX 38 68 64 69 65 70 73 71 66 72 72 73 74 74 71 75 67 76 68 77
REMARK SMILES IDX 69 78 70 79 49 80 50 81 58 82 51 83 57 84 59 85 56 86 52 87
REMARK SMILES IDX 53 88 54 89 55 90
REMARK H PARENT 15 6 20 24 79 43 47 54
REMARK Flexibility Score: inf
ROOT
ATOM      1  C   UNL     1      -0.036  -7.150   3.576  1.00  0.00     0.023 C 
ENDROOT
BRANCH   1   2
ATOM      2  C   UNL     1       1.395  -7.653   3.773  1.00  0.00     0.116 C 
BRANCH   2   3
ATOM      3  N   UNL     1       1.760  -8.617   2.750  1.00  0.00    -0.353 N 
ATOM      4  C   UNL     1       2.603  -8.499   1.689  1.00  0.00     0.243 C 
ATOM      5  O   UNL     1       2.856  -9.477   0.989  1.00  0.00    -0.270 OA
ATOM      6  H   UNL     1       1.327  -9.497   2.838  1.00  0.00     0.163 HD
BRANCH   4   7
ATOM      7  C   UNL     1       3.292  -7.219   1.410  1.00  0.00     0.072 C 
ATOM      8  C   UNL     1       2.659  -6.040   1.343  1.00  0.00     0.014 C 
BRANCH   8   9
ATOM      9  C   UNL     1       3.319  -4.764   1.054  1.00  0.00    -0.022 A 
ATOM     10  C   UNL     1       3.444  -2.356   1.491  1.00  0.00    -0.035 A 
ATOM     11  C   UNL     1       4.385  -2.240   0.460  1.00  0.00     0.043 A 
ATOM     12  C   UNL     1       2.939  -3.633   1.794  1.00  0.00     0.013 A 
ATOM     13  C   UNL     1       4.773  -3.366  -0.260  1.00  0.00     0.124 A 
ATOM     14  F   UNL     1       5.661  -3.232  -1.254  1.00  0.00    -0.207 F 
ATOM     15  C   UNL     1       4.244  -4.621   0.018  1.00  0.00     0.047 A 
BRANCH  10  16
ATOM     16  C   UNL     1       3.013  -1.134   2.264  1.00  0.00     0.105 C 
BRANCH  16  17
ATOM     17  S   UNL     1       1.209  -0.932   2.451  1.00  0.00    -0.157 SA
BRANCH  17  18
ATOM     18  C   UNL     1       0.649  -1.049   0.719  1.00  0.00     0.066 C 
ATOM     19  C   UNL     1       1.111   0.123  -0.126  1.00  0.00     0.015 C 
ENDBRANCH  17  18
ENDBRANCH  16  17
ENDBRANCH  10  16
ENDBRANCH   8   9
ENDBRANCH   4   7
ENDBRANCH   2   3
ENDBRANCH   1   2
BRANCH   1  20
ATOM     20  C   UNL     1      -1.123  -8.140   4.005  1.00  0.00     0.023 C 
BRANCH  20  21
ATOM     21  C   UNL     1      -1.112  -8.513   5.484  1.00  0.00     0.116 C 
BRANCH  21  22
ATOM     22  N   UNL     1      -1.245  -7.363   6.365  1.00  0.00    -0.352 N 
ATOM     23  C   UNL     1      -1.811  -7.305   7.616  1.00  0.00     0.251 C 
ATOM     24  H   UNL     1      -0.882  -6.516   6.020  1.00  0.00     0.163 HD
ATOM     25  O   UNL     1      -1.944  -6.224   8.174  1.00  0.00    -0.269 OA
BRANCH  23  26
ATOM     26  C   UNL     1      -2.293  -8.549   8.258  1.00  0.00     0.039 A 
ATOM     27  C   UNL     1      -3.563  -8.553   8.841  1.00  0.00     0.014 A 
ATOM     28  C   UNL     1      -1.504  -9.702   8.281  1.00  0.00     0.014 A 
ATOM     29  C   UNL     1      -4.062  -9.730   9.402  1.00  0.00     0.010 A 
ATOM     30  C   UNL     1      -2.029 -10.890   8.781  1.00  0.00     0.010 A 
ATOM     31  C   UNL     1      -3.309 -10.914   9.354  1.00  0.00    -0.014 A 
BRANCH  31  32
ATOM     32  C   UNL     1      -3.829 -12.176   9.937  1.00  0.00     0.031 A 
ATOM     33  C   UNL     1      -3.143 -12.785  11.129  1.00  0.00     0.074 A 
ATOM     34  C   UNL     1      -4.889 -12.790   9.375  1.00  0.00     0.049 A 
ATOM     35  N   UNL     1      -3.396 -13.913  11.740  1.00  0.00    -0.248 NA
ATOM     36  C   UNL     1      -2.005 -12.040  11.691  1.00  0.00     0.031 C 
ATOM     37  C   UNL     1      -5.619 -12.310   8.199  1.00  0.00     0.029 A 
ATOM     38  N   UNL     1      -5.539 -13.949   9.717  1.00  0.00    -0.354 N 
ATOM     39  C   UNL     1      -2.443 -14.020  12.746  1.00  0.00     0.074 A 
ATOM     40  C   UNL     1      -1.573 -12.870  12.629  1.00  0.00     0.031 C 
ATOM     41  C   UNL     1      -6.637 -13.147   7.941  1.00  0.00     0.029 A 
ATOM     42  C   UNL     1      -6.609 -14.244   8.904  1.00  0.00     0.049 A 
ATOM     43  H   UNL     1      -5.265 -14.517  10.473  1.00  0.00     0.167 HD
ATOM     44  C   UNL     1      -2.321 -14.975  13.699  1.00  0.00     0.034 A 
ATOM     45  C   UNL     1      -7.466 -15.284   8.929  1.00  0.00     0.034 A 
ATOM     46  C   UNL     1      -3.220 -16.091  13.834  1.00  0.00     0.049 A 
ATOM     47  C   UNL     1      -7.296 -16.347   9.982  1.00  0.00     0.074 A 
ATOM     48  C   UNL     1      -3.230 -17.073  14.808  1.00  0.00     0.029 A 
ATOM     49  N   UNL     1      -4.268 -16.373  12.970  1.00  0.00    -0.354 N 
ATOM     50  N   UNL     1      -6.400 -16.421  10.938  1.00  0.00    -0.248 NA
ATOM     51  C   UNL     1      -8.244 -17.470   9.955  1.00  0.00     0.031 C 
ATOM     52  C   UNL     1      -4.252 -17.977  14.505  1.00  0.00     0.029 A 
ATOM     53  C   UNL     1      -4.912 -17.530  13.372  1.00  0.00     0.049 A 
ATOM     54  H   UNL     1      -4.517 -15.829  12.188  1.00  0.00     0.167 HD
ATOM     55  C   UNL     1      -6.683 -17.592  11.632  1.00  0.00     0.074 A 
ATOM     56  C   UNL     1      -7.836 -18.191  10.992  1.00  0.00     0.031 C 
ATOM     57  C   UNL     1      -6.046 -18.121  12.706  1.00  0.00     0.034 A 
BRANCH  44  58
ATOM     58  C   UNL     1      -1.174 -14.854  14.666  1.00  0.00     0.023 A 
ATOM     59  C   UNL     1      -1.121 -13.817  15.612  1.00  0.00     0.031 A 
ATOM     60  C   UNL     1      -0.126 -15.790  14.647  1.00  0.00     0.131 A 
ATOM     61  C   UNL     1      -0.015 -13.708  16.466  1.00  0.00     0.055 A 
ATOM     62  C   UNL     1       0.940 -15.715  15.544  1.00  0.00     0.041 A 
ATOM     63  F   UNL     1      -0.120 -16.790  13.752  1.00  0.00    -0.206 F 
ATOM     64  C   UNL     1       1.004 -14.664  16.456  1.00  0.00     0.022 A 
BRANCH  61  65
ATOM     65  S   UNL     1       0.116 -12.251  17.537  1.00  0.00     0.124 S 
ATOM     66  O   UNL     1       0.291 -11.183  16.556  1.00  0.00    -0.237 OA
ATOM     67  O   UNL     1      -1.158 -12.262  18.247  1.00  0.00    -0.237 OA
ATOM     68  O   UNL     1       1.290 -12.535  18.359  1.00  0.00    -0.744 OA
ENDBRANCH  61  65
ENDBRANCH  44  58
BRANCH  45  69
ATOM     69  C   UNL     1      -8.554 -15.376   7.918  1.00  0.00     0.023 A 
ATOM     70  C   UNL     1      -9.895 -15.181   8.283  1.00  0.00     0.031 A 
ATOM     71  C   UNL     1      -8.266 -15.656   6.571  1.00  0.00     0.131 A 
ATOM     72  C   UNL     1     -10.904 -15.286   7.313  1.00  0.00     0.055 A 
ATOM     73  C   UNL     1      -9.270 -15.727   5.604  1.00  0.00     0.041 A 
ATOM     74  F   UNL     1      -6.997 -15.841   6.173  1.00  0.00    -0.206 F 
ATOM     75  C   UNL     1     -10.599 -15.547   5.974  1.00  0.00     0.022 A 
BRANCH  72  76
ATOM     76  S   UNL     1     -12.633 -15.096   7.827  1.00  0.00     0.124 S 
ATOM     77  O   UNL     1     -12.813 -16.253   8.696  1.00  0.00    -0.237 OA
ATOM     78  O   UNL     1     -12.614 -13.794   8.487  1.00  0.00    -0.237 OA
ATOM     79  O   UNL     1     -13.370 -15.139   6.566  1.00  0.00    -0.744 OA
ENDBRANCH  72  76
ENDBRANCH  45  69
BRANCH  57  80
ATOM     80  C   UNL     1      -6.581 -19.410  13.265  1.00  0.00     0.023 A 
ATOM     81  C   UNL     1      -6.342 -20.634  12.621  1.00  0.00     0.031 A 
ATOM     82  C   UNL     1      -7.267 -19.419  14.492  1.00  0.00     0.131 A 
ATOM     83  C   UNL     1      -6.799 -21.825  13.204  1.00  0.00     0.055 A 
ATOM     84  C   UNL     1      -7.686 -20.609  15.085  1.00  0.00     0.041 A 
ATOM     85  F   UNL     1      -7.511 -18.272  15.146  1.00  0.00    -0.206 F 
ATOM     86  C   UNL     1      -7.452 -21.821  14.440  1.00  0.00     0.022 A 
BRANCH  83  87
ATOM     87  S   UNL     1      -6.525 -23.388  12.328  1.00  0.00     0.124 S 
ATOM     88  O   UNL     1      -7.414 -23.248  11.178  1.00  0.00    -0.237 OA
ATOM     89  O   UNL     1      -5.095 -23.345  12.036  1.00  0.00    -0.237 OA
ATOM     90  O   UNL     1      -6.924 -24.401  13.302  1.00  0.00    -0.744 OA
ENDBRANCH  83  87
ENDBRANCH  57  80
ENDBRANCH  31  32
ENDBRANCH  23  26
ENDBRANCH  21  22
ENDBRANCH  20  21
ENDBRANCH   1  20
TORSDOF 18
