REMARK SMILES NNS(=O)(=O)c1ccc(O)c(C(=O)NCCCCNC(=O)c2ccc(-c3c4nc(c(-c5cc(S(=O)(=O)[O-])ccc5F)c5ccc([nH]5)c(-c5cc(S(=O)(=O)[O-])ccc5F)c5nc(c(-c6cc(S(=O)(=O)[O-])ccc6F)c6ccc3[nH]6)C=C5)C=C4)cc2)c1
REMARK SMILES IDX 16 1 15 2 14 3 12 4 13 5 11 7 6 8 7 9 85 10 8 11 9 12 3 13
REMARK SMILES IDX 4 14 5 15 2 16 1 18 10 21 17 23 18 24 19 25 20 26 21 28
REMARK SMILES IDX 22 29 23 30 84 31 24 32 83 33 25 34 26 35 27 36 77 37 28 38
REMARK SMILES IDX 82 39 76 40 78 41 29 42 81 43 75 44 74 45 30 47 62 48 42 49
REMARK SMILES IDX 61 50 43 51 46 52 60 53 79 54 44 55 45 56 59 58 80 59 47 60
REMARK SMILES IDX 31 61 32 62 40 63 33 64 39 65 41 66 38 67 34 68 35 69 36 70
REMARK SMILES IDX 37 71 63 72 64 73 72 74 65 75 71 76 73 77 70 78 66 79 67 80
REMARK SMILES IDX 68 81 69 82 48 83 49 84 57 85 50 86 56 87 58 88 55 89 51 90
REMARK SMILES IDX 52 91 53 92 54 93
REMARK H PARENT 14 6 2 17 1 19 1 20 10 22 19 27 78 46 46 57
REMARK Flexibility Score: inf
ROOT
ATOM      1  C   UNL     1      -2.803   0.701  -6.721  1.00  0.00     0.023 C 
ENDROOT
BRANCH   1   2
ATOM      2  C   UNL     1      -3.841   0.368  -5.643  1.00  0.00     0.116 C 
BRANCH   2   3
ATOM      3  N   UNL     1      -3.326  -0.661  -4.771  1.00  0.00    -0.352 N 
ATOM      4  C   UNL     1      -2.596  -0.606  -3.616  1.00  0.00     0.255 C 
ATOM      5  O   UNL     1      -2.182  -1.688  -3.188  1.00  0.00    -0.269 OA
ATOM      6  H   UNL     1      -3.541  -1.576  -5.064  1.00  0.00     0.163 HD
BRANCH   4   7
ATOM      7  C   UNL     1      -2.322   0.620  -2.799  1.00  0.00     0.082 A 
ATOM      8  C   UNL     1      -1.744   1.361  -0.541  1.00  0.00     0.084 A 
ATOM      9  C   UNL     1      -1.704   2.690  -0.950  1.00  0.00     0.025 A 
ATOM     10  C   UNL     1      -2.092   0.345  -1.436  1.00  0.00     0.039 A 
ATOM     11  C   UNL     1      -1.928   2.983  -2.289  1.00  0.00     0.048 A 
ATOM     12  C   UNL     1      -2.190   1.956  -3.212  1.00  0.00     0.128 A 
BRANCH   8  13
ATOM     13  S   UNL     1      -1.230   0.938   1.102  1.00  0.00     0.253 S 
ATOM     14  O   UNL     1      -1.625  -0.426   1.387  1.00  0.00    -0.206 OA
ATOM     15  O   UNL     1      -1.600   2.030   1.974  1.00  0.00    -0.206 OA
BRANCH  13  16
ATOM     16  N   UNL     1       0.495   1.023   0.913  1.00  0.00    -0.150 NA
ATOM     17  H   UNL     1       0.721   1.834   0.337  1.00  0.00     0.160 HD
BRANCH  16  18
ATOM     18  N   UNL     1       1.032  -0.130   0.300  1.00  0.00    -0.257 NA
ATOM     19  H   UNL     1       2.043  -0.030   0.213  1.00  0.00     0.138 HD
ATOM     20  H   UNL     1       0.621  -0.246  -0.626  1.00  0.00     0.138 HD
ENDBRANCH  16  18
ENDBRANCH  13  16
ENDBRANCH   8  13
BRANCH  12  21
ATOM     21  O   UNL     1      -2.216   2.328  -4.521  1.00  0.00    -0.507 OA
ATOM     22  H   UNL     1      -2.124   3.231  -4.754  1.00  0.00     0.293 HD
ENDBRANCH  12  21
ENDBRANCH   4   7
ENDBRANCH   2   3
ENDBRANCH   1   2
BRANCH   1  23
ATOM     23  C   UNL     1      -2.833  -0.235  -7.926  1.00  0.00     0.023 C 
BRANCH  23  24
ATOM     24  C   UNL     1      -4.115  -0.154  -8.739  1.00  0.00     0.116 C 
BRANCH  24  25
ATOM     25  N   UNL     1      -4.373   1.176  -9.278  1.00  0.00    -0.352 N 
ATOM     26  C   UNL     1      -5.010   1.485 -10.458  1.00  0.00     0.251 C 
ATOM     27  H   UNL     1      -4.057   1.936  -8.738  1.00  0.00     0.163 HD
ATOM     28  O   UNL     1      -5.072   2.641 -10.858  1.00  0.00    -0.269 OA
BRANCH  26  29
ATOM     29  C   UNL     1      -5.569   0.368 -11.244  1.00  0.00     0.039 A 
ATOM     30  C   UNL     1      -5.122   0.162 -12.549  1.00  0.00     0.014 A 
ATOM     31  C   UNL     1      -6.421  -0.547 -10.622  1.00  0.00     0.014 A 
ATOM     32  C   UNL     1      -5.475  -1.015 -13.212  1.00  0.00     0.010 A 
ATOM     33  C   UNL     1      -6.697  -1.752 -11.250  1.00  0.00     0.010 A 
ATOM     34  C   UNL     1      -6.227  -2.000 -12.552  1.00  0.00    -0.014 A 
BRANCH  34  35
ATOM     35  C   UNL     1      -6.573  -3.293 -13.195  1.00  0.00     0.031 A 
ATOM     36  C   UNL     1      -8.022  -3.640 -13.401  1.00  0.00     0.074 A 
ATOM     37  C   UNL     1      -5.609  -4.184 -13.503  1.00  0.00     0.049 A 
ATOM     38  N   UNL     1      -8.560  -4.772 -13.774  1.00  0.00    -0.248 NA
ATOM     39  C   UNL     1      -8.996  -2.578 -13.107  1.00  0.00     0.031 C 
ATOM     40  C   UNL     1      -4.170  -3.968 -13.335  1.00  0.00     0.029 A 
ATOM     41  N   UNL     1      -5.695  -5.459 -14.005  1.00  0.00    -0.354 N 
ATOM     42  C   UNL     1      -9.934  -4.565 -13.735  1.00  0.00     0.074 A 
ATOM     43  C   UNL     1     -10.144  -3.222 -13.239  1.00  0.00     0.031 C 
ATOM     44  C   UNL     1      -3.511  -5.066 -13.742  1.00  0.00     0.029 A 
ATOM     45  C   UNL     1      -4.477  -6.086 -14.140  1.00  0.00     0.049 A 
ATOM     46  H   UNL     1      -6.549  -5.886 -14.246  1.00  0.00     0.167 HD
ATOM     47  C   UNL     1     -10.928  -5.411 -14.101  1.00  0.00     0.034 A 
ATOM     48  C   UNL     1      -4.175  -7.346 -14.515  1.00  0.00     0.034 A 
ATOM     49  C   UNL     1     -10.696  -6.741 -14.604  1.00  0.00     0.049 A 
ATOM     50  C   UNL     1      -5.301  -8.290 -14.870  1.00  0.00     0.074 A 
ATOM     51  C   UNL     1     -11.624  -7.669 -15.043  1.00  0.00     0.029 A 
ATOM     52  N   UNL     1      -9.447  -7.338 -14.730  1.00  0.00    -0.354 N 
ATOM     53  N   UNL     1      -6.596  -8.074 -14.852  1.00  0.00    -0.248 NA
ATOM     54  C   UNL     1      -4.925  -9.642 -15.303  1.00  0.00     0.031 C 
ATOM     55  C   UNL     1     -10.947  -8.850 -15.357  1.00  0.00     0.029 A 
ATOM     56  C   UNL     1      -9.586  -8.630 -15.211  1.00  0.00     0.049 A 
ATOM     57  H   UNL     1      -8.590  -6.906 -14.511  1.00  0.00     0.167 HD
ATOM     58  C   UNL     1      -7.184  -9.248 -15.318  1.00  0.00     0.074 A 
ATOM     59  C   UNL     1      -6.104 -10.167 -15.606  1.00  0.00     0.031 C 
ATOM     60  C   UNL     1      -8.498  -9.533 -15.505  1.00  0.00     0.034 A 
BRANCH  47  61
ATOM     61  C   UNL     1     -12.349  -4.928 -13.935  1.00  0.00     0.023 A 
ATOM     62  C   UNL     1     -12.832  -3.800 -14.621  1.00  0.00     0.031 A 
ATOM     63  C   UNL     1     -13.225  -5.585 -13.053  1.00  0.00     0.131 A 
ATOM     64  C   UNL     1     -14.120  -3.315 -14.353  1.00  0.00     0.055 A 
ATOM     65  C   UNL     1     -14.539  -5.152 -12.862  1.00  0.00     0.041 A 
ATOM     66  F   UNL     1     -12.816  -6.652 -12.349  1.00  0.00    -0.206 F 
ATOM     67  C   UNL     1     -14.988  -4.000 -13.501  1.00  0.00     0.022 A 
BRANCH  64  68
ATOM     68  S   UNL     1     -14.584  -1.688 -15.008  1.00  0.00     0.124 S 
ATOM     69  O   UNL     1     -13.555  -0.832 -14.423  1.00  0.00    -0.237 OA
ATOM     70  O   UNL     1     -14.500  -1.893 -16.450  1.00  0.00    -0.237 OA
ATOM     71  O   UNL     1     -15.931  -1.479 -14.483  1.00  0.00    -0.744 OA
ENDBRANCH  64  68
ENDBRANCH  47  61
BRANCH  48  72
ATOM     72  C   UNL     1      -2.756  -7.808 -14.558  1.00  0.00     0.023 A 
ATOM     73  C   UNL     1      -2.164  -8.215 -15.764  1.00  0.00     0.031 A 
ATOM     74  C   UNL     1      -1.984  -7.899 -13.385  1.00  0.00     0.131 A 
ATOM     75  C   UNL     1      -0.865  -8.746 -15.764  1.00  0.00     0.055 A 
ATOM     76  C   UNL     1      -0.669  -8.369 -13.400  1.00  0.00     0.041 A 
ATOM     77  F   UNL     1      -2.498  -7.523 -12.203  1.00  0.00    -0.206 F 
ATOM     78  C   UNL     1      -0.107  -8.810 -14.593  1.00  0.00     0.022 A 
BRANCH  75  79
ATOM     79  S   UNL     1      -0.215  -9.451 -17.305  1.00  0.00     0.124 S 
ATOM     80  O   UNL     1      -1.212 -10.472 -17.605  1.00  0.00    -0.237 OA
ATOM     81  O   UNL     1      -0.199  -8.289 -18.186  1.00  0.00    -0.237 OA
ATOM     82  O   UNL     1       1.101  -9.957 -16.918  1.00  0.00    -0.744 OA
ENDBRANCH  75  79
ENDBRANCH  48  72
BRANCH  60  83
ATOM     83  C   UNL     1      -8.843 -10.863 -16.132  1.00  0.00     0.023 A 
ATOM     84  C   UNL     1      -8.629 -12.085 -15.473  1.00  0.00     0.031 A 
ATOM     85  C   UNL     1      -9.432 -10.895 -17.410  1.00  0.00     0.131 A 
ATOM     86  C   UNL     1      -8.966 -13.289 -16.111  1.00  0.00     0.055 A 
ATOM     87  C   UNL     1      -9.822 -12.090 -18.012  1.00  0.00     0.041 A 
ATOM     88  F   UNL     1      -9.655  -9.757 -18.088  1.00  0.00    -0.206 F 
ATOM     89  C   UNL     1      -9.581 -13.298 -17.366  1.00  0.00     0.022 A 
BRANCH  86  90
ATOM     90  S   UNL     1      -8.522 -14.857 -15.313  1.00  0.00     0.124 S 
ATOM     91  O   UNL     1      -7.073 -14.736 -15.190  1.00  0.00    -0.237 OA
ATOM     92  O   UNL     1      -9.275 -14.796 -14.064  1.00  0.00    -0.237 OA
ATOM     93  O   UNL     1      -8.982 -15.868 -16.263  1.00  0.00    -0.744 OA
ENDBRANCH  86  90
ENDBRANCH  60  83
ENDBRANCH  34  35
ENDBRANCH  26  29
ENDBRANCH  24  25
ENDBRANCH  23  24
ENDBRANCH   1  23
TORSDOF 18
