REMARK SMILES O=C(C[C@H]([NH2+]Cc1ccco1)C(=O)NCCCCNC(=O)c1ccc(-c2c3nc(c(-c4cc(S(=O)(=O)[O-])ccc4F)c4ccc([nH]4)c(-c4cc(S(=O)(=O)[O-])ccc4F)c4nc(c(-c5cc(S(=O)(=O)[O-])ccc5F)c5ccc2[nH]5)C=C4)C=C3)cc1)Nc1ccc(O)cc1
REMARK SMILES IDX 16 1 15 2 14 3 12 4 13 5 4 7 3 8 2 9 1 10 85 11 86 13 87 14
REMARK SMILES IDX 92 15 88 16 91 17 89 18 90 19 5 21 6 24 7 25 8 26 11 27 9 28
REMARK SMILES IDX 10 29 17 30 18 31 19 32 20 33 21 35 22 36 23 37 84 38 24 39
REMARK SMILES IDX 83 40 25 41 26 42 27 43 77 44 28 45 82 46 76 47 78 48 29 49
REMARK SMILES IDX 81 50 75 51 74 52 30 54 62 55 42 56 61 57 43 58 46 59 60 60
REMARK SMILES IDX 79 61 44 62 45 63 59 65 80 66 47 67 31 68 32 69 40 70 33 71
REMARK SMILES IDX 39 72 41 73 38 74 34 75 35 76 36 77 37 78 63 79 64 80 72 81
REMARK SMILES IDX 65 82 71 83 73 84 70 85 66 86 67 87 68 88 69 89 48 90 49 91
REMARK SMILES IDX 57 92 50 93 56 94 58 95 55 96 51 97 52 98 53 99 54 100
REMARK H PARENT 14 6 85 12 90 20 5 22 5 23 19 34 78 53 46 64
REMARK Flexibility Score: inf
ROOT
ATOM      1  C   UNL     1       5.285  -4.294  -0.555  1.00  0.00     0.023 C 
ENDROOT
BRANCH   1   2
ATOM      2  C   UNL     1       5.638  -2.845  -0.850  1.00  0.00     0.116 C 
BRANCH   2   3
ATOM      3  N   UNL     1       5.290  -2.384  -2.172  1.00  0.00    -0.351 N 
ATOM      4  C   UNL     1       4.695  -1.217  -2.559  1.00  0.00     0.278 C 
ATOM      5  O   UNL     1       4.702  -0.953  -3.768  1.00  0.00    -0.268 OA
ATOM      6  H   UNL     1       5.516  -3.003  -2.904  1.00  0.00     0.163 HD
BRANCH   4   7
ATOM      7  C   UNL     1       4.017  -0.234  -1.564  1.00  0.00     0.282 C 
BRANCH   7   8
ATOM      8  C   UNL     1       4.987   0.733  -0.863  1.00  0.00     0.175 C 
BRANCH   8   9
ATOM      9  C   UNL     1       6.057   0.146   0.030  1.00  0.00     0.230 C 
ATOM     10  O   UNL     1       7.229   0.143  -0.335  1.00  0.00    -0.274 OA
ATOM     11  N   UNL     1       5.578  -0.386   1.217  1.00  0.00    -0.326 N 
ATOM     12  H   UNL     1       4.622  -0.261   1.414  1.00  0.00     0.169 HD
BRANCH  11  13
ATOM     13  C   UNL     1       6.349  -1.093   2.168  1.00  0.00     0.041 A 
ATOM     14  C   UNL     1       5.682  -2.023   2.979  1.00  0.00     0.030 A 
ATOM     15  C   UNL     1       7.733  -0.941   2.300  1.00  0.00     0.030 A 
ATOM     16  C   UNL     1       6.399  -2.820   3.875  1.00  0.00     0.048 A 
ATOM     17  C   UNL     1       8.446  -1.715   3.219  1.00  0.00     0.048 A 
ATOM     18  C   UNL     1       7.771  -2.653   3.984  1.00  0.00     0.115 A 
BRANCH  18  19
ATOM     19  O   UNL     1       8.476  -3.478   4.807  1.00  0.00    -0.508 OA
ATOM     20  H   UNL     1       8.027  -4.115   5.327  1.00  0.00     0.293 HD
ENDBRANCH  18  19
ENDBRANCH  11  13
ENDBRANCH   8   9
ENDBRANCH   7   8
BRANCH   7  21
ATOM     21  N   UNL     1       2.989  -0.922  -0.757  1.00  0.00    -0.329 N 
ATOM     22  H   UNL     1       3.458  -1.433  -0.010  1.00  0.00     0.347 HD
ATOM     23  H   UNL     1       2.478  -1.534  -1.394  1.00  0.00     0.347 HD
BRANCH  21  24
ATOM     24  C   UNL     1       2.007  -0.030  -0.155  1.00  0.00     0.337 C 
BRANCH  24  25
ATOM     25  C   UNL     1       1.132  -0.798   0.769  1.00  0.00     0.157 A 
ATOM     26  C   UNL     1       0.219  -1.817   0.587  1.00  0.00     0.052 A 
ATOM     27  O   UNL     1       1.227  -0.490   2.095  1.00  0.00    -0.463 OA
ATOM     28  C   UNL     1      -0.282  -2.137   1.871  1.00  0.00     0.042 A 
ATOM     29  C   UNL     1       0.359  -1.300   2.753  1.00  0.00     0.195 A 
ENDBRANCH  24  25
ENDBRANCH  21  24
ENDBRANCH   7  21
ENDBRANCH   4   7
ENDBRANCH   2   3
ENDBRANCH   1   2
BRANCH   1  30
ATOM     30  C   UNL     1       6.313  -5.321  -1.008  1.00  0.00     0.023 C 
BRANCH  30  31
ATOM     31  C   UNL     1       7.761  -5.049  -0.605  1.00  0.00     0.116 C 
BRANCH  31  32
ATOM     32  N   UNL     1       7.966  -4.837   0.827  1.00  0.00    -0.352 N 
ATOM     33  C   UNL     1       8.871  -5.443   1.675  1.00  0.00     0.251 C 
ATOM     34  H   UNL     1       7.376  -4.169   1.245  1.00  0.00     0.163 HD
ATOM     35  O   UNL     1       8.864  -5.213   2.880  1.00  0.00    -0.269 OA
BRANCH  33  36
ATOM     36  C   UNL     1       9.824  -6.429   1.135  1.00  0.00     0.039 A 
ATOM     37  C   UNL     1       9.913  -7.674   1.762  1.00  0.00     0.014 A 
ATOM     38  C   UNL     1      10.548  -6.161  -0.028  1.00  0.00     0.014 A 
ATOM     39  C   UNL     1      10.613  -8.703   1.138  1.00  0.00     0.010 A 
ATOM     40  C   UNL     1      11.169  -7.210  -0.692  1.00  0.00     0.010 A 
ATOM     41  C   UNL     1      11.168  -8.497  -0.134  1.00  0.00    -0.014 A 
BRANCH  41  42
ATOM     42  C   UNL     1      11.665  -9.633  -0.944  1.00  0.00     0.031 A 
ATOM     43  C   UNL     1      13.106  -9.687  -1.353  1.00  0.00     0.074 A 
ATOM     44  C   UNL     1      10.779 -10.545  -1.392  1.00  0.00     0.049 A 
ATOM     45  N   UNL     1      13.701 -10.516  -2.168  1.00  0.00    -0.248 NA
ATOM     46  C   UNL     1      13.985  -8.649  -0.795  1.00  0.00     0.031 C 
ATOM     47  C   UNL     1       9.343 -10.549  -1.087  1.00  0.00     0.029 A 
ATOM     48  N   UNL     1      10.940 -11.633  -2.211  1.00  0.00    -0.354 N 
ATOM     49  C   UNL     1      15.023 -10.093  -2.235  1.00  0.00     0.074 A 
ATOM     50  C   UNL     1      15.125  -8.901  -1.419  1.00  0.00     0.031 C 
ATOM     51  C   UNL     1       8.764 -11.597  -1.693  1.00  0.00     0.029 A 
ATOM     52  C   UNL     1       9.769 -12.305  -2.476  1.00  0.00     0.049 A 
ATOM     53  H   UNL     1      11.813 -11.907  -2.576  1.00  0.00     0.167 HD
ATOM     54  C   UNL     1      16.055 -10.662  -2.904  1.00  0.00     0.034 A 
ATOM     55  C   UNL     1       9.528 -13.357  -3.282  1.00  0.00     0.034 A 
ATOM     56  C   UNL     1      15.918 -11.852  -3.707  1.00  0.00     0.049 A 
ATOM     57  C   UNL     1      10.684 -13.947  -4.046  1.00  0.00     0.074 A 
ATOM     58  C   UNL     1      16.899 -12.559  -4.378  1.00  0.00     0.029 A 
ATOM     59  N   UNL     1      14.716 -12.504  -3.959  1.00  0.00    -0.354 N 
ATOM     60  N   UNL     1      11.943 -13.572  -4.052  1.00  0.00    -0.248 NA
ATOM     61  C   UNL     1      10.390 -15.094  -4.912  1.00  0.00     0.031 C 
ATOM     62  C   UNL     1      16.283 -13.596  -5.088  1.00  0.00     0.029 A 
ATOM     63  C   UNL     1      14.925 -13.579  -4.808  1.00  0.00     0.049 A 
ATOM     64  H   UNL     1      13.843 -12.240  -3.588  1.00  0.00     0.167 HD
ATOM     65  C   UNL     1      12.594 -14.447  -4.915  1.00  0.00     0.074 A 
ATOM     66  C   UNL     1      11.592 -15.382  -5.389  1.00  0.00     0.031 C 
ATOM     67  C   UNL     1      13.899 -14.477  -5.285  1.00  0.00     0.034 A 
BRANCH  54  68
ATOM     68  C   UNL     1      17.399  -9.981  -2.813  1.00  0.00     0.023 A 
ATOM     69  C   UNL     1      18.074  -9.842  -1.587  1.00  0.00     0.031 A 
ATOM     70  C   UNL     1      17.998  -9.427  -3.958  1.00  0.00     0.131 A 
ATOM     71  C   UNL     1      19.261  -9.098  -1.519  1.00  0.00     0.055 A 
ATOM     72  C   UNL     1      19.222  -8.757  -3.898  1.00  0.00     0.041 A 
ATOM     73  F   UNL     1      17.393  -9.509  -5.153  1.00  0.00    -0.206 F 
ATOM     74  C   UNL     1      19.853  -8.575  -2.671  1.00  0.00     0.022 A 
BRANCH  71  75
ATOM     75  S   UNL     1      19.942  -8.702   0.115  1.00  0.00     0.124 S 
ATOM     76  O   UNL     1      18.838  -7.963   0.723  1.00  0.00    -0.237 OA
ATOM     77  O   UNL     1      20.211 -10.022   0.673  1.00  0.00    -0.237 OA
ATOM     78  O   UNL     1      21.125  -7.900  -0.192  1.00  0.00    -0.744 OA
ENDBRANCH  71  75
ENDBRANCH  54  68
BRANCH  55  79
ATOM     79  C   UNL     1       8.146 -13.897  -3.434  1.00  0.00     0.023 A 
ATOM     80  C   UNL     1       7.826 -15.195  -3.008  1.00  0.00     0.031 A 
ATOM     81  C   UNL     1       7.127 -13.130  -4.029  1.00  0.00     0.131 A 
ATOM     82  C   UNL     1       6.533 -15.702  -3.214  1.00  0.00     0.055 A 
ATOM     83  C   UNL     1       5.830 -13.621  -4.188  1.00  0.00     0.041 A 
ATOM     84  F   UNL     1       7.375 -11.880  -4.450  1.00  0.00    -0.206 F 
ATOM     85  C   UNL     1       5.530 -14.920  -3.789  1.00  0.00     0.022 A 
BRANCH  82  86
ATOM     86  S   UNL     1       6.199 -17.432  -2.783  1.00  0.00     0.124 S 
ATOM     87  O   UNL     1       7.190 -18.137  -3.589  1.00  0.00    -0.237 OA
ATOM     88  O   UNL     1       6.425 -17.433  -1.342  1.00  0.00    -0.237 OA
ATOM     89  O   UNL     1       4.810 -17.623  -3.195  1.00  0.00    -0.744 OA
ENDBRANCH  82  86
ENDBRANCH  55  79
BRANCH  67  90
ATOM     90  C   UNL     1      14.303 -15.568  -6.242  1.00  0.00     0.023 A 
ATOM     91  C   UNL     1      13.872 -15.561  -7.580  1.00  0.00     0.031 A 
ATOM     92  C   UNL     1      15.123 -16.625  -5.811  1.00  0.00     0.131 A 
ATOM     93  C   UNL     1      14.227 -16.617  -8.431  1.00  0.00     0.055 A 
ATOM     94  C   UNL     1      15.519 -17.643  -6.678  1.00  0.00     0.041 A 
ATOM     95  F   UNL     1      15.558 -16.678  -4.542  1.00  0.00    -0.206 F 
ATOM     96  C   UNL     1      15.063 -17.648  -7.993  1.00  0.00     0.022 A 
BRANCH  93  97
ATOM     97  S   UNL     1      13.525 -16.661 -10.101  1.00  0.00     0.124 S 
ATOM     98  O   UNL     1      12.096 -16.770  -9.825  1.00  0.00    -0.237 OA
ATOM     99  O   UNL     1      13.970 -15.389 -10.663  1.00  0.00    -0.237 OA
ATOM    100  O   UNL     1      14.134 -17.848 -10.698  1.00  0.00    -0.744 OA
ENDBRANCH  93  97
ENDBRANCH  67  90
ENDBRANCH  41  42
ENDBRANCH  33  36
ENDBRANCH  31  32
ENDBRANCH  30  31
ENDBRANCH   1  30
TORSDOF 21
