REMARK SMILES COc1cccc([C@@H]2[NH2+][C@@](C)(C(=O)NCCCCNC(=O)c3ccc(-c4c5nc(c(-c6cc(S(=O)(=O)[O-])ccc6F)c6ccc([nH]6)c(-c6cc(S(=O)(=O)[O-])ccc6F)c6nc(c(-c7cc(S(=O)(=O)[O-])ccc7F)c7ccc4[nH]7)C=C6)C=C5)cc3)[C@@H]3C(=O)N(C)C(=O)[C@@H]32)c1O
REMARK SMILES IDX 17 1 16 2 15 3 14 4 12 5 13 6 10 8 8 9 9 10 92 11 85 14
REMARK SMILES IDX 90 15 11 16 86 17 88 18 91 19 87 20 89 21 7 22 3 23 4 24
REMARK SMILES IDX 93 25 5 26 6 27 2 28 1 29 94 30 18 32 19 33 20 34 21 36
REMARK SMILES IDX 22 37 23 38 84 39 24 40 83 41 25 42 26 43 27 44 77 45 28 46
REMARK SMILES IDX 82 47 76 48 78 49 29 50 81 51 75 52 74 53 30 55 62 56 42 57
REMARK SMILES IDX 61 58 43 59 46 60 60 61 79 62 44 63 45 64 59 66 80 67 47 68
REMARK SMILES IDX 31 69 32 70 40 71 33 72 39 73 41 74 38 75 34 76 35 77 36 78
REMARK SMILES IDX 37 79 63 80 64 81 72 82 65 83 71 84 73 85 70 86 66 87 67 88
REMARK SMILES IDX 68 89 69 90 48 91 49 92 57 93 50 94 56 95 58 96 55 97 51 98
REMARK SMILES IDX 52 99 53 100 54 101
REMARK H PARENT 14 7 9 12 9 13 94 31 19 35 78 54 46 65
REMARK Flexibility Score: inf
ROOT
ATOM      1  C   UNL     1       4.355  -4.151   8.588  1.00  0.00     0.023 C 
ENDROOT
BRANCH   1   2
ATOM      2  C   UNL     1       3.453  -3.767   7.416  1.00  0.00     0.023 C 
BRANCH   2   3
ATOM      3  C   UNL     1       3.631  -2.334   6.923  1.00  0.00     0.116 C 
BRANCH   3   4
ATOM      4  N   UNL     1       4.961  -2.103   6.383  1.00  0.00    -0.351 N 
ATOM      5  C   UNL     1       5.343  -1.684   5.140  1.00  0.00     0.281 C 
ATOM      6  O   UNL     1       6.555  -1.627   4.912  1.00  0.00    -0.268 OA
ATOM      7  H   UNL     1       5.700  -2.276   7.009  1.00  0.00     0.163 HD
BRANCH   5   8
ATOM      8  C   UNL     1       4.285  -1.261   4.070  1.00  0.00     0.185 C 
ATOM      9  C   UNL     1       3.759  -3.119   2.616  1.00  0.00     0.232 C 
ATOM     10  N   UNL     1       3.369  -2.413   3.855  1.00  0.00    -0.326 N 
ATOM     11  C   UNL     1       4.993  -2.399   2.054  1.00  0.00     0.161 C 
ATOM     12  H   UNL     1       3.434  -3.053   4.647  1.00  0.00     0.347 HD
ATOM     13  H   UNL     1       2.410  -2.078   3.771  1.00  0.00     0.347 HD
ATOM     14  C   UNL     1       4.992  -1.036   2.730  1.00  0.00     0.169 C 
ATOM     15  C   UNL     1       4.948  -2.056   0.590  1.00  0.00     0.239 C 
ATOM     16  C   UNL     1       3.570  -0.005   4.591  1.00  0.00     0.091 C 
ATOM     17  C   UNL     1       4.352  -0.156   1.683  1.00  0.00     0.240 C 
ATOM     18  N   UNL     1       4.518  -0.763   0.469  1.00  0.00    -0.285 N 
ATOM     19  O   UNL     1       5.200  -2.824  -0.323  1.00  0.00    -0.274 OA
ATOM     20  O   UNL     1       3.798   0.919   1.862  1.00  0.00    -0.274 OA
ATOM     21  C   UNL     1       4.187  -0.158  -0.798  1.00  0.00     0.156 C 
BRANCH   9  22
ATOM     22  C   UNL     1       2.588  -3.305   1.652  1.00  0.00     0.056 A 
ATOM     23  C   UNL     1       0.710  -2.442   0.329  1.00  0.00     0.161 A 
ATOM     24  C   UNL     1       0.618  -3.680  -0.313  1.00  0.00     0.050 A 
ATOM     25  C   UNL     1       1.659  -2.284   1.345  1.00  0.00     0.166 A 
ATOM     26  C   UNL     1       1.479  -4.725   0.018  1.00  0.00     0.005 A 
ATOM     27  C   UNL     1       2.470  -4.532   0.979  1.00  0.00     0.014 A 
BRANCH  23  28
ATOM     28  O   UNL     1      -0.227  -1.534  -0.084  1.00  0.00    -0.493 OA
ATOM     29  C   UNL     1       0.154  -0.166  -0.109  1.00  0.00     0.278 C 
ENDBRANCH  23  28
BRANCH  25  30
ATOM     30  O   UNL     1       1.665  -1.187   2.161  1.00  0.00    -0.504 OA
ATOM     31  H   UNL     1       1.070  -0.482   2.002  1.00  0.00     0.293 HD
ENDBRANCH  25  30
ENDBRANCH   9  22
ENDBRANCH   5   8
ENDBRANCH   3   4
ENDBRANCH   2   3
ENDBRANCH   1   2
BRANCH   1  32
ATOM     32  C   UNL     1       4.304  -3.204   9.782  1.00  0.00     0.116 C 
BRANCH  32  33
ATOM     33  N   UNL     1       2.969  -3.080  10.348  1.00  0.00    -0.352 N 
ATOM     34  C   UNL     1       2.562  -3.240  11.651  1.00  0.00     0.251 C 
ATOM     35  H   UNL     1       2.258  -2.849   9.708  1.00  0.00     0.163 HD
ATOM     36  O   UNL     1       1.364  -3.254  11.918  1.00  0.00    -0.269 OA
BRANCH  34  37
ATOM     37  C   UNL     1       3.571  -3.430  12.716  1.00  0.00     0.039 A 
ATOM     38  C   UNL     1       3.381  -4.447  13.653  1.00  0.00     0.014 A 
ATOM     39  C   UNL     1       4.715  -2.629  12.770  1.00  0.00     0.014 A 
ATOM     40  C   UNL     1       4.375  -4.709  14.599  1.00  0.00     0.010 A 
ATOM     41  C   UNL     1       5.741  -2.947  13.655  1.00  0.00     0.010 A 
ATOM     42  C   UNL     1       5.583  -3.990  14.581  1.00  0.00    -0.014 A 
BRANCH  42  43
ATOM     43  C   UNL     1       6.689  -4.320  15.519  1.00  0.00     0.031 A 
ATOM     44  C   UNL     1       7.163  -3.300  16.519  1.00  0.00     0.074 A 
ATOM     45  C   UNL     1       7.304  -5.517  15.432  1.00  0.00     0.049 A 
ATOM     46  N   UNL     1       8.140  -3.381  17.386  1.00  0.00    -0.248 NA
ATOM     47  C   UNL     1       6.464  -2.006  16.523  1.00  0.00     0.031 C 
ATOM     48  C   UNL     1       6.961  -6.575  14.479  1.00  0.00     0.029 A 
ATOM     49  N   UNL     1       8.346  -6.047  16.152  1.00  0.00    -0.354 N 
ATOM     50  C   UNL     1       8.185  -2.147  18.025  1.00  0.00     0.074 A 
ATOM     51  C   UNL     1       7.178  -1.317  17.399  1.00  0.00     0.031 C 
ATOM     52  C   UNL     1       7.746  -7.641  14.703  1.00  0.00     0.029 A 
ATOM     53  C   UNL     1       8.686  -7.326  15.774  1.00  0.00     0.049 A 
ATOM     54  H   UNL     1       8.807  -5.558  16.871  1.00  0.00     0.167 HD
ATOM     55  C   UNL     1       8.976  -1.750  19.053  1.00  0.00     0.034 A 
ATOM     56  C   UNL     1       9.649  -8.150  16.234  1.00  0.00     0.034 A 
ATOM     57  C   UNL     1       9.969  -2.597  19.671  1.00  0.00     0.049 A 
ATOM     58  C   UNL     1      10.546  -7.670  17.349  1.00  0.00     0.074 A 
ATOM     59  C   UNL     1      10.776  -2.322  20.762  1.00  0.00     0.029 A 
ATOM     60  N   UNL     1      10.305  -3.876  19.244  1.00  0.00    -0.354 N 
ATOM     61  N   UNL     1      10.532  -6.523  17.987  1.00  0.00    -0.248 NA
ATOM     62  C   UNL     1      11.583  -8.603  17.808  1.00  0.00     0.031 C 
ATOM     63  C   UNL     1      11.658  -3.394  20.937  1.00  0.00     0.029 A 
ATOM     64  C   UNL     1      11.338  -4.382  20.019  1.00  0.00     0.049 A 
ATOM     65  H   UNL     1       9.872  -4.354  18.500  1.00  0.00     0.167 HD
ATOM     66  C   UNL     1      11.534  -6.613  18.951  1.00  0.00     0.074 A 
ATOM     67  C   UNL     1      12.120  -7.931  18.816  1.00  0.00     0.031 C 
ATOM     68  C   UNL     1      11.928  -5.693  19.868  1.00  0.00     0.034 A 
BRANCH  55  69
ATOM     69  C   UNL     1       8.823  -0.327  19.542  1.00  0.00     0.023 A 
ATOM     70  C   UNL     1       7.611   0.152  20.070  1.00  0.00     0.031 A 
ATOM     71  C   UNL     1       9.899   0.575  19.449  1.00  0.00     0.131 A 
ATOM     72  C   UNL     1       7.477   1.510  20.398  1.00  0.00     0.055 A 
ATOM     73  C   UNL     1       9.786   1.903  19.866  1.00  0.00     0.041 A 
ATOM     74  F   UNL     1      11.076   0.186  18.934  1.00  0.00    -0.206 F 
ATOM     75  C   UNL     1       8.564   2.383  20.327  1.00  0.00     0.022 A 
BRANCH  72  76
ATOM     76  S   UNL     1       5.818   2.154  20.755  1.00  0.00     0.124 S 
ATOM     77  O   UNL     1       5.093   1.792  19.539  1.00  0.00    -0.237 OA
ATOM     78  O   UNL     1       5.449   1.423  21.961  1.00  0.00    -0.237 OA
ATOM     79  O   UNL     1       6.038   3.587  20.935  1.00  0.00    -0.744 OA
ENDBRANCH  72  76
ENDBRANCH  55  69
BRANCH  56  80
ATOM     80  C   UNL     1       9.825  -9.512  15.652  1.00  0.00     0.023 A 
ATOM     81  C   UNL     1       9.640 -10.660  16.439  1.00  0.00     0.031 A 
ATOM     82  C   UNL     1      10.227  -9.689  14.316  1.00  0.00     0.131 A 
ATOM     83  C   UNL     1       9.905 -11.929  15.902  1.00  0.00     0.055 A 
ATOM     84  C   UNL     1      10.431 -10.957  13.768  1.00  0.00     0.041 A 
ATOM     85  F   UNL     1      10.418  -8.627  13.517  1.00  0.00    -0.206 F 
ATOM     86  C   UNL     1      10.284 -12.087  14.567  1.00  0.00     0.022 A 
BRANCH  83  87
ATOM     87  S   UNL     1       9.839 -13.369  17.004  1.00  0.00     0.124 S 
ATOM     88  O   UNL     1      10.827 -13.013  18.015  1.00  0.00    -0.237 OA
ATOM     89  O   UNL     1       8.445 -13.356  17.435  1.00  0.00    -0.237 OA
ATOM     90  O   UNL     1      10.209 -14.481  16.131  1.00  0.00    -0.744 OA
ENDBRANCH  83  87
ENDBRANCH  56  80
BRANCH  68  91
ATOM     91  C   UNL     1      13.017  -6.105  20.832  1.00  0.00     0.023 A 
ATOM     92  C   UNL     1      14.323  -6.396  20.401  1.00  0.00     0.031 A 
ATOM     93  C   UNL     1      12.735  -6.226  22.206  1.00  0.00     0.131 A 
ATOM     94  C   UNL     1      15.278  -6.854  21.321  1.00  0.00     0.055 A 
ATOM     95  C   UNL     1      13.709  -6.611  23.127  1.00  0.00     0.041 A 
ATOM     96  F   UNL     1      11.504  -5.967  22.677  1.00  0.00    -0.206 F 
ATOM     97  C   UNL     1      14.986  -6.943  22.684  1.00  0.00     0.022 A 
BRANCH  94  98
ATOM     98  S   UNL     1      16.879  -7.438  20.697  1.00  0.00     0.124 S 
ATOM     99  O   UNL     1      16.476  -8.492  19.771  1.00  0.00    -0.237 OA
ATOM    100  O   UNL     1      17.435  -6.234  20.089  1.00  0.00    -0.237 OA
ATOM    101  O   UNL     1      17.568  -7.899  21.901  1.00  0.00    -0.744 OA
ENDBRANCH  94  98
ENDBRANCH  68  91
ENDBRANCH  42  43
ENDBRANCH  34  37
ENDBRANCH  32  33
ENDBRANCH   1  32
TORSDOF 17
