REMARK SMILES Cc1ccc(Nc2nc(C(=O)NCCCCNC(=O)c3ccc(-c4c5nc(c(-c6cc(S(=O)(=O)[O-])ccc6F)c6ccc([nH]6)c(-c6cc(S(=O)(=O)[O-])ccc6F)c6nc(c(-c7cc(S(=O)(=O)[O-])ccc7F)c7ccc4[nH]7)C=C6)C=C5)cc3)cs2)cc1
REMARK SMILES IDX 15 1 14 2 13 3 12 4 10 5 11 6 9 8 7 9 8 10 84 11 83 12 6 13
REMARK SMILES IDX 5 15 1 16 2 17 3 18 86 19 4 20 85 21 16 22 17 23 18 24 19 26
REMARK SMILES IDX 20 27 21 28 82 29 22 30 81 31 23 32 24 33 25 34 75 35 26 36
REMARK SMILES IDX 80 37 74 38 76 39 27 40 79 41 73 42 72 43 28 45 60 46 40 47
REMARK SMILES IDX 59 48 41 49 44 50 58 51 77 52 42 53 43 54 57 56 78 57 45 58
REMARK SMILES IDX 29 59 30 60 38 61 31 62 37 63 39 64 36 65 32 66 33 67 34 68
REMARK SMILES IDX 35 69 61 70 62 71 70 72 63 73 69 74 71 75 68 76 64 77 65 78
REMARK SMILES IDX 66 79 67 80 46 81 47 82 55 83 48 84 54 85 56 86 53 87 49 88
REMARK SMILES IDX 50 89 51 90 52 91
REMARK H PARENT 12 7 6 14 17 25 76 44 44 55
REMARK Flexibility Score: inf
ROOT
ATOM      1  C   UNL     1      -3.964  -2.778   5.461  1.00  0.00     0.023 C 
ENDROOT
BRANCH   1   2
ATOM      2  C   UNL     1      -3.509  -2.178   4.123  1.00  0.00     0.023 C 
BRANCH   2   3
ATOM      3  C   UNL     1      -2.921  -3.189   3.127  1.00  0.00     0.116 C 
BRANCH   3   4
ATOM      4  N   UNL     1      -3.908  -4.171   2.675  1.00  0.00    -0.351 N 
ATOM      5  C   UNL     1      -4.772  -4.153   1.605  1.00  0.00     0.270 C 
ATOM      6  O   UNL     1      -5.546  -5.105   1.476  1.00  0.00    -0.267 OA
ATOM      7  H   UNL     1      -3.963  -4.981   3.232  1.00  0.00     0.163 HD
BRANCH   5   8
ATOM      8  C   UNL     1      -4.793  -3.027   0.662  1.00  0.00     0.141 A 
ATOM      9  C   UNL     1      -4.083  -1.123  -0.277  1.00  0.00     0.187 A 
ATOM     10  N   UNL     1      -3.857  -2.009   0.661  1.00  0.00    -0.215 NA
ATOM     11  S   UNL     1      -5.519  -1.420  -1.185  1.00  0.00    -0.104 S 
ATOM     12  C   UNL     1      -5.744  -2.892  -0.336  1.00  0.00     0.102 A 
BRANCH   9  13
ATOM     13  N   UNL     1      -3.312  -0.047  -0.544  1.00  0.00    -0.332 N 
ATOM     14  H   UNL     1      -3.775   0.775  -0.828  1.00  0.00     0.169 HD
BRANCH  13  15
ATOM     15  C   UNL     1      -1.906   0.010  -0.455  1.00  0.00     0.040 A 
ATOM     16  C   UNL     1       2.412   0.320  -0.329  1.00  0.00     0.044 C 
ATOM     17  C   UNL     1       0.917   0.219  -0.374  1.00  0.00    -0.051 A 
ATOM     18  C   UNL     1       0.297  -1.031  -0.347  1.00  0.00     0.005 A 
ATOM     19  C   UNL     1       0.119   1.365  -0.364  1.00  0.00     0.005 A 
ATOM     20  C   UNL     1      -1.098  -1.131  -0.374  1.00  0.00     0.026 A 
ATOM     21  C   UNL     1      -1.276   1.261  -0.409  1.00  0.00     0.026 A 
ENDBRANCH  13  15
ENDBRANCH   9  13
ENDBRANCH   5   8
ENDBRANCH   3   4
ENDBRANCH   2   3
ENDBRANCH   1   2
BRANCH   1  22
ATOM     22  C   UNL     1      -2.842  -3.393   6.293  1.00  0.00     0.116 C 
BRANCH  22  23
ATOM     23  N   UNL     1      -2.216  -2.518   7.275  1.00  0.00    -0.352 N 
ATOM     24  C   UNL     1      -1.089  -2.758   8.054  1.00  0.00     0.251 C 
ATOM     25  H   UNL     1      -2.648  -1.643   7.405  1.00  0.00     0.163 HD
ATOM     26  O   UNL     1      -0.755  -1.990   8.937  1.00  0.00    -0.269 OA
BRANCH  24  27
ATOM     27  C   UNL     1      -0.236  -3.935   7.733  1.00  0.00     0.039 A 
ATOM     28  C   UNL     1       1.133  -3.722   7.529  1.00  0.00     0.014 A 
ATOM     29  C   UNL     1      -0.804  -5.169   7.432  1.00  0.00     0.014 A 
ATOM     30  C   UNL     1       1.873  -4.661   6.809  1.00  0.00     0.010 A 
ATOM     31  C   UNL     1      -0.104  -6.046   6.625  1.00  0.00     0.010 A 
ATOM     32  C   UNL     1       1.216  -5.766   6.262  1.00  0.00    -0.014 A 
BRANCH  32  33
ATOM     33  C   UNL     1       1.776  -6.580   5.187  1.00  0.00     0.031 A 
ATOM     34  C   UNL     1       2.175  -7.990   5.411  1.00  0.00     0.074 A 
ATOM     35  C   UNL     1       1.917  -6.068   3.942  1.00  0.00     0.049 A 
ATOM     36  N   UNL     1       3.125  -8.578   4.760  1.00  0.00    -0.248 NA
ATOM     37  C   UNL     1       1.546  -8.854   6.407  1.00  0.00     0.031 C 
ATOM     38  C   UNL     1       2.215  -6.813   2.718  1.00  0.00     0.029 A 
ATOM     39  N   UNL     1       1.958  -4.756   3.506  1.00  0.00    -0.354 N 
ATOM     40  C   UNL     1       3.024  -9.925   5.010  1.00  0.00     0.074 A 
ATOM     41  C   UNL     1       2.087 -10.040   6.105  1.00  0.00     0.031 C 
ATOM     42  C   UNL     1       2.704  -5.963   1.801  1.00  0.00     0.029 A 
ATOM     43  C   UNL     1       2.871  -4.680   2.456  1.00  0.00     0.049 A 
ATOM     44  H   UNL     1       1.434  -4.008   3.874  1.00  0.00     0.167 HD
ATOM     45  C   UNL     1       3.606 -10.827   4.171  1.00  0.00     0.034 A 
ATOM     46  C   UNL     1       4.030  -3.958   2.479  1.00  0.00     0.034 A 
ATOM     47  C   UNL     1       4.255 -10.189   3.032  1.00  0.00     0.049 A 
ATOM     48  C   UNL     1       5.262  -4.786   2.164  1.00  0.00     0.074 A 
ATOM     49  C   UNL     1       3.864 -10.016   1.714  1.00  0.00     0.029 A 
ATOM     50  N   UNL     1       5.374  -9.389   3.219  1.00  0.00    -0.354 N 
ATOM     51  N   UNL     1       5.310  -6.086   2.259  1.00  0.00    -0.248 NA
ATOM     52  C   UNL     1       6.540  -4.218   1.747  1.00  0.00     0.031 C 
ATOM     53  C   UNL     1       4.760  -9.106   1.103  1.00  0.00     0.029 A 
ATOM     54  C   UNL     1       5.701  -8.735   2.047  1.00  0.00     0.049 A 
ATOM     55  H   UNL     1       5.866  -9.301   4.067  1.00  0.00     0.167 HD
ATOM     56  C   UNL     1       6.568  -6.535   1.934  1.00  0.00     0.074 A 
ATOM     57  C   UNL     1       7.299  -5.322   1.615  1.00  0.00     0.031 C 
ATOM     58  C   UNL     1       6.872  -7.871   1.968  1.00  0.00     0.034 A 
BRANCH  45  59
ATOM     59  C   UNL     1       3.297 -12.303   4.219  1.00  0.00     0.023 A 
ATOM     60  C   UNL     1       3.207 -13.035   3.017  1.00  0.00     0.031 A 
ATOM     61  C   UNL     1       3.063 -13.033   5.398  1.00  0.00     0.131 A 
ATOM     62  C   UNL     1       2.797 -14.378   3.005  1.00  0.00     0.055 A 
ATOM     63  C   UNL     1       2.608 -14.358   5.387  1.00  0.00     0.041 A 
ATOM     64  F   UNL     1       3.291 -12.494   6.607  1.00  0.00    -0.206 F 
ATOM     65  C   UNL     1       2.457 -15.034   4.183  1.00  0.00     0.022 A 
BRANCH  62  66
ATOM     66  S   UNL     1       2.712 -15.249   1.416  1.00  0.00     0.124 S 
ATOM     67  O   UNL     1       1.773 -14.426   0.660  1.00  0.00    -0.237 OA
ATOM     68  O   UNL     1       4.101 -15.217   0.971  1.00  0.00    -0.237 OA
ATOM     69  O   UNL     1       2.212 -16.573   1.783  1.00  0.00    -0.744 OA
ENDBRANCH  62  66
ENDBRANCH  45  59
BRANCH  46  70
ATOM     70  C   UNL     1       4.009  -2.791   3.401  1.00  0.00     0.023 A 
ATOM     71  C   UNL     1       3.026  -1.808   3.179  1.00  0.00     0.031 A 
ATOM     72  C   UNL     1       4.640  -2.817   4.652  1.00  0.00     0.131 A 
ATOM     73  C   UNL     1       2.585  -0.999   4.234  1.00  0.00     0.055 A 
ATOM     74  C   UNL     1       4.237  -1.963   5.688  1.00  0.00     0.041 A 
ATOM     75  F   UNL     1       5.564  -3.747   4.934  1.00  0.00    -0.206 F 
ATOM     76  C   UNL     1       3.178  -1.075   5.494  1.00  0.00     0.022 A 
BRANCH  73  77
ATOM     77  S   UNL     1       1.055  -0.051   3.990  1.00  0.00     0.124 S 
ATOM     78  O   UNL     1       1.500   1.003   3.085  1.00  0.00    -0.237 OA
ATOM     79  O   UNL     1       0.168  -1.068   3.431  1.00  0.00    -0.237 OA
ATOM     80  O   UNL     1       0.705   0.389   5.338  1.00  0.00    -0.744 OA
ENDBRANCH  73  77
ENDBRANCH  46  70
BRANCH  58  81
ATOM     81  C   UNL     1       8.241  -8.523   1.830  1.00  0.00     0.023 A 
ATOM     82  C   UNL     1       9.447  -7.814   1.731  1.00  0.00     0.031 A 
ATOM     83  C   UNL     1       8.380  -9.938   1.845  1.00  0.00     0.131 A 
ATOM     84  C   UNL     1      10.684  -8.479   1.601  1.00  0.00     0.055 A 
ATOM     85  C   UNL     1       9.612 -10.596   1.767  1.00  0.00     0.041 A 
ATOM     86  F   UNL     1       7.324 -10.757   1.952  1.00  0.00    -0.206 F 
ATOM     87  C   UNL     1      10.778  -9.866   1.634  1.00  0.00     0.022 A 
BRANCH  84  88
ATOM     88  S   UNL     1      12.174  -7.477   1.349  1.00  0.00     0.124 S 
ATOM     89  O   UNL     1      11.886  -6.821   0.077  1.00  0.00    -0.237 OA
ATOM     90  O   UNL     1      12.169  -6.610   2.523  1.00  0.00    -0.237 OA
ATOM     91  O   UNL     1      13.252  -8.463   1.310  1.00  0.00    -0.744 OA
ENDBRANCH  84  88
ENDBRANCH  58  81
ENDBRANCH  32  33
ENDBRANCH  24  27
ENDBRANCH  22  23
ENDBRANCH   1  22
TORSDOF 16
