REMARK SMILES CC(C)[C@H](NC(=O)[C@H](C)NC(=O)CNC(=O)OCc1ccccc1)C(=O)NCCCCNC(=O)c1ccc(-c2c3nc(c(-c4cc(S(=O)(=O)[O-])ccc4F)c4ccc([nH]4)c(-c4cc(S(=O)(=O)[O-])ccc4F)c4nc(c(-c5cc(S(=O)(=O)[O-])ccc5F)c5ccc2[nH]5)C=C4)C=C3)cc1
REMARK SMILES IDX 25 1 26 2 27 3 4 5 2 6 1 7 3 8 5 9 6 10 7 12 8 13 9 14 10 15
REMARK SMILES IDX 11 16 12 18 13 19 14 20 15 21 16 23 17 24 18 25 19 26 20 27
REMARK SMILES IDX 24 28 21 29 23 30 22 31 28 32 29 33 30 34 31 35 32 36 33 37
REMARK SMILES IDX 34 39 35 40 36 41 97 42 37 43 96 44 38 45 39 46 40 47 90 48
REMARK SMILES IDX 41 49 95 50 89 51 91 52 42 53 94 54 88 55 87 56 43 58 75 59
REMARK SMILES IDX 55 60 74 61 56 62 59 63 73 64 92 65 57 66 58 67 72 69 93 70
REMARK SMILES IDX 60 71 44 72 45 73 53 74 46 75 52 76 54 77 51 78 47 79 48 80
REMARK SMILES IDX 49 81 50 82 76 83 77 84 85 85 78 86 84 87 86 88 83 89 79 90
REMARK SMILES IDX 80 91 81 92 82 93 61 94 62 95 70 96 63 97 69 98 71 99 68 100
REMARK SMILES IDX 64 101 65 102 66 103 67 104
REMARK H PARENT 27 4 5 11 10 17 14 22 32 38 91 57 59 68
REMARK Flexibility Score: inf
ROOT
ATOM      1  C   UNL     1      -3.938  -5.539   1.290  1.00  0.00     0.242 C 
ATOM      2  O   UNL     1      -4.635  -4.655   1.808  1.00  0.00    -0.273 OA
ATOM      3  N   UNL     1      -4.289  -5.864   0.018  1.00  0.00    -0.354 N 
ATOM      4  H   UNL     1      -5.129  -5.441  -0.273  1.00  0.00     0.163 HD
ENDROOT
BRANCH   1   5
ATOM      5  C   UNL     1      -2.746  -6.140   2.107  1.00  0.00     0.173 C 
BRANCH   5   6
ATOM      6  C   UNL     1      -1.633  -5.134   2.511  1.00  0.00     0.015 C 
ATOM      7  C   UNL     1      -2.115  -3.762   2.989  1.00  0.00     0.010 C 
ATOM      8  C   UNL     1      -0.718  -5.713   3.607  1.00  0.00     0.010 C 
ENDBRANCH   5   6
BRANCH   5   9
ATOM      9  N   UNL     1      -2.214  -7.461   1.727  1.00  0.00    -0.342 N 
ATOM     10  C   UNL     1      -1.172  -7.894   0.964  1.00  0.00     0.242 C 
ATOM     11  H   UNL     1      -2.732  -8.203   2.115  1.00  0.00     0.164 HD
ATOM     12  O   UNL     1      -0.880  -9.090   1.076  1.00  0.00    -0.273 OA
BRANCH  10  13
ATOM     13  C   UNL     1      -0.341  -6.945   0.062  1.00  0.00     0.168 C 
ATOM     14  C   UNL     1       0.087  -7.736  -1.179  1.00  0.00     0.041 C 
BRANCH  13  15
ATOM     15  N   UNL     1       0.851  -6.497   0.782  1.00  0.00    -0.343 N 
ATOM     16  C   UNL     1       1.492  -5.290   0.763  1.00  0.00     0.240 C 
ATOM     17  H   UNL     1       1.255  -7.171   1.375  1.00  0.00     0.164 HD
ATOM     18  O   UNL     1       2.406  -5.115   1.573  1.00  0.00    -0.273 OA
BRANCH  16  19
ATOM     19  C   UNL     1       1.009  -4.140  -0.139  1.00  0.00     0.219 C 
BRANCH  19  20
ATOM     20  N   UNL     1       0.971  -4.536  -1.529  1.00  0.00    -0.312 N 
ATOM     21  C   UNL     1      -0.067  -4.394  -2.395  1.00  0.00     0.407 C 
ATOM     22  H   UNL     1       1.787  -4.955  -1.887  1.00  0.00     0.167 HD
ATOM     23  O   UNL     1      -0.071  -5.000  -3.456  1.00  0.00    -0.225 OA
BRANCH  21  24
ATOM     24  O   UNL     1      -1.066  -3.612  -1.924  1.00  0.00    -0.445 OA
BRANCH  24  25
ATOM     25  C   UNL     1      -2.281  -3.657  -2.681  1.00  0.00     0.270 C 
BRANCH  25  26
ATOM     26  C   UNL     1      -2.470  -2.525  -3.656  1.00  0.00    -0.011 A 
ATOM     27  C   UNL     1      -1.673  -2.437  -4.806  1.00  0.00     0.007 A 
ATOM     28  C   UNL     1      -3.531  -1.618  -3.500  1.00  0.00     0.007 A 
ATOM     29  C   UNL     1      -1.932  -1.469  -5.778  1.00  0.00     0.000 A 
ATOM     30  C   UNL     1      -3.793  -0.656  -4.478  1.00  0.00     0.000 A 
ATOM     31  C   UNL     1      -2.993  -0.583  -5.617  1.00  0.00     0.000 A 
ENDBRANCH  25  26
ENDBRANCH  24  25
ENDBRANCH  21  24
ENDBRANCH  19  20
ENDBRANCH  16  19
ENDBRANCH  13  15
ENDBRANCH  10  13
ENDBRANCH   5   9
ENDBRANCH   1   5
BRANCH   3  32
ATOM     32  C   UNL     1      -3.690  -6.702  -0.997  1.00  0.00     0.116 C 
BRANCH  32  33
ATOM     33  C   UNL     1      -4.682  -7.535  -1.804  1.00  0.00     0.023 C 
BRANCH  33  34
ATOM     34  C   UNL     1      -5.702  -6.793  -2.670  1.00  0.00     0.023 C 
BRANCH  34  35
ATOM     35  C   UNL     1      -5.171  -5.833  -3.734  1.00  0.00     0.116 C 
BRANCH  35  36
ATOM     36  N   UNL     1      -4.171  -6.399  -4.621  1.00  0.00    -0.352 N 
ATOM     37  C   UNL     1      -3.933  -6.154  -5.958  1.00  0.00     0.251 C 
ATOM     38  H   UNL     1      -3.571  -7.059  -4.205  1.00  0.00     0.163 HD
ATOM     39  O   UNL     1      -3.074  -6.821  -6.532  1.00  0.00    -0.269 OA
BRANCH  37  40
ATOM     40  C   UNL     1      -4.719  -5.148  -6.721  1.00  0.00     0.039 A 
ATOM     41  C   UNL     1      -5.070  -5.433  -8.047  1.00  0.00     0.014 A 
ATOM     42  C   UNL     1      -5.099  -3.926  -6.165  1.00  0.00     0.014 A 
ATOM     43  C   UNL     1      -5.861  -4.536  -8.775  1.00  0.00     0.010 A 
ATOM     44  C   UNL     1      -5.930  -3.055  -6.870  1.00  0.00     0.010 A 
ATOM     45  C   UNL     1      -6.329  -3.355  -8.178  1.00  0.00    -0.014 A 
BRANCH  45  46
ATOM     46  C   UNL     1      -7.271  -2.448  -8.885  1.00  0.00     0.031 A 
ATOM     47  C   UNL     1      -6.848  -1.063  -9.291  1.00  0.00     0.074 A 
ATOM     48  C   UNL     1      -8.544  -2.848  -9.073  1.00  0.00     0.049 A 
ATOM     49  N   UNL     1      -7.542  -0.128  -9.888  1.00  0.00    -0.248 NA
ATOM     50  C   UNL     1      -5.474  -0.668  -8.950  1.00  0.00     0.031 C 
ATOM     51  C   UNL     1      -9.093  -4.137  -8.646  1.00  0.00     0.029 A 
ATOM     52  N   UNL     1      -9.611  -2.209  -9.652  1.00  0.00    -0.354 N 
ATOM     53  C   UNL     1      -6.692   0.968  -9.996  1.00  0.00     0.074 A 
ATOM     54  C   UNL     1      -5.454   0.598  -9.340  1.00  0.00     0.031 C 
ATOM     55  C   UNL     1     -10.390  -4.198  -8.988  1.00  0.00     0.029 A 
ATOM     56  C   UNL     1     -10.771  -2.949  -9.639  1.00  0.00     0.049 A 
ATOM     57  H   UNL     1      -9.553  -1.306 -10.039  1.00  0.00     0.167 HD
ATOM     58  C   UNL     1      -6.917   2.160 -10.606  1.00  0.00     0.034 A 
ATOM     59  C   UNL     1     -12.001  -2.657 -10.105  1.00  0.00     0.034 A 
ATOM     60  C   UNL     1      -8.160   2.508 -11.255  1.00  0.00     0.049 A 
ATOM     61  C   UNL     1     -12.222  -1.340 -10.803  1.00  0.00     0.074 A 
ATOM     62  C   UNL     1      -8.476   3.656 -11.962  1.00  0.00     0.029 A 
ATOM     63  N   UNL     1      -9.301   1.713 -11.269  1.00  0.00    -0.354 N 
ATOM     64  N   UNL     1     -11.380  -0.348 -10.980  1.00  0.00    -0.248 NA
ATOM     65  C   UNL     1     -13.548  -1.118 -11.391  1.00  0.00     0.031 C 
ATOM     66  C   UNL     1      -9.819   3.583 -12.349  1.00  0.00     0.029 A 
ATOM     67  C   UNL     1     -10.325   2.356 -11.950  1.00  0.00     0.049 A 
ATOM     68  H   UNL     1      -9.372   0.823 -10.855  1.00  0.00     0.167 HD
ATOM     69  C   UNL     1     -12.065   0.599 -11.736  1.00  0.00     0.074 A 
ATOM     70  C   UNL     1     -13.383   0.053 -11.988  1.00  0.00     0.031 C 
ATOM     71  C   UNL     1     -11.638   1.805 -12.190  1.00  0.00     0.034 A 
BRANCH  58  72
ATOM     72  C   UNL     1      -5.796   3.175 -10.588  1.00  0.00     0.023 A 
ATOM     73  C   UNL     1      -4.555   2.911 -11.193  1.00  0.00     0.031 A 
ATOM     74  C   UNL     1      -5.960   4.415  -9.945  1.00  0.00     0.131 A 
ATOM     75  C   UNL     1      -3.504   3.833 -11.075  1.00  0.00     0.055 A 
ATOM     76  C   UNL     1      -4.936   5.366  -9.905  1.00  0.00     0.041 A 
ATOM     77  F   UNL     1      -7.114   4.721  -9.332  1.00  0.00    -0.206 F 
ATOM     78  C   UNL     1      -3.694   5.071 -10.458  1.00  0.00     0.022 A 
BRANCH  75  79
ATOM     79  S   UNL     1      -1.847   3.328 -11.611  1.00  0.00     0.124 S 
ATOM     80  O   UNL     1      -1.610   2.158 -10.768  1.00  0.00    -0.237 OA
ATOM     81  O   UNL     1      -2.042   3.062 -13.032  1.00  0.00    -0.237 OA
ATOM     82  O   UNL     1      -1.017   4.490 -11.301  1.00  0.00    -0.744 OA
ENDBRANCH  75  79
ENDBRANCH  58  72
BRANCH  59  83
ATOM     83  C   UNL     1     -13.110  -3.640  -9.960  1.00  0.00     0.023 A 
ATOM     84  C   UNL     1     -13.664  -4.272 -11.085  1.00  0.00     0.031 A 
ATOM     85  C   UNL     1     -13.649  -3.946  -8.698  1.00  0.00     0.131 A 
ATOM     86  C   UNL     1     -14.752  -5.144 -10.932  1.00  0.00     0.055 A 
ATOM     87  C   UNL     1     -14.701  -4.850  -8.547  1.00  0.00     0.041 A 
ATOM     88  F   UNL     1     -13.146  -3.379  -7.590  1.00  0.00    -0.206 F 
ATOM     89  C   UNL     1     -15.268  -5.445  -9.670  1.00  0.00     0.022 A 
BRANCH  86  90
ATOM     90  S   UNL     1     -15.534  -5.823 -12.421  1.00  0.00     0.124 S 
ATOM     91  O   UNL     1     -15.912  -4.611 -13.139  1.00  0.00    -0.237 OA
ATOM     92  O   UNL     1     -14.446  -6.601 -13.004  1.00  0.00    -0.237 OA
ATOM     93  O   UNL     1     -16.646  -6.609 -11.893  1.00  0.00    -0.744 OA
ENDBRANCH  86  90
ENDBRANCH  59  83
BRANCH  71  94
ATOM     94  C   UNL     1     -12.597   2.587 -13.055  1.00  0.00     0.023 A 
ATOM     95  C   UNL     1     -13.801   3.107 -12.548  1.00  0.00     0.031 A 
ATOM     96  C   UNL     1     -12.311   2.789 -14.417  1.00  0.00     0.131 A 
ATOM     97  C   UNL     1     -14.705   3.746 -13.411  1.00  0.00     0.055 A 
ATOM     98  C   UNL     1     -13.185   3.480 -15.257  1.00  0.00     0.041 A 
ATOM     99  F   UNL     1     -11.177   2.313 -14.955  1.00  0.00    -0.206 F 
ATOM    100  C   UNL     1     -14.397   3.949 -14.759  1.00  0.00     0.022 A 
BRANCH  97 101
ATOM    101  S   UNL     1     -16.335   4.218 -12.771  1.00  0.00     0.124 S 
ATOM    102  O   UNL     1     -16.851   2.942 -12.283  1.00  0.00    -0.237 OA
ATOM    103  O   UNL     1     -15.996   5.201 -11.748  1.00  0.00    -0.237 OA
ATOM    104  O   UNL     1     -17.022   4.756 -13.944  1.00  0.00    -0.744 OA
ENDBRANCH  97 101
ENDBRANCH  71  94
ENDBRANCH  45  46
ENDBRANCH  37  40
ENDBRANCH  35  36
ENDBRANCH  34  35
ENDBRANCH  33  34
ENDBRANCH  32  33
ENDBRANCH   3  32
TORSDOF 23
