REMARK SMILES CC(C)CSc1cc2c(cc1Cl)C=C(C(=O)NCCCCNC(=O)c1ccc(-c3c4nc(c(-c5cc(S(=O)(=O)[O-])ccc5F)c5ccc([nH]5)c(-c5cc(S(=O)(=O)[O-])ccc5F)c5nc(c(-c6cc(S(=O)(=O)[O-])ccc6F)c6ccc3[nH]6)C=C5)C=C4)cc1)[C@@H](C(F)(F)F)O2
REMARK SMILES IDX 19 1 18 2 17 3 15 4 16 5 14 7 6 8 7 9 11 10 8 11 10 12 12 13
REMARK SMILES IDX 9 14 93 15 13 16 88 17 5 18 4 19 2 20 1 21 3 22 89 23 90 24
REMARK SMILES IDX 91 25 92 26 20 27 21 28 22 29 23 30 24 32 25 33 26 34 87 35
REMARK SMILES IDX 27 36 86 37 28 38 29 39 30 40 80 41 31 42 85 43 79 44 81 45
REMARK SMILES IDX 32 46 84 47 78 48 77 49 33 51 65 52 45 53 64 54 46 55 49 56
REMARK SMILES IDX 63 57 82 58 47 59 48 60 62 62 83 63 50 64 34 65 35 66 43 67
REMARK SMILES IDX 36 68 42 69 44 70 41 71 37 72 38 73 39 74 40 75 66 76 67 77
REMARK SMILES IDX 75 78 68 79 74 80 76 81 73 82 69 83 70 84 71 85 72 86 51 87
REMARK SMILES IDX 52 88 60 89 53 90 59 91 61 92 58 93 54 94 55 95 56 96 57 97
REMARK H PARENT 17 6 22 31 81 50 49 61
REMARK Flexibility Score: inf
ROOT
ATOM      1  C   UNL     1       3.733  -5.089  -5.218  1.00  0.00     0.023 C 
ENDROOT
BRANCH   1   2
ATOM      2  C   UNL     1       2.220  -5.154  -5.396  1.00  0.00     0.116 C 
BRANCH   2   3
ATOM      3  N   UNL     1       1.602  -6.158  -4.545  1.00  0.00    -0.352 N 
ATOM      4  C   UNL     1       0.780  -6.173  -3.469  1.00  0.00     0.251 C 
ATOM      5  O   UNL     1       0.466  -7.291  -3.049  1.00  0.00    -0.270 OA
ATOM      6  H   UNL     1       1.846  -7.070  -4.826  1.00  0.00     0.163 HD
BRANCH   4   7
ATOM      7  C   UNL     1       0.257  -4.958  -2.772  1.00  0.00     0.067 C 
ATOM      8  C   UNL     1      -1.462  -1.758   0.756  1.00  0.00     0.030 A 
ATOM      9  C   UNL     1      -1.016  -1.644  -0.560  1.00  0.00     0.063 A 
ATOM     10  C   UNL     1      -1.628  -3.062   1.270  1.00  0.00     0.055 A 
ATOM     11  C   UNL     1      -0.622  -2.762  -1.293  1.00  0.00     0.129 A 
ATOM     12  C   UNL     1      -1.276  -4.191   0.509  1.00  0.00     0.033 A 
ATOM     13  Cl  UNL     1      -2.246  -3.364   2.861  1.00  0.00    -0.083 Cl
ATOM     14  C   UNL     1      -0.737  -4.040  -0.769  1.00  0.00     0.019 A 
ATOM     15  O   UNL     1      -0.064  -2.482  -2.500  1.00  0.00    -0.475 OA
ATOM     16  C   UNL     1      -0.241  -5.171  -1.539  1.00  0.00     0.025 C 
ATOM     17  C   UNL     1       0.252  -3.586  -3.385  1.00  0.00     0.314 C 
BRANCH   8  18
ATOM     18  S   UNL     1      -1.764  -0.303   1.770  1.00  0.00    -0.124 SA
BRANCH  18  19
ATOM     19  C   UNL     1      -1.030   1.114   0.857  1.00  0.00     0.078 C 
BRANCH  19  20
ATOM     20  C   UNL     1       0.484   1.349   1.045  1.00  0.00    -0.007 C 
ATOM     21  C   UNL     1       1.393   0.256   0.484  1.00  0.00     0.008 C 
ATOM     22  C   UNL     1       0.863   2.681   0.381  1.00  0.00     0.008 C 
ENDBRANCH  19  20
ENDBRANCH  18  19
ENDBRANCH   8  18
BRANCH  17  23
ATOM     23  C   UNL     1      -0.676  -3.463  -4.605  1.00  0.00     0.429 C 
ATOM     24  F   UNL     1      -0.389  -2.331  -5.296  1.00  0.00    -0.167 F 
ATOM     25  F   UNL     1      -0.552  -4.487  -5.477  1.00  0.00    -0.167 F 
ATOM     26  F   UNL     1      -1.979  -3.397  -4.248  1.00  0.00    -0.167 F 
ENDBRANCH  17  23
ENDBRANCH   4   7
ENDBRANCH   2   3
ENDBRANCH   1   2
BRANCH   1  27
ATOM     27  C   UNL     1       4.504  -6.125  -6.033  1.00  0.00     0.023 C 
BRANCH  27  28
ATOM     28  C   UNL     1       4.217  -6.124  -7.532  1.00  0.00     0.116 C 
BRANCH  28  29
ATOM     29  N   UNL     1       4.371  -4.823  -8.175  1.00  0.00    -0.352 N 
ATOM     30  C   UNL     1       4.749  -4.579  -9.479  1.00  0.00     0.251 C 
ATOM     31  H   UNL     1       4.185  -4.034  -7.617  1.00  0.00     0.163 HD
ATOM     32  O   UNL     1       4.890  -3.435  -9.894  1.00  0.00    -0.269 OA
BRANCH  30  33
ATOM     33  C   UNL     1       5.032  -5.747 -10.334  1.00  0.00     0.039 A 
ATOM     34  C   UNL     1       4.055  -6.733 -10.487  1.00  0.00     0.014 A 
ATOM     35  C   UNL     1       6.330  -5.939 -10.809  1.00  0.00     0.014 A 
ATOM     36  C   UNL     1       4.432  -7.987 -10.945  1.00  0.00     0.010 A 
ATOM     37  C   UNL     1       6.683  -7.178 -11.346  1.00  0.00     0.010 A 
ATOM     38  C   UNL     1       5.755  -8.231 -11.355  1.00  0.00    -0.014 A 
BRANCH  38  39
ATOM     39  C   UNL     1       6.147  -9.604 -11.763  1.00  0.00     0.031 A 
ATOM     40  C   UNL     1       7.131 -10.400 -10.948  1.00  0.00     0.074 A 
ATOM     41  C   UNL     1       5.554 -10.156 -12.838  1.00  0.00     0.049 A 
ATOM     42  N   UNL     1       7.559 -11.621 -11.141  1.00  0.00    -0.248 NA
ATOM     43  C   UNL     1       7.713  -9.746  -9.764  1.00  0.00     0.031 C 
ATOM     44  C   UNL     1       4.572  -9.477 -13.683  1.00  0.00     0.029 A 
ATOM     45  N   UNL     1       5.661 -11.408 -13.386  1.00  0.00    -0.354 N 
ATOM     46  C   UNL     1       8.469 -11.877 -10.121  1.00  0.00     0.074 A 
ATOM     47  C   UNL     1       8.554 -10.673  -9.324  1.00  0.00     0.031 C 
ATOM     48  C   UNL     1       4.120 -10.338 -14.604  1.00  0.00     0.029 A 
ATOM     49  C   UNL     1       4.834 -11.604 -14.467  1.00  0.00     0.049 A 
ATOM     50  H   UNL     1       6.270 -12.099 -13.040  1.00  0.00     0.167 HD
ATOM     51  C   UNL     1       9.157 -13.016  -9.869  1.00  0.00     0.034 A 
ATOM     52  C   UNL     1       4.676 -12.676 -15.271  1.00  0.00     0.034 A 
ATOM     53  C   UNL     1       9.039 -14.216 -10.657  1.00  0.00     0.049 A 
ATOM     54  C   UNL     1       5.482 -13.915 -14.992  1.00  0.00     0.074 A 
ATOM     55  C   UNL     1       9.669 -15.432 -10.461  1.00  0.00     0.029 A 
ATOM     56  N   UNL     1       8.238 -14.358 -11.782  1.00  0.00    -0.354 N 
ATOM     57  N   UNL     1       6.319 -14.147 -14.007  1.00  0.00    -0.248 NA
ATOM     58  C   UNL     1       5.335 -15.034 -15.931  1.00  0.00     0.031 C 
ATOM     59  C   UNL     1       9.290 -16.292 -11.493  1.00  0.00     0.029 A 
ATOM     60  C   UNL     1       8.381 -15.632 -12.306  1.00  0.00     0.049 A 
ATOM     61  H   UNL     1       7.655 -13.656 -12.152  1.00  0.00     0.167 HD
ATOM     62  C   UNL     1       6.797 -15.437 -14.207  1.00  0.00     0.074 A 
ATOM     63  C   UNL     1       6.130 -15.948 -15.387  1.00  0.00     0.031 C 
ATOM     64  C   UNL     1       7.712 -16.130 -13.484  1.00  0.00     0.034 A 
BRANCH  51  65
ATOM     65  C   UNL     1      10.096 -13.048  -8.689  1.00  0.00     0.023 A 
ATOM     66  C   UNL     1      11.481 -13.196  -8.895  1.00  0.00     0.031 A 
ATOM     67  C   UNL     1       9.613 -13.063  -7.369  1.00  0.00     0.131 A 
ATOM     68  C   UNL     1      12.332 -13.380  -7.797  1.00  0.00     0.055 A 
ATOM     69  C   UNL     1      10.469 -13.217  -6.277  1.00  0.00     0.041 A 
ATOM     70  F   UNL     1       8.300 -12.923  -7.123  1.00  0.00    -0.206 F 
ATOM     71  C   UNL     1      11.834 -13.388  -6.490  1.00  0.00     0.022 A 
BRANCH  68  72
ATOM     72  S   UNL     1      14.108 -13.668  -8.022  1.00  0.00     0.124 S 
ATOM     73  O   UNL     1      14.688 -12.547  -7.286  1.00  0.00    -0.237 OA
ATOM     74  O   UNL     1      14.286 -14.979  -7.403  1.00  0.00    -0.237 OA
ATOM     75  O   UNL     1      14.291 -13.622  -9.468  1.00  0.00    -0.744 OA
ENDBRANCH  68  72
ENDBRANCH  51  65
BRANCH  52  76
ATOM     76  C   UNL     1       3.683 -12.602 -16.380  1.00  0.00     0.023 A 
ATOM     77  C   UNL     1       3.813 -11.641 -17.400  1.00  0.00     0.031 A 
ATOM     78  C   UNL     1       2.522 -13.390 -16.358  1.00  0.00     0.131 A 
ATOM     79  C   UNL     1       2.760 -11.430 -18.298  1.00  0.00     0.055 A 
ATOM     80  C   UNL     1       1.506 -13.228 -17.302  1.00  0.00     0.041 A 
ATOM     81  F   UNL     1       2.349 -14.312 -15.399  1.00  0.00    -0.206 F 
ATOM     82  C   UNL     1       1.613 -12.228 -18.264  1.00  0.00     0.022 A 
BRANCH  79  83
ATOM     83  S   UNL     1       2.775 -10.006 -19.423  1.00  0.00     0.124 S 
ATOM     84  O   UNL     1       2.793 -10.653 -20.730  1.00  0.00    -0.237 OA
ATOM     85  O   UNL     1       1.528  -9.331 -19.069  1.00  0.00    -0.237 OA
ATOM     86  O   UNL     1       3.991  -9.289 -19.054  1.00  0.00    -0.744 OA
ENDBRANCH  79  83
ENDBRANCH  52  76
BRANCH  64  87
ATOM     87  C   UNL     1       8.085 -17.516 -13.943  1.00  0.00     0.023 A 
ATOM     88  C   UNL     1       7.779 -18.633 -13.144  1.00  0.00     0.031 A 
ATOM     89  C   UNL     1       8.870 -17.710 -15.093  1.00  0.00     0.131 A 
ATOM     90  C   UNL     1       8.292 -19.891 -13.484  1.00  0.00     0.055 A 
ATOM     91  C   UNL     1       9.344 -18.973 -15.449  1.00  0.00     0.041 A 
ATOM     92  F   UNL     1       9.191 -16.672 -15.881  1.00  0.00    -0.206 F 
ATOM     93  C   UNL     1       9.068 -20.068 -14.635  1.00  0.00     0.022 A 
BRANCH  90  94
ATOM     94  S   UNL     1       8.039 -21.328 -12.406  1.00  0.00     0.124 S 
ATOM     95  O   UNL     1       7.340 -22.253 -13.295  1.00  0.00    -0.237 OA
ATOM     96  O   UNL     1       9.409 -21.703 -12.068  1.00  0.00    -0.237 OA
ATOM     97  O   UNL     1       7.241 -20.804 -11.303  1.00  0.00    -0.744 OA
ENDBRANCH  90  94
ENDBRANCH  64  87
ENDBRANCH  38  39
ENDBRANCH  30  33
ENDBRANCH  28  29
ENDBRANCH  27  28
ENDBRANCH   1  27
TORSDOF 18
