REMARK SMILES O=C(NCCCCNC(=O)c1cc2ncoc2cn1)c1ccc(-c2c3nc(c(-c4cc(S(=O)(=O)[O-])ccc4F)c4ccc([nH]4)c(-c4cc(S(=O)(=O)[O-])ccc4F)c4nc(c(-c5cc(S(=O)(=O)[O-])ccc5F)c5ccc2[nH]5)C=C4)C=C3)cc1
REMARK SMILES IDX 4 1 3 2 1 3 2 4 20 6 21 7 82 8 22 9 81 10 23 11 24 12 25 13
REMARK SMILES IDX 75 14 26 15 80 16 74 17 76 18 27 19 79 20 73 21 72 22 28 24
REMARK SMILES IDX 60 25 40 26 59 27 41 28 44 29 58 30 77 31 42 32 43 33 57 35
REMARK SMILES IDX 78 36 45 37 29 38 30 39 38 40 31 41 37 42 39 43 36 44 32 45
REMARK SMILES IDX 33 46 34 47 35 48 61 49 62 50 70 51 63 52 69 53 71 54 68 55
REMARK SMILES IDX 64 56 65 57 66 58 67 59 46 60 47 61 55 62 48 63 54 64 56 65
REMARK SMILES IDX 53 66 49 67 50 68 51 69 52 70 5 71 6 72 7 73 8 74 9 75 10 77
REMARK SMILES IDX 11 78 12 79 19 80 13 81 18 82 14 83 17 84 15 85 16 86
REMARK H PARENT 3 5 76 23 44 34 8 76
REMARK Flexibility Score: inf
ROOT
ATOM      1  C   UNL     1       4.552   1.513   0.485  1.00  0.00     0.116 C 
ENDROOT
BRANCH   1   2
ATOM      2  N   UNL     1       3.092   1.364   0.388  1.00  0.00    -0.352 N 
ATOM      3  O   UNL     1       1.220   0.289  -0.332  1.00  0.00    -0.269 OA
ATOM      4  C   UNL     1       2.358   0.216   0.098  1.00  0.00     0.251 C 
ATOM      5  H   UNL     1       2.566   2.181   0.548  1.00  0.00     0.163 HD
BRANCH   4   6
ATOM      6  C   UNL     1       2.990  -1.094   0.353  1.00  0.00     0.039 A 
ATOM      7  C   UNL     1       2.779  -2.234  -0.424  1.00  0.00     0.014 A 
ATOM      8  C   UNL     1       3.863  -1.137   1.428  1.00  0.00     0.014 A 
ATOM      9  C   UNL     1       3.490  -3.390  -0.095  1.00  0.00     0.010 A 
ATOM     10  C   UNL     1       4.795  -2.120   1.498  1.00  0.00     0.010 A 
ATOM     11  C   UNL     1       4.494  -3.314   0.887  1.00  0.00    -0.014 A 
BRANCH  11  12
ATOM     12  C   UNL     1       5.285  -4.452   1.324  1.00  0.00     0.031 A 
ATOM     13  C   UNL     1       6.005  -5.118   0.224  1.00  0.00     0.074 A 
ATOM     14  C   UNL     1       5.511  -4.736   2.628  1.00  0.00     0.049 A 
ATOM     15  N   UNL     1       5.653  -6.198  -0.387  1.00  0.00    -0.248 NA
ATOM     16  C   UNL     1       7.101  -4.386  -0.427  1.00  0.00     0.031 C 
ATOM     17  C   UNL     1       5.164  -3.947   3.823  1.00  0.00     0.029 A 
ATOM     18  N   UNL     1       6.197  -5.778   3.166  1.00  0.00    -0.354 N 
ATOM     19  C   UNL     1       6.646  -6.426  -1.330  1.00  0.00     0.074 A 
ATOM     20  C   UNL     1       7.338  -5.171  -1.480  1.00  0.00     0.031 C 
ATOM     21  C   UNL     1       5.838  -4.416   4.898  1.00  0.00     0.029 A 
ATOM     22  C   UNL     1       6.498  -5.648   4.517  1.00  0.00     0.049 A 
ATOM     23  H   UNL     1       6.461  -6.566   2.638  1.00  0.00     0.167 HD
ATOM     24  C   UNL     1       6.991  -7.697  -1.683  1.00  0.00     0.034 A 
ATOM     25  C   UNL     1       7.247  -6.494   5.268  1.00  0.00     0.034 A 
ATOM     26  C   UNL     1       6.041  -8.642  -1.145  1.00  0.00     0.049 A 
ATOM     27  C   UNL     1       7.312  -7.783   4.543  1.00  0.00     0.074 A 
ATOM     28  C   UNL     1       4.697  -8.888  -1.329  1.00  0.00     0.029 A 
ATOM     29  N   UNL     1       6.385  -9.226   0.053  1.00  0.00    -0.354 N 
ATOM     30  N   UNL     1       6.291  -8.574   4.370  1.00  0.00    -0.248 NA
ATOM     31  C   UNL     1       8.418  -7.978   3.619  1.00  0.00     0.031 C 
ATOM     32  C   UNL     1       4.206  -9.257  -0.043  1.00  0.00     0.029 A 
ATOM     33  C   UNL     1       5.277  -9.301   0.854  1.00  0.00     0.049 A 
ATOM     34  H   UNL     1       7.286  -9.541   0.295  1.00  0.00     0.167 HD
ATOM     35  C   UNL     1       6.418  -9.018   3.063  1.00  0.00     0.074 A 
ATOM     36  C   UNL     1       7.804  -8.727   2.700  1.00  0.00     0.031 C 
ATOM     37  C   UNL     1       5.315  -9.299   2.308  1.00  0.00     0.034 A 
BRANCH  24  38
ATOM     38  C   UNL     1       8.372  -8.114  -2.135  1.00  0.00     0.023 A 
ATOM     39  C   UNL     1       9.493  -7.266  -2.098  1.00  0.00     0.031 A 
ATOM     40  C   UNL     1       8.642  -9.468  -2.418  1.00  0.00     0.131 A 
ATOM     41  C   UNL     1      10.790  -7.742  -2.326  1.00  0.00     0.055 A 
ATOM     42  C   UNL     1       9.944  -9.960  -2.581  1.00  0.00     0.041 A 
ATOM     43  F   UNL     1       7.652 -10.372  -2.487  1.00  0.00    -0.206 F 
ATOM     44  C   UNL     1      11.029  -9.094  -2.532  1.00  0.00     0.022 A 
BRANCH  41  45
ATOM     45  S   UNL     1      12.195  -6.593  -2.335  1.00  0.00     0.124 S 
ATOM     46  O   UNL     1      13.046  -7.148  -1.289  1.00  0.00    -0.237 OA
ATOM     47  O   UNL     1      12.688  -6.744  -3.702  1.00  0.00    -0.237 OA
ATOM     48  O   UNL     1      11.583  -5.301  -2.039  1.00  0.00    -0.744 OA
ENDBRANCH  41  45
ENDBRANCH  24  38
BRANCH  25  49
ATOM     49  C   UNL     1       8.265  -6.133   6.282  1.00  0.00     0.023 A 
ATOM     50  C   UNL     1       8.975  -4.926   6.151  1.00  0.00     0.031 A 
ATOM     51  C   UNL     1       8.795  -7.106   7.149  1.00  0.00     0.131 A 
ATOM     52  C   UNL     1      10.205  -4.754   6.802  1.00  0.00     0.055 A 
ATOM     53  C   UNL     1      10.011  -6.921   7.818  1.00  0.00     0.041 A 
ATOM     54  F   UNL     1       8.183  -8.292   7.296  1.00  0.00    -0.206 F 
ATOM     55  C   UNL     1      10.733  -5.747   7.629  1.00  0.00     0.022 A 
BRANCH  52  56
ATOM     56  S   UNL     1      11.209  -3.276   6.488  1.00  0.00     0.124 S 
ATOM     57  O   UNL     1      11.556  -2.849   7.841  1.00  0.00    -0.237 OA
ATOM     58  O   UNL     1      12.306  -3.828   5.701  1.00  0.00    -0.237 OA
ATOM     59  O   UNL     1      10.293  -2.392   5.774  1.00  0.00    -0.744 OA
ENDBRANCH  52  56
ENDBRANCH  25  49
BRANCH  37  60
ATOM     60  C   UNL     1       3.974  -9.427   3.005  1.00  0.00     0.023 A 
ATOM     61  C   UNL     1       3.226 -10.580   2.716  1.00  0.00     0.031 A 
ATOM     62  C   UNL     1       3.334  -8.407   3.736  1.00  0.00     0.131 A 
ATOM     63  C   UNL     1       1.881 -10.668   3.088  1.00  0.00     0.055 A 
ATOM     64  C   UNL     1       2.010  -8.530   4.174  1.00  0.00     0.041 A 
ATOM     65  F   UNL     1       3.932  -7.234   3.979  1.00  0.00    -0.206 F 
ATOM     66  C   UNL     1       1.269  -9.657   3.832  1.00  0.00     0.022 A 
BRANCH  63  67
ATOM     67  S   UNL     1       0.856 -12.022   2.461  1.00  0.00     0.124 S 
ATOM     68  O   UNL     1       0.512 -12.740   3.685  1.00  0.00    -0.237 OA
ATOM     69  O   UNL     1      -0.247 -11.307   1.822  1.00  0.00    -0.237 OA
ATOM     70  O   UNL     1       1.738 -12.738   1.544  1.00  0.00    -0.744 OA
ENDBRANCH  63  67
ENDBRANCH  37  60
ENDBRANCH  11  12
ENDBRANCH   4   6
ENDBRANCH   1   2
BRANCH   1  71
ATOM     71  C   UNL     1       4.998   2.897   0.927  1.00  0.00     0.023 C 
BRANCH  71  72
ATOM     72  C   UNL     1       4.530   3.307   2.331  1.00  0.00     0.023 C 
BRANCH  72  73
ATOM     73  C   UNL     1       4.956   2.404   3.497  1.00  0.00     0.116 C 
BRANCH  73  74
ATOM     74  N   UNL     1       6.397   2.367   3.667  1.00  0.00    -0.351 N 
ATOM     75  C   UNL     1       7.178   2.994   4.613  1.00  0.00     0.269 C 
ATOM     76  H   UNL     1       6.885   1.816   3.014  1.00  0.00     0.163 HD
ATOM     77  O   UNL     1       8.390   3.092   4.426  1.00  0.00    -0.268 OA
BRANCH  75  78
ATOM     78  C   UNL     1       6.573   3.615   5.829  1.00  0.00     0.130 A 
ATOM     79  C   UNL     1       7.114   4.819   6.275  1.00  0.00     0.066 A 
ATOM     80  N   UNL     1       5.529   2.962   6.422  1.00  0.00    -0.247 NA
ATOM     81  C   UNL     1       6.467   5.392   7.367  1.00  0.00     0.113 A 
ATOM     82  C   UNL     1       4.938   3.505   7.514  1.00  0.00     0.161 A 
ATOM     83  N   UNL     1       6.677   6.584   8.020  1.00  0.00    -0.216 NA
ATOM     84  C   UNL     1       5.403   4.726   7.954  1.00  0.00     0.172 A 
ATOM     85  C   UNL     1       5.753   6.584   8.956  1.00  0.00     0.309 A 
ATOM     86  O   UNL     1       4.939   5.491   8.984  1.00  0.00    -0.442 OA
ENDBRANCH  75  78
ENDBRANCH  73  74
ENDBRANCH  72  73
ENDBRANCH  71  72
ENDBRANCH   1  71
TORSDOF 14
