REMARK SMILES Cc1ccc(C2=NN(C(=O)CCC(=O)NCCCCNC(=O)c3ccc(-c4c5nc(c(-c6cc(S(=O)(=O)[O-])ccc6F)c6ccc([nH]6)c(-c6cc(S(=O)(=O)[O-])ccc6F)c6nc(c(-c7cc(S(=O)(=O)[O-])ccc7F)c7ccc4[nH]7)C=C6)C=C5)cc3)[C@H](C[C@@H]3C=c4cccc(C)c4=NC3=O)C2)cc1
REMARK SMILES IDX 16 1 15 2 13 3 14 4 12 6 11 7 9 8 10 9 8 10 6 11 7 12 100 13
REMARK SMILES IDX 86 14 5 15 1 16 2 17 3 18 102 19 4 20 101 21 87 22 88 23
REMARK SMILES IDX 89 24 98 25 90 26 97 27 99 28 91 29 96 30 92 31 94 32 93 33
REMARK SMILES IDX 95 34 17 35 18 36 19 37 20 38 21 39 22 41 23 42 24 43 85 44
REMARK SMILES IDX 25 45 84 46 26 47 27 48 28 49 78 50 29 51 83 52 77 53 79 54
REMARK SMILES IDX 30 55 82 56 76 57 75 58 31 60 63 61 43 62 62 63 44 64 47 65
REMARK SMILES IDX 61 66 80 67 45 68 46 69 60 71 81 72 48 73 32 74 33 75 41 76
REMARK SMILES IDX 34 77 40 78 42 79 39 80 35 81 36 82 37 83 38 84 64 85 65 86
REMARK SMILES IDX 73 87 66 88 72 89 74 90 71 91 67 92 68 93 69 94 70 95 49 96
REMARK SMILES IDX 50 97 58 98 51 99 57 100 59 101 56 102 52 103 53 104 54 105
REMARK SMILES IDX 55 106
REMARK H PARENT 15 5 20 40 79 59 47 70
REMARK Flexibility Score: inf
ROOT
ATOM      1  C   UNL     1      -4.877   0.437   0.839  1.00  0.00     0.116 C 
ENDROOT
BRANCH   1   2
ATOM      2  N   UNL     1      -5.865   1.700   1.068  1.00  0.00    -0.356 N 
ATOM      3  C   UNL     1      -7.109   1.878   1.582  1.00  0.00     0.220 C 
ATOM      4  O   UNL     1      -7.627   2.988   1.413  1.00  0.00    -0.275 OA
ATOM      5  H   UNL     1      -5.466   2.545   0.758  1.00  0.00     0.163 HD
BRANCH   3   6
ATOM      6  C   UNL     1      -7.867   0.781   2.283  1.00  0.00     0.110 C 
BRANCH   6   7
ATOM      7  C   UNL     1      -8.052  -0.530   1.543  1.00  0.00     0.112 C 
BRANCH   7   8
ATOM      8  C   UNL     1      -6.811  -1.406   1.531  1.00  0.00     0.243 C 
ATOM      9  O   UNL     1      -6.604  -2.210   2.434  1.00  0.00    -0.273 OA
BRANCH   8  10
ATOM     10  N   UNL     1      -5.935  -1.160   0.438  1.00  0.00    -0.230 N 
ATOM     11  C   UNL     1      -3.209  -0.408   0.213  1.00  0.00     0.070 C 
ATOM     12  N   UNL     1      -4.173  -1.466   0.801  1.00  0.00    -0.174 NA
ATOM     13  C   UNL     1      -4.338   1.112  -0.780  1.00  0.00     0.086 C 
ATOM     14  C   UNL     1      -6.208   0.233  -0.763  1.00  0.00     0.118 C 
BRANCH  11  15
ATOM     15  C   UNL     1      -1.635  -1.139   0.014  1.00  0.00    -0.002 A 
ATOM     16  C   UNL     1       2.673  -1.833   0.349  1.00  0.00     0.044 C 
ATOM     17  C   UNL     1       1.184  -1.841   0.188  1.00  0.00    -0.051 A 
ATOM     18  C   UNL     1       0.264  -2.192   1.185  1.00  0.00     0.004 A 
ATOM     19  C   UNL     1       0.672  -1.344  -0.983  1.00  0.00     0.004 A 
ATOM     20  C   UNL     1      -1.126  -1.867   1.089  1.00  0.00     0.010 A 
ATOM     21  C   UNL     1      -0.692  -1.050  -1.062  1.00  0.00     0.010 A 
ENDBRANCH  11  15
BRANCH  14  22
ATOM     22  C   UNL     1      -7.035  -0.579  -2.075  1.00  0.00     0.045 C 
BRANCH  22  23
ATOM     23  C   UNL     1      -7.906  -1.857  -1.719  1.00  0.00     0.106 C 
ATOM     24  C   UNL     1      -7.239  -3.009  -0.997  1.00  0.00    -0.003 C 
ATOM     25  C   UNL     1      -8.688  -2.567  -2.842  1.00  0.00     0.253 C 
ATOM     26  C   UNL     1      -8.027  -3.958  -0.488  1.00  0.00    -0.003 A 
ATOM     27  N   UNL     1      -9.475  -3.666  -2.469  1.00  0.00    -0.212 NA
ATOM     28  O   UNL     1      -8.667  -2.146  -3.996  1.00  0.00    -0.272 OA
ATOM     29  C   UNL     1      -7.835  -4.600   0.788  1.00  0.00     0.010 A 
ATOM     30  C   UNL     1      -9.176  -4.302  -1.371  1.00  0.00     0.077 A 
ATOM     31  C   UNL     1      -8.727  -5.493   1.230  1.00  0.00     0.001 A 
ATOM     32  C   UNL     1      -9.888  -5.561  -0.926  1.00  0.00    -0.025 A 
ATOM     33  C   UNL     1      -9.699  -6.044   0.319  1.00  0.00     0.005 A 
ATOM     34  C   UNL     1     -10.605  -6.351  -1.968  1.00  0.00     0.047 C 
ENDBRANCH  22  23
ENDBRANCH  14  22
ENDBRANCH   8  10
ENDBRANCH   7   8
ENDBRANCH   6   7
ENDBRANCH   3   6
ENDBRANCH   1   2
BRANCH   1  35
ATOM     35  C   UNL     1      -4.481  -0.656  -1.054  1.00  0.00     0.023 C 
BRANCH  35  36
ATOM     36  C   UNL     1      -3.011  -0.009  -2.111  1.00  0.00     0.023 C 
BRANCH  36  37
ATOM     37  C   UNL     1      -1.962   1.355  -1.578  1.00  0.00     0.116 C 
BRANCH  37  38
ATOM     38  N   UNL     1      -1.609   1.522  -0.114  1.00  0.00    -0.352 N 
ATOM     39  C   UNL     1      -0.506   1.301   0.714  1.00  0.00     0.251 C 
ATOM     40  H   UNL     1      -2.368   1.889   0.395  1.00  0.00     0.163 HD
ATOM     41  O   UNL     1      -0.729   0.971   1.882  1.00  0.00    -0.269 OA
BRANCH  39  42
ATOM     42  C   UNL     1       0.901   1.769   0.341  1.00  0.00     0.039 A 
ATOM     43  C   UNL     1       1.586   2.065   1.544  1.00  0.00     0.014 A 
ATOM     44  C   UNL     1       0.725   2.834  -0.513  1.00  0.00     0.014 A 
ATOM     45  C   UNL     1       1.219   3.232   2.205  1.00  0.00     0.010 A 
ATOM     46  C   UNL     1       0.160   3.910   0.122  1.00  0.00     0.010 A 
ATOM     47  C   UNL     1       0.351   4.063   1.512  1.00  0.00    -0.014 A 
BRANCH  47  48
ATOM     48  C   UNL     1      -0.360   5.180   2.079  1.00  0.00     0.031 A 
ATOM     49  C   UNL     1       0.189   6.492   1.703  1.00  0.00     0.074 A 
ATOM     50  C   UNL     1      -1.516   5.008   2.757  1.00  0.00     0.049 A 
ATOM     51  N   UNL     1       0.040   7.572   2.377  1.00  0.00    -0.248 NA
ATOM     52  C   UNL     1       1.105   6.656   0.565  1.00  0.00     0.031 C 
ATOM     53  C   UNL     1      -2.515   6.032   3.052  1.00  0.00     0.029 A 
ATOM     54  N   UNL     1      -1.963   3.896   3.474  1.00  0.00    -0.354 N 
ATOM     55  C   UNL     1       0.463   8.588   1.549  1.00  0.00     0.074 A 
ATOM     56  C   UNL     1       1.323   7.965   0.593  1.00  0.00     0.031 C 
ATOM     57  C   UNL     1      -3.265   5.617   4.087  1.00  0.00     0.029 A 
ATOM     58  C   UNL     1      -2.656   4.399   4.592  1.00  0.00     0.049 A 
ATOM     59  H   UNL     1      -1.822   2.950   3.244  1.00  0.00     0.167 HD
ATOM     60  C   UNL     1      -0.177   9.784   1.620  1.00  0.00     0.034 A 
ATOM     61  C   UNL     1      -2.229   4.227   5.879  1.00  0.00     0.034 A 
ATOM     62  C   UNL     1      -1.029   9.816   2.817  1.00  0.00     0.049 A 
ATOM     63  C   UNL     1      -1.840   5.530   6.556  1.00  0.00     0.074 A 
ATOM     64  C   UNL     1      -2.396   9.740   3.020  1.00  0.00     0.029 A 
ATOM     65  N   UNL     1      -0.442   9.568   4.055  1.00  0.00    -0.354 N 
ATOM     66  N   UNL     1      -1.751   6.679   5.942  1.00  0.00    -0.248 NA
ATOM     67  C   UNL     1      -1.484   5.633   7.967  1.00  0.00     0.031 C 
ATOM     68  C   UNL     1      -2.614   9.347   4.376  1.00  0.00     0.029 A 
ATOM     69  C   UNL     1      -1.386   9.233   5.006  1.00  0.00     0.049 A 
ATOM     70  H   UNL     1       0.525   9.623   4.230  1.00  0.00     0.167 HD
ATOM     71  C   UNL     1      -1.270   7.637   6.798  1.00  0.00     0.074 A 
ATOM     72  C   UNL     1      -1.176   6.939   8.070  1.00  0.00     0.031 C 
ATOM     73  C   UNL     1      -0.949   8.898   6.362  1.00  0.00     0.034 A 
BRANCH  60  74
ATOM     74  C   UNL     1      -0.262  10.784   0.480  1.00  0.00     0.023 A 
ATOM     75  C   UNL     1      -1.156  11.862   0.626  1.00  0.00     0.031 A 
ATOM     76  C   UNL     1       0.386  10.726  -0.779  1.00  0.00     0.131 A 
ATOM     77  C   UNL     1      -1.395  12.773  -0.422  1.00  0.00     0.055 A 
ATOM     78  C   UNL     1       0.159  11.639  -1.815  1.00  0.00     0.041 A 
ATOM     79  F   UNL     1       1.269   9.785  -1.114  1.00  0.00    -0.206 F 
ATOM     80  C   UNL     1      -0.742  12.668  -1.645  1.00  0.00     0.022 A 
BRANCH  77  81
ATOM     81  S   UNL     1      -2.589  14.107  -0.167  1.00  0.00     0.124 S 
ATOM     82  O   UNL     1      -3.844  13.372  -0.053  1.00  0.00    -0.237 OA
ATOM     83  O   UNL     1      -2.091  14.738   1.050  1.00  0.00    -0.237 OA
ATOM     84  O   UNL     1      -2.453  14.914  -1.379  1.00  0.00    -0.744 OA
ENDBRANCH  77  81
ENDBRANCH  60  74
BRANCH  61  85
ATOM     85  C   UNL     1      -1.604   2.902   6.132  1.00  0.00     0.023 A 
ATOM     86  C   UNL     1      -2.455   1.786   6.039  1.00  0.00     0.031 A 
ATOM     87  C   UNL     1      -0.224   2.700   5.989  1.00  0.00     0.131 A 
ATOM     88  C   UNL     1      -1.947   0.552   5.618  1.00  0.00     0.055 A 
ATOM     89  C   UNL     1       0.287   1.454   5.608  1.00  0.00     0.041 A 
ATOM     90  F   UNL     1       0.627   3.735   6.052  1.00  0.00    -0.206 F 
ATOM     91  C   UNL     1      -0.582   0.388   5.369  1.00  0.00     0.022 A 
BRANCH  88  92
ATOM     92  S   UNL     1      -3.122  -0.749   5.130  1.00  0.00     0.124 S 
ATOM     93  O   UNL     1      -3.277  -1.488   6.380  1.00  0.00    -0.237 OA
ATOM     94  O   UNL     1      -4.286   0.018   4.693  1.00  0.00    -0.237 OA
ATOM     95  O   UNL     1      -2.402  -1.456   4.078  1.00  0.00    -0.744 OA
ENDBRANCH  88  92
ENDBRANCH  61  85
BRANCH  73  96
ATOM     96  C   UNL     1      -0.190   9.954   7.157  1.00  0.00     0.023 A 
ATOM     97  C   UNL     1       0.451   9.702   8.375  1.00  0.00     0.031 A 
ATOM     98  C   UNL     1      -0.033  11.277   6.662  1.00  0.00     0.131 A 
ATOM     99  C   UNL     1       1.112  10.723   9.083  1.00  0.00     0.055 A 
ATOM    100  C   UNL     1       0.721  12.259   7.310  1.00  0.00     0.041 A 
ATOM    101  F   UNL     1      -0.605  11.685   5.520  1.00  0.00    -0.206 F 
ATOM    102  C   UNL     1       1.282  11.993   8.545  1.00  0.00     0.022 A 
BRANCH  99 103
ATOM    103  S   UNL     1       1.643  10.372  10.779  1.00  0.00     0.124 S 
ATOM    104  O   UNL     1       0.379  10.023  11.422  1.00  0.00    -0.237 OA
ATOM    105  O   UNL     1       2.583   9.271  10.591  1.00  0.00    -0.237 OA
ATOM    106  O   UNL     1       2.237  11.631  11.222  1.00  0.00    -0.744 OA
ENDBRANCH  99 103
ENDBRANCH  73  96
ENDBRANCH  47  48
ENDBRANCH  39  42
ENDBRANCH  37  38
ENDBRANCH  36  37
ENDBRANCH  35  36
ENDBRANCH   1  35
TORSDOF 20
