REMARK SMILES NS(=O)(=O)c1ccc(/N=N/c2ccc(O)c(C(=O)NCCCCNC(=O)c3ccc(-c4c5nc(c(-c6cc(S(=O)(=O)[O-])ccc6F)c6ccc([nH]6)c(-c6cc(S(=O)(=O)[O-])ccc6F)c6nc(c(-c7cc(S(=O)(=O)[O-])ccc7F)c7ccc4[nH]7)C=C6)C=C5)cc3)c2)cc1
REMARK SMILES IDX 21 1 20 2 19 3 17 4 18 5 16 7 11 8 12 9 90 10 13 11 14 12
REMARK SMILES IDX 10 13 9 14 8 15 5 16 6 17 92 18 7 19 91 20 2 21 3 22 4 23
REMARK SMILES IDX 1 24 15 27 22 29 23 30 24 31 25 32 26 34 27 35 28 36 89 37
REMARK SMILES IDX 29 38 88 39 30 40 31 41 32 42 82 43 33 44 87 45 81 46 83 47
REMARK SMILES IDX 34 48 86 49 80 50 79 51 35 53 67 54 47 55 66 56 48 57 51 58
REMARK SMILES IDX 65 59 84 60 49 61 50 62 64 64 85 65 52 66 36 67 37 68 45 69
REMARK SMILES IDX 38 70 44 71 46 72 43 73 39 74 40 75 41 76 42 77 68 78 69 79
REMARK SMILES IDX 77 80 70 81 76 82 78 83 75 84 71 85 72 86 73 87 74 88 53 89
REMARK SMILES IDX 54 90 62 91 55 92 61 93 63 94 60 95 56 96 57 97 58 98 59 99
REMARK H PARENT 19 6 1 25 1 26 15 28 24 33 83 52 51 63
REMARK Flexibility Score: inf
ROOT
ATOM      1  C   UNL     1      -0.387   3.780  -9.460  1.00  0.00     0.023 C 
ENDROOT
BRANCH   1   2
ATOM      2  C   UNL     1       0.968   4.280  -8.973  1.00  0.00     0.116 C 
BRANCH   2   3
ATOM      3  N   UNL     1       1.558   5.334  -9.789  1.00  0.00    -0.352 N 
ATOM      4  C   UNL     1       2.139   6.534  -9.432  1.00  0.00     0.255 C 
ATOM      5  O   UNL     1       2.509   7.316 -10.309  1.00  0.00    -0.269 OA
ATOM      6  H   UNL     1       1.540   5.161 -10.758  1.00  0.00     0.163 HD
BRANCH   4   7
ATOM      7  C   UNL     1       2.261   6.972  -8.018  1.00  0.00     0.083 A 
ATOM      8  C   UNL     1       2.279   6.403  -5.642  1.00  0.00     0.087 A 
ATOM      9  C   UNL     1       2.086   7.754  -5.336  1.00  0.00     0.034 A 
ATOM     10  C   UNL     1       2.472   6.056  -6.990  1.00  0.00     0.048 A 
ATOM     11  C   UNL     1       2.054   8.718  -6.352  1.00  0.00     0.049 A 
ATOM     12  C   UNL     1       2.128   8.324  -7.688  1.00  0.00     0.128 A 
BRANCH   8  13
ATOM     13  N   UNL     1       2.204   5.427  -4.611  1.00  0.00    -0.151 NA
ATOM     14  N   UNL     1       1.913   4.315  -5.105  1.00  0.00    -0.151 NA
BRANCH  14  15
ATOM     15  C   UNL     1       1.663   3.292  -4.182  1.00  0.00     0.086 A 
ATOM     16  C   UNL     1       0.951   1.067  -2.637  1.00  0.00     0.082 A 
ATOM     17  C   UNL     1       1.902   0.927  -3.648  1.00  0.00     0.024 A 
ATOM     18  C   UNL     1       0.351   2.306  -2.388  1.00  0.00     0.024 A 
ATOM     19  C   UNL     1       2.252   2.041  -4.414  1.00  0.00     0.031 A 
ATOM     20  C   UNL     1       0.711   3.415  -3.161  1.00  0.00     0.031 A 
BRANCH  16  21
ATOM     21  S   UNL     1       0.446  -0.349  -1.705  1.00  0.00     0.238 S 
ATOM     22  O   UNL     1       1.117  -1.524  -2.198  1.00  0.00    -0.207 OA
ATOM     23  O   UNL     1      -0.985  -0.290  -1.501  1.00  0.00    -0.207 OA
BRANCH  21  24
ATOM     24  N   UNL     1       1.137  -0.040  -0.204  1.00  0.00    -0.225 NA
ATOM     25  H   UNL     1       0.913  -0.801   0.436  1.00  0.00     0.137 HD
ATOM     26  H   UNL     1       0.767   0.836   0.166  1.00  0.00     0.137 HD
ENDBRANCH  21  24
ENDBRANCH  16  21
ENDBRANCH  14  15
ENDBRANCH   8  13
BRANCH  12  27
ATOM     27  O   UNL     1       2.057   9.316  -8.628  1.00  0.00    -0.507 OA
ATOM     28  H   UNL     1       1.967  10.210  -8.361  1.00  0.00     0.293 HD
ENDBRANCH  12  27
ENDBRANCH   4   7
ENDBRANCH   2   3
ENDBRANCH   1   2
BRANCH   1  29
ATOM     29  C   UNL     1      -0.403   3.070 -10.807  1.00  0.00     0.023 C 
BRANCH  29  30
ATOM     30  C   UNL     1       0.604   1.940 -10.977  1.00  0.00     0.116 C 
BRANCH  30  31
ATOM     31  N   UNL     1       0.483   0.888  -9.976  1.00  0.00    -0.352 N 
ATOM     32  C   UNL     1       0.371  -0.473 -10.153  1.00  0.00     0.251 C 
ATOM     33  H   UNL     1       0.482   1.194  -9.040  1.00  0.00     0.163 HD
ATOM     34  O   UNL     1       0.186  -1.204  -9.185  1.00  0.00    -0.269 OA
BRANCH  32  35
ATOM     35  C   UNL     1       0.430  -1.036 -11.519  1.00  0.00     0.039 A 
ATOM     36  C   UNL     1      -0.572  -1.916 -11.935  1.00  0.00     0.014 A 
ATOM     37  C   UNL     1       1.433  -0.641 -12.407  1.00  0.00     0.014 A 
ATOM     38  C   UNL     1      -0.623  -2.321 -13.272  1.00  0.00     0.010 A 
ATOM     39  C   UNL     1       1.327  -0.971 -13.754  1.00  0.00     0.010 A 
ATOM     40  C   UNL     1       0.293  -1.807 -14.205  1.00  0.00    -0.014 A 
BRANCH  40  41
ATOM     41  C   UNL     1       0.188  -2.122 -15.656  1.00  0.00     0.031 A 
ATOM     42  C   UNL     1       1.319  -2.830 -16.353  1.00  0.00     0.074 A 
ATOM     43  C   UNL     1      -0.884  -1.704 -16.359  1.00  0.00     0.049 A 
ATOM     44  N   UNL     1       1.469  -3.100 -17.624  1.00  0.00    -0.248 NA
ATOM     45  C   UNL     1       2.445  -3.260 -15.510  1.00  0.00     0.031 C 
ATOM     46  C   UNL     1      -2.027  -0.974 -15.805  1.00  0.00     0.029 A 
ATOM     47  N   UNL     1      -1.185  -1.820 -17.694  1.00  0.00    -0.354 N 
ATOM     48  C   UNL     1       2.710  -3.718 -17.736  1.00  0.00     0.074 A 
ATOM     49  C   UNL     1       3.298  -3.718 -16.413  1.00  0.00     0.031 C 
ATOM     50  C   UNL     1      -2.914  -0.734 -16.784  1.00  0.00     0.029 A 
ATOM     51  C   UNL     1      -2.383  -1.239 -18.046  1.00  0.00     0.049 A 
ATOM     52  H   UNL     1      -0.599  -2.277 -18.340  1.00  0.00     0.167 HD
ATOM     53  C   UNL     1       3.294  -4.257 -18.834  1.00  0.00     0.034 A 
ATOM     54  C   UNL     1      -2.978  -1.111 -19.250  1.00  0.00     0.034 A 
ATOM     55  C   UNL     1       2.689  -4.257 -20.144  1.00  0.00     0.049 A 
ATOM     56  C   UNL     1      -2.291  -1.684 -20.466  1.00  0.00     0.074 A 
ATOM     57  C   UNL     1       3.168  -4.820 -21.314  1.00  0.00     0.029 A 
ATOM     58  N   UNL     1       1.477  -3.656 -20.462  1.00  0.00    -0.354 N 
ATOM     59  N   UNL     1      -1.138  -2.308 -20.546  1.00  0.00    -0.248 NA
ATOM     60  C   UNL     1      -2.988  -1.543 -21.750  1.00  0.00     0.031 C 
ATOM     61  C   UNL     1       2.289  -4.492 -22.351  1.00  0.00     0.029 A 
ATOM     62  C   UNL     1       1.212  -3.804 -21.815  1.00  0.00     0.049 A 
ATOM     63  H   UNL     1       0.891  -3.193 -19.820  1.00  0.00     0.167 HD
ATOM     64  C   UNL     1      -0.993  -2.667 -21.884  1.00  0.00     0.074 A 
ATOM     65  C   UNL     1      -2.180  -2.199 -22.569  1.00  0.00     0.031 C 
ATOM     66  C   UNL     1       0.026  -3.329 -22.489  1.00  0.00     0.034 A 
BRANCH  53  67
ATOM     67  C   UNL     1       4.667  -4.866 -18.666  1.00  0.00     0.023 A 
ATOM     68  C   UNL     1       4.891  -5.960 -17.811  1.00  0.00     0.031 A 
ATOM     69  C   UNL     1       5.773  -4.330 -19.349  1.00  0.00     0.131 A 
ATOM     70  C   UNL     1       6.196  -6.430 -17.601  1.00  0.00     0.055 A 
ATOM     71  C   UNL     1       7.056  -4.861 -19.204  1.00  0.00     0.041 A 
ATOM     72  F   UNL     1       5.628  -3.271 -20.160  1.00  0.00    -0.206 F 
ATOM     73  C   UNL     1       7.277  -5.907 -18.313  1.00  0.00     0.022 A 
BRANCH  70  74
ATOM     74  S   UNL     1       6.479  -7.627 -16.268  1.00  0.00     0.124 S 
ATOM     75  O   UNL     1       5.976  -6.898 -15.106  1.00  0.00    -0.237 OA
ATOM     76  O   UNL     1       5.684  -8.772 -16.697  1.00  0.00    -0.237 OA
ATOM     77  O   UNL     1       7.926  -7.828 -16.289  1.00  0.00    -0.744 OA
ENDBRANCH  70  74
ENDBRANCH  53  67
BRANCH  54  78
ATOM     78  C   UNL     1      -4.285  -0.401 -19.380  1.00  0.00     0.023 A 
ATOM     79  C   UNL     1      -5.433  -1.073 -19.832  1.00  0.00     0.031 A 
ATOM     80  C   UNL     1      -4.396   0.973 -19.102  1.00  0.00     0.131 A 
ATOM     81  C   UNL     1      -6.625  -0.362 -20.043  1.00  0.00     0.055 A 
ATOM     82  C   UNL     1      -5.600   1.664 -19.255  1.00  0.00     0.041 A 
ATOM     83  F   UNL     1      -3.332   1.667 -18.666  1.00  0.00    -0.206 F 
ATOM     84  C   UNL     1      -6.720   0.999 -19.742  1.00  0.00     0.022 A 
BRANCH  81  85
ATOM     85  S   UNL     1      -8.024  -1.221 -20.813  1.00  0.00     0.124 S 
ATOM     86  O   UNL     1      -7.439  -1.672 -22.070  1.00  0.00    -0.237 OA
ATOM     87  O   UNL     1      -8.319  -2.259 -19.832  1.00  0.00    -0.237 OA
ATOM     88  O   UNL     1      -9.039  -0.176 -20.936  1.00  0.00    -0.744 OA
ENDBRANCH  81  85
ENDBRANCH  54  78
BRANCH  66  89
ATOM     89  C   UNL     1      -0.127  -3.639 -23.959  1.00  0.00     0.023 A 
ATOM     90  C   UNL     1      -0.161  -2.629 -24.936  1.00  0.00     0.031 A 
ATOM     91  C   UNL     1      -0.240  -4.975 -24.387  1.00  0.00     0.131 A 
ATOM     92  C   UNL     1      -0.357  -2.966 -26.284  1.00  0.00     0.055 A 
ATOM     93  C   UNL     1      -0.367  -5.308 -25.736  1.00  0.00     0.041 A 
ATOM     94  F   UNL     1      -0.219  -5.982 -23.499  1.00  0.00    -0.206 F 
ATOM     95  C   UNL     1      -0.440  -4.300 -26.692  1.00  0.00     0.022 A 
BRANCH  92  96
ATOM     96  S   UNL     1      -0.599  -1.633 -27.490  1.00  0.00     0.124 S 
ATOM     97  O   UNL     1      -1.765  -0.943 -26.949  1.00  0.00    -0.237 OA
ATOM     98  O   UNL     1       0.664  -0.908 -27.412  1.00  0.00    -0.237 OA
ATOM     99  O   UNL     1      -0.827  -2.345 -28.747  1.00  0.00    -0.744 OA
ENDBRANCH  92  96
ENDBRANCH  66  89
ENDBRANCH  40  41
ENDBRANCH  32  35
ENDBRANCH  30  31
ENDBRANCH  29  30
ENDBRANCH   1  29
TORSDOF 19
