REMARK SMILES CC1(C)CCCC[C@@]1(C(=O)NCCCCNC(=O)c1ccc(-c2c3nc(c(-c4cc(S(=O)(=O)[O-])ccc4F)c4ccc([nH]4)c(-c4cc(S(=O)(=O)[O-])ccc4F)c4nc(c(-c5cc(S(=O)(=O)[O-])ccc5F)c5ccc2[nH]5)C=C4)C=C3)cc1)[NH+]1CC[NH2+]CC1
REMARK SMILES IDX 14 1 13 2 12 3 11 4 9 5 10 6 8 8 1 9 2 10 3 11 4 12 5 13
REMARK SMILES IDX 7 14 6 15 82 16 83 17 87 18 84 20 86 21 85 22 15 25 16 26
REMARK SMILES IDX 17 27 18 29 19 30 20 31 81 32 21 33 80 34 22 35 23 36 24 37
REMARK SMILES IDX 74 38 25 39 79 40 73 41 75 42 26 43 78 44 72 45 71 46 27 48
REMARK SMILES IDX 59 49 39 50 58 51 40 52 43 53 57 54 76 55 41 56 42 57 56 59
REMARK SMILES IDX 77 60 44 61 28 62 29 63 37 64 30 65 36 66 38 67 35 68 31 69
REMARK SMILES IDX 32 70 33 71 34 72 60 73 61 74 69 75 62 76 68 77 70 78 67 79
REMARK SMILES IDX 63 80 64 81 65 82 66 83 45 84 46 85 54 86 47 87 53 88 55 89
REMARK SMILES IDX 52 90 48 91 49 92 50 93 51 94
REMARK H PARENT 11 7 82 19 85 23 85 24 16 28 75 47 43 58
REMARK Flexibility Score: inf
ROOT
ATOM      1  C   UNL     1      -4.890  -3.094   3.999  1.00  0.00     0.023 C 
ENDROOT
BRANCH   1   2
ATOM      2  C   UNL     1      -4.217  -2.978   2.636  1.00  0.00     0.023 C 
BRANCH   2   3
ATOM      3  C   UNL     1      -3.754  -1.568   2.258  1.00  0.00     0.116 C 
BRANCH   3   4
ATOM      4  N   UNL     1      -2.577  -1.162   3.003  1.00  0.00    -0.351 N 
ATOM      5  C   UNL     1      -1.286  -0.837   2.711  1.00  0.00     0.281 C 
ATOM      6  O   UNL     1      -0.613  -0.678   3.738  1.00  0.00    -0.268 OA
ATOM      7  H   UNL     1      -2.758  -1.106   3.969  1.00  0.00     0.163 HD
BRANCH   5   8
ATOM      8  C   UNL     1      -0.630  -0.723   1.228  1.00  0.00     0.182 C 
ATOM      9  C   UNL     1       1.398   0.590   0.000  1.00  0.00     0.018 C 
ATOM     10  C   UNL     1       0.653   0.301   1.341  1.00  0.00     0.029 C 
ATOM     11  C   UNL     1       1.771  -0.209   2.288  1.00  0.00     0.018 C 
ATOM     12  C   UNL     1       0.147   1.687   1.857  1.00  0.00     0.013 C 
ATOM     13  C   UNL     1      -0.942   2.295   0.973  1.00  0.00     0.001 C 
ATOM     14  C   UNL     1      -1.629  -0.036   0.245  1.00  0.00     0.080 C 
ATOM     15  C   UNL     1      -2.102   1.338   0.733  1.00  0.00     0.007 C 
BRANCH   8  16
ATOM     16  N   UNL     1      -0.190  -2.117   0.789  1.00  0.00    -0.313 N 
ATOM     17  C   UNL     1       0.179  -2.279  -0.631  1.00  0.00     0.325 C 
ATOM     18  C   UNL     1      -1.131  -3.198   1.152  1.00  0.00     0.325 C 
ATOM     19  H   UNL     1       0.667  -2.209   1.334  1.00  0.00     0.349 HD
ATOM     20  C   UNL     1       0.609  -3.721  -1.004  1.00  0.00     0.322 C 
ATOM     21  C   UNL     1      -0.742  -4.628   0.710  1.00  0.00     0.322 C 
ATOM     22  N   UNL     1      -0.434  -4.715  -0.723  1.00  0.00    -0.337 N 
ATOM     23  H   UNL     1      -0.097  -5.650  -0.951  1.00  0.00     0.346 HD
ATOM     24  H   UNL     1      -1.267  -4.534  -1.284  1.00  0.00     0.346 HD
ENDBRANCH   8  16
ENDBRANCH   5   8
ENDBRANCH   3   4
ENDBRANCH   2   3
ENDBRANCH   1   2
BRANCH   1  25
ATOM     25  C   UNL     1      -6.109  -2.201   4.189  1.00  0.00     0.116 C 
BRANCH  25  26
ATOM     26  N   UNL     1      -7.093  -2.349   3.124  1.00  0.00    -0.352 N 
ATOM     27  C   UNL     1      -8.443  -2.601   3.213  1.00  0.00     0.251 C 
ATOM     28  H   UNL     1      -6.742  -2.254   2.209  1.00  0.00     0.163 HD
ATOM     29  O   UNL     1      -9.093  -2.836   2.206  1.00  0.00    -0.269 OA
BRANCH  27  30
ATOM     30  C   UNL     1      -9.076  -2.619   4.548  1.00  0.00     0.039 A 
ATOM     31  C   UNL     1      -9.870  -3.710   4.907  1.00  0.00     0.014 A 
ATOM     32  C   UNL     1      -8.821  -1.593   5.460  1.00  0.00     0.014 A 
ATOM     33  C   UNL     1     -10.331  -3.817   6.220  1.00  0.00     0.010 A 
ATOM     34  C   UNL     1      -9.209  -1.743   6.785  1.00  0.00     0.010 A 
ATOM     35  C   UNL     1      -9.958  -2.862   7.181  1.00  0.00    -0.014 A 
BRANCH  35  36
ATOM     36  C   UNL     1     -10.320  -3.019   8.612  1.00  0.00     0.031 A 
ATOM     37  C   UNL     1     -11.194  -1.996   9.280  1.00  0.00     0.074 A 
ATOM     38  C   UNL     1      -9.784  -4.030   9.325  1.00  0.00     0.049 A 
ATOM     39  N   UNL     1     -11.531  -1.888  10.538  1.00  0.00    -0.248 NA
ATOM     40  C   UNL     1     -11.729  -0.928   8.420  1.00  0.00     0.031 C 
ATOM     41  C   UNL     1      -8.877  -5.053   8.796  1.00  0.00     0.029 A 
ATOM     42  N   UNL     1      -9.909  -4.357  10.652  1.00  0.00    -0.354 N 
ATOM     43  C   UNL     1     -12.302  -0.734  10.626  1.00  0.00     0.074 A 
ATOM     44  C   UNL     1     -12.328  -0.145   9.304  1.00  0.00     0.031 C 
ATOM     45  C   UNL     1      -8.547  -5.902   9.781  1.00  0.00     0.029 A 
ATOM     46  C   UNL     1      -9.178  -5.463  11.021  1.00  0.00     0.049 A 
ATOM     47  H   UNL     1     -10.470  -3.848  11.281  1.00  0.00     0.167 HD
ATOM     48  C   UNL     1     -12.947  -0.227  11.706  1.00  0.00     0.034 A 
ATOM     49  C   UNL     1      -9.022  -6.046  12.225  1.00  0.00     0.034 A 
ATOM     50  C   UNL     1     -12.923  -0.840  13.011  1.00  0.00     0.049 A 
ATOM     51  C   UNL     1      -9.741  -5.460  13.412  1.00  0.00     0.074 A 
ATOM     52  C   UNL     1     -13.593  -0.453  14.158  1.00  0.00     0.029 A 
ATOM     53  N   UNL     1     -12.183  -1.968  13.346  1.00  0.00    -0.354 N 
ATOM     54  N   UNL     1     -10.514  -4.399  13.468  1.00  0.00    -0.248 NA
ATOM     55  C   UNL     1      -9.575  -6.153  14.695  1.00  0.00     0.031 C 
ATOM     56  C   UNL     1     -13.211  -1.308  15.199  1.00  0.00     0.029 A 
ATOM     57  C   UNL     1     -12.357  -2.271  14.687  1.00  0.00     0.049 A 
ATOM     58  H   UNL     1     -11.617  -2.477  12.721  1.00  0.00     0.167 HD
ATOM     59  C   UNL     1     -10.944  -4.313  14.788  1.00  0.00     0.074 A 
ATOM     60  C   UNL     1     -10.360  -5.439  15.488  1.00  0.00     0.031 C 
ATOM     61  C   UNL     1     -11.751  -3.389  15.371  1.00  0.00     0.034 A 
BRANCH  48  62
ATOM     62  C   UNL     1     -13.710   1.062  11.514  1.00  0.00     0.023 A 
ATOM     63  C   UNL     1     -14.804   1.147  10.635  1.00  0.00     0.031 A 
ATOM     64  C   UNL     1     -13.318   2.230  12.191  1.00  0.00     0.131 A 
ATOM     65  C   UNL     1     -15.416   2.386  10.395  1.00  0.00     0.055 A 
ATOM     66  C   UNL     1     -13.985   3.444  12.011  1.00  0.00     0.041 A 
ATOM     67  F   UNL     1     -12.268   2.216  13.027  1.00  0.00    -0.206 F 
ATOM     68  C   UNL     1     -15.031   3.531  11.097  1.00  0.00     0.022 A 
BRANCH  65  69
ATOM     69  S   UNL     1     -16.625   2.508   9.049  1.00  0.00     0.124 S 
ATOM     70  O   UNL     1     -15.823   2.103   7.896  1.00  0.00    -0.237 OA
ATOM     71  O   UNL     1     -17.660   1.571   9.468  1.00  0.00    -0.237 OA
ATOM     72  O   UNL     1     -17.014   3.917   9.063  1.00  0.00    -0.744 OA
ENDBRANCH  65  69
ENDBRANCH  48  62
BRANCH  49  73
ATOM     73  C   UNL     1      -8.145  -7.242  12.380  1.00  0.00     0.023 A 
ATOM     74  C   UNL     1      -8.681  -8.488  12.739  1.00  0.00     0.031 A 
ATOM     75  C   UNL     1      -6.752  -7.147  12.208  1.00  0.00     0.131 A 
ATOM     76  C   UNL     1      -7.827  -9.580  12.959  1.00  0.00     0.055 A 
ATOM     77  C   UNL     1      -5.912  -8.248  12.380  1.00  0.00     0.041 A 
ATOM     78  F   UNL     1      -6.189  -5.979  11.857  1.00  0.00    -0.206 F 
ATOM     79  C   UNL     1      -6.447  -9.471  12.770  1.00  0.00     0.022 A 
BRANCH  76  80
ATOM     80  S   UNL     1      -8.541 -11.130  13.573  1.00  0.00     0.124 S 
ATOM     81  O   UNL     1      -9.179 -10.694  14.810  1.00  0.00    -0.237 OA
ATOM     82  O   UNL     1      -9.438 -11.501  12.484  1.00  0.00    -0.237 OA
ATOM     83  O   UNL     1      -7.377 -11.998  13.742  1.00  0.00    -0.744 OA
ENDBRANCH  76  80
ENDBRANCH  49  73
BRANCH  61  84
ATOM     84  C   UNL     1     -12.068  -3.590  16.832  1.00  0.00     0.023 A 
ATOM     85  C   UNL     1     -11.082  -3.455  17.825  1.00  0.00     0.031 A 
ATOM     86  C   UNL     1     -13.370  -3.937  17.232  1.00  0.00     0.131 A 
ATOM     87  C   UNL     1     -11.401  -3.722  19.165  1.00  0.00     0.055 A 
ATOM     88  C   UNL     1     -13.695  -4.144  18.573  1.00  0.00     0.041 A 
ATOM     89  F   UNL     1     -14.348  -4.081  16.323  1.00  0.00    -0.206 F 
ATOM     90  C   UNL     1     -12.704  -4.049  19.547  1.00  0.00     0.022 A 
BRANCH  87  91
ATOM     91  S   UNL     1     -10.067  -3.720  20.393  1.00  0.00     0.124 S 
ATOM     92  O   UNL     1      -9.174  -4.750  19.873  1.00  0.00    -0.237 OA
ATOM     93  O   UNL     1      -9.572  -2.349  20.316  1.00  0.00    -0.237 OA
ATOM     94  O   UNL     1     -10.749  -4.063  21.640  1.00  0.00    -0.744 OA
ENDBRANCH  87  91
ENDBRANCH  61  84
ENDBRANCH  35  36
ENDBRANCH  27  30
ENDBRANCH  25  26
ENDBRANCH   1  25
TORSDOF 15
