REMARK SMILES C[N@H+](CC(=O)NCCCCNC(=O)c1ccc(-c2c3nc(c(-c4cc(S(=O)(=O)[O-])ccc4F)c4ccc([nH]4)c(-c4cc(S(=O)(=O)[O-])ccc4F)c4nc(c(-c5cc(S(=O)(=O)[O-])ccc5F)c5ccc2[nH]5)C=C4)C=C3)cc1)Cc1cccc2c1OCCO2
REMARK SMILES IDX 8 1 7 2 6 3 4 4 5 5 3 7 2 8 1 9 77 11 78 12 79 13 83 14
REMARK SMILES IDX 80 15 82 16 84 17 81 18 87 19 85 20 86 21 9 22 10 23 11 24
REMARK SMILES IDX 12 25 13 27 14 28 15 29 76 30 16 31 75 32 17 33 18 34 19 35
REMARK SMILES IDX 69 36 20 37 74 38 68 39 70 40 21 41 73 42 67 43 66 44 22 46
REMARK SMILES IDX 54 47 34 48 53 49 35 50 38 51 52 52 71 53 36 54 37 55 51 57
REMARK SMILES IDX 72 58 39 59 23 60 24 61 32 62 25 63 31 64 33 65 30 66 26 67
REMARK SMILES IDX 27 68 28 69 29 70 55 71 56 72 64 73 57 74 63 75 65 76 62 77
REMARK SMILES IDX 58 78 59 79 60 80 61 81 40 82 41 83 49 84 42 85 48 86 50 87
REMARK SMILES IDX 47 88 43 89 44 90 45 91 46 92
REMARK H PARENT 6 6 2 10 11 26 70 45 38 56
REMARK Flexibility Score: inf
ROOT
ATOM      1  C   UNL     1       1.374   0.494   2.017  1.00  0.00     0.023 C 
ENDROOT
BRANCH   1   2
ATOM      2  C   UNL     1       0.259  -0.544   1.850  1.00  0.00     0.116 C 
BRANCH   2   3
ATOM      3  N   UNL     1      -0.986  -0.133   1.233  1.00  0.00    -0.351 N 
ATOM      4  C   UNL     1      -1.406  -0.367  -0.058  1.00  0.00     0.275 C 
ATOM      5  O   UNL     1      -2.618  -0.403  -0.292  1.00  0.00    -0.269 OA
ATOM      6  H   UNL     1      -1.606   0.374   1.805  1.00  0.00     0.163 HD
BRANCH   4   7
ATOM      7  C   UNL     1      -0.377  -0.621  -1.164  1.00  0.00     0.363 C 
BRANCH   7   8
ATOM      8  N   UNL     1       0.612   0.467  -1.190  1.00  0.00    -0.326 N 
ATOM      9  C   UNL     1       1.966  -0.008  -1.421  1.00  0.00     0.333 C 
ATOM     10  H   UNL     1       0.630   0.854  -0.246  1.00  0.00     0.348 HD
BRANCH   8  11
ATOM     11  C   UNL     1       0.209   1.608  -2.030  1.00  0.00     0.303 C 
BRANCH  11  12
ATOM     12  C   UNL     1       0.194   2.935  -1.290  1.00  0.00     0.052 A 
ATOM     13  C   UNL     1       1.127   3.930  -1.631  1.00  0.00     0.014 A 
ATOM     14  C   UNL     1      -0.746   3.236  -0.286  1.00  0.00     0.170 A 
ATOM     15  C   UNL     1       1.156   5.154  -0.955  1.00  0.00     0.005 A 
ATOM     16  C   UNL     1      -0.639   4.416   0.463  1.00  0.00     0.161 A 
ATOM     17  O   UNL     1      -1.781   2.361  -0.091  1.00  0.00    -0.486 OA
ATOM     18  C   UNL     1       0.294   5.383   0.115  1.00  0.00     0.050 A 
ATOM     19  O   UNL     1      -1.427   4.691   1.555  1.00  0.00    -0.486 OA
ATOM     20  C   UNL     1      -2.764   2.821   0.842  1.00  0.00     0.271 C 
ATOM     21  C   UNL     1      -2.102   3.517   2.013  1.00  0.00     0.271 C 
ENDBRANCH  11  12
ENDBRANCH   8  11
ENDBRANCH   7   8
ENDBRANCH   4   7
ENDBRANCH   2   3
ENDBRANCH   1   2
BRANCH   1  22
ATOM     22  C   UNL     1       1.200   1.678   2.968  1.00  0.00     0.023 C 
BRANCH  22  23
ATOM     23  C   UNL     1       0.378   1.468   4.229  1.00  0.00     0.116 C 
BRANCH  23  24
ATOM     24  N   UNL     1       0.986   0.531   5.153  1.00  0.00    -0.352 N 
ATOM     25  C   UNL     1       1.174   0.635   6.509  1.00  0.00     0.251 C 
ATOM     26  H   UNL     1       1.312  -0.305   4.748  1.00  0.00     0.163 HD
ATOM     27  O   UNL     1       1.839  -0.233   7.079  1.00  0.00    -0.269 OA
BRANCH  25  28
ATOM     28  C   UNL     1       0.632   1.778   7.286  1.00  0.00     0.039 A 
ATOM     29  C   UNL     1       1.424   2.312   8.307  1.00  0.00     0.014 A 
ATOM     30  C   UNL     1      -0.643   2.307   7.061  1.00  0.00     0.014 A 
ATOM     31  C   UNL     1       0.958   3.389   9.067  1.00  0.00     0.010 A 
ATOM     32  C   UNL     1      -1.078   3.432   7.773  1.00  0.00     0.010 A 
ATOM     33  C   UNL     1      -0.287   3.980   8.793  1.00  0.00    -0.014 A 
BRANCH  33  34
ATOM     34  C   UNL     1      -0.729   5.167   9.580  1.00  0.00     0.031 A 
ATOM     35  C   UNL     1      -1.927   5.095  10.491  1.00  0.00     0.074 A 
ATOM     36  C   UNL     1      -0.025   6.313   9.492  1.00  0.00     0.049 A 
ATOM     37  N   UNL     1      -2.376   5.988  11.337  1.00  0.00    -0.248 NA
ATOM     38  C   UNL     1      -2.738   3.872  10.428  1.00  0.00     0.031 C 
ATOM     39  C   UNL     1       1.118   6.529   8.601  1.00  0.00     0.029 A 
ATOM     40  N   UNL     1      -0.143   7.502  10.170  1.00  0.00    -0.354 N 
ATOM     41  C   UNL     1      -3.516   5.434  11.912  1.00  0.00     0.074 A 
ATOM     42  C   UNL     1      -3.726   4.156  11.264  1.00  0.00     0.031 C 
ATOM     43  C   UNL     1       1.627   7.750   8.826  1.00  0.00     0.029 A 
ATOM     44  C   UNL     1       0.829   8.422   9.847  1.00  0.00     0.049 A 
ATOM     45  H   UNL     1      -0.857   7.680  10.825  1.00  0.00     0.167 HD
ATOM     46  C   UNL     1      -4.299   5.932  12.903  1.00  0.00     0.034 A 
ATOM     47  C   UNL     1       1.061   9.662  10.322  1.00  0.00     0.034 A 
ATOM     48  C   UNL     1      -4.080   7.214  13.533  1.00  0.00     0.049 A 
ATOM     49  C   UNL     1       0.177  10.195  11.421  1.00  0.00     0.074 A 
ATOM     50  C   UNL     1      -4.779   7.793  14.579  1.00  0.00     0.029 A 
ATOM     51  N   UNL     1      -3.098   8.128  13.166  1.00  0.00    -0.354 N 
ATOM     52  N   UNL     1      -0.849   9.624  12.009  1.00  0.00    -0.248 NA
ATOM     53  C   UNL     1       0.500  11.531  11.935  1.00  0.00     0.031 C 
ATOM     54  C   UNL     1      -4.278   9.083  14.786  1.00  0.00     0.029 A 
ATOM     55  C   UNL     1      -3.200   9.277  13.938  1.00  0.00     0.049 A 
ATOM     56  H   UNL     1      -2.428   7.981  12.460  1.00  0.00     0.167 HD
ATOM     57  C   UNL     1      -1.276  10.522  12.984  1.00  0.00     0.074 A 
ATOM     58  C   UNL     1      -0.376  11.656  12.921  1.00  0.00     0.031 C 
ATOM     59  C   UNL     1      -2.315  10.418  13.854  1.00  0.00     0.034 A 
BRANCH  46  60
ATOM     60  C   UNL     1      -5.486   5.100  13.341  1.00  0.00     0.023 A 
ATOM     61  C   UNL     1      -5.330   3.813  13.890  1.00  0.00     0.031 A 
ATOM     62  C   UNL     1      -6.795   5.591  13.192  1.00  0.00     0.131 A 
ATOM     63  C   UNL     1      -6.459   3.037  14.195  1.00  0.00     0.055 A 
ATOM     64  C   UNL     1      -7.912   4.847  13.579  1.00  0.00     0.041 A 
ATOM     65  F   UNL     1      -7.015   6.801  12.654  1.00  0.00    -0.206 F 
ATOM     66  C   UNL     1      -7.749   3.555  14.069  1.00  0.00     0.022 A 
BRANCH  63  67
ATOM     67  S   UNL     1      -6.222   1.286  14.608  1.00  0.00     0.124 S 
ATOM     68  O   UNL     1      -5.512   0.797  13.428  1.00  0.00    -0.237 OA
ATOM     69  O   UNL     1      -5.445   1.354  15.840  1.00  0.00    -0.237 OA
ATOM     70  O   UNL     1      -7.586   0.781  14.757  1.00  0.00    -0.744 OA
ENDBRANCH  63  67
ENDBRANCH  46  60
BRANCH  47  71
ATOM     71  C   UNL     1       2.176  10.486   9.768  1.00  0.00     0.023 A 
ATOM     72  C   UNL     1       3.258  10.892  10.566  1.00  0.00     0.031 A 
ATOM     73  C   UNL     1       2.153  10.912   8.427  1.00  0.00     0.131 A 
ATOM     74  C   UNL     1       4.246  11.734  10.031  1.00  0.00     0.055 A 
ATOM     75  C   UNL     1       3.168  11.700   7.883  1.00  0.00     0.041 A 
ATOM     76  F   UNL     1       1.143  10.553   7.618  1.00  0.00    -0.206 F 
ATOM     77  C   UNL     1       4.217  12.127   8.691  1.00  0.00     0.022 A 
BRANCH  74  78
ATOM     78  S   UNL     1       5.530  12.386  11.136  1.00  0.00     0.124 S 
ATOM     79  O   UNL     1       4.733  13.076  12.143  1.00  0.00    -0.237 OA
ATOM     80  O   UNL     1       6.201  11.166  11.573  1.00  0.00    -0.237 OA
ATOM     81  O   UNL     1       6.321  13.252  10.264  1.00  0.00    -0.744 OA
ENDBRANCH  74  78
ENDBRANCH  47  71
BRANCH  59  82
ATOM     82  C   UNL     1      -2.502  11.556  14.834  1.00  0.00     0.023 A 
ATOM     83  C   UNL     1      -2.781  12.867  14.406  1.00  0.00     0.031 A 
ATOM     84  C   UNL     1      -2.344  11.337  16.214  1.00  0.00     0.131 A 
ATOM     85  C   UNL     1      -2.801  13.919  15.334  1.00  0.00     0.055 A 
ATOM     86  C   UNL     1      -2.448  12.375  17.142  1.00  0.00     0.041 A 
ATOM     87  F   UNL     1      -2.072  10.110  16.687  1.00  0.00    -0.206 F 
ATOM     88  C   UNL     1      -2.656  13.678  16.702  1.00  0.00     0.022 A 
BRANCH  85  89
ATOM     89  S   UNL     1      -2.864  15.623  14.714  1.00  0.00     0.124 S 
ATOM     90  O   UNL     1      -1.724  15.655  13.804  1.00  0.00    -0.237 OA
ATOM     91  O   UNL     1      -4.181  15.679  14.089  1.00  0.00    -0.237 OA
ATOM     92  O   UNL     1      -2.716  16.433  15.923  1.00  0.00    -0.744 OA
ENDBRANCH  85  89
ENDBRANCH  59  82
ENDBRANCH  33  34
ENDBRANCH  25  28
ENDBRANCH  23  24
ENDBRANCH  22  23
ENDBRANCH   1  22
TORSDOF 17
