REMARK SMILES CCC(C)(C)c1ccc(O[C@H](F)C(=O)NCCCCNC(=O)c2ccc(-c3c4nc(c(-c5cc(S(=O)(=O)[O-])ccc5F)c5ccc([nH]5)c(-c5cc(S(=O)(=O)[O-])ccc5F)c5nc(c(-c6cc(S(=O)(=O)[O-])ccc6F)c6ccc3[nH]6)C=C5)C=C4)cc2)cc1
REMARK SMILES IDX 17 1 16 2 15 3 13 4 14 5 11 7 12 8 10 9 9 10 6 11 7 12 87 13
REMARK SMILES IDX 8 14 86 15 3 16 4 17 5 18 2 19 1 20 18 21 19 22 20 23 21 24
REMARK SMILES IDX 22 26 23 27 24 28 85 29 25 30 84 31 26 32 27 33 28 34 78 35
REMARK SMILES IDX 29 36 83 37 77 38 79 39 30 40 82 41 76 42 75 43 31 45 63 46
REMARK SMILES IDX 43 47 62 48 44 49 47 50 61 51 80 52 45 53 46 54 60 56 81 57
REMARK SMILES IDX 48 58 32 59 33 60 41 61 34 62 40 63 42 64 39 65 35 66 36 67
REMARK SMILES IDX 37 68 38 69 64 70 65 71 73 72 66 73 72 74 74 75 71 76 67 77
REMARK SMILES IDX 68 78 69 79 70 80 49 81 50 82 58 83 51 84 57 85 59 86 56 87
REMARK SMILES IDX 52 88 53 89 54 90 55 91
REMARK H PARENT 15 6 20 25 79 44 47 55
REMARK Flexibility Score: inf
ROOT
ATOM      1  C   UNL     1       3.554   3.388   2.598  1.00  0.00     0.023 C 
ENDROOT
BRANCH   1   2
ATOM      2  C   UNL     1       4.529   4.255   1.812  1.00  0.00     0.116 C 
BRANCH   2   3
ATOM      3  N   UNL     1       5.615   4.775   2.623  1.00  0.00    -0.350 N 
ATOM      4  C   UNL     1       6.965   4.592   2.439  1.00  0.00     0.294 C 
ATOM      5  O   UNL     1       7.747   5.175   3.196  1.00  0.00    -0.267 OA
ATOM      6  H   UNL     1       5.354   5.324   3.397  1.00  0.00     0.163 HD
BRANCH   4   7
ATOM      7  C   UNL     1       7.461   3.648   1.327  1.00  0.00     0.440 C 
ATOM      8  F   UNL     1       6.980   2.394   1.538  1.00  0.00    -0.191 F 
BRANCH   7   9
ATOM      9  O   UNL     1       7.100   4.179   0.049  1.00  0.00    -0.452 OA
BRANCH   9  10
ATOM     10  C   UNL     1       6.657   3.422  -0.991  1.00  0.00     0.123 A 
ATOM     11  C   UNL     1       5.679   2.135  -3.344  1.00  0.00    -0.042 A 
ATOM     12  C   UNL     1       5.721   1.482  -2.106  1.00  0.00     0.008 A 
ATOM     13  C   UNL     1       6.090   3.479  -3.359  1.00  0.00     0.008 A 
ATOM     14  C   UNL     1       6.221   2.105  -0.956  1.00  0.00     0.047 A 
ATOM     15  C   UNL     1       6.564   4.110  -2.201  1.00  0.00     0.047 A 
BRANCH  11  16
ATOM     16  C   UNL     1       5.196   1.441  -4.631  1.00  0.00    -0.011 C 
ATOM     17  C   UNL     1       6.231   1.645  -5.761  1.00  0.00     0.016 C 
ATOM     18  C   UNL     1       3.863   2.098  -5.064  1.00  0.00     0.016 C 
BRANCH  16  19
ATOM     19  C   UNL     1       4.917  -0.091  -4.484  1.00  0.00     0.008 C 
ATOM     20  C   UNL     1       6.143  -0.977  -4.259  1.00  0.00     0.005 C 
ENDBRANCH  16  19
ENDBRANCH  11  16
ENDBRANCH   9  10
ENDBRANCH   7   9
ENDBRANCH   4   7
ENDBRANCH   2   3
ENDBRANCH   1   2
BRANCH   1  21
ATOM     21  C   UNL     1       2.808   4.106   3.721  1.00  0.00     0.023 C 
BRANCH  21  22
ATOM     22  C   UNL     1       2.079   5.381   3.312  1.00  0.00     0.116 C 
BRANCH  22  23
ATOM     23  N   UNL     1       1.069   5.158   2.291  1.00  0.00    -0.352 N 
ATOM     24  C   UNL     1      -0.227   5.611   2.231  1.00  0.00     0.251 C 
ATOM     25  H   UNL     1       1.355   4.601   1.531  1.00  0.00     0.163 HD
ATOM     26  O   UNL     1      -0.969   5.187   1.345  1.00  0.00    -0.269 OA
BRANCH  24  27
ATOM     27  C   UNL     1      -0.742   6.566   3.239  1.00  0.00     0.039 A 
ATOM     28  C   UNL     1      -2.034   6.380   3.737  1.00  0.00     0.014 A 
ATOM     29  C   UNL     1       0.026   7.644   3.693  1.00  0.00     0.014 A 
ATOM     30  C   UNL     1      -2.528   7.234   4.726  1.00  0.00     0.010 A 
ATOM     31  C   UNL     1      -0.436   8.440   4.741  1.00  0.00     0.010 A 
ATOM     32  C   UNL     1      -1.721   8.250   5.267  1.00  0.00    -0.014 A 
BRANCH  32  33
ATOM     33  C   UNL     1      -2.224   9.097   6.383  1.00  0.00     0.031 A 
ATOM     34  C   UNL     1      -2.405  10.582   6.203  1.00  0.00     0.074 A 
ATOM     35  C   UNL     1      -2.505   8.524   7.572  1.00  0.00     0.049 A 
ATOM     36  N   UNL     1      -2.879  11.465   7.045  1.00  0.00    -0.248 NA
ATOM     37  C   UNL     1      -1.973  11.156   4.919  1.00  0.00     0.031 C 
ATOM     38  C   UNL     1      -2.316   7.105   7.888  1.00  0.00     0.029 A 
ATOM     39  N   UNL     1      -3.022   9.051   8.729  1.00  0.00    -0.354 N 
ATOM     40  C   UNL     1      -2.797  12.695   6.400  1.00  0.00     0.074 A 
ATOM     41  C   UNL     1      -2.168  12.451   5.119  1.00  0.00     0.031 C 
ATOM     42  C   UNL     1      -2.765   6.867   9.131  1.00  0.00     0.029 A 
ATOM     43  C   UNL     1      -3.230   8.117   9.719  1.00  0.00     0.049 A 
ATOM     44  H   UNL     1      -3.225  10.008   8.840  1.00  0.00     0.167 HD
ATOM     45  C   UNL     1      -3.226  13.910   6.825  1.00  0.00     0.034 A 
ATOM     46  C   UNL     1      -3.744   8.252  10.958  1.00  0.00     0.034 A 
ATOM     47  C   UNL     1      -3.864  14.134   8.101  1.00  0.00     0.049 A 
ATOM     48  C   UNL     1      -4.207   9.616  11.406  1.00  0.00     0.074 A 
ATOM     49  C   UNL     1      -4.401  15.308   8.601  1.00  0.00     0.029 A 
ATOM     50  N   UNL     1      -4.040  13.170   9.087  1.00  0.00    -0.354 N 
ATOM     51  N   UNL     1      -4.200  10.752  10.746  1.00  0.00    -0.248 NA
ATOM     52  C   UNL     1      -4.765   9.709  12.760  1.00  0.00     0.031 C 
ATOM     53  C   UNL     1      -4.824  15.076   9.914  1.00  0.00     0.029 A 
ATOM     54  C   UNL     1      -4.638  13.734  10.205  1.00  0.00     0.049 A 
ATOM     55  H   UNL     1      -3.778  12.225   9.004  1.00  0.00     0.167 HD
ATOM     56  C   UNL     1      -4.786  11.686  11.597  1.00  0.00     0.074 A 
ATOM     57  C   UNL     1      -5.163  10.970  12.798  1.00  0.00     0.031 C 
ATOM     58  C   UNL     1      -4.992  13.016  11.407  1.00  0.00     0.034 A 
BRANCH  45  59
ATOM     59  C   UNL     1      -2.995  15.096   5.916  1.00  0.00     0.023 A 
ATOM     60  C   UNL     1      -3.587  15.187   4.644  1.00  0.00     0.031 A 
ATOM     61  C   UNL     1      -2.167  16.155   6.330  1.00  0.00     0.131 A 
ATOM     62  C   UNL     1      -3.294  16.277   3.809  1.00  0.00     0.055 A 
ATOM     63  C   UNL     1      -1.944  17.276   5.528  1.00  0.00     0.041 A 
ATOM     64  F   UNL     1      -1.554  16.117   7.524  1.00  0.00    -0.206 F 
ATOM     65  C   UNL     1      -2.499  17.335   4.253  1.00  0.00     0.022 A 
BRANCH  62  66
ATOM     66  S   UNL     1      -3.860  16.229   2.086  1.00  0.00     0.124 S 
ATOM     67  O   UNL     1      -3.222  15.008   1.600  1.00  0.00    -0.237 OA
ATOM     68  O   UNL     1      -5.310  16.179   2.231  1.00  0.00    -0.237 OA
ATOM     69  O   UNL     1      -3.332  17.468   1.517  1.00  0.00    -0.744 OA
ENDBRANCH  62  66
ENDBRANCH  45  59
BRANCH  46  70
ATOM     70  C   UNL     1      -3.863   7.076  11.872  1.00  0.00     0.023 A 
ATOM     71  C   UNL     1      -5.116   6.655  12.346  1.00  0.00     0.031 A 
ATOM     72  C   UNL     1      -2.723   6.404  12.345  1.00  0.00     0.131 A 
ATOM     73  C   UNL     1      -5.196   5.641  13.314  1.00  0.00     0.055 A 
ATOM     74  C   UNL     1      -2.812   5.351  13.258  1.00  0.00     0.041 A 
ATOM     75  F   UNL     1      -1.499   6.762  11.925  1.00  0.00    -0.206 F 
ATOM     76  C   UNL     1      -4.053   4.976  13.762  1.00  0.00     0.022 A 
BRANCH  73  77
ATOM     77  S   UNL     1      -6.808   5.287  14.069  1.00  0.00     0.124 S 
ATOM     78  O   UNL     1      -7.184   6.595  14.591  1.00  0.00    -0.237 OA
ATOM     79  O   UNL     1      -7.577   4.806  12.926  1.00  0.00    -0.237 OA
ATOM     80  O   UNL     1      -6.495   4.277  15.077  1.00  0.00    -0.744 OA
ENDBRANCH  73  77
ENDBRANCH  46  70
BRANCH  58  81
ATOM     81  C   UNL     1      -5.694  13.761  12.520  1.00  0.00     0.023 A 
ATOM     82  C   UNL     1      -5.136  13.864  13.807  1.00  0.00     0.031 A 
ATOM     83  C   UNL     1      -6.967  14.321  12.310  1.00  0.00     0.131 A 
ATOM     84  C   UNL     1      -5.885  14.423  14.853  1.00  0.00     0.055 A 
ATOM     85  C   UNL     1      -7.672  14.953  13.336  1.00  0.00     0.041 A 
ATOM     86  F   UNL     1      -7.554  14.254  11.104  1.00  0.00    -0.206 F 
ATOM     87  C   UNL     1      -7.142  14.985  14.622  1.00  0.00     0.022 A 
BRANCH  84  88
ATOM     88  S   UNL     1      -5.258  14.264  16.549  1.00  0.00     0.124 S 
ATOM     89  O   UNL     1      -5.069  12.822  16.667  1.00  0.00    -0.237 OA
ATOM     90  O   UNL     1      -4.039  15.065  16.506  1.00  0.00    -0.237 OA
ATOM     91  O   UNL     1      -6.336  14.818  17.366  1.00  0.00    -0.744 OA
ENDBRANCH  84  88
ENDBRANCH  58  81
ENDBRANCH  32  33
ENDBRANCH  24  27
ENDBRANCH  22  23
ENDBRANCH  21  22
ENDBRANCH   1  21
TORSDOF 18
