REMARK SMILES CS(=O)(=O)[C@@H]1CCC[C@@H](Sc2ccc(C(=O)NCCCCNC(=O)c3ccc(-c4c5nc(c(-c6cc(S(=O)(=O)[O-])ccc6F)c6ccc([nH]6)c(-c6cc(S(=O)(=O)[O-])ccc6F)c6nc(c(-c7cc(S(=O)(=O)[O-])ccc7F)c7ccc4[nH]7)C=C6)C=C5)cc3)cn2)C1
REMARK SMILES IDX 19 1 18 2 17 3 15 4 16 5 14 7 11 8 12 9 89 10 13 11 88 12
REMARK SMILES IDX 10 13 9 14 5 15 6 16 90 17 7 18 8 19 2 20 1 21 3 22 4 23
REMARK SMILES IDX 20 24 21 25 22 26 23 27 24 29 25 30 26 31 87 32 27 33 86 34
REMARK SMILES IDX 28 35 29 36 30 37 80 38 31 39 85 40 79 41 81 42 32 43 84 44
REMARK SMILES IDX 78 45 77 46 33 48 65 49 45 50 64 51 46 52 49 53 63 54 82 55
REMARK SMILES IDX 47 56 48 57 62 59 83 60 50 61 34 62 35 63 43 64 36 65 42 66
REMARK SMILES IDX 44 67 41 68 37 69 38 70 39 71 40 72 66 73 67 74 75 75 68 76
REMARK SMILES IDX 74 77 76 78 73 79 69 80 70 81 71 82 72 83 51 84 52 85 60 86
REMARK SMILES IDX 53 87 59 88 61 89 58 90 54 91 55 92 56 93 57 94
REMARK H PARENT 17 6 22 28 81 47 49 58
REMARK Flexibility Score: inf
ROOT
ATOM      1  C   UNL     1       1.974  -2.513   2.601  1.00  0.00     0.023 C 
ENDROOT
BRANCH   1   2
ATOM      2  C   UNL     1       2.537  -2.184   3.994  1.00  0.00     0.116 C 
BRANCH   2   3
ATOM      3  N   UNL     1       3.996  -2.062   3.982  1.00  0.00    -0.352 N 
ATOM      4  C   UNL     1       4.878  -0.998   3.936  1.00  0.00     0.252 C 
ATOM      5  O   UNL     1       6.080  -1.229   4.053  1.00  0.00    -0.269 OA
ATOM      6  H   UNL     1       4.452  -2.934   4.015  1.00  0.00     0.163 HD
BRANCH   4   7
ATOM      7  C   UNL     1       4.451   0.410   3.772  1.00  0.00     0.058 A 
ATOM      8  C   UNL     1       3.643   3.086   3.611  1.00  0.00     0.096 A 
ATOM      9  C   UNL     1       2.780   2.049   3.453  1.00  0.00     0.036 A 
ATOM     10  N   UNL     1       4.935   2.823   3.890  1.00  0.00    -0.249 NA
ATOM     11  C   UNL     1       3.181   0.737   3.390  1.00  0.00     0.018 A 
ATOM     12  C   UNL     1       5.300   1.494   4.006  1.00  0.00     0.126 A 
BRANCH   8  13
ATOM     13  S   UNL     1       3.056   4.751   3.356  1.00  0.00    -0.103 SA
BRANCH  13  14
ATOM     14  C   UNL     1       1.216   4.717   2.819  1.00  0.00     0.054 C 
ATOM     15  C   UNL     1       0.462   2.675   1.409  1.00  0.00     0.109 C 
ATOM     16  C   UNL     1      -0.556   2.291   2.502  1.00  0.00     0.020 C 
ATOM     17  C   UNL     1       0.829   4.159   1.429  1.00  0.00     0.034 C 
ATOM     18  C   UNL     1      -0.372   2.926   3.891  1.00  0.00     0.002 C 
ATOM     19  C   UNL     1       0.191   4.349   3.907  1.00  0.00     0.015 C 
BRANCH  15  20
ATOM     20  S   UNL     1      -0.030   2.052  -0.209  1.00  0.00     0.150 S 
ATOM     21  C   UNL     1       0.608   0.381  -0.175  1.00  0.00     0.158 C 
ATOM     22  O   UNL     1       0.723   2.771  -1.223  1.00  0.00    -0.229 OA
ATOM     23  O   UNL     1      -1.472   1.980  -0.271  1.00  0.00    -0.229 OA
ENDBRANCH  15  20
ENDBRANCH  13  14
ENDBRANCH   8  13
ENDBRANCH   4   7
ENDBRANCH   2   3
ENDBRANCH   1   2
BRANCH   1  24
ATOM     24  C   UNL     1       2.009  -4.005   2.263  1.00  0.00     0.023 C 
BRANCH  24  25
ATOM     25  C   UNL     1       1.130  -4.881   3.152  1.00  0.00     0.116 C 
BRANCH  25  26
ATOM     26  N   UNL     1      -0.289  -4.581   3.043  1.00  0.00    -0.352 N 
ATOM     27  C   UNL     1      -1.348  -5.460   3.115  1.00  0.00     0.251 C 
ATOM     28  H   UNL     1      -0.521  -3.635   2.900  1.00  0.00     0.163 HD
ATOM     29  O   UNL     1      -2.487  -5.066   2.886  1.00  0.00    -0.269 OA
BRANCH  27  30
ATOM     30  C   UNL     1      -1.082  -6.882   3.422  1.00  0.00     0.039 A 
ATOM     31  C   UNL     1      -1.625  -7.868   2.596  1.00  0.00     0.014 A 
ATOM     32  C   UNL     1      -0.244  -7.235   4.484  1.00  0.00     0.014 A 
ATOM     33  C   UNL     1      -1.264  -9.203   2.789  1.00  0.00     0.010 A 
ATOM     34  C   UNL     1       0.178  -8.554   4.621  1.00  0.00     0.010 A 
ATOM     35  C   UNL     1      -0.324  -9.553   3.774  1.00  0.00    -0.014 A 
BRANCH  35  36
ATOM     36  C   UNL     1       0.147 -10.956   3.929  1.00  0.00     0.031 A 
ATOM     37  C   UNL     1      -0.100 -11.696   5.215  1.00  0.00     0.074 A 
ATOM     38  C   UNL     1       0.848 -11.540   2.936  1.00  0.00     0.049 A 
ATOM     39  N   UNL     1       0.293 -12.892   5.571  1.00  0.00    -0.248 NA
ATOM     40  C   UNL     1      -0.865 -10.983   6.249  1.00  0.00     0.031 C 
ATOM     41  C   UNL     1       1.188 -10.910   1.658  1.00  0.00     0.029 A 
ATOM     42  N   UNL     1       1.408 -12.791   2.845  1.00  0.00    -0.354 N 
ATOM     43  C   UNL     1      -0.171 -13.073   6.869  1.00  0.00     0.074 A 
ATOM     44  C   UNL     1      -0.809 -11.835   7.262  1.00  0.00     0.031 C 
ATOM     45  C   UNL     1       1.870 -11.786   0.902  1.00  0.00     0.029 A 
ATOM     46  C   UNL     1       2.065 -13.020   1.657  1.00  0.00     0.049 A 
ATOM     47  H   UNL     1       1.345 -13.461   3.563  1.00  0.00     0.167 HD
ATOM     48  C   UNL     1      -0.098 -14.179   7.651  1.00  0.00     0.034 A 
ATOM     49  C   UNL     1       2.760 -14.093   1.230  1.00  0.00     0.034 A 
ATOM     50  C   UNL     1       0.539 -15.408   7.242  1.00  0.00     0.049 A 
ATOM     51  C   UNL     1       2.867 -15.297   2.134  1.00  0.00     0.074 A 
ATOM     52  C   UNL     1       0.634 -16.601   7.937  1.00  0.00     0.029 A 
ATOM     53  N   UNL     1       1.202 -15.599   6.036  1.00  0.00    -0.354 N 
ATOM     54  N   UNL     1       2.378 -15.469   3.341  1.00  0.00    -0.248 NA
ATOM     55  C   UNL     1       3.608 -16.453   1.615  1.00  0.00     0.031 C 
ATOM     56  C   UNL     1       1.418 -17.484   7.188  1.00  0.00     0.029 A 
ATOM     57  C   UNL     1       1.736 -16.878   5.983  1.00  0.00     0.049 A 
ATOM     58  H   UNL     1       1.280 -14.925   5.322  1.00  0.00     0.167 HD
ATOM     59  C   UNL     1       2.725 -16.767   3.709  1.00  0.00     0.074 A 
ATOM     60  C   UNL     1       3.448 -17.335   2.590  1.00  0.00     0.031 C 
ATOM     61  C   UNL     1       2.465 -17.431   4.865  1.00  0.00     0.034 A 
BRANCH  48  62
ATOM     62  C   UNL     1      -0.703 -14.095   9.033  1.00  0.00     0.023 A 
ATOM     63  C   UNL     1      -2.075 -13.849   9.224  1.00  0.00     0.031 A 
ATOM     64  C   UNL     1       0.102 -14.238  10.177  1.00  0.00     0.131 A 
ATOM     65  C   UNL     1      -2.582 -13.672  10.519  1.00  0.00     0.055 A 
ATOM     66  C   UNL     1      -0.427 -14.152  11.466  1.00  0.00     0.041 A 
ATOM     67  F   UNL     1       1.422 -14.451  10.061  1.00  0.00    -0.206 F 
ATOM     68  C   UNL     1      -1.774 -13.850  11.644  1.00  0.00     0.022 A 
BRANCH  65  69
ATOM     69  S   UNL     1      -4.275 -13.047  10.706  1.00  0.00     0.124 S 
ATOM     70  O   UNL     1      -4.204 -11.783   9.976  1.00  0.00    -0.237 OA
ATOM     71  O   UNL     1      -5.070 -14.100  10.085  1.00  0.00    -0.237 OA
ATOM     72  O   UNL     1      -4.434 -12.914  12.152  1.00  0.00    -0.744 OA
ENDBRANCH  65  69
ENDBRANCH  48  62
BRANCH  49  73
ATOM     73  C   UNL     1       3.428 -14.082  -0.105  1.00  0.00     0.023 A 
ATOM     74  C   UNL     1       3.059 -14.992  -1.110  1.00  0.00     0.031 A 
ATOM     75  C   UNL     1       4.483 -13.193  -0.380  1.00  0.00     0.131 A 
ATOM     76  C   UNL     1       3.772 -15.028  -2.319  1.00  0.00     0.055 A 
ATOM     77  C   UNL     1       5.148 -13.191  -1.608  1.00  0.00     0.041 A 
ATOM     78  F   UNL     1       4.877 -12.301   0.543  1.00  0.00    -0.206 F 
ATOM     79  C   UNL     1       4.803 -14.123  -2.581  1.00  0.00     0.022 A 
BRANCH  76  80
ATOM     80  S   UNL     1       3.399 -16.346  -3.508  1.00  0.00     0.124 S 
ATOM     81  O   UNL     1       3.631 -17.542  -2.706  1.00  0.00    -0.237 OA
ATOM     82  O   UNL     1       2.010 -16.061  -3.850  1.00  0.00    -0.237 OA
ATOM     83  O   UNL     1       4.364 -16.117  -4.582  1.00  0.00    -0.744 OA
ENDBRANCH  76  80
ENDBRANCH  49  73
BRANCH  61  84
ATOM     84  C   UNL     1       2.924 -18.867   4.954  1.00  0.00     0.023 A 
ATOM     85  C   UNL     1       4.286 -19.215   4.945  1.00  0.00     0.031 A 
ATOM     86  C   UNL     1       1.979 -19.906   5.043  1.00  0.00     0.131 A 
ATOM     87  C   UNL     1       4.662 -20.567   4.963  1.00  0.00     0.055 A 
ATOM     88  C   UNL     1       2.361 -21.244   5.132  1.00  0.00     0.041 A 
ATOM     89  F   UNL     1       0.663 -19.634   5.051  1.00  0.00    -0.206 F 
ATOM     90  C   UNL     1       3.710 -21.583   5.078  1.00  0.00     0.022 A 
BRANCH  87  91
ATOM     91  S   UNL     1       6.411 -20.987   4.729  1.00  0.00     0.124 S 
ATOM     92  O   UNL     1       6.700 -20.372   3.438  1.00  0.00    -0.237 OA
ATOM     93  O   UNL     1       7.040 -20.362   5.888  1.00  0.00    -0.237 OA
ATOM     94  O   UNL     1       6.417 -22.449   4.735  1.00  0.00    -0.744 OA
ENDBRANCH  87  91
ENDBRANCH  61  84
ENDBRANCH  35  36
ENDBRANCH  27  30
ENDBRANCH  25  26
ENDBRANCH  24  25
ENDBRANCH   1  24
TORSDOF 17
