REMARK SMILES O=C(/C=C/c1ccc(O)c(O)c1)NCCCCNC(=O)c1ccc(-c2c3nc(c(-c4cc(S(=O)(=O)[O-])ccc4F)c4ccc([nH]4)c(-c4cc(S(=O)(=O)[O-])ccc4F)c4nc(c(-c5cc(S(=O)(=O)[O-])ccc5F)c5ccc2[nH]5)C=C4)C=C3)cc1
REMARK SMILES IDX 16 1 15 2 14 3 13 4 1 5 2 6 3 8 4 9 5 10 6 11 12 12 7 13
REMARK SMILES IDX 10 14 8 15 11 16 9 18 17 20 18 21 19 22 20 24 21 25 22 26
REMARK SMILES IDX 83 27 23 28 82 29 24 30 25 31 26 32 76 33 27 34 81 35 75 36
REMARK SMILES IDX 77 37 28 38 80 39 74 40 73 41 29 43 61 44 41 45 60 46 42 47
REMARK SMILES IDX 45 48 59 49 78 50 43 51 44 52 58 54 79 55 46 56 30 57 31 58
REMARK SMILES IDX 39 59 32 60 38 61 40 62 37 63 33 64 34 65 35 66 36 67 62 68
REMARK SMILES IDX 63 69 71 70 64 71 70 72 72 73 69 74 65 75 66 76 67 77 68 78
REMARK SMILES IDX 47 79 48 80 56 81 49 82 55 83 57 84 54 85 50 86 51 87 52 88
REMARK SMILES IDX 53 89
REMARK H PARENT 13 7 11 17 9 19 18 23 77 42 45 53
REMARK Flexibility Score: inf
ROOT
ATOM      1  C   UNL     1       3.907  -1.593   3.527  1.00  0.00     0.023 C 
ENDROOT
BRANCH   1   2
ATOM      2  C   UNL     1       2.428  -1.428   3.163  1.00  0.00     0.023 C 
BRANCH   2   3
ATOM      3  C   UNL     1       2.076  -0.118   2.457  1.00  0.00     0.116 C 
BRANCH   3   4
ATOM      4  N   UNL     1       2.790   0.042   1.205  1.00  0.00    -0.353 N 
ATOM      5  O   UNL     1       0.941  -0.098  -0.147  1.00  0.00    -0.270 OA
ATOM      6  C   UNL     1       2.154   0.020  -0.007  1.00  0.00     0.243 C 
ATOM      7  H   UNL     1       3.765   0.172   1.227  1.00  0.00     0.163 HD
BRANCH   6   8
ATOM      8  C   UNL     1       3.004   0.179  -1.217  1.00  0.00     0.072 C 
ATOM      9  C   UNL     1       4.344   0.132  -1.283  1.00  0.00     0.014 C 
BRANCH   9  10
ATOM     10  C   UNL     1       5.081   0.238  -2.552  1.00  0.00    -0.022 A 
ATOM     11  C   UNL     1       4.734   1.172  -3.545  1.00  0.00     0.012 A 
ATOM     12  C   UNL     1       6.189  -0.593  -2.759  1.00  0.00     0.058 A 
ATOM     13  C   UNL     1       5.460   1.254  -4.739  1.00  0.00     0.051 A 
ATOM     14  C   UNL     1       6.902  -0.506  -3.947  1.00  0.00     0.157 A 
ATOM     15  C   UNL     1       6.543   0.407  -4.933  1.00  0.00     0.157 A 
BRANCH  14  16
ATOM     16  O   UNL     1       7.971  -1.335  -4.140  1.00  0.00    -0.504 OA
ATOM     17  H   UNL     1       8.462  -1.288  -4.936  1.00  0.00     0.293 HD
ENDBRANCH  14  16
BRANCH  15  18
ATOM     18  O   UNL     1       7.289   0.435  -6.079  1.00  0.00    -0.504 OA
ATOM     19  H   UNL     1       7.074   1.038  -6.763  1.00  0.00     0.293 HD
ENDBRANCH  15  18
ENDBRANCH   9  10
ENDBRANCH   6   8
ENDBRANCH   3   4
ENDBRANCH   2   3
ENDBRANCH   1   2
BRANCH   1  20
ATOM     20  C   UNL     1       4.499  -0.488   4.397  1.00  0.00     0.116 C 
BRANCH  20  21
ATOM     21  N   UNL     1       3.886  -0.412   5.713  1.00  0.00    -0.352 N 
ATOM     22  C   UNL     1       4.479  -0.386   6.954  1.00  0.00     0.251 C 
ATOM     23  H   UNL     1       2.902  -0.373   5.716  1.00  0.00     0.163 HD
ATOM     24  O   UNL     1       3.777  -0.472   7.959  1.00  0.00    -0.269 OA
BRANCH  22  25
ATOM     25  C   UNL     1       5.952  -0.293   7.082  1.00  0.00     0.039 A 
ATOM     26  C   UNL     1       6.601  -1.112   8.011  1.00  0.00     0.014 A 
ATOM     27  C   UNL     1       6.697   0.591   6.297  1.00  0.00     0.014 A 
ATOM     28  C   UNL     1       7.997  -1.098   8.098  1.00  0.00     0.010 A 
ATOM     29  C   UNL     1       8.091   0.548   6.331  1.00  0.00     0.010 A 
ATOM     30  C   UNL     1       8.758  -0.300   7.228  1.00  0.00    -0.014 A 
BRANCH  30  31
ATOM     31  C   UNL     1      10.247  -0.349   7.239  1.00  0.00     0.031 A 
ATOM     32  C   UNL     1      11.047   0.879   7.586  1.00  0.00     0.074 A 
ATOM     33  C   UNL     1      10.882  -1.484   6.881  1.00  0.00     0.049 A 
ATOM     34  N   UNL     1      12.344   1.054   7.575  1.00  0.00    -0.248 NA
ATOM     35  C   UNL     1      10.283   2.075   7.970  1.00  0.00     0.031 C 
ATOM     36  C   UNL     1      10.223  -2.732   6.489  1.00  0.00     0.029 A 
ATOM     37  N   UNL     1      12.221  -1.773   6.777  1.00  0.00    -0.354 N 
ATOM     38  C   UNL     1      12.553   2.379   7.942  1.00  0.00     0.074 A 
ATOM     39  C   UNL     1      11.244   2.977   8.103  1.00  0.00     0.031 C 
ATOM     40  C   UNL     1      11.156  -3.656   6.213  1.00  0.00     0.029 A 
ATOM     41  C   UNL     1      12.480  -3.057   6.353  1.00  0.00     0.049 A 
ATOM     42  H   UNL     1      12.929  -1.122   6.986  1.00  0.00     0.167 HD
ATOM     43  C   UNL     1      13.726   3.030   8.150  1.00  0.00     0.034 A 
ATOM     44  C   UNL     1      13.647  -3.678   6.088  1.00  0.00     0.034 A 
ATOM     45  C   UNL     1      15.024   2.419   7.987  1.00  0.00     0.049 A 
ATOM     46  C   UNL     1      14.938  -2.921   6.281  1.00  0.00     0.074 A 
ATOM     47  C   UNL     1      16.271   2.975   8.214  1.00  0.00     0.029 A 
ATOM     48  N   UNL     1      15.246   1.120   7.547  1.00  0.00    -0.354 N 
ATOM     49  N   UNL     1      15.117  -1.681   6.673  1.00  0.00    -0.248 NA
ATOM     50  C   UNL     1      16.182  -3.651   6.006  1.00  0.00     0.031 C 
ATOM     51  C   UNL     1      17.244   2.043   7.836  1.00  0.00     0.029 A 
ATOM     52  C   UNL     1      16.608   0.871   7.461  1.00  0.00     0.049 A 
ATOM     53  H   UNL     1      14.539   0.471   7.327  1.00  0.00     0.167 HD
ATOM     54  C   UNL     1      16.497  -1.495   6.723  1.00  0.00     0.074 A 
ATOM     55  C   UNL     1      17.099  -2.754   6.337  1.00  0.00     0.031 C 
ATOM     56  C   UNL     1      17.201  -0.385   7.063  1.00  0.00     0.034 A 
BRANCH  43  57
ATOM     57  C   UNL     1      13.652   4.486   8.550  1.00  0.00     0.023 A 
ATOM     58  C   UNL     1      13.029   4.893   9.744  1.00  0.00     0.031 A 
ATOM     59  C   UNL     1      14.190   5.484   7.719  1.00  0.00     0.131 A 
ATOM     60  C   UNL     1      12.889   6.259  10.032  1.00  0.00     0.055 A 
ATOM     61  C   UNL     1      14.126   6.838   8.056  1.00  0.00     0.041 A 
ATOM     62  F   UNL     1      14.778   5.163   6.556  1.00  0.00    -0.206 F 
ATOM     63  C   UNL     1      13.457   7.234   9.210  1.00  0.00     0.022 A 
BRANCH  60  64
ATOM     64  S   UNL     1      11.816   6.745  11.412  1.00  0.00     0.124 S 
ATOM     65  O   UNL     1      10.545   6.137  11.025  1.00  0.00    -0.237 OA
ATOM     66  O   UNL     1      12.488   6.147  12.559  1.00  0.00    -0.237 OA
ATOM     67  O   UNL     1      11.839   8.206  11.365  1.00  0.00    -0.744 OA
ENDBRANCH  60  64
ENDBRANCH  43  57
BRANCH  44  68
ATOM     68  C   UNL     1      13.659  -5.086   5.590  1.00  0.00     0.023 A 
ATOM     69  C   UNL     1      14.254  -6.115   6.337  1.00  0.00     0.031 A 
ATOM     70  C   UNL     1      13.114  -5.414   4.335  1.00  0.00     0.131 A 
ATOM     71  C   UNL     1      14.336  -7.411   5.802  1.00  0.00     0.055 A 
ATOM     72  C   UNL     1      13.144  -6.716   3.834  1.00  0.00     0.041 A 
ATOM     73  F   UNL     1      12.532  -4.469   3.579  1.00  0.00    -0.206 F 
ATOM     74  C   UNL     1      13.771  -7.721   4.563  1.00  0.00     0.022 A 
BRANCH  71  75
ATOM     75  S   UNL     1      15.280  -8.667   6.708  1.00  0.00     0.124 S 
ATOM     76  O   UNL     1      16.595  -8.041   6.798  1.00  0.00    -0.237 OA
ATOM     77  O   UNL     1      14.530  -8.768   7.955  1.00  0.00    -0.237 OA
ATOM     78  O   UNL     1      15.205  -9.841   5.841  1.00  0.00    -0.744 OA
ENDBRANCH  71  75
ENDBRANCH  44  68
BRANCH  56  79
ATOM     79  C   UNL     1      18.708  -0.502   7.081  1.00  0.00     0.023 A 
ATOM     80  C   UNL     1      19.451  -0.730   5.909  1.00  0.00     0.031 A 
ATOM     81  C   UNL     1      19.410  -0.393   8.295  1.00  0.00     0.131 A 
ATOM     82  C   UNL     1      20.842  -0.899   5.984  1.00  0.00     0.055 A 
ATOM     83  C   UNL     1      20.800  -0.494   8.354  1.00  0.00     0.041 A 
ATOM     84  F   UNL     1      18.754  -0.180   9.447  1.00  0.00    -0.206 F 
ATOM     85  C   UNL     1      21.524  -0.763   7.197  1.00  0.00     0.022 A 
BRANCH  82  86
ATOM     86  S   UNL     1      21.742  -1.400   4.491  1.00  0.00     0.124 S 
ATOM     87  O   UNL     1      21.077  -2.651   4.142  1.00  0.00    -0.237 OA
ATOM     88  O   UNL     1      21.502  -0.278   3.590  1.00  0.00    -0.237 OA
ATOM     89  O   UNL     1      23.122  -1.540   4.952  1.00  0.00    -0.744 OA
ENDBRANCH  82  86
ENDBRANCH  56  79
ENDBRANCH  30  31
ENDBRANCH  22  25
ENDBRANCH  20  21
ENDBRANCH   1  20
TORSDOF 17
