REMARK SMILES Cc1ccc(S(=O)(=O)n2cc(C(=O)C(=O)N[C@@H](Cc3c[nH]c4ccccc34)C(=O)NCCCCNC(=O)c3ccc(-c4c5nc(c(-c6cc(S(=O)(=O)[O-])ccc6F)c6ccc([nH]6)c(-c6cc(S(=O)(=O)[O-])ccc6F)c6nc(c(-c7cc(S(=O)(=O)[O-])ccc7F)c7ccc4[nH]7)C=C6)C=C5)cc3)c3ccccc32)cc1
REMARK SMILES IDX 31 1 30 2 28 3 29 4 17 6 16 7 14 8 15 9 12 11 13 12 11 13
REMARK SMILES IDX 9 14 10 15 106 16 101 17 105 18 102 19 104 20 103 21 6 22
REMARK SMILES IDX 7 23 8 24 5 25 1 26 2 27 3 28 108 29 4 30 107 31 18 32 19 33
REMARK SMILES IDX 20 34 27 35 21 36 22 37 26 38 23 40 25 41 24 42 32 43 33 44
REMARK SMILES IDX 34 45 35 46 36 47 37 49 38 50 39 51 100 52 40 53 99 54 41 55
REMARK SMILES IDX 42 56 43 57 93 58 44 59 98 60 92 61 94 62 45 63 97 64 91 65
REMARK SMILES IDX 90 66 46 68 78 69 58 70 77 71 59 72 62 73 76 74 95 75 60 76
REMARK SMILES IDX 61 77 75 79 96 80 63 81 47 82 48 83 56 84 49 85 55 86 57 87
REMARK SMILES IDX 54 88 50 89 51 90 52 91 53 92 79 93 80 94 88 95 81 96 87 97
REMARK SMILES IDX 89 98 86 99 82 100 83 101 84 102 85 103 64 104 65 105 73 106
REMARK SMILES IDX 66 107 72 108 74 109 71 110 67 111 68 112 69 113 70 114
REMARK H PARENT 30 5 16 10 21 39 35 48 94 67 62 78
REMARK Flexibility Score: inf
ROOT
ATOM      1  C   UNL     1     -12.017   4.178  -1.719  1.00  0.00     0.116 C 
ENDROOT
BRANCH   1   2
ATOM      2  N   UNL     1     -11.901   2.839  -2.258  1.00  0.00    -0.354 N 
ATOM      3  C   UNL     1     -11.515   1.694  -1.604  1.00  0.00     0.242 C 
ATOM      4  O   UNL     1     -11.980   0.631  -2.037  1.00  0.00    -0.273 OA
ATOM      5  H   UNL     1     -12.126   2.736  -3.211  1.00  0.00     0.163 HD
BRANCH   3   6
ATOM      6  C   UNL     1     -10.634   1.680  -0.315  1.00  0.00     0.176 C 
BRANCH   6   7
ATOM      7  N   UNL     1      -9.497   2.632  -0.316  1.00  0.00    -0.337 N 
ATOM      8  C   UNL     1      -8.150   2.445  -0.581  1.00  0.00     0.293 C 
ATOM      9  O   UNL     1      -7.342   3.357  -0.429  1.00  0.00    -0.265 OA
ATOM     10  H   UNL     1      -9.742   3.558  -0.089  1.00  0.00     0.164 HD
BRANCH   8  11
ATOM     11  C   UNL     1      -7.642   1.101  -1.103  1.00  0.00     0.252 C 
ATOM     12  O   UNL     1      -8.267   0.617  -2.046  1.00  0.00    -0.283 OA
BRANCH  11  13
ATOM     13  C   UNL     1      -6.529   0.368  -0.466  1.00  0.00     0.054 A 
ATOM     14  N   UNL     1      -4.591  -0.320   0.494  1.00  0.00    -0.240 N 
ATOM     15  C   UNL     1      -5.250   0.780  -0.060  1.00  0.00     0.117 A 
ATOM     16  C   UNL     1      -5.539  -1.347   0.638  1.00  0.00     0.065 A 
ATOM     17  C   UNL     1      -6.563  -1.045  -0.255  1.00  0.00     0.012 A 
ATOM     18  C   UNL     1      -5.438  -2.620   1.235  1.00  0.00     0.028 A 
ATOM     19  C   UNL     1      -7.389  -2.093  -0.713  1.00  0.00     0.011 A 
ATOM     20  C   UNL     1      -6.216  -3.651   0.714  1.00  0.00     0.002 A 
ATOM     21  C   UNL     1      -7.151  -3.401  -0.280  1.00  0.00     0.001 A 
BRANCH  14  22
ATOM     22  S   UNL     1      -3.045  -0.966  -0.017  1.00  0.00     0.268 S 
ATOM     23  O   UNL     1      -3.293  -1.378  -1.389  1.00  0.00    -0.201 OA
ATOM     24  O   UNL     1      -2.760  -1.950   1.021  1.00  0.00    -0.201 OA
BRANCH  22  25
ATOM     25  C   UNL     1      -1.509  -0.113  -0.076  1.00  0.00     0.088 A 
ATOM     26  C   UNL     1       2.676   0.979  -0.031  1.00  0.00     0.044 C 
ATOM     27  C   UNL     1       1.212   0.647  -0.091  1.00  0.00    -0.051 A 
ATOM     28  C   UNL     1       0.871  -0.671  -0.358  1.00  0.00     0.005 A 
ATOM     29  C   UNL     1       0.181   1.581   0.164  1.00  0.00     0.005 A 
ATOM     30  C   UNL     1      -0.464  -1.032  -0.362  1.00  0.00     0.022 A 
ATOM     31  C   UNL     1      -1.190   1.208   0.179  1.00  0.00     0.022 A 
ENDBRANCH  22  25
ENDBRANCH  14  22
ENDBRANCH  11  13
ENDBRANCH   8  11
ENDBRANCH   6   7
BRANCH   6  32
ATOM     32  C   UNL     1     -11.476   1.683   1.008  1.00  0.00     0.072 C 
BRANCH  32  33
ATOM     33  C   UNL     1     -12.238   2.939   1.331  1.00  0.00    -0.020 A 
ATOM     34  C   UNL     1     -13.613   3.104   1.297  1.00  0.00     0.087 A 
ATOM     35  C   UNL     1     -11.687   4.230   1.635  1.00  0.00     0.003 A 
ATOM     36  N   UNL     1     -13.892   4.446   1.403  1.00  0.00    -0.361 N 
ATOM     37  C   UNL     1     -12.712   5.151   1.425  1.00  0.00     0.046 A 
ATOM     38  C   UNL     1     -10.382   4.715   1.865  1.00  0.00     0.010 A 
ATOM     39  H   UNL     1     -14.793   4.839   1.455  1.00  0.00     0.166 HD
ATOM     40  C   UNL     1     -12.465   6.514   1.253  1.00  0.00     0.026 A 
ATOM     41  C   UNL     1     -10.118   6.078   1.698  1.00  0.00     0.001 A 
ATOM     42  C   UNL     1     -11.143   6.957   1.364  1.00  0.00     0.002 A 
ENDBRANCH  32  33
ENDBRANCH   6  32
ENDBRANCH   3   6
ENDBRANCH   1   2
BRANCH   1  43
ATOM     43  C   UNL     1     -11.362   5.307  -2.510  1.00  0.00     0.023 C 
BRANCH  43  44
ATOM     44  C   UNL     1     -12.119   5.814  -3.731  1.00  0.00     0.023 C 
BRANCH  44  45
ATOM     45  C   UNL     1     -13.511   6.382  -3.471  1.00  0.00     0.116 C 
BRANCH  45  46
ATOM     46  N   UNL     1     -13.602   7.794  -3.130  1.00  0.00    -0.352 N 
ATOM     47  C   UNL     1     -14.735   8.572  -2.899  1.00  0.00     0.251 C 
ATOM     48  H   UNL     1     -12.742   8.267  -3.051  1.00  0.00     0.163 HD
ATOM     49  O   UNL     1     -14.627   9.781  -2.774  1.00  0.00    -0.269 OA
BRANCH  47  50
ATOM     50  C   UNL     1     -16.069   7.931  -2.693  1.00  0.00     0.039 A 
ATOM     51  C   UNL     1     -16.933   8.474  -1.728  1.00  0.00     0.014 A 
ATOM     52  C   UNL     1     -16.404   6.728  -3.301  1.00  0.00     0.014 A 
ATOM     53  C   UNL     1     -17.967   7.695  -1.206  1.00  0.00     0.010 A 
ATOM     54  C   UNL     1     -17.327   5.905  -2.700  1.00  0.00     0.010 A 
ATOM     55  C   UNL     1     -18.058   6.367  -1.609  1.00  0.00    -0.014 A 
BRANCH  55  56
ATOM     56  C   UNL     1     -18.778   5.323  -0.897  1.00  0.00     0.031 A 
ATOM     57  C   UNL     1     -20.019   4.765  -1.470  1.00  0.00     0.074 A 
ATOM     58  C   UNL     1     -18.151   4.746   0.154  1.00  0.00     0.049 A 
ATOM     59  N   UNL     1     -20.834   4.000  -0.834  1.00  0.00    -0.248 NA
ATOM     60  C   UNL     1     -20.481   5.094  -2.817  1.00  0.00     0.031 C 
ATOM     61  C   UNL     1     -18.459   3.467   0.784  1.00  0.00     0.029 A 
ATOM     62  N   UNL     1     -17.214   5.333   1.020  1.00  0.00    -0.354 N 
ATOM     63  C   UNL     1     -21.741   3.502  -1.744  1.00  0.00     0.074 A 
ATOM     64  C   UNL     1     -21.564   4.318  -2.917  1.00  0.00     0.031 C 
ATOM     65  C   UNL     1     -17.993   3.491   2.045  1.00  0.00     0.029 A 
ATOM     66  C   UNL     1     -17.534   4.849   2.300  1.00  0.00     0.049 A 
ATOM     67  H   UNL     1     -16.487   5.952   0.781  1.00  0.00     0.167 HD
ATOM     68  C   UNL     1     -22.428   2.367  -1.429  1.00  0.00     0.034 A 
ATOM     69  C   UNL     1     -18.005   5.650   3.301  1.00  0.00     0.034 A 
ATOM     70  C   UNL     1     -22.267   2.059  -0.005  1.00  0.00     0.049 A 
ATOM     71  C   UNL     1     -19.391   5.234   3.777  1.00  0.00     0.074 A 
ATOM     72  C   UNL     1     -21.529   1.115   0.686  1.00  0.00     0.029 A 
ATOM     73  N   UNL     1     -22.709   2.982   0.941  1.00  0.00    -0.354 N 
ATOM     74  N   UNL     1     -20.206   4.467   3.104  1.00  0.00    -0.248 NA
ATOM     75  C   UNL     1     -19.962   5.677   5.045  1.00  0.00     0.031 C 
ATOM     76  C   UNL     1     -21.421   1.555   2.036  1.00  0.00     0.029 A 
ATOM     77  C   UNL     1     -22.143   2.730   2.175  1.00  0.00     0.049 A 
ATOM     78  H   UNL     1     -23.339   3.715   0.754  1.00  0.00     0.167 HD
ATOM     79  C   UNL     1     -21.381   4.317   3.800  1.00  0.00     0.074 A 
ATOM     80  C   UNL     1     -21.165   5.078   5.020  1.00  0.00     0.031 C 
ATOM     81  C   UNL     1     -22.439   3.595   3.312  1.00  0.00     0.034 A 
BRANCH  68  82
ATOM     82  C   UNL     1     -23.064   1.395  -2.415  1.00  0.00     0.023 A 
ATOM     83  C   UNL     1     -23.572   0.170  -1.921  1.00  0.00     0.031 A 
ATOM     84  C   UNL     1     -23.099   1.519  -3.822  1.00  0.00     0.131 A 
ATOM     85  C   UNL     1     -24.033  -0.847  -2.785  1.00  0.00     0.055 A 
ATOM     86  C   UNL     1     -23.594   0.524  -4.678  1.00  0.00     0.041 A 
ATOM     87  F   UNL     1     -22.622   2.584  -4.471  1.00  0.00    -0.206 F 
ATOM     88  C   UNL     1     -24.054  -0.672  -4.163  1.00  0.00     0.022 A 
BRANCH  85  89
ATOM     89  S   UNL     1     -24.549  -2.441  -2.090  1.00  0.00     0.124 S 
ATOM     90  O   UNL     1     -23.318  -2.918  -1.469  1.00  0.00    -0.237 OA
ATOM     91  O   UNL     1     -25.625  -2.052  -1.186  1.00  0.00    -0.237 OA
ATOM     92  O   UNL     1     -24.977  -3.200  -3.265  1.00  0.00    -0.744 OA
ENDBRANCH  85  89
ENDBRANCH  68  82
BRANCH  69  93
ATOM     93  C   UNL     1     -17.533   7.065   3.254  1.00  0.00     0.023 A 
ATOM     94  C   UNL     1     -16.210   7.373   3.636  1.00  0.00     0.031 A 
ATOM     95  C   UNL     1     -18.243   8.027   2.515  1.00  0.00     0.131 A 
ATOM     96  C   UNL     1     -15.619   8.577   3.214  1.00  0.00     0.055 A 
ATOM     97  C   UNL     1     -17.636   9.206   2.070  1.00  0.00     0.041 A 
ATOM     98  F   UNL     1     -19.483   7.766   2.077  1.00  0.00    -0.206 F 
ATOM     99  C   UNL     1     -16.309   9.471   2.392  1.00  0.00     0.022 A 
BRANCH  96 100
ATOM    100  S   UNL     1     -13.898   8.984   3.637  1.00  0.00     0.124 S 
ATOM    101  O   UNL     1     -14.073  10.054   4.612  1.00  0.00    -0.237 OA
ATOM    102  O   UNL     1     -13.380   7.728   4.166  1.00  0.00    -0.237 OA
ATOM    103  O   UNL     1     -13.351   9.399   2.346  1.00  0.00    -0.744 OA
ENDBRANCH  96 100
ENDBRANCH  69  93
BRANCH  81 104
ATOM    104  C   UNL     1     -23.841   3.583   3.895  1.00  0.00     0.023 A 
ATOM    105  C   UNL     1     -24.319   4.560   4.780  1.00  0.00     0.031 A 
ATOM    106  C   UNL     1     -24.791   2.610   3.494  1.00  0.00     0.131 A 
ATOM    107  C   UNL     1     -25.627   4.502   5.297  1.00  0.00     0.055 A 
ATOM    108  C   UNL     1     -26.119   2.608   3.936  1.00  0.00     0.041 A 
ATOM    109  F   UNL     1     -24.475   1.621   2.644  1.00  0.00    -0.206 F 
ATOM    110  C   UNL     1     -26.541   3.548   4.861  1.00  0.00     0.022 A 
BRANCH 107 111
ATOM    111  S   UNL     1     -26.076   5.660   6.616  1.00  0.00     0.124 S 
ATOM    112  O   UNL     1     -25.134   5.291   7.670  1.00  0.00    -0.237 OA
ATOM    113  O   UNL     1     -25.846   6.956   5.987  1.00  0.00    -0.237 OA
ATOM    114  O   UNL     1     -27.475   5.342   6.895  1.00  0.00    -0.744 OA
ENDBRANCH 107 111
ENDBRANCH  81 104
ENDBRANCH  55  56
ENDBRANCH  47  50
ENDBRANCH  45  46
ENDBRANCH  44  45
ENDBRANCH  43  44
ENDBRANCH   1  43
TORSDOF 21
