REMARK SMILES O=C(CCC(=O)Nc1scc2c1c(=O)oc1ccccc12)NCCCCNC(=O)c1ccc(-c2c3nc(c(-c4cc(S(=O)(=O)[O-])ccc4F)c4ccc([nH]4)c(-c4cc(S(=O)(=O)[O-])ccc4F)c4nc(c(-c5cc(S(=O)(=O)[O-])ccc5F)c5ccc2[nH]5)C=C4)C=C3)cc1
REMARK SMILES IDX 24 1 23 2 22 3 1 4 2 5 3 7 4 8 5 9 6 10 7 11 8 13 9 14 12 15
REMARK SMILES IDX 10 16 11 17 13 18 21 19 14 20 15 21 16 22 20 23 17 24 19 25
REMARK SMILES IDX 18 26 25 27 26 28 27 29 28 30 29 32 30 33 31 34 92 35 32 36
REMARK SMILES IDX 91 37 33 38 34 39 35 40 85 41 36 42 90 43 84 44 86 45 37 46
REMARK SMILES IDX 89 47 83 48 82 49 38 51 70 52 50 53 69 54 51 55 54 56 68 57
REMARK SMILES IDX 87 58 52 59 53 60 67 62 88 63 55 64 39 65 40 66 48 67 41 68
REMARK SMILES IDX 47 69 49 70 46 71 42 72 43 73 44 74 45 75 71 76 72 77 80 78
REMARK SMILES IDX 73 79 79 80 81 81 78 82 74 83 75 84 76 85 77 86 56 87 57 88
REMARK SMILES IDX 65 89 58 90 64 91 66 92 63 93 59 94 60 95 61 96 62 97
REMARK H PARENT 22 6 7 12 27 31 86 50 54 61
REMARK Flexibility Score: inf
ROOT
ATOM      1  C   UNL     1       3.791   2.392  -2.705  1.00  0.00     0.023 C 
ENDROOT
BRANCH   1   2
ATOM      2  C   UNL     1       3.652   1.190  -1.803  1.00  0.00     0.116 C 
BRANCH   2   3
ATOM      3  N   UNL     1       4.568   1.094  -0.683  1.00  0.00    -0.356 N 
ATOM      4  O   UNL     1       3.157   1.423   1.143  1.00  0.00    -0.275 OA
ATOM      5  C   UNL     1       4.134   0.906   0.613  1.00  0.00     0.220 C 
ATOM      6  H   UNL     1       5.535   1.167  -0.854  1.00  0.00     0.163 HD
BRANCH   5   7
ATOM      7  C   UNL     1       4.832  -0.225   1.315  1.00  0.00     0.110 C 
BRANCH   7   8
ATOM      8  C   UNL     1       4.047  -1.503   1.006  1.00  0.00     0.110 C 
BRANCH   8   9
ATOM      9  C   UNL     1       4.155  -1.853  -0.453  1.00  0.00     0.225 C 
ATOM     10  O   UNL     1       5.274  -2.092  -0.929  1.00  0.00    -0.275 OA
ATOM     11  N   UNL     1       3.099  -1.988  -1.289  1.00  0.00    -0.317 N 
ATOM     12  H   UNL     1       3.366  -2.422  -2.131  1.00  0.00     0.170 HD
BRANCH  11  13
ATOM     13  C   UNL     1       1.754  -1.689  -1.291  1.00  0.00     0.110 A 
ATOM     14  S   UNL     1       1.054  -2.588  -2.600  1.00  0.00    -0.125 S 
ATOM     15  C   UNL     1       0.787  -0.904  -0.692  1.00  0.00     0.103 A 
ATOM     16  C   UNL     1      -0.526  -2.040  -2.276  1.00  0.00     0.076 A 
ATOM     17  C   UNL     1      -0.540  -1.203  -1.194  1.00  0.00     0.013 A 
ATOM     18  C   UNL     1       0.755   0.274   0.183  1.00  0.00     0.347 A 
ATOM     19  C   UNL     1      -1.672  -0.461  -0.645  1.00  0.00     0.026 A 
ATOM     20  O   UNL     1       1.015   1.404  -0.215  1.00  0.00    -0.246 OA
ATOM     21  O   UNL     1      -0.169   0.100   1.207  1.00  0.00    -0.422 OA
ATOM     22  C   UNL     1      -1.418   0.224   0.571  1.00  0.00     0.139 A 
ATOM     23  C   UNL     1      -2.894  -0.275  -1.282  1.00  0.00     0.012 A 
ATOM     24  C   UNL     1      -2.352   1.081   1.140  1.00  0.00     0.048 A 
ATOM     25  C   UNL     1      -3.837   0.589  -0.711  1.00  0.00     0.001 A 
ATOM     26  C   UNL     1      -3.566   1.267   0.486  1.00  0.00     0.004 A 
ENDBRANCH  11  13
ENDBRANCH   8   9
ENDBRANCH   7   8
ENDBRANCH   5   7
ENDBRANCH   2   3
ENDBRANCH   1   2
BRANCH   1  27
ATOM     27  C   UNL     1       5.064   2.371  -3.541  1.00  0.00     0.023 C 
BRANCH  27  28
ATOM     28  C   UNL     1       5.226   1.161  -4.476  1.00  0.00     0.116 C 
BRANCH  28  29
ATOM     29  N   UNL     1       4.262   1.096  -5.557  1.00  0.00    -0.352 N 
ATOM     30  C   UNL     1       4.302   1.516  -6.864  1.00  0.00     0.251 C 
ATOM     31  H   UNL     1       3.412   0.668  -5.305  1.00  0.00     0.163 HD
ATOM     32  O   UNL     1       3.453   1.032  -7.617  1.00  0.00    -0.269 OA
BRANCH  30  33
ATOM     33  C   UNL     1       5.241   2.547  -7.394  1.00  0.00     0.039 A 
ATOM     34  C   UNL     1       6.182   3.231  -6.630  1.00  0.00     0.014 A 
ATOM     35  C   UNL     1       5.085   2.923  -8.743  1.00  0.00     0.014 A 
ATOM     36  C   UNL     1       6.857   4.326  -7.149  1.00  0.00     0.010 A 
ATOM     37  C   UNL     1       5.791   4.001  -9.282  1.00  0.00     0.010 A 
ATOM     38  C   UNL     1       6.644   4.735  -8.467  1.00  0.00    -0.014 A 
BRANCH  38  39
ATOM     39  C   UNL     1       7.425   5.884  -8.922  1.00  0.00     0.031 A 
ATOM     40  C   UNL     1       8.897   5.757  -8.724  1.00  0.00     0.074 A 
ATOM     41  C   UNL     1       6.931   6.994  -9.502  1.00  0.00     0.049 A 
ATOM     42  N   UNL     1       9.643   6.400  -7.885  1.00  0.00    -0.248 NA
ATOM     43  C   UNL     1       9.590   4.688  -9.452  1.00  0.00     0.031 C 
ATOM     44  C   UNL     1       5.591   7.229 -10.039  1.00  0.00     0.029 A 
ATOM     45  N   UNL     1       7.593   8.149  -9.803  1.00  0.00    -0.354 N 
ATOM     46  C   UNL     1      10.944   5.948  -8.099  1.00  0.00     0.074 A 
ATOM     47  C   UNL     1      10.828   4.802  -8.970  1.00  0.00     0.031 C 
ATOM     48  C   UNL     1       5.609   8.351 -10.796  1.00  0.00     0.029 A 
ATOM     49  C   UNL     1       6.907   8.993 -10.660  1.00  0.00     0.049 A 
ATOM     50  H   UNL     1       8.483   8.364  -9.441  1.00  0.00     0.167 HD
ATOM     51  C   UNL     1      12.034   6.654  -7.685  1.00  0.00     0.034 A 
ATOM     52  C   UNL     1       7.390  10.106 -11.265  1.00  0.00     0.034 A 
ATOM     53  C   UNL     1      11.680   7.660  -6.719  1.00  0.00     0.049 A 
ATOM     54  C   UNL     1       8.568  10.584 -10.505  1.00  0.00     0.074 A 
ATOM     55  C   UNL     1      11.124   7.645  -5.455  1.00  0.00     0.029 A 
ATOM     56  N   UNL     1      11.585   8.961  -7.149  1.00  0.00    -0.354 N 
ATOM     57  N   UNL     1       8.505  11.133  -9.325  1.00  0.00    -0.248 NA
ATOM     58  C   UNL     1       9.876  10.081 -10.891  1.00  0.00     0.031 C 
ATOM     59  C   UNL     1      10.299   8.805  -5.400  1.00  0.00     0.029 A 
ATOM     60  C   UNL     1      10.436   9.483  -6.613  1.00  0.00     0.049 A 
ATOM     61  H   UNL     1      12.223   9.431  -7.732  1.00  0.00     0.167 HD
ATOM     62  C   UNL     1       9.601  10.622  -8.651  1.00  0.00     0.074 A 
ATOM     63  C   UNL     1      10.471  10.084  -9.696  1.00  0.00     0.031 C 
ATOM     64  C   UNL     1       9.578  10.428  -7.298  1.00  0.00     0.034 A 
BRANCH  51  65
ATOM     65  C   UNL     1      13.370   6.642  -8.392  1.00  0.00     0.023 A 
ATOM     66  C   UNL     1      13.544   6.093  -9.676  1.00  0.00     0.031 A 
ATOM     67  C   UNL     1      14.456   7.392  -7.894  1.00  0.00     0.131 A 
ATOM     68  C   UNL     1      14.727   6.277 -10.402  1.00  0.00     0.055 A 
ATOM     69  C   UNL     1      15.612   7.635  -8.648  1.00  0.00     0.041 A 
ATOM     70  F   UNL     1      14.403   7.967  -6.682  1.00  0.00    -0.206 F 
ATOM     71  C   UNL     1      15.752   7.077  -9.912  1.00  0.00     0.022 A 
BRANCH  68  72
ATOM     72  S   UNL     1      14.938   5.483 -12.019  1.00  0.00     0.124 S 
ATOM     73  O   UNL     1      15.101   6.634 -12.899  1.00  0.00    -0.237 OA
ATOM     74  O   UNL     1      16.137   4.679 -11.798  1.00  0.00    -0.237 OA
ATOM     75  O   UNL     1      13.706   4.719 -12.186  1.00  0.00    -0.744 OA
ENDBRANCH  68  72
ENDBRANCH  51  65
BRANCH  52  76
ATOM     76  C   UNL     1       7.191  10.480 -12.683  1.00  0.00     0.023 A 
ATOM     77  C   UNL     1       6.962   9.473 -13.639  1.00  0.00     0.031 A 
ATOM     78  C   UNL     1       7.551  11.754 -13.156  1.00  0.00     0.131 A 
ATOM     79  C   UNL     1       7.155   9.730 -15.001  1.00  0.00     0.055 A 
ATOM     80  C   UNL     1       7.725  12.014 -14.520  1.00  0.00     0.041 A 
ATOM     81  F   UNL     1       7.816  12.749 -12.296  1.00  0.00    -0.206 F 
ATOM     82  C   UNL     1       7.543  10.994 -15.449  1.00  0.00     0.022 A 
BRANCH  79  83
ATOM     83  S   UNL     1       6.993   8.391 -16.212  1.00  0.00     0.124 S 
ATOM     84  O   UNL     1       6.186   9.015 -17.258  1.00  0.00    -0.237 OA
ATOM     85  O   UNL     1       8.386   8.136 -16.561  1.00  0.00    -0.237 OA
ATOM     86  O   UNL     1       6.320   7.332 -15.464  1.00  0.00    -0.744 OA
ENDBRANCH  79  83
ENDBRANCH  52  76
BRANCH  64  87
ATOM     87  C   UNL     1       8.437  11.014  -6.491  1.00  0.00     0.023 A 
ATOM     88  C   UNL     1       8.764  11.686  -5.299  1.00  0.00     0.031 A 
ATOM     89  C   UNL     1       7.072  10.771  -6.740  1.00  0.00     0.131 A 
ATOM     90  C   UNL     1       7.762  12.068  -4.398  1.00  0.00     0.055 A 
ATOM     91  C   UNL     1       6.068  11.219  -5.873  1.00  0.00     0.041 A 
ATOM     92  F   UNL     1       6.666  10.028  -7.778  1.00  0.00    -0.206 F 
ATOM     93  C   UNL     1       6.412  11.858  -4.688  1.00  0.00     0.022 A 
BRANCH  90  94
ATOM     94  S   UNL     1       8.197  12.709  -2.761  1.00  0.00     0.124 S 
ATOM     95  O   UNL     1       7.706  14.083  -2.827  1.00  0.00    -0.237 OA
ATOM     96  O   UNL     1       7.452  11.821  -1.870  1.00  0.00    -0.237 OA
ATOM     97  O   UNL     1       9.648  12.566  -2.699  1.00  0.00    -0.744 OA
ENDBRANCH  90  94
ENDBRANCH  64  87
ENDBRANCH  38  39
ENDBRANCH  30  33
ENDBRANCH  28  29
ENDBRANCH  27  28
ENDBRANCH   1  27
TORSDOF 17
