REMARK SMILES O=C(NCCCCNC(=O)[C@H]1[C@@H](C(=O)NNC(=O)c2ccccc2Cl)[C@H]2C=C[C@@H]1C2)c1ccc(-c2c3nc(c(-c4cc(S(=O)(=O)[O-])ccc4F)c4ccc([nH]4)c(-c4cc(S(=O)(=O)[O-])ccc4F)c4nc(c(-c5cc(S(=O)(=O)[O-])ccc5F)c5ccc2[nH]5)C=C4)C=C3)cc1
REMARK SMILES IDX 5 1 4 2 3 3 1 4 2 5 31 7 32 8 93 9 33 10 92 11 34 12 35 13
REMARK SMILES IDX 36 14 86 15 37 16 91 17 85 18 87 19 38 20 90 21 84 22 83 23
REMARK SMILES IDX 39 25 71 26 51 27 70 28 52 29 55 30 69 31 88 32 53 33 54 34
REMARK SMILES IDX 68 36 89 37 56 38 40 39 41 40 49 41 42 42 48 43 50 44 47 45
REMARK SMILES IDX 43 46 44 47 45 48 46 49 72 50 73 51 81 52 74 53 80 54 82 55
REMARK SMILES IDX 79 56 75 57 76 58 77 59 78 60 57 61 58 62 66 63 59 64 65 65
REMARK SMILES IDX 67 66 64 67 60 68 61 69 62 70 63 71 6 72 7 73 8 74 9 75
REMARK SMILES IDX 10 77 11 78 12 79 29 80 26 81 28 82 30 83 27 84 13 85 14 86
REMARK SMILES IDX 15 87 16 89 17 90 18 92 19 93 20 94 24 95 21 96 23 97 25 98
REMARK SMILES IDX 22 99
REMARK H PARENT 3 6 87 24 55 35 8 76 15 88 16 91
REMARK Flexibility Score: inf
ROOT
ATOM      1  C   UNL     1      11.211  -1.104  -5.646  1.00  0.00     0.023 C 
ENDROOT
BRANCH   1   2
ATOM      2  C   UNL     1      11.505   0.044  -6.606  1.00  0.00     0.116 C 
BRANCH   2   3
ATOM      3  N   UNL     1      11.623   1.320  -5.915  1.00  0.00    -0.352 N 
ATOM      4  O   UNL     1      12.674   3.169  -5.167  1.00  0.00    -0.269 OA
ATOM      5  C   UNL     1      12.653   2.232  -5.953  1.00  0.00     0.251 C 
ATOM      6  H   UNL     1      10.860   1.565  -5.342  1.00  0.00     0.163 HD
BRANCH   5   7
ATOM      7  C   UNL     1      13.740   2.057  -6.942  1.00  0.00     0.039 A 
ATOM      8  C   UNL     1      13.442   1.751  -8.272  1.00  0.00     0.014 A 
ATOM      9  C   UNL     1      15.068   2.198  -6.531  1.00  0.00     0.014 A 
ATOM     10  C   UNL     1      14.472   1.452  -9.157  1.00  0.00     0.010 A 
ATOM     11  C   UNL     1      16.103   1.976  -7.445  1.00  0.00     0.010 A 
ATOM     12  C   UNL     1      15.813   1.571  -8.758  1.00  0.00    -0.014 A 
BRANCH  12  13
ATOM     13  C   UNL     1      16.888   1.306  -9.749  1.00  0.00     0.031 A 
ATOM     14  C   UNL     1      17.832   0.147  -9.580  1.00  0.00     0.074 A 
ATOM     15  C   UNL     1      16.978   2.104 -10.831  1.00  0.00     0.049 A 
ATOM     16  N   UNL     1      18.798  -0.251 -10.369  1.00  0.00    -0.248 NA
ATOM     17  C   UNL     1      17.680  -0.661  -8.362  1.00  0.00     0.031 C 
ATOM     18  C   UNL     1      16.119   3.262 -11.093  1.00  0.00     0.029 A 
ATOM     19  N   UNL     1      17.807   2.053 -11.921  1.00  0.00    -0.354 N 
ATOM     20  C   UNL     1      19.383  -1.344  -9.738  1.00  0.00     0.074 A 
ATOM     21  C   UNL     1      18.682  -1.521  -8.482  1.00  0.00     0.031 C 
ATOM     22  C   UNL     1      16.427   3.775 -12.293  1.00  0.00     0.029 A 
ATOM     23  C   UNL     1      17.544   3.027 -12.856  1.00  0.00     0.049 A 
ATOM     24  H   UNL     1      18.521   1.384 -12.025  1.00  0.00     0.167 HD
ATOM     25  C   UNL     1      20.403  -2.128 -10.171  1.00  0.00     0.034 A 
ATOM     26  C   UNL     1      18.142   3.296 -14.032  1.00  0.00     0.034 A 
ATOM     27  C   UNL     1      21.083  -1.939 -11.432  1.00  0.00     0.049 A 
ATOM     28  C   UNL     1      19.288   2.429 -14.475  1.00  0.00     0.074 A 
ATOM     29  C   UNL     1      22.099  -2.699 -11.988  1.00  0.00     0.029 A 
ATOM     30  N   UNL     1      20.825  -0.910 -12.331  1.00  0.00    -0.354 N 
ATOM     31  N   UNL     1      19.814   1.385 -13.876  1.00  0.00    -0.248 NA
ATOM     32  C   UNL     1      19.919   2.777 -15.753  1.00  0.00     0.031 C 
ATOM     33  C   UNL     1      22.498  -2.094 -13.186  1.00  0.00     0.029 A 
ATOM     34  C   UNL     1      21.684  -0.997 -13.418  1.00  0.00     0.049 A 
ATOM     35  H   UNL     1      20.133  -0.220 -12.213  1.00  0.00     0.167 HD
ATOM     36  C   UNL     1      20.827   0.939 -14.717  1.00  0.00     0.074 A 
ATOM     37  C   UNL     1      20.822   1.815 -15.873  1.00  0.00     0.031 C 
ATOM     38  C   UNL     1      21.683  -0.101 -14.552  1.00  0.00     0.034 A 
BRANCH  25  39
ATOM     39  C   UNL     1      20.876  -3.228  -9.247  1.00  0.00     0.023 A 
ATOM     40  C   UNL     1      20.046  -4.304  -8.883  1.00  0.00     0.031 A 
ATOM     41  C   UNL     1      22.171  -3.184  -8.699  1.00  0.00     0.131 A 
ATOM     42  C   UNL     1      20.492  -5.246  -7.942  1.00  0.00     0.055 A 
ATOM     43  C   UNL     1      22.636  -4.168  -7.824  1.00  0.00     0.041 A 
ATOM     44  F   UNL     1      23.003  -2.173  -8.993  1.00  0.00    -0.206 F 
ATOM     45  C   UNL     1      21.790  -5.199  -7.428  1.00  0.00     0.022 A 
BRANCH  42  46
ATOM     46  S   UNL     1      19.302  -6.450  -7.288  1.00  0.00     0.124 S 
ATOM     47  O   UNL     1      18.258  -5.576  -6.759  1.00  0.00    -0.237 OA
ATOM     48  O   UNL     1      18.951  -7.221  -8.475  1.00  0.00    -0.237 OA
ATOM     49  O   UNL     1      20.068  -7.175  -6.277  1.00  0.00    -0.744 OA
ENDBRANCH  42  46
ENDBRANCH  25  39
BRANCH  26  50
ATOM     50  C   UNL     1      17.679   4.442 -14.863  1.00  0.00     0.023 A 
ATOM     51  C   UNL     1      17.102   4.233 -16.124  1.00  0.00     0.031 A 
ATOM     52  C   UNL     1      17.823   5.766 -14.411  1.00  0.00     0.131 A 
ATOM     53  C   UNL     1      16.721   5.333 -16.908  1.00  0.00     0.055 A 
ATOM     54  C   UNL     1      17.398   6.854 -15.173  1.00  0.00     0.041 A 
ATOM     55  F   UNL     1      18.363   6.018 -13.208  1.00  0.00    -0.206 F 
ATOM     56  C   UNL     1      16.853   6.641 -16.435  1.00  0.00     0.022 A 
BRANCH  53  57
ATOM     57  S   UNL     1      16.108   5.031 -18.587  1.00  0.00     0.124 S 
ATOM     58  O   UNL     1      17.231   4.325 -19.193  1.00  0.00    -0.237 OA
ATOM     59  O   UNL     1      14.911   4.235 -18.334  1.00  0.00    -0.237 OA
ATOM     60  O   UNL     1      15.861   6.374 -19.106  1.00  0.00    -0.744 OA
ENDBRANCH  53  57
ENDBRANCH  26  50
BRANCH  38  61
ATOM     61  C   UNL     1      22.659  -0.356 -15.674  1.00  0.00     0.023 A 
ATOM     62  C   UNL     1      23.687   0.554 -15.978  1.00  0.00     0.031 A 
ATOM     63  C   UNL     1      22.529  -1.502 -16.477  1.00  0.00     0.131 A 
ATOM     64  C   UNL     1      24.505   0.335 -17.097  1.00  0.00     0.055 A 
ATOM     65  C   UNL     1      23.385  -1.746 -17.553  1.00  0.00     0.041 A 
ATOM     66  F   UNL     1      21.562  -2.402 -16.234  1.00  0.00    -0.206 F 
ATOM     67  C   UNL     1      24.370  -0.817 -17.877  1.00  0.00     0.022 A 
BRANCH  64  68
ATOM     68  S   UNL     1      25.680   1.629 -17.584  1.00  0.00     0.124 S 
ATOM     69  O   UNL     1      24.801   2.778 -17.780  1.00  0.00    -0.237 OA
ATOM     70  O   UNL     1      26.567   1.695 -16.427  1.00  0.00    -0.237 OA
ATOM     71  O   UNL     1      26.289   1.099 -18.802  1.00  0.00    -0.744 OA
ENDBRANCH  64  68
ENDBRANCH  38  61
ENDBRANCH  12  13
ENDBRANCH   5   7
ENDBRANCH   2   3
ENDBRANCH   1   2
BRANCH   1  72
ATOM     72  C   UNL     1       9.859  -1.006  -4.933  1.00  0.00     0.023 C 
BRANCH  72  73
ATOM     73  C   UNL     1       8.654  -1.054  -5.872  1.00  0.00     0.116 C 
BRANCH  73  74
ATOM     74  N   UNL     1       8.544  -2.365  -6.481  1.00  0.00    -0.356 N 
ATOM     75  C   UNL     1       7.554  -3.285  -6.364  1.00  0.00     0.224 C 
ATOM     76  H   UNL     1       9.295  -2.625  -7.063  1.00  0.00     0.163 HD
ATOM     77  O   UNL     1       7.759  -4.441  -6.730  1.00  0.00    -0.275 OA
BRANCH  75  78
ATOM     78  C   UNL     1       6.205  -2.856  -5.866  1.00  0.00     0.098 C 
ATOM     79  C   UNL     1       5.332  -1.928  -6.762  1.00  0.00     0.100 C 
ATOM     80  C   UNL     1       5.242  -4.042  -5.569  1.00  0.00     0.025 C 
ATOM     81  C   UNL     1       3.954  -2.657  -6.757  1.00  0.00     0.025 C 
ATOM     82  C   UNL     1       4.851  -4.761  -6.843  1.00  0.00    -0.027 C 
ATOM     83  C   UNL     1       3.936  -3.270  -5.350  1.00  0.00     0.017 C 
ATOM     84  C   UNL     1       4.071  -3.933  -7.551  1.00  0.00    -0.027 C 
BRANCH  79  85
ATOM     85  C   UNL     1       5.628  -1.378  -8.163  1.00  0.00     0.242 C 
ATOM     86  O   UNL     1       5.204  -0.239  -8.421  1.00  0.00    -0.273 OA
ATOM     87  N   UNL     1       6.163  -2.062  -9.216  1.00  0.00    -0.267 N 
ATOM     88  H   UNL     1       5.924  -1.745 -10.117  1.00  0.00     0.191 HD
BRANCH  87  89
ATOM     89  N   UNL     1       7.006  -3.157  -9.147  1.00  0.00    -0.263 N 
ATOM     90  C   UNL     1       8.236  -3.228  -9.779  1.00  0.00     0.271 C 
ATOM     91  H   UNL     1       6.713  -3.933  -8.617  1.00  0.00     0.191 HD
ATOM     92  O   UNL     1       9.127  -3.965  -9.364  1.00  0.00    -0.267 OA
BRANCH  90  93
ATOM     93  C   UNL     1       8.454  -2.571 -11.080  1.00  0.00     0.060 A 
ATOM     94  C   UNL     1       8.630  -3.450 -12.164  1.00  0.00     0.015 A 
ATOM     95  C   UNL     1       8.611  -1.198 -11.271  1.00  0.00     0.053 A 
ATOM     96  C   UNL     1       8.917  -2.959 -13.435  1.00  0.00     0.001 A 
ATOM     97  C   UNL     1       8.877  -0.708 -12.556  1.00  0.00     0.021 A 
ATOM     98  Cl  UNL     1       8.558  -0.062  -9.974  1.00  0.00    -0.083 Cl
ATOM     99  C   UNL     1       9.028  -1.586 -13.634  1.00  0.00     0.002 A 
ENDBRANCH  90  93
ENDBRANCH  87  89
ENDBRANCH  79  85
ENDBRANCH  75  78
ENDBRANCH  73  74
ENDBRANCH  72  73
ENDBRANCH   1  72
TORSDOF 17
