REMARK SMILES CC(C)[C@@H](C[NH+](C)C)C(=O)NCCCCNC(=O)c1ccc(-c2c3nc(c(-c4cc(S(=O)(=O)[O-])ccc4F)c4ccc([nH]4)c(-c4cc(S(=O)(=O)[O-])ccc4F)c4nc(c(-c5cc(S(=O)(=O)[O-])ccc5F)c5ccc2[nH]5)C=C4)C=C3)cc1
REMARK SMILES IDX 14 1 13 2 12 3 11 4 9 5 10 6 4 8 2 9 1 10 3 11 5 12 6 13
REMARK SMILES IDX 7 14 8 15 15 17 16 18 17 19 18 21 19 22 20 23 81 24 21 25
REMARK SMILES IDX 80 26 22 27 23 28 24 29 74 30 25 31 79 32 73 33 75 34 26 35
REMARK SMILES IDX 78 36 72 37 71 38 27 40 59 41 39 42 58 43 40 44 43 45 57 46
REMARK SMILES IDX 76 47 41 48 42 49 56 51 77 52 44 53 28 54 29 55 37 56 30 57
REMARK SMILES IDX 36 58 38 59 35 60 31 61 32 62 33 63 34 64 60 65 61 66 69 67
REMARK SMILES IDX 62 68 68 69 70 70 67 71 63 72 64 73 65 74 66 75 45 76 46 77
REMARK SMILES IDX 54 78 47 79 53 80 55 81 52 82 48 83 49 84 50 85 51 86
REMARK H PARENT 11 7 6 16 16 20 75 39 43 50
REMARK Flexibility Score: inf
ROOT
ATOM      1  C   UNL     1       0.833  -4.205   4.974  1.00  0.00     0.023 C 
ENDROOT
BRANCH   1   2
ATOM      2  C   UNL     1       1.156  -3.382   3.735  1.00  0.00     0.023 C 
BRANCH   2   3
ATOM      3  C   UNL     1      -0.017  -3.136   2.798  1.00  0.00     0.116 C 
BRANCH   3   4
ATOM      4  N   UNL     1      -0.923  -2.106   3.250  1.00  0.00    -0.356 N 
ATOM      5  C   UNL     1      -1.376  -1.017   2.570  1.00  0.00     0.229 C 
ATOM      6  O   UNL     1      -2.286  -0.358   3.086  1.00  0.00    -0.275 OA
ATOM      7  H   UNL     1      -1.256  -2.204   4.171  1.00  0.00     0.163 HD
BRANCH   5   8
ATOM      8  C   UNL     1      -0.771  -0.564   1.232  1.00  0.00     0.136 C 
BRANCH   8   9
ATOM      9  C   UNL     1       0.733  -0.193   1.321  1.00  0.00     0.001 C 
ATOM     10  C   UNL     1       1.242   0.459   0.031  1.00  0.00     0.008 C 
ATOM     11  C   UNL     1       1.000   0.779   2.484  1.00  0.00     0.008 C 
ENDBRANCH   8   9
BRANCH   8  12
ATOM     12  C   UNL     1      -1.284  -1.423   0.037  1.00  0.00     0.275 C 
BRANCH  12  13
ATOM     13  N   UNL     1      -0.816  -2.811  -0.141  1.00  0.00    -0.339 N 
ATOM     14  C   UNL     1      -1.786  -3.595  -0.914  1.00  0.00     0.332 C 
ATOM     15  C   UNL     1       0.494  -2.920  -0.785  1.00  0.00     0.332 C 
ATOM     16  H   UNL     1      -0.722  -3.183   0.804  1.00  0.00     0.347 HD
ENDBRANCH  12  13
ENDBRANCH   8  12
ENDBRANCH   5   8
ENDBRANCH   3   4
ENDBRANCH   2   3
ENDBRANCH   1   2
BRANCH   1  17
ATOM     17  C   UNL     1       0.109  -5.521   4.717  1.00  0.00     0.116 C 
BRANCH  17  18
ATOM     18  N   UNL     1       0.778  -6.386   3.754  1.00  0.00    -0.352 N 
ATOM     19  C   UNL     1       0.992  -7.743   3.820  1.00  0.00     0.251 C 
ATOM     20  H   UNL     1       1.123  -5.939   2.947  1.00  0.00     0.163 HD
ATOM     21  O   UNL     1       1.662  -8.305   2.958  1.00  0.00    -0.269 OA
BRANCH  19  22
ATOM     22  C   UNL     1       0.446  -8.505   4.964  1.00  0.00     0.039 A 
ATOM     23  C   UNL     1       1.285  -9.376   5.662  1.00  0.00     0.014 A 
ATOM     24  C   UNL     1      -0.873  -8.311   5.381  1.00  0.00     0.014 A 
ATOM     25  C   UNL     1       0.819  -9.995   6.824  1.00  0.00     0.010 A 
ATOM     26  C   UNL     1      -1.302  -8.854   6.587  1.00  0.00     0.010 A 
ATOM     27  C   UNL     1      -0.464  -9.708   7.319  1.00  0.00    -0.014 A 
BRANCH  27  28
ATOM     28  C   UNL     1      -0.954 -10.313   8.586  1.00  0.00     0.031 A 
ATOM     29  C   UNL     1      -2.159 -11.217   8.567  1.00  0.00     0.074 A 
ATOM     30  C   UNL     1      -0.354 -10.005   9.754  1.00  0.00     0.049 A 
ATOM     31  N   UNL     1      -2.772 -11.802   9.564  1.00  0.00    -0.248 NA
ATOM     32  C   UNL     1      -2.778 -11.466   7.256  1.00  0.00     0.031 C 
ATOM     33  C   UNL     1       0.779  -9.089   9.908  1.00  0.00     0.029 A 
ATOM     34  N   UNL     1      -0.616 -10.422  11.035  1.00  0.00    -0.354 N 
ATOM     35  C   UNL     1      -3.858 -12.467   9.004  1.00  0.00     0.074 A 
ATOM     36  C   UNL     1      -3.856 -12.156   7.591  1.00  0.00     0.031 C 
ATOM     37  C   UNL     1       1.133  -9.039  11.203  1.00  0.00     0.029 A 
ATOM     38  C   UNL     1       0.233  -9.886  11.978  1.00  0.00     0.049 A 
ATOM     39  H   UNL     1      -1.343 -11.046  11.259  1.00  0.00     0.167 HD
ATOM     40  C   UNL     1      -4.756 -13.285   9.606  1.00  0.00     0.034 A 
ATOM     41  C   UNL     1       0.278 -10.059  13.314  1.00  0.00     0.034 A 
ATOM     42  C   UNL     1      -4.726 -13.607  11.011  1.00  0.00     0.049 A 
ATOM     43  C   UNL     1      -0.713 -10.999  13.956  1.00  0.00     0.074 A 
ATOM     44  C   UNL     1      -5.548 -14.469  11.717  1.00  0.00     0.029 A 
ATOM     45  N   UNL     1      -3.825 -13.080  11.928  1.00  0.00    -0.354 N 
ATOM     46  N   UNL     1      -1.693 -11.674  13.400  1.00  0.00    -0.248 NA
ATOM     47  C   UNL     1      -0.572 -11.221  15.400  1.00  0.00     0.031 C 
ATOM     48  C   UNL     1      -5.184 -14.416  13.067  1.00  0.00     0.029 A 
ATOM     49  C   UNL     1      -4.084 -13.583  13.194  1.00  0.00     0.049 A 
ATOM     50  H   UNL     1      -3.108 -12.441  11.711  1.00  0.00     0.167 HD
ATOM     51  C   UNL     1      -2.261 -12.429  14.424  1.00  0.00     0.074 A 
ATOM     52  C   UNL     1      -1.499 -12.141  15.621  1.00  0.00     0.031 C 
ATOM     53  C   UNL     1      -3.316 -13.284  14.380  1.00  0.00     0.034 A 
BRANCH  40  54
ATOM     54  C   UNL     1      -5.852 -13.869   8.745  1.00  0.00     0.023 A 
ATOM     55  C   UNL     1      -5.571 -14.730   7.669  1.00  0.00     0.031 A 
ATOM     56  C   UNL     1      -7.198 -13.540   8.987  1.00  0.00     0.131 A 
ATOM     57  C   UNL     1      -6.607 -15.170   6.832  1.00  0.00     0.055 A 
ATOM     58  C   UNL     1      -8.234 -14.050   8.201  1.00  0.00     0.041 A 
ATOM     59  F   UNL     1      -7.529 -12.707   9.986  1.00  0.00    -0.206 F 
ATOM     60  C   UNL     1      -7.940 -14.858   7.106  1.00  0.00     0.022 A 
BRANCH  57  61
ATOM     61  S   UNL     1      -6.175 -16.040   5.300  1.00  0.00     0.124 S 
ATOM     62  O   UNL     1      -5.371 -15.035   4.608  1.00  0.00    -0.237 OA
ATOM     63  O   UNL     1      -5.452 -17.207   5.793  1.00  0.00    -0.237 OA
ATOM     64  O   UNL     1      -7.471 -16.321   4.687  1.00  0.00    -0.744 OA
ENDBRANCH  57  61
ENDBRANCH  40  54
BRANCH  41  65
ATOM     65  C   UNL     1       1.290  -9.341  14.143  1.00  0.00     0.023 A 
ATOM     66  C   UNL     1       2.277 -10.043  14.853  1.00  0.00     0.031 A 
ATOM     67  C   UNL     1       1.250  -7.942  14.283  1.00  0.00     0.131 A 
ATOM     68  C   UNL     1       3.143  -9.355  15.718  1.00  0.00     0.055 A 
ATOM     69  C   UNL     1       2.150  -7.255  15.100  1.00  0.00     0.041 A 
ATOM     70  F   UNL     1       0.333  -7.219  13.620  1.00  0.00    -0.206 F 
ATOM     71  C   UNL     1       3.094  -7.964  15.837  1.00  0.00     0.022 A 
BRANCH  68  72
ATOM     72  S   UNL     1       4.271 -10.316  16.765  1.00  0.00     0.124 S 
ATOM     73  O   UNL     1       3.345 -11.187  17.479  1.00  0.00    -0.237 OA
ATOM     74  O   UNL     1       5.125 -10.962  15.774  1.00  0.00    -0.237 OA
ATOM     75  O   UNL     1       4.928  -9.297  17.581  1.00  0.00    -0.744 OA
ENDBRANCH  68  72
ENDBRANCH  41  65
BRANCH  53  76
ATOM     76  C   UNL     1      -3.660 -14.010  15.659  1.00  0.00     0.023 A 
ATOM     77  C   UNL     1      -4.113 -13.328  16.801  1.00  0.00     0.031 A 
ATOM     78  C   UNL     1      -3.497 -15.405  15.743  1.00  0.00     0.131 A 
ATOM     79  C   UNL     1      -4.313 -14.029  18.000  1.00  0.00     0.055 A 
ATOM     80  C   UNL     1      -3.765 -16.106  16.919  1.00  0.00     0.041 A 
ATOM     81  F   UNL     1      -3.066 -16.108  14.684  1.00  0.00    -0.206 F 
ATOM     82  C   UNL     1      -4.158 -15.416  18.062  1.00  0.00     0.022 A 
BRANCH  79  83
ATOM     83  S   UNL     1      -4.655 -13.086  19.511  1.00  0.00     0.124 S 
ATOM     84  O   UNL     1      -3.527 -12.160  19.554  1.00  0.00    -0.237 OA
ATOM     85  O   UNL     1      -5.956 -12.492  19.220  1.00  0.00    -0.237 OA
ATOM     86  O   UNL     1      -4.659 -14.106  20.558  1.00  0.00    -0.744 OA
ENDBRANCH  79  83
ENDBRANCH  53  76
ENDBRANCH  27  28
ENDBRANCH  19  22
ENDBRANCH  17  18
ENDBRANCH   1  17
TORSDOF 17
