REMARK SMILES COc1ccc(NC(=O)NCc2ccc(C(=O)NCCCCNC(=O)c3ccc(-c4c5nc(c(-c6cc(S(=O)(=O)[O-])ccc6F)c6ccc([nH]6)c(-c6cc(S(=O)(=O)[O-])ccc6F)c6nc(c(-c7cc(S(=O)(=O)[O-])ccc7F)c7ccc4[nH]7)C=C6)C=C5)cc3)cc2)c(OC)c1
REMARK SMILES IDX 20 1 19 2 18 3 16 4 17 5 15 7 12 8 13 9 90 10 14 11 89 12
REMARK SMILES IDX 11 13 10 14 7 15 8 16 9 18 6 20 3 21 4 22 94 23 5 24 91 25
REMARK SMILES IDX 2 26 1 27 92 28 93 29 21 30 22 31 23 32 24 33 25 35 26 36
REMARK SMILES IDX 27 37 88 38 28 39 87 40 29 41 30 42 31 43 81 44 32 45 86 46
REMARK SMILES IDX 80 47 82 48 33 49 85 50 79 51 78 52 34 54 66 55 46 56 65 57
REMARK SMILES IDX 47 58 50 59 64 60 83 61 48 62 49 63 63 65 84 66 51 67 35 68
REMARK SMILES IDX 36 69 44 70 37 71 43 72 45 73 42 74 38 75 39 76 40 77 41 78
REMARK SMILES IDX 67 79 68 80 76 81 69 82 75 83 77 84 74 85 70 86 71 87 72 88
REMARK SMILES IDX 73 89 52 90 53 91 61 92 54 93 60 94 62 95 59 96 55 97 56 98
REMARK SMILES IDX 57 99 58 100
REMARK H PARENT 18 6 7 17 10 19 23 34 82 53 50 64
REMARK Flexibility Score: inf
ROOT
ATOM      1  C   UNL     1      -6.011  -8.544   0.337  1.00  0.00     0.023 C 
ENDROOT
BRANCH   1   2
ATOM      2  C   UNL     1      -5.242  -7.619  -0.609  1.00  0.00     0.116 C 
BRANCH   2   3
ATOM      3  N   UNL     1      -5.837  -6.301  -0.595  1.00  0.00    -0.352 N 
ATOM      4  C   UNL     1      -5.601  -5.221   0.213  1.00  0.00     0.251 C 
ATOM      5  O   UNL     1      -6.289  -4.213   0.044  1.00  0.00    -0.269 OA
ATOM      6  H   UNL     1      -6.527  -6.156  -1.282  1.00  0.00     0.163 HD
BRANCH   4   7
ATOM      7  C   UNL     1      -4.494  -5.183   1.210  1.00  0.00     0.039 A 
ATOM      8  C   UNL     1      -2.210  -4.927   2.841  1.00  0.00    -0.029 A 
ATOM      9  C   UNL     1      -2.803  -3.802   2.235  1.00  0.00     0.006 A 
ATOM     10  C   UNL     1      -2.827  -6.163   2.708  1.00  0.00     0.006 A 
ATOM     11  C   UNL     1      -3.922  -3.928   1.424  1.00  0.00     0.014 A 
ATOM     12  C   UNL     1      -3.976  -6.279   1.915  1.00  0.00     0.014 A 
BRANCH   8  13
ATOM     13  C   UNL     1      -0.893  -4.673   3.509  1.00  0.00     0.153 C 
BRANCH  13  14
ATOM     14  N   UNL     1      -0.126  -5.768   4.043  1.00  0.00    -0.334 N 
ATOM     15  N   UNL     1       2.106  -5.114   3.496  1.00  0.00    -0.305 N 
ATOM     16  C   UNL     1       1.211  -5.978   4.035  1.00  0.00     0.319 C 
ATOM     17  H   UNL     1       2.983  -5.526   3.323  1.00  0.00     0.172 HD
ATOM     18  O   UNL     1       1.619  -7.067   4.452  1.00  0.00    -0.248 OA
ATOM     19  H   UNL     1      -0.655  -6.472   4.482  1.00  0.00     0.165 HD
BRANCH  15  20
ATOM     20  C   UNL     1       2.053  -3.756   3.130  1.00  0.00     0.085 A 
ATOM     21  C   UNL     1       1.537  -1.261   1.971  1.00  0.00     0.122 A 
ATOM     22  C   UNL     1       1.025  -1.572   3.231  1.00  0.00     0.049 A 
ATOM     23  C   UNL     1       2.454  -2.127   1.377  1.00  0.00     0.095 A 
ATOM     24  C   UNL     1       1.305  -2.807   3.824  1.00  0.00     0.034 A 
ATOM     25  C   UNL     1       2.753  -3.351   1.987  1.00  0.00     0.146 A 
BRANCH  21  26
ATOM     26  O   UNL     1       1.091  -0.087   1.431  1.00  0.00    -0.497 OA
ATOM     27  C   UNL     1       1.229   0.042   0.018  1.00  0.00     0.278 C 
ENDBRANCH  21  26
BRANCH  25  28
ATOM     28  O   UNL     1       3.658  -4.229   1.441  1.00  0.00    -0.494 OA
ATOM     29  C   UNL     1       4.900  -3.593   1.132  1.00  0.00     0.278 C 
ENDBRANCH  25  28
ENDBRANCH  15  20
ENDBRANCH  13  14
ENDBRANCH   8  13
ENDBRANCH   4   7
ENDBRANCH   2   3
ENDBRANCH   1   2
BRANCH   1  30
ATOM     30  C   UNL     1      -7.319  -9.078  -0.240  1.00  0.00     0.023 C 
BRANCH  30  31
ATOM     31  C   UNL     1      -7.148  -9.963  -1.463  1.00  0.00     0.116 C 
BRANCH  31  32
ATOM     32  N   UNL     1      -6.264 -11.097  -1.230  1.00  0.00    -0.352 N 
ATOM     33  C   UNL     1      -6.306 -12.329  -1.835  1.00  0.00     0.251 C 
ATOM     34  H   UNL     1      -5.555 -10.965  -0.560  1.00  0.00     0.163 HD
ATOM     35  O   UNL     1      -5.563 -13.232  -1.464  1.00  0.00    -0.269 OA
BRANCH  33  36
ATOM     36  C   UNL     1      -7.301 -12.548  -2.900  1.00  0.00     0.039 A 
ATOM     37  C   UNL     1      -8.200 -13.608  -2.774  1.00  0.00     0.014 A 
ATOM     38  C   UNL     1      -7.401 -11.645  -3.962  1.00  0.00     0.014 A 
ATOM     39  C   UNL     1      -9.249 -13.723  -3.685  1.00  0.00     0.010 A 
ATOM     40  C   UNL     1      -8.490 -11.717  -4.821  1.00  0.00     0.010 A 
ATOM     41  C   UNL     1      -9.423 -12.757  -4.690  1.00  0.00    -0.014 A 
BRANCH  41  42
ATOM     42  C   UNL     1     -10.569 -12.824  -5.630  1.00  0.00     0.031 A 
ATOM     43  C   UNL     1     -10.314 -13.041  -7.095  1.00  0.00     0.074 A 
ATOM     44  C   UNL     1     -11.820 -12.622  -5.173  1.00  0.00     0.049 A 
ATOM     45  N   UNL     1     -11.161 -13.048  -8.091  1.00  0.00    -0.248 NA
ATOM     46  C   UNL     1      -8.912 -13.241  -7.495  1.00  0.00     0.031 C 
ATOM     47  C   UNL     1     -12.179 -12.353  -3.778  1.00  0.00     0.029 A 
ATOM     48  N   UNL     1     -13.022 -12.599  -5.834  1.00  0.00    -0.354 N 
ATOM     49  C   UNL     1     -10.395 -13.237  -9.236  1.00  0.00     0.074 A 
ATOM     50  C   UNL     1      -9.011 -13.272  -8.815  1.00  0.00     0.031 C 
ATOM     51  C   UNL     1     -13.512 -12.217  -3.686  1.00  0.00     0.029 A 
ATOM     52  C   UNL     1     -14.099 -12.347  -5.016  1.00  0.00     0.049 A 
ATOM     53  H   UNL     1     -13.106 -12.750  -6.803  1.00  0.00     0.167 HD
ATOM     54  C   UNL     1     -10.811 -13.393 -10.517  1.00  0.00     0.034 A 
ATOM     55  C   UNL     1     -15.408 -12.226  -5.309  1.00  0.00     0.034 A 
ATOM     56  C   UNL     1     -12.197 -13.373 -10.912  1.00  0.00     0.049 A 
ATOM     57  C   UNL     1     -15.848 -12.399  -6.742  1.00  0.00     0.074 A 
ATOM     58  C   UNL     1     -12.740 -13.574 -12.169  1.00  0.00     0.029 A 
ATOM     59  N   UNL     1     -13.264 -13.133 -10.054  1.00  0.00    -0.354 N 
ATOM     60  N   UNL     1     -15.116 -12.630  -7.808  1.00  0.00    -0.248 NA
ATOM     61  C   UNL     1     -17.288 -12.309  -7.007  1.00  0.00     0.031 C 
ATOM     62  C   UNL     1     -14.125 -13.399 -12.082  1.00  0.00     0.029 A 
ATOM     63  C   UNL     1     -14.457 -13.157 -10.758  1.00  0.00     0.049 A 
ATOM     64  H   UNL     1     -13.183 -12.969  -9.086  1.00  0.00     0.167 HD
ATOM     65  C   UNL     1     -16.013 -12.742  -8.866  1.00  0.00     0.074 A 
ATOM     66  C   UNL     1     -17.338 -12.568  -8.305  1.00  0.00     0.031 C 
ATOM     67  C   UNL     1     -15.768 -12.973 -10.181  1.00  0.00     0.034 A 
BRANCH  54  68
ATOM     68  C   UNL     1      -9.747 -13.576 -11.571  1.00  0.00     0.023 A 
ATOM     69  C   UNL     1      -8.881 -14.685 -11.559  1.00  0.00     0.031 A 
ATOM     70  C   UNL     1      -9.568 -12.613 -12.579  1.00  0.00     0.131 A 
ATOM     71  C   UNL     1      -7.828 -14.761 -12.482  1.00  0.00     0.055 A 
ATOM     72  C   UNL     1      -8.569 -12.738 -13.547  1.00  0.00     0.041 A 
ATOM     73  F   UNL     1     -10.349 -11.523 -12.630  1.00  0.00    -0.206 F 
ATOM     74  C   UNL     1      -7.681 -13.809 -13.493  1.00  0.00     0.022 A 
BRANCH  71  75
ATOM     75  S   UNL     1      -6.567 -16.044 -12.251  1.00  0.00     0.124 S 
ATOM     76  O   UNL     1      -6.051 -15.713 -10.924  1.00  0.00    -0.237 OA
ATOM     77  O   UNL     1      -7.346 -17.273 -12.345  1.00  0.00    -0.237 OA
ATOM     78  O   UNL     1      -5.633 -15.810 -13.350  1.00  0.00    -0.744 OA
ENDBRANCH  71  75
ENDBRANCH  54  68
BRANCH  55  79
ATOM     79  C   UNL     1     -16.401 -11.925  -4.239  1.00  0.00     0.023 A 
ATOM     80  C   UNL     1     -17.390 -12.858  -3.889  1.00  0.00     0.031 A 
ATOM     81  C   UNL     1     -16.401 -10.684  -3.579  1.00  0.00     0.131 A 
ATOM     82  C   UNL     1     -18.368 -12.518  -2.942  1.00  0.00     0.055 A 
ATOM     83  C   UNL     1     -17.347 -10.369  -2.601  1.00  0.00     0.041 A 
ATOM     84  F   UNL     1     -15.472  -9.760  -3.870  1.00  0.00    -0.206 F 
ATOM     85  C   UNL     1     -18.347 -11.284  -2.288  1.00  0.00     0.022 A 
BRANCH  82  86
ATOM     86  S   UNL     1     -19.723 -13.685  -2.637  1.00  0.00     0.124 S 
ATOM     87  O   UNL     1     -20.292 -13.835  -3.972  1.00  0.00    -0.237 OA
ATOM     88  O   UNL     1     -19.011 -14.843  -2.108  1.00  0.00    -0.237 OA
ATOM     89  O   UNL     1     -20.568 -12.982  -1.674  1.00  0.00    -0.744 OA
ENDBRANCH  82  86
ENDBRANCH  55  79
BRANCH  67  90
ATOM     90  C   UNL     1     -16.967 -13.096 -11.087  1.00  0.00     0.023 A 
ATOM     91  C   UNL     1     -17.792 -11.995 -11.374  1.00  0.00     0.031 A 
ATOM     92  C   UNL     1     -17.291 -14.337 -11.662  1.00  0.00     0.131 A 
ATOM     93  C   UNL     1     -18.933 -12.169 -12.171  1.00  0.00     0.055 A 
ATOM     94  C   UNL     1     -18.395 -14.491 -12.501  1.00  0.00     0.041 A 
ATOM     95  F   UNL     1     -16.535 -15.420 -11.420  1.00  0.00    -0.206 F 
ATOM     96  C   UNL     1     -19.231 -13.406 -12.749  1.00  0.00     0.022 A 
BRANCH  93  97
ATOM     97  S   UNL     1     -20.073 -10.773 -12.375  1.00  0.00     0.124 S 
ATOM     98  O   UNL     1     -20.455 -10.489 -10.996  1.00  0.00    -0.237 OA
ATOM     99  O   UNL     1     -19.229  -9.773 -13.022  1.00  0.00    -0.237 OA
ATOM    100  O   UNL     1     -21.138 -11.319 -13.214  1.00  0.00    -0.744 OA
ENDBRANCH  93  97
ENDBRANCH  67  90
ENDBRANCH  41  42
ENDBRANCH  33  36
ENDBRANCH  31  32
ENDBRANCH  30  31
ENDBRANCH   1  30
TORSDOF 19
