REMARK SMILES Cc1ccc(C#N)cc1Nc1cc(C)c(N)c(C(=O)NCCCCNC(=O)c2ccc(-c3c4nc(c(-c5cc(S(=O)(=O)[O-])ccc5F)c5ccc([nH]5)c(-c5cc(S(=O)(=O)[O-])ccc5F)c5nc(c(-c6cc(S(=O)(=O)[O-])ccc6F)c6ccc3[nH]6)C=C5)C=C4)cc2)c1
REMARK SMILES IDX 22 1 21 2 20 3 18 4 19 5 17 7 11 8 12 9 91 10 13 11 14 12
REMARK SMILES IDX 15 13 10 14 9 16 1 17 2 18 3 19 4 20 8 21 5 22 6 23 7 24
REMARK SMILES IDX 16 25 23 28 24 29 25 30 26 31 27 33 28 34 29 35 90 36 30 37
REMARK SMILES IDX 89 38 31 39 32 40 33 41 83 42 34 43 88 44 82 45 84 46 35 47
REMARK SMILES IDX 87 48 81 49 80 50 36 52 68 53 48 54 67 55 49 56 52 57 66 58
REMARK SMILES IDX 85 59 50 60 51 61 65 63 86 64 53 65 37 66 38 67 46 68 39 69
REMARK SMILES IDX 45 70 47 71 44 72 40 73 41 74 42 75 43 76 69 77 70 78 78 79
REMARK SMILES IDX 71 80 77 81 79 82 76 83 72 84 73 85 74 86 75 87 54 88 55 89
REMARK SMILES IDX 63 90 56 91 62 92 64 93 61 94 57 95 58 96 59 97 60 98
REMARK H PARENT 20 6 10 15 16 26 16 27 25 32 84 51 52 62
REMARK Flexibility Score: inf
ROOT
ATOM      1  C   UNL     1       3.735   3.600   4.512  1.00  0.00     0.023 C 
ENDROOT
BRANCH   1   2
ATOM      2  C   UNL     1       2.406   3.352   5.231  1.00  0.00     0.116 C 
BRANCH   2   3
ATOM      3  N   UNL     1       1.812   4.615   5.628  1.00  0.00    -0.352 N 
ATOM      4  C   UNL     1       0.904   5.475   5.058  1.00  0.00     0.253 C 
ATOM      5  O   UNL     1       0.675   6.504   5.700  1.00  0.00    -0.269 OA
ATOM      6  H   UNL     1       2.131   4.926   6.506  1.00  0.00     0.163 HD
BRANCH   4   7
ATOM      7  C   UNL     1       0.146   5.199   3.785  1.00  0.00     0.065 A 
ATOM      8  C   UNL     1      -0.297   3.721   1.902  1.00  0.00     0.040 A 
ATOM      9  C   UNL     1      -1.439   4.446   1.591  1.00  0.00     0.031 A 
ATOM     10  C   UNL     1       0.544   4.192   2.906  1.00  0.00     0.042 A 
ATOM     11  C   UNL     1      -1.808   5.569   2.355  1.00  0.00    -0.025 A 
ATOM     12  C   UNL     1      -3.021   6.335   1.898  1.00  0.00     0.047 C 
ATOM     13  C   UNL     1      -1.055   5.912   3.504  1.00  0.00     0.047 A 
BRANCH   8  14
ATOM     14  N   UNL     1      -0.010   2.492   1.286  1.00  0.00    -0.355 N 
ATOM     15  H   UNL     1       0.292   2.523   0.350  1.00  0.00     0.167 HD
BRANCH  14  16
ATOM     16  C   UNL     1      -0.113   1.213   1.884  1.00  0.00     0.043 A 
ATOM     17  C   UNL     1       0.997   0.064  -0.121  1.00  0.00     0.046 C 
ATOM     18  C   UNL     1       0.352   0.049   1.238  1.00  0.00    -0.027 A 
ATOM     19  C   UNL     1       0.270  -1.196   1.899  1.00  0.00     0.007 A 
ATOM     20  C   UNL     1      -0.292  -1.307   3.170  1.00  0.00     0.020 A 
ATOM     21  C   UNL     1      -0.666   1.074   3.176  1.00  0.00     0.045 A 
ATOM     22  C   UNL     1      -0.770  -0.169   3.810  1.00  0.00     0.054 A 
BRANCH  22  23
ATOM     23  C   UNL     1      -1.385  -0.270   5.103  1.00  0.00     0.099 C 
ATOM     24  N   UNL     1      -1.899  -0.357   6.136  1.00  0.00    -0.192 NA
ENDBRANCH  22  23
ENDBRANCH  14  16
ENDBRANCH   8  14
BRANCH  13  25
ATOM     25  N   UNL     1      -1.430   7.013   4.277  1.00  0.00    -0.398 N 
ATOM     26  H   UNL     1      -2.263   7.497   4.072  1.00  0.00     0.156 HD
ATOM     27  H   UNL     1      -0.863   7.305   5.026  1.00  0.00     0.156 HD
ENDBRANCH  13  25
ENDBRANCH   4   7
ENDBRANCH   2   3
ENDBRANCH   1   2
BRANCH   1  28
ATOM     28  C   UNL     1       4.890   3.893   5.471  1.00  0.00     0.023 C 
BRANCH  28  29
ATOM     29  C   UNL     1       5.187   2.770   6.455  1.00  0.00     0.116 C 
BRANCH  29  30
ATOM     30  N   UNL     1       5.508   1.500   5.814  1.00  0.00    -0.352 N 
ATOM     31  C   UNL     1       6.415   0.549   6.232  1.00  0.00     0.251 C 
ATOM     32  H   UNL     1       5.019   1.298   4.984  1.00  0.00     0.163 HD
ATOM     33  O   UNL     1       6.675  -0.419   5.528  1.00  0.00    -0.269 OA
BRANCH  31  34
ATOM     34  C   UNL     1       7.101   0.766   7.522  1.00  0.00     0.039 A 
ATOM     35  C   UNL     1       6.356   1.143   8.638  1.00  0.00     0.014 A 
ATOM     36  C   UNL     1       8.496   0.743   7.574  1.00  0.00     0.014 A 
ATOM     37  C   UNL     1       7.003   1.722   9.719  1.00  0.00     0.010 A 
ATOM     38  C   UNL     1       9.145   1.210   8.721  1.00  0.00     0.010 A 
ATOM     39  C   UNL     1       8.406   1.775   9.774  1.00  0.00    -0.014 A 
BRANCH  39  40
ATOM     40  C   UNL     1       9.061   2.447  10.930  1.00  0.00     0.031 A 
ATOM     41  C   UNL     1       9.962   3.640  10.731  1.00  0.00     0.074 A 
ATOM     42  C   UNL     1       8.784   2.018  12.179  1.00  0.00     0.049 A 
ATOM     43  N   UNL     1      10.579   4.358  11.635  1.00  0.00    -0.248 NA
ATOM     44  C   UNL     1      10.213   4.086   9.350  1.00  0.00     0.031 C 
ATOM     45  C   UNL     1       7.930   0.873  12.496  1.00  0.00     0.029 A 
ATOM     46  N   UNL     1       9.168   2.495  13.408  1.00  0.00    -0.354 N 
ATOM     47  C   UNL     1      11.306   5.317  10.937  1.00  0.00     0.074 A 
ATOM     48  C   UNL     1      11.082   5.073   9.531  1.00  0.00     0.031 C 
ATOM     49  C   UNL     1       7.812   0.767  13.825  1.00  0.00     0.029 A 
ATOM     50  C   UNL     1       8.655   1.774  14.462  1.00  0.00     0.049 A 
ATOM     51  H   UNL     1       9.753   3.278  13.525  1.00  0.00     0.167 HD
ATOM     52  C   UNL     1      12.076   6.315  11.429  1.00  0.00     0.034 A 
ATOM     53  C   UNL     1       8.856   1.880  15.792  1.00  0.00     0.034 A 
ATOM     54  C   UNL     1      12.258   6.572  12.837  1.00  0.00     0.049 A 
ATOM     55  C   UNL     1       9.722   2.998  16.308  1.00  0.00     0.074 A 
ATOM     56  C   UNL     1      12.978   7.597  13.425  1.00  0.00     0.029 A 
ATOM     57  N   UNL     1      11.725   5.817  13.870  1.00  0.00    -0.354 N 
ATOM     58  N   UNL     1      10.351   3.930  15.631  1.00  0.00    -0.248 NA
ATOM     59  C   UNL     1       9.894   3.099  17.762  1.00  0.00     0.031 C 
ATOM     60  C   UNL     1      12.964   7.406  14.804  1.00  0.00     0.029 A 
ATOM     61  C   UNL     1      12.131   6.337  15.089  1.00  0.00     0.049 A 
ATOM     62  H   UNL     1      11.144   5.030  13.756  1.00  0.00     0.167 HD
ATOM     63  C   UNL     1      10.960   4.746  16.579  1.00  0.00     0.074 A 
ATOM     64  C   UNL     1      10.601   4.215  17.876  1.00  0.00     0.031 C 
ATOM     65  C   UNL     1      11.748   5.833  16.387  1.00  0.00     0.034 A 
BRANCH  52  66
ATOM     66  C   UNL     1      12.792   7.245  10.477  1.00  0.00     0.023 A 
ATOM     67  C   UNL     1      14.197   7.335  10.531  1.00  0.00     0.031 A 
ATOM     68  C   UNL     1      12.096   8.181   9.695  1.00  0.00     0.131 A 
ATOM     69  C   UNL     1      14.853   8.390   9.888  1.00  0.00     0.055 A 
ATOM     70  C   UNL     1      12.761   9.197   9.006  1.00  0.00     0.041 A 
ATOM     71  F   UNL     1      10.756   8.139   9.609  1.00  0.00    -0.206 F 
ATOM     72  C   UNL     1      14.144   9.319   9.120  1.00  0.00     0.022 A 
BRANCH  69  73
ATOM     73  S   UNL     1      16.631   8.665  10.124  1.00  0.00     0.124 S 
ATOM     74  O   UNL     1      17.121   8.662   8.747  1.00  0.00    -0.237 OA
ATOM     75  O   UNL     1      16.651   9.963  10.791  1.00  0.00    -0.237 OA
ATOM     76  O   UNL     1      17.057   7.529  10.935  1.00  0.00    -0.744 OA
ENDBRANCH  69  73
ENDBRANCH  52  66
BRANCH  53  77
ATOM     77  C   UNL     1       8.208   0.893  16.706  1.00  0.00     0.023 A 
ATOM     78  C   UNL     1       8.464  -0.483  16.560  1.00  0.00     0.031 A 
ATOM     79  C   UNL     1       7.261   1.286  17.666  1.00  0.00     0.131 A 
ATOM     80  C   UNL     1       7.727  -1.416  17.299  1.00  0.00     0.055 A 
ATOM     81  C   UNL     1       6.597   0.357  18.469  1.00  0.00     0.041 A 
ATOM     82  F   UNL     1       6.965   2.584  17.834  1.00  0.00    -0.206 F 
ATOM     83  C   UNL     1       6.814  -1.004  18.272  1.00  0.00     0.022 A 
BRANCH  80  84
ATOM     84  S   UNL     1       7.819  -3.184  16.907  1.00  0.00     0.124 S 
ATOM     85  O   UNL     1       8.312  -3.749  18.159  1.00  0.00    -0.237 OA
ATOM     86  O   UNL     1       6.428  -3.489  16.579  1.00  0.00    -0.237 OA
ATOM     87  O   UNL     1       8.745  -3.240  15.780  1.00  0.00    -0.744 OA
ENDBRANCH  80  84
ENDBRANCH  53  77
BRANCH  65  88
ATOM     88  C   UNL     1      12.260   6.591  17.591  1.00  0.00     0.023 A 
ATOM     89  C   UNL     1      11.950   7.959  17.730  1.00  0.00     0.031 A 
ATOM     90  C   UNL     1      13.165   6.024  18.503  1.00  0.00     0.131 A 
ATOM     91  C   UNL     1      12.578   8.723  18.720  1.00  0.00     0.055 A 
ATOM     92  C   UNL     1      13.734   6.774  19.534  1.00  0.00     0.041 A 
ATOM     93  F   UNL     1      13.513   4.730  18.407  1.00  0.00    -0.206 F 
ATOM     94  C   UNL     1      13.456   8.134  19.634  1.00  0.00     0.022 A 
BRANCH  91  95
ATOM     95  S   UNL     1      12.368  10.524  18.784  1.00  0.00     0.124 S 
ATOM     96  O   UNL     1      11.757  10.710  20.097  1.00  0.00    -0.237 OA
ATOM     97  O   UNL     1      13.745  10.997  18.665  1.00  0.00    -0.237 OA
ATOM     98  O   UNL     1      11.503  10.820  17.647  1.00  0.00    -0.744 OA
ENDBRANCH  91  95
ENDBRANCH  65  88
ENDBRANCH  39  40
ENDBRANCH  31  34
ENDBRANCH  29  30
ENDBRANCH  28  29
ENDBRANCH   1  28
TORSDOF 18
