REMARK SMILES Cc1noc2c1-c1c(c(C(=O)NCCCCNC(=O)c3ccc(-c4c5nc(c(-c6cc(S(=O)(=O)[O-])ccc6F)c6ccc([nH]6)c(-c6cc(S(=O)(=O)[O-])ccc6F)c6nc(c(-c7cc(S(=O)(=O)[O-])ccc7F)c7ccc4[nH]7)C=C6)C=C5)cc3)nn1C)CC2
REMARK SMILES IDX 16 1 15 2 14 3 13 4 12 5 10 6 11 7 9 9 1 10 2 11 3 12 6 13
REMARK SMILES IDX 4 14 5 15 7 16 87 17 8 18 84 19 86 20 83 21 85 22 17 23
REMARK SMILES IDX 18 24 19 26 20 27 21 28 82 29 22 30 81 31 23 32 24 33 25 34
REMARK SMILES IDX 75 35 26 36 80 37 74 38 76 39 27 40 79 41 73 42 72 43 28 45
REMARK SMILES IDX 60 46 40 47 59 48 41 49 44 50 58 51 77 52 42 53 43 54 57 56
REMARK SMILES IDX 78 57 45 58 29 59 30 60 38 61 31 62 37 63 39 64 36 65 32 66
REMARK SMILES IDX 33 67 34 68 35 69 61 70 62 71 70 72 63 73 69 74 71 75 68 76
REMARK SMILES IDX 64 77 65 78 66 79 67 80 46 81 47 82 55 83 48 84 54 85 56 86
REMARK SMILES IDX 53 87 49 88 50 89 51 90 52 91
REMARK H PARENT 12 8 17 25 76 44 44 55
REMARK Flexibility Score: inf
ROOT
ATOM      1  C   UNL     1      -0.978   8.691  -4.799  1.00  0.00     0.116 C 
ENDROOT
BRANCH   1   2
ATOM      2  C   UNL     1      -1.419   8.703  -3.345  1.00  0.00     0.023 C 
BRANCH   2   3
ATOM      3  C   UNL     1      -1.356   7.356  -2.629  1.00  0.00     0.023 C 
BRANCH   3   4
ATOM      4  C   UNL     1      -0.047   6.572  -2.630  1.00  0.00     0.116 C 
BRANCH   4   5
ATOM      5  N   UNL     1       1.053   7.037  -1.836  1.00  0.00    -0.351 N 
ATOM      6  C   UNL     1       1.971   6.273  -1.125  1.00  0.00     0.272 C 
ATOM      7  O   UNL     1       2.836   6.912  -0.516  1.00  0.00    -0.267 OA
ATOM      8  H   UNL     1       1.172   8.013  -1.788  1.00  0.00     0.163 HD
BRANCH   6   9
ATOM      9  C   UNL     1       1.875   4.781  -1.017  1.00  0.00     0.154 A 
ATOM     10  C   UNL     1       0.793  -0.630   0.068  1.00  0.00     0.071 C 
ATOM     11  C   UNL     1       0.645   0.003  -1.258  1.00  0.00     0.090 A 
ATOM     12  N   UNL     1       0.095  -0.715  -2.256  1.00  0.00    -0.084 NA
ATOM     13  C   UNL     1       0.961   1.302  -1.696  1.00  0.00     0.066 A 
ATOM     14  O   UNL     1       0.093   0.110  -3.373  1.00  0.00    -0.360 OA
ATOM     15  C   UNL     1       0.622   1.300  -3.024  1.00  0.00     0.146 A 
ATOM     16  C   UNL     1       1.494   2.568  -1.153  1.00  0.00     0.077 A 
ATOM     17  C   UNL     1       0.818   2.368  -4.026  1.00  0.00     0.084 C 
ATOM     18  C   UNL     1       1.426   3.734  -1.911  1.00  0.00     0.012 A 
ATOM     19  N   UNL     1       2.080   2.902   0.021  1.00  0.00    -0.267 N 
ATOM     20  C   UNL     1       0.875   3.744  -3.324  1.00  0.00     0.048 C 
ATOM     21  N   UNL     1       2.275   4.222   0.150  1.00  0.00    -0.167 NA
ATOM     22  C   UNL     1       2.547   2.033   1.072  1.00  0.00     0.174 C 
ENDBRANCH   6   9
ENDBRANCH   4   5
ENDBRANCH   3   4
ENDBRANCH   2   3
ENDBRANCH   1   2
BRANCH   1  23
ATOM     23  N   UNL     1      -1.847   7.946  -5.716  1.00  0.00    -0.352 N 
ATOM     24  C   UNL     1      -1.761   7.935  -7.114  1.00  0.00     0.251 C 
ATOM     25  H   UNL     1      -2.559   7.401  -5.310  1.00  0.00     0.163 HD
ATOM     26  O   UNL     1      -2.676   7.562  -7.811  1.00  0.00    -0.269 OA
BRANCH  24  27
ATOM     27  C   UNL     1      -0.473   8.380  -7.694  1.00  0.00     0.039 A 
ATOM     28  C   UNL     1      -0.367   9.343  -8.701  1.00  0.00     0.014 A 
ATOM     29  C   UNL     1       0.652   7.890  -7.050  1.00  0.00     0.014 A 
ATOM     30  C   UNL     1       0.895   9.880  -8.976  1.00  0.00     0.010 A 
ATOM     31  C   UNL     1       1.817   8.593  -7.143  1.00  0.00     0.010 A 
ATOM     32  C   UNL     1       1.984   9.514  -8.169  1.00  0.00    -0.014 A 
BRANCH  32  33
ATOM     33  C   UNL     1       3.312  10.110  -8.291  1.00  0.00     0.031 A 
ATOM     34  C   UNL     1       3.359  11.594  -8.205  1.00  0.00     0.074 A 
ATOM     35  C   UNL     1       4.435   9.357  -8.197  1.00  0.00     0.049 A 
ATOM     36  N   UNL     1       3.665  12.433  -9.138  1.00  0.00    -0.248 NA
ATOM     37  C   UNL     1       2.880  12.240  -6.971  1.00  0.00     0.031 C 
ATOM     38  C   UNL     1       4.546   7.906  -7.967  1.00  0.00     0.029 A 
ATOM     39  N   UNL     1       5.735   9.750  -8.153  1.00  0.00    -0.354 N 
ATOM     40  C   UNL     1       3.675  13.690  -8.538  1.00  0.00     0.074 A 
ATOM     41  C   UNL     1       2.975  13.532  -7.292  1.00  0.00     0.031 C 
ATOM     42  C   UNL     1       5.795   7.595  -7.558  1.00  0.00     0.029 A 
ATOM     43  C   UNL     1       6.625   8.773  -7.708  1.00  0.00     0.049 A 
ATOM     44  H   UNL     1       6.026  10.654  -8.414  1.00  0.00     0.167 HD
ATOM     45  C   UNL     1       4.488  14.684  -8.999  1.00  0.00     0.034 A 
ATOM     46  C   UNL     1       7.960   8.904  -7.491  1.00  0.00     0.034 A 
ATOM     47  C   UNL     1       4.989  14.366 -10.320  1.00  0.00     0.049 A 
ATOM     48  C   UNL     1       8.392  10.067  -8.301  1.00  0.00     0.074 A 
ATOM     49  C   UNL     1       4.406  14.094 -11.543  1.00  0.00     0.029 A 
ATOM     50  N   UNL     1       6.275  13.880 -10.419  1.00  0.00    -0.354 N 
ATOM     51  N   UNL     1       8.314  10.094  -9.604  1.00  0.00    -0.248 NA
ATOM     52  C   UNL     1       8.432  11.370  -7.657  1.00  0.00     0.031 C 
ATOM     53  C   UNL     1       5.174  13.016 -12.081  1.00  0.00     0.029 A 
ATOM     54  C   UNL     1       6.233  12.755 -11.207  1.00  0.00     0.049 A 
ATOM     55  H   UNL     1       7.077  14.269 -10.001  1.00  0.00     0.167 HD
ATOM     56  C   UNL     1       7.847  11.364  -9.909  1.00  0.00     0.074 A 
ATOM     57  C   UNL     1       8.043  12.136  -8.681  1.00  0.00     0.031 C 
ATOM     58  C   UNL     1       7.089  11.594 -11.024  1.00  0.00     0.034 A 
BRANCH  45  59
ATOM     59  C   UNL     1       5.137  15.752  -8.139  1.00  0.00     0.023 A 
ATOM     60  C   UNL     1       5.944  16.707  -8.791  1.00  0.00     0.031 A 
ATOM     61  C   UNL     1       5.246  15.725  -6.729  1.00  0.00     0.131 A 
ATOM     62  C   UNL     1       6.865  17.492  -8.074  1.00  0.00     0.055 A 
ATOM     63  C   UNL     1       6.116  16.555  -6.014  1.00  0.00     0.041 A 
ATOM     64  F   UNL     1       4.596  14.839  -5.967  1.00  0.00    -0.206 F 
ATOM     65  C   UNL     1       6.957  17.422  -6.687  1.00  0.00     0.022 A 
BRANCH  62  66
ATOM     66  S   UNL     1       8.073  18.472  -9.004  1.00  0.00     0.124 S 
ATOM     67  O   UNL     1       8.624  17.475  -9.915  1.00  0.00    -0.237 OA
ATOM     68  O   UNL     1       7.226  19.497  -9.605  1.00  0.00    -0.237 OA
ATOM     69  O   UNL     1       8.990  18.947  -7.971  1.00  0.00    -0.744 OA
ENDBRANCH  62  66
ENDBRANCH  45  59
BRANCH  46  70
ATOM     70  C   UNL     1       8.736   8.350  -6.347  1.00  0.00     0.023 A 
ATOM     71  C   UNL     1      10.134   8.167  -6.380  1.00  0.00     0.031 A 
ATOM     72  C   UNL     1       8.109   8.225  -5.086  1.00  0.00     0.131 A 
ATOM     73  C   UNL     1      10.844   7.882  -5.188  1.00  0.00     0.055 A 
ATOM     74  C   UNL     1       8.815   7.949  -3.913  1.00  0.00     0.041 A 
ATOM     75  F   UNL     1       6.793   8.452  -4.943  1.00  0.00    -0.206 F 
ATOM     76  C   UNL     1      10.190   7.786  -3.957  1.00  0.00     0.022 A 
BRANCH  73  77
ATOM     77  S   UNL     1      12.660   7.705  -5.210  1.00  0.00     0.124 S 
ATOM     78  O   UNL     1      12.844   6.491  -5.997  1.00  0.00    -0.237 OA
ATOM     79  O   UNL     1      13.088   8.952  -5.832  1.00  0.00    -0.237 OA
ATOM     80  O   UNL     1      13.009   7.577  -3.794  1.00  0.00    -0.744 OA
ENDBRANCH  73  77
ENDBRANCH  46  70
BRANCH  58  81
ATOM     81  C   UNL     1       6.981  10.484 -12.058  1.00  0.00     0.023 A 
ATOM     82  C   UNL     1       6.452   9.191 -11.820  1.00  0.00     0.031 A 
ATOM     83  C   UNL     1       7.338  10.801 -13.380  1.00  0.00     0.131 A 
ATOM     84  C   UNL     1       6.311   8.274 -12.883  1.00  0.00     0.055 A 
ATOM     85  C   UNL     1       7.180   9.898 -14.432  1.00  0.00     0.041 A 
ATOM     86  F   UNL     1       7.820  12.018 -13.680  1.00  0.00    -0.206 F 
ATOM     87  C   UNL     1       6.672   8.629 -14.187  1.00  0.00     0.022 A 
BRANCH  84  88
ATOM     88  S   UNL     1       5.674   6.588 -12.592  1.00  0.00     0.124 S 
ATOM     89  O   UNL     1       6.452   6.117 -11.452  1.00  0.00    -0.237 OA
ATOM     90  O   UNL     1       4.254   6.822 -12.342  1.00  0.00    -0.237 OA
ATOM     91  O   UNL     1       5.959   5.894 -13.850  1.00  0.00    -0.744 OA
ENDBRANCH  84  88
ENDBRANCH  58  81
ENDBRANCH  32  33
ENDBRANCH  24  27
ENDBRANCH   1  23
TORSDOF 14
