REMARK SMILES CSCC[C@H](NC(=O)Nc1cccc(-c2nc3ccccc3o2)c1)C(=O)NCCCCNC(=O)c1ccc(-c2c3nc(c(-c4cc(S(=O)(=O)[O-])ccc4F)c4ccc([nH]4)c(-c4cc(S(=O)(=O)[O-])ccc4F)c4nc(c(-c5cc(S(=O)(=O)[O-])ccc5F)c5ccc2[nH]5)C=C4)C=C3)cc1
REMARK SMILES IDX 29 1 28 2 27 3 25 4 26 5 5 7 4 8 3 9 2 10 1 11 6 12 7 13
REMARK SMILES IDX 8 15 9 16 10 18 11 19 24 20 12 21 14 22 13 23 15 24 16 25
REMARK SMILES IDX 23 26 17 27 22 28 18 29 21 30 19 31 20 32 30 33 31 34 32 35
REMARK SMILES IDX 33 36 34 38 35 39 36 40 97 41 37 42 96 43 38 44 39 45 40 46
REMARK SMILES IDX 90 47 41 48 95 49 89 50 91 51 42 52 94 53 88 54 87 55 43 57
REMARK SMILES IDX 75 58 55 59 74 60 56 61 59 62 73 63 92 64 57 65 58 66 72 68
REMARK SMILES IDX 93 69 60 70 44 71 45 72 53 73 46 74 52 75 54 76 51 77 47 78
REMARK SMILES IDX 48 79 49 80 50 81 76 82 77 83 85 84 78 85 84 86 86 87 83 88
REMARK SMILES IDX 79 89 80 90 81 91 82 92 61 93 62 94 70 95 63 96 69 97 71 98
REMARK SMILES IDX 68 99 64 100 65 101 66 102 67 103
REMARK H PARENT 27 6 6 14 9 17 32 37 91 56 59 67
REMARK Flexibility Score: inf
ROOT
ATOM      1  C   UNL     1       1.241   6.970   0.475  1.00  0.00     0.023 C 
ENDROOT
BRANCH   1   2
ATOM      2  C   UNL     1       2.261   5.987   1.072  1.00  0.00     0.116 C 
BRANCH   2   3
ATOM      3  N   UNL     1       1.637   4.928   1.839  1.00  0.00    -0.354 N 
ATOM      4  C   UNL     1       0.655   4.208   1.206  1.00  0.00     0.242 C 
ATOM      5  O   UNL     1      -0.490   4.658   1.238  1.00  0.00    -0.273 OA
ATOM      6  H   UNL     1       1.904   4.734   2.766  1.00  0.00     0.163 HD
BRANCH   4   7
ATOM      7  C   UNL     1       1.007   2.838   0.573  1.00  0.00     0.174 C 
BRANCH   7   8
ATOM      8  C   UNL     1       2.490   2.679   0.142  1.00  0.00     0.046 C 
BRANCH   8   9
ATOM      9  C   UNL     1       2.896   2.824  -1.339  1.00  0.00     0.072 C 
BRANCH   9  10
ATOM     10  S   UNL     1       3.013   4.474  -2.117  1.00  0.00    -0.165 SA
ATOM     11  C   UNL     1       1.281   4.905  -2.416  1.00  0.00     0.085 C 
ENDBRANCH   9  10
ENDBRANCH   8   9
ENDBRANCH   7   8
BRANCH   7  12
ATOM     12  N   UNL     1       0.079   2.561  -0.532  1.00  0.00    -0.326 N 
ATOM     13  C   UNL     1      -1.202   2.219  -0.687  1.00  0.00     0.319 C 
ATOM     14  H   UNL     1       0.528   2.654  -1.403  1.00  0.00     0.166 HD
ATOM     15  O   UNL     1      -1.633   2.292  -1.845  1.00  0.00    -0.248 OA
ATOM     16  N   UNL     1      -2.025   1.729   0.253  1.00  0.00    -0.308 N 
ATOM     17  H   UNL     1      -2.962   1.635  -0.033  1.00  0.00     0.171 HD
BRANCH  16  18
ATOM     18  C   UNL     1      -1.776   1.334   1.562  1.00  0.00     0.043 A 
ATOM     19  C   UNL     1      -1.762  -0.021   1.871  1.00  0.00     0.026 A 
ATOM     20  C   UNL     1      -1.605   2.270   2.569  1.00  0.00     0.040 A 
ATOM     21  C   UNL     1      -1.417  -0.428   3.160  1.00  0.00     0.003 A 
ATOM     22  C   UNL     1      -1.161   1.885   3.838  1.00  0.00     0.039 A 
ATOM     23  C   UNL     1      -1.072   0.521   4.131  1.00  0.00     0.014 A 
BRANCH  22  24
ATOM     24  C   UNL     1      -0.672   2.939   4.718  1.00  0.00     0.227 A 
ATOM     25  N   UNL     1      -1.040   4.208   4.741  1.00  0.00    -0.209 NA
ATOM     26  O   UNL     1       0.524   2.680   5.344  1.00  0.00    -0.436 OA
ATOM     27  C   UNL     1       0.014   4.846   5.334  1.00  0.00     0.110 A 
ATOM     28  C   UNL     1       0.974   3.919   5.705  1.00  0.00     0.155 A 
ATOM     29  C   UNL     1       0.262   6.208   5.537  1.00  0.00     0.032 A 
ATOM     30  C   UNL     1       2.196   4.241   6.283  1.00  0.00     0.049 A 
ATOM     31  C   UNL     1       1.493   6.577   6.099  1.00  0.00     0.003 A 
ATOM     32  C   UNL     1       2.439   5.609   6.465  1.00  0.00     0.004 A 
ENDBRANCH  22  24
ENDBRANCH  16  18
ENDBRANCH   7  12
ENDBRANCH   4   7
ENDBRANCH   2   3
ENDBRANCH   1   2
BRANCH   1  33
ATOM     33  C   UNL     1       0.616   7.899   1.509  1.00  0.00     0.023 C 
BRANCH  33  34
ATOM     34  C   UNL     1       1.644   8.690   2.297  1.00  0.00     0.116 C 
BRANCH  34  35
ATOM     35  N   UNL     1       2.684   9.254   1.444  1.00  0.00    -0.352 N 
ATOM     36  C   UNL     1       3.304  10.467   1.522  1.00  0.00     0.251 C 
ATOM     37  H   UNL     1       2.981   8.675   0.705  1.00  0.00     0.163 HD
ATOM     38  O   UNL     1       4.056  10.831   0.620  1.00  0.00    -0.269 OA
BRANCH  36  39
ATOM     39  C   UNL     1       3.026  11.331   2.676  1.00  0.00     0.039 A 
ATOM     40  C   UNL     1       2.769  12.681   2.449  1.00  0.00     0.014 A 
ATOM     41  C   UNL     1       2.972  10.794   3.966  1.00  0.00     0.014 A 
ATOM     42  C   UNL     1       2.415  13.489   3.522  1.00  0.00     0.010 A 
ATOM     43  C   UNL     1       2.512  11.575   5.013  1.00  0.00     0.010 A 
ATOM     44  C   UNL     1       2.254  12.936   4.804  1.00  0.00    -0.014 A 
BRANCH  44  45
ATOM     45  C   UNL     1       1.845  13.793   5.939  1.00  0.00     0.031 A 
ATOM     46  C   UNL     1       2.779  13.992   7.099  1.00  0.00     0.074 A 
ATOM     47  C   UNL     1       0.632  14.377   5.914  1.00  0.00     0.049 A 
ATOM     48  N   UNL     1       2.626  14.739   8.162  1.00  0.00    -0.248 NA
ATOM     49  C   UNL     1       4.035  13.226   7.082  1.00  0.00     0.031 C 
ATOM     50  C   UNL     1      -0.372  14.191   4.863  1.00  0.00     0.029 A 
ATOM     51  N   UNL     1       0.045  15.257   6.782  1.00  0.00    -0.354 N 
ATOM     52  C   UNL     1       3.762  14.529   8.936  1.00  0.00     0.074 A 
ATOM     53  C   UNL     1       4.549  13.520   8.265  1.00  0.00     0.031 C 
ATOM     54  C   UNL     1      -1.426  14.982   5.119  1.00  0.00     0.029 A 
ATOM     55  C   UNL     1      -1.191  15.697   6.368  1.00  0.00     0.049 A 
ATOM     56  H   UNL     1       0.466  15.548   7.623  1.00  0.00     0.167 HD
ATOM     57  C   UNL     1       4.130  15.152  10.083  1.00  0.00     0.034 A 
ATOM     58  C   UNL     1      -2.031  16.586   6.930  1.00  0.00     0.034 A 
ATOM     59  C   UNL     1       3.326  16.163  10.724  1.00  0.00     0.049 A 
ATOM     60  C   UNL     1      -1.598  17.269   8.202  1.00  0.00     0.074 A 
ATOM     61  C   UNL     1       3.606  16.893  11.865  1.00  0.00     0.029 A 
ATOM     62  N   UNL     1       2.078  16.586  10.279  1.00  0.00    -0.354 N 
ATOM     63  N   UNL     1      -0.491  17.109   8.894  1.00  0.00    -0.248 NA
ATOM     64  C   UNL     1      -2.515  18.271   8.754  1.00  0.00     0.031 C 
ATOM     65  C   UNL     1       2.501  17.703  12.149  1.00  0.00     0.029 A 
ATOM     66  C   UNL     1       1.565  17.546  11.137  1.00  0.00     0.049 A 
ATOM     67  H   UNL     1       1.625  16.251   9.472  1.00  0.00     0.167 HD
ATOM     68  C   UNL     1      -0.568  18.016   9.946  1.00  0.00     0.074 A 
ATOM     69  C   UNL     1      -1.816  18.735   9.777  1.00  0.00     0.031 C 
ATOM     70  C   UNL     1       0.310  18.240  10.959  1.00  0.00     0.034 A 
BRANCH  57  71
ATOM     71  C   UNL     1       5.438  14.731  10.711  1.00  0.00     0.023 A 
ATOM     72  C   UNL     1       6.664  14.869  10.033  1.00  0.00     0.031 A 
ATOM     73  C   UNL     1       5.460  14.142  11.987  1.00  0.00     0.131 A 
ATOM     74  C   UNL     1       7.840  14.349  10.594  1.00  0.00     0.055 A 
ATOM     75  C   UNL     1       6.649  13.710  12.580  1.00  0.00     0.041 A 
ATOM     76  F   UNL     1       4.322  13.956  12.675  1.00  0.00    -0.206 F 
ATOM     77  C   UNL     1       7.846  13.796  11.876  1.00  0.00     0.022 A 
BRANCH  74  78
ATOM     78  S   UNL     1       9.327  14.257   9.558  1.00  0.00     0.124 S 
ATOM     79  O   UNL     1       8.861  13.428   8.448  1.00  0.00    -0.237 OA
ATOM     80  O   UNL     1       9.583  15.658   9.247  1.00  0.00    -0.237 OA
ATOM     81  O   UNL     1      10.312  13.619  10.429  1.00  0.00    -0.744 OA
ENDBRANCH  74  78
ENDBRANCH  57  71
BRANCH  58  82
ATOM     82  C   UNL     1      -3.342  16.898   6.293  1.00  0.00     0.023 A 
ATOM     83  C   UNL     1      -3.629  18.186   5.814  1.00  0.00     0.031 A 
ATOM     84  C   UNL     1      -4.345  15.918   6.186  1.00  0.00     0.131 A 
ATOM     85  C   UNL     1      -4.902  18.475   5.300  1.00  0.00     0.055 A 
ATOM     86  C   UNL     1      -5.591  16.195   5.621  1.00  0.00     0.041 A 
ATOM     87  F   UNL     1      -4.121  14.668   6.621  1.00  0.00    -0.206 F 
ATOM     88  C   UNL     1      -5.880  17.484   5.187  1.00  0.00     0.022 A 
BRANCH  85  89
ATOM     89  S   UNL     1      -5.295  20.192   4.864  1.00  0.00     0.124 S 
ATOM     90  O   UNL     1      -5.046  20.882   6.123  1.00  0.00    -0.237 OA
ATOM     91  O   UNL     1      -4.345  20.455   3.788  1.00  0.00    -0.237 OA
ATOM     92  O   UNL     1      -6.696  20.126   4.453  1.00  0.00    -0.744 OA
ENDBRANCH  85  89
ENDBRANCH  58  82
BRANCH  70  93
ATOM     93  C   UNL     1      -0.042  19.341  11.930  1.00  0.00     0.023 A 
ATOM     94  C   UNL     1      -1.185  19.272  12.746  1.00  0.00     0.031 A 
ATOM     95  C   UNL     1       0.754  20.498  12.007  1.00  0.00     0.131 A 
ATOM     96  C   UNL     1      -1.548  20.373  13.535  1.00  0.00     0.055 A 
ATOM     97  C   UNL     1       0.432  21.557  12.855  1.00  0.00     0.041 A 
ATOM     98  F   UNL     1       1.858  20.621  11.252  1.00  0.00    -0.206 F 
ATOM     99  C   UNL     1      -0.737  21.508  13.610  1.00  0.00     0.022 A 
BRANCH  96 100
ATOM    100  S   UNL     1      -3.168  20.357  14.351  1.00  0.00     0.124 S 
ATOM    101  O   UNL     1      -4.069  20.116  13.229  1.00  0.00    -0.237 OA
ATOM    102  O   UNL     1      -3.026  19.260  15.302  1.00  0.00    -0.237 OA
ATOM    103  O   UNL     1      -3.263  21.688  14.948  1.00  0.00    -0.744 OA
ENDBRANCH  96 100
ENDBRANCH  70  93
ENDBRANCH  44  45
ENDBRANCH  36  39
ENDBRANCH  34  35
ENDBRANCH  33  34
ENDBRANCH   1  33
TORSDOF 20
