REMARK SMILES CC(=O)N1CCC(C(=O)Nc2sccc2C(=O)NCCCCNC(=O)c2ccc(-c3c4nc(c(-c5cc(S(=O)(=O)[O-])ccc5F)c5ccc([nH]5)c(-c5cc(S(=O)(=O)[O-])ccc5F)c5nc(c(-c6cc(S(=O)(=O)[O-])ccc6F)c6ccc3[nH]6)C=C5)C=C4)cc2)CC1
REMARK SMILES IDX 21 1 20 2 19 3 18 4 16 5 17 6 15 8 11 9 12 10 13 11 14 12
REMARK SMILES IDX 10 13 8 14 9 15 7 17 1 18 2 19 3 20 4 21 5 22 90 23 6 24
REMARK SMILES IDX 89 25 22 26 23 27 24 28 25 30 26 31 27 32 88 33 28 34 87 35
REMARK SMILES IDX 29 36 30 37 31 38 81 39 32 40 86 41 80 42 82 43 33 44 85 45
REMARK SMILES IDX 79 46 78 47 34 49 66 50 46 51 65 52 47 53 50 54 64 55 83 56
REMARK SMILES IDX 48 57 49 58 63 60 84 61 51 62 35 63 36 64 44 65 37 66 43 67
REMARK SMILES IDX 45 68 42 69 38 70 39 71 40 72 41 73 67 74 68 75 76 76 69 77
REMARK SMILES IDX 75 78 77 79 74 80 70 81 71 82 72 83 73 84 52 85 53 86 61 87
REMARK SMILES IDX 54 88 60 89 62 90 59 91 55 92 56 93 57 94 58 95
REMARK H PARENT 18 7 10 16 23 29 82 48 50 59
REMARK Flexibility Score: inf
ROOT
ATOM      1  C   UNL     1      -2.344   6.734  -5.490  1.00  0.00     0.023 C 
ENDROOT
BRANCH   1   2
ATOM      2  C   UNL     1      -1.661   5.813  -6.506  1.00  0.00     0.023 C 
BRANCH   2   3
ATOM      3  C   UNL     1      -0.803   4.706  -5.905  1.00  0.00     0.116 C 
BRANCH   3   4
ATOM      4  N   UNL     1      -1.551   3.627  -5.307  1.00  0.00    -0.352 N 
ATOM      5  C   UNL     1      -1.160   2.359  -4.957  1.00  0.00     0.254 C 
ATOM      6  O   UNL     1      -2.054   1.621  -4.529  1.00  0.00    -0.269 OA
ATOM      7  H   UNL     1      -2.495   3.834  -5.119  1.00  0.00     0.163 HD
BRANCH   5   8
ATOM      8  C   UNL     1       0.216   1.845  -5.114  1.00  0.00     0.074 A 
ATOM      9  C   UNL     1       1.447   2.473  -5.256  1.00  0.00     0.108 A 
ATOM     10  S   UNL     1       2.654   1.413  -5.857  1.00  0.00    -0.126 S 
ATOM     11  C   UNL     1       1.713   0.044  -5.492  1.00  0.00     0.068 A 
ATOM     12  C   UNL     1       0.443   0.408  -5.115  1.00  0.00     0.028 A 
BRANCH   9  13
ATOM     13  N   UNL     1       1.946   3.749  -5.169  1.00  0.00    -0.317 N 
ATOM     14  C   UNL     1       1.980   4.633  -4.130  1.00  0.00     0.228 C 
ATOM     15  O   UNL     1       2.338   5.786  -4.404  1.00  0.00    -0.274 OA
ATOM     16  H   UNL     1       2.349   4.086  -6.002  1.00  0.00     0.170 HD
BRANCH  14  17
ATOM     17  C   UNL     1       1.722   4.268  -2.667  1.00  0.00     0.082 C 
ATOM     18  C   UNL     1       1.573  -0.042   0.038  1.00  0.00     0.114 C 
ATOM     19  C   UNL     1       0.690   0.888  -0.753  1.00  0.00     0.219 C 
ATOM     20  O   UNL     1      -0.350   0.472  -1.261  1.00  0.00    -0.275 OA
ATOM     21  N   UNL     1       1.057   2.224  -0.768  1.00  0.00    -0.343 N 
ATOM     22  C   UNL     1       0.051   3.244  -1.017  1.00  0.00     0.120 C 
ATOM     23  C   UNL     1       2.429   2.707  -0.787  1.00  0.00     0.120 C 
ATOM     24  C   UNL     1       0.270   3.925  -2.356  1.00  0.00     0.035 C 
ATOM     25  C   UNL     1       2.750   3.231  -2.184  1.00  0.00     0.035 C 
ENDBRANCH  14  17
ENDBRANCH   9  13
ENDBRANCH   5   8
ENDBRANCH   3   4
ENDBRANCH   2   3
ENDBRANCH   1   2
BRANCH   1  26
ATOM     26  C   UNL     1      -1.423   7.456  -4.502  1.00  0.00     0.116 C 
BRANCH  26  27
ATOM     27  N   UNL     1      -0.438   8.313  -5.144  1.00  0.00    -0.352 N 
ATOM     28  C   UNL     1      -0.362   9.685  -5.220  1.00  0.00     0.251 C 
ATOM     29  H   UNL     1       0.294   7.834  -5.596  1.00  0.00     0.163 HD
ATOM     30  O   UNL     1       0.463  10.206  -5.969  1.00  0.00    -0.269 OA
BRANCH  28  31
ATOM     31  C   UNL     1      -1.282  10.538  -4.434  1.00  0.00     0.039 A 
ATOM     32  C   UNL     1      -1.886  11.636  -5.053  1.00  0.00     0.014 A 
ATOM     33  C   UNL     1      -1.542  10.274  -3.087  1.00  0.00     0.014 A 
ATOM     34  C   UNL     1      -2.819  12.404  -4.350  1.00  0.00     0.010 A 
ATOM     35  C   UNL     1      -2.537  10.985  -2.415  1.00  0.00     0.010 A 
ATOM     36  C   UNL     1      -3.195  12.054  -3.041  1.00  0.00    -0.014 A 
BRANCH  36  37
ATOM     37  C   UNL     1      -4.293  12.778  -2.341  1.00  0.00     0.031 A 
ATOM     38  C   UNL     1      -4.033  13.524  -1.059  1.00  0.00     0.074 A 
ATOM     39  C   UNL     1      -5.546  12.719  -2.839  1.00  0.00     0.049 A 
ATOM     40  N   UNL     1      -4.870  14.192  -0.306  1.00  0.00    -0.248 NA
ATOM     41  C   UNL     1      -2.659  13.489  -0.541  1.00  0.00     0.031 C 
ATOM     42  C   UNL     1      -5.940  11.981  -4.042  1.00  0.00     0.029 A 
ATOM     43  N   UNL     1      -6.718  13.284  -2.402  1.00  0.00    -0.354 N 
ATOM     44  C   UNL     1      -4.128  14.650   0.777  1.00  0.00     0.074 A 
ATOM     45  C   UNL     1      -2.789  14.123   0.615  1.00  0.00     0.031 C 
ATOM     46  C   UNL     1      -7.249  12.172  -4.268  1.00  0.00     0.029 A 
ATOM     47  C   UNL     1      -7.802  13.001  -3.202  1.00  0.00     0.049 A 
ATOM     48  H   UNL     1      -6.779  13.841  -1.592  1.00  0.00     0.167 HD
ATOM     49  C   UNL     1      -4.518  15.456   1.798  1.00  0.00     0.034 A 
ATOM     50  C   UNL     1      -9.098  13.358  -3.090  1.00  0.00     0.034 A 
ATOM     51  C   UNL     1      -5.858  15.974   1.945  1.00  0.00     0.049 A 
ATOM     52  C   UNL     1      -9.514  14.232  -1.935  1.00  0.00     0.074 A 
ATOM     53  C   UNL     1      -6.345  16.847   2.903  1.00  0.00     0.029 A 
ATOM     54  N   UNL     1      -6.933  15.654   1.123  1.00  0.00    -0.354 N 
ATOM     55  N   UNL     1      -8.781  14.717  -0.959  1.00  0.00    -0.248 NA
ATOM     56  C   UNL     1     -10.929  14.617  -1.876  1.00  0.00     0.031 C 
ATOM     57  C   UNL     1      -7.724  16.987   2.713  1.00  0.00     0.029 A 
ATOM     58  C   UNL     1      -8.087  16.278   1.579  1.00  0.00     0.049 A 
ATOM     59  H   UNL     1      -6.883  15.071   0.332  1.00  0.00     0.167 HD
ATOM     60  C   UNL     1      -9.645  15.486  -0.183  1.00  0.00     0.074 A 
ATOM     61  C   UNL     1     -10.944  15.419  -0.821  1.00  0.00     0.031 C 
ATOM     62  C   UNL     1      -9.387  16.185   0.953  1.00  0.00     0.034 A 
BRANCH  49  63
ATOM     63  C   UNL     1      -3.485  15.797   2.850  1.00  0.00     0.023 A 
ATOM     64  C   UNL     1      -2.300  16.486   2.530  1.00  0.00     0.031 A 
ATOM     65  C   UNL     1      -3.671  15.405   4.188  1.00  0.00     0.131 A 
ATOM     66  C   UNL     1      -1.315  16.682   3.510  1.00  0.00     0.055 A 
ATOM     67  C   UNL     1      -2.727  15.685   5.178  1.00  0.00     0.041 A 
ATOM     68  F   UNL     1      -4.769  14.726   4.555  1.00  0.00    -0.206 F 
ATOM     69  C   UNL     1      -1.532  16.311   4.838  1.00  0.00     0.022 A 
BRANCH  66  70
ATOM     70  S   UNL     1       0.318  17.275   2.987  1.00  0.00     0.124 S 
ATOM     71  O   UNL     1       0.698  16.264   2.003  1.00  0.00    -0.237 OA
ATOM     72  O   UNL     1       0.018  18.601   2.459  1.00  0.00    -0.237 OA
ATOM     73  O   UNL     1       1.101  17.255   4.221  1.00  0.00    -0.744 OA
ENDBRANCH  66  70
ENDBRANCH  49  63
BRANCH  50  74
ATOM     74  C   UNL     1     -10.099  12.884  -4.090  1.00  0.00     0.023 A 
ATOM     75  C   UNL     1     -10.783  13.786  -4.921  1.00  0.00     0.031 A 
ATOM     76  C   UNL     1     -10.411  11.517  -4.207  1.00  0.00     0.131 A 
ATOM     77  C   UNL     1     -11.772  13.318  -5.800  1.00  0.00     0.055 A 
ATOM     78  C   UNL     1     -11.354  11.050  -5.123  1.00  0.00     0.041 A 
ATOM     79  F   UNL     1      -9.786  10.610  -3.439  1.00  0.00    -0.206 F 
ATOM     80  C   UNL     1     -12.051  11.954  -5.918  1.00  0.00     0.022 A 
BRANCH  77  81
ATOM     81  S   UNL     1     -12.753  14.526  -6.731  1.00  0.00     0.124 S 
ATOM     82  O   UNL     1     -13.347  15.317  -5.659  1.00  0.00    -0.237 OA
ATOM     83  O   UNL     1     -11.732  15.194  -7.531  1.00  0.00    -0.237 OA
ATOM     84  O   UNL     1     -13.688  13.695  -7.487  1.00  0.00    -0.744 OA
ENDBRANCH  77  81
ENDBRANCH  50  74
BRANCH  62  85
ATOM     85  C   UNL     1     -10.537  16.959   1.557  1.00  0.00     0.023 A 
ATOM     86  C   UNL     1     -11.682  16.313   2.058  1.00  0.00     0.031 A 
ATOM     87  C   UNL     1     -10.501  18.364   1.604  1.00  0.00     0.131 A 
ATOM     88  C   UNL     1     -12.770  17.072   2.514  1.00  0.00     0.055 A 
ATOM     89  C   UNL     1     -11.556  19.111   2.130  1.00  0.00     0.041 A 
ATOM     90  F   UNL     1      -9.437  19.037   1.136  1.00  0.00    -0.206 F 
ATOM     91  C   UNL     1     -12.707  18.466   2.572  1.00  0.00     0.022 A 
BRANCH  88  92
ATOM     92  S   UNL     1     -14.320  16.217   2.914  1.00  0.00     0.124 S 
ATOM     93  O   UNL     1     -14.615  15.527   1.662  1.00  0.00    -0.237 OA
ATOM     94  O   UNL     1     -13.928  15.367   4.033  1.00  0.00    -0.237 OA
ATOM     95  O   UNL     1     -15.235  17.305   3.252  1.00  0.00    -0.744 OA
ENDBRANCH  88  92
ENDBRANCH  62  85
ENDBRANCH  36  37
ENDBRANCH  28  31
ENDBRANCH  26  27
ENDBRANCH   1  26
TORSDOF 16
