REMARK SMILES [NH3+][C@H]1C=C[C@H](C(=O)N2CCCc3c(C(=O)NCCCCNC(=O)c4ccc(-c5c6nc(c(-c7cc(S(=O)(=O)[O-])ccc7F)c7ccc([nH]7)c(-c7cc(S(=O)(=O)[O-])ccc7F)c7nc(c(-c8cc(S(=O)(=O)[O-])ccc8F)c8ccc5[nH]8)C=C7)C=C6)cc4)cccc32)C1
REMARK SMILES IDX 18 1 17 2 16 3 14 4 15 5 13 7 8 8 9 9 90 10 10 11 12 12
REMARK SMILES IDX 89 13 11 14 88 15 87 16 6 17 7 18 5 19 2 20 3 21 91 22 4 23
REMARK SMILES IDX 1 24 19 28 20 29 21 30 22 31 23 33 24 34 25 35 86 36 26 37
REMARK SMILES IDX 85 38 27 39 28 40 29 41 79 42 30 43 84 44 78 45 80 46 31 47
REMARK SMILES IDX 83 48 77 49 76 50 32 52 64 53 44 54 63 55 45 56 48 57 62 58
REMARK SMILES IDX 81 59 46 60 47 61 61 63 82 64 49 65 33 66 34 67 42 68 35 69
REMARK SMILES IDX 41 70 43 71 40 72 36 73 37 74 38 75 39 76 65 77 66 78 74 79
REMARK SMILES IDX 67 80 73 81 75 82 72 83 68 84 69 85 70 86 71 87 50 88 51 89
REMARK SMILES IDX 59 90 52 91 58 92 60 93 57 94 53 95 54 96 55 97 56 98
REMARK H PARENT 16 6 1 25 1 26 1 27 21 32 80 51 48 62
REMARK Flexibility Score: inf
ROOT
ATOM      1  C   UNL     1       3.306  -1.712   8.454  1.00  0.00     0.023 C 
ENDROOT
BRANCH   1   2
ATOM      2  C   UNL     1       4.511  -2.344   7.744  1.00  0.00     0.116 C 
BRANCH   2   3
ATOM      3  N   UNL     1       4.477  -3.788   7.870  1.00  0.00    -0.352 N 
ATOM      4  C   UNL     1       4.017  -4.874   7.181  1.00  0.00     0.251 C 
ATOM      5  O   UNL     1       4.258  -5.943   7.762  1.00  0.00    -0.269 OA
ATOM      6  H   UNL     1       4.919  -4.071   8.703  1.00  0.00     0.163 HD
BRANCH   4   7
ATOM      7  C   UNL     1       3.313  -4.968   5.845  1.00  0.00     0.045 A 
ATOM      8  N   UNL     1       0.925  -3.521   3.260  1.00  0.00    -0.312 N 
ATOM      9  C   UNL     1       0.966  -2.127   3.677  1.00  0.00     0.126 C 
ATOM     10  C   UNL     1       1.769  -4.449   3.980  1.00  0.00     0.048 A 
ATOM     11  C   UNL     1       0.910  -2.019   5.180  1.00  0.00     0.027 C 
ATOM     12  C   UNL     1       2.431  -4.066   5.189  1.00  0.00    -0.011 A 
ATOM     13  C   UNL     1       1.973  -5.736   3.466  1.00  0.00     0.027 A 
ATOM     14  C   UNL     1       2.117  -2.721   5.761  1.00  0.00     0.040 C 
ATOM     15  C   UNL     1       2.822  -6.630   4.098  1.00  0.00     0.003 A 
ATOM     16  C   UNL     1       3.487  -6.243   5.255  1.00  0.00     0.014 A 
BRANCH   8  17
ATOM     17  C   UNL     1       0.003  -3.957   2.307  1.00  0.00     0.234 C 
ATOM     18  O   UNL     1      -0.622  -5.018   2.430  1.00  0.00    -0.274 OA
BRANCH  17  19
ATOM     19  C   UNL     1      -0.258  -3.108   1.046  1.00  0.00     0.108 C 
ATOM     20  C   UNL     1       0.453  -0.796   0.598  1.00  0.00     0.205 C 
ATOM     21  C   UNL     1      -1.010  -0.891   0.874  1.00  0.00     0.033 C 
ATOM     22  C   UNL     1       0.894  -2.266   0.482  1.00  0.00     0.087 C 
ATOM     23  C   UNL     1      -1.394  -2.141   1.158  1.00  0.00    -0.012 C 
BRANCH  20  24
ATOM     24  N   UNL     1       0.732  -0.050  -0.613  1.00  0.00    -0.352 N 
ATOM     25  H   UNL     1       0.425   0.916  -0.496  1.00  0.00     0.345 HD
ATOM     26  H   UNL     1       0.231  -0.473  -1.395  1.00  0.00     0.345 HD
ATOM     27  H   UNL     1       1.734  -0.069  -0.801  1.00  0.00     0.345 HD
ENDBRANCH  20  24
ENDBRANCH  17  19
ENDBRANCH   8  17
ENDBRANCH   4   7
ENDBRANCH   2   3
ENDBRANCH   1   2
BRANCH   1  28
ATOM     28  C   UNL     1       3.616  -0.920   9.717  1.00  0.00     0.023 C 
BRANCH  28  29
ATOM     29  C   UNL     1       4.404   0.355   9.475  1.00  0.00     0.116 C 
BRANCH  29  30
ATOM     30  N   UNL     1       3.723   1.323   8.624  1.00  0.00    -0.352 N 
ATOM     31  C   UNL     1       3.834   2.700   8.661  1.00  0.00     0.251 C 
ATOM     32  H   UNL     1       3.113   0.954   7.946  1.00  0.00     0.163 HD
ATOM     33  O   UNL     1       3.164   3.402   7.927  1.00  0.00    -0.269 OA
BRANCH  31  34
ATOM     34  C   UNL     1       4.747   3.285   9.669  1.00  0.00     0.039 A 
ATOM     35  C   UNL     1       4.230   4.177  10.610  1.00  0.00     0.014 A 
ATOM     36  C   UNL     1       6.061   2.824   9.767  1.00  0.00     0.014 A 
ATOM     37  C   UNL     1       5.008   4.531  11.714  1.00  0.00     0.010 A 
ATOM     38  C   UNL     1       6.796   3.105  10.911  1.00  0.00     0.010 A 
ATOM     39  C   UNL     1       6.274   3.953  11.901  1.00  0.00    -0.014 A 
BRANCH  39  40
ATOM     40  C   UNL     1       7.082   4.220  13.119  1.00  0.00     0.031 A 
ATOM     41  C   UNL     1       8.428   4.877  12.983  1.00  0.00     0.074 A 
ATOM     42  C   UNL     1       6.652   3.790  14.322  1.00  0.00     0.049 A 
ATOM     43  N   UNL     1       9.350   5.075  13.888  1.00  0.00    -0.248 NA
ATOM     44  C   UNL     1       8.800   5.329  11.634  1.00  0.00     0.031 C 
ATOM     45  C   UNL     1       5.391   3.086  14.572  1.00  0.00     0.029 A 
ATOM     46  N   UNL     1       7.237   3.865  15.562  1.00  0.00    -0.354 N 
ATOM     47  C   UNL     1      10.418   5.657  13.215  1.00  0.00     0.074 A 
ATOM     48  C   UNL     1      10.055   5.708  11.815  1.00  0.00     0.031 C 
ATOM     49  C   UNL     1       5.292   2.811  15.883  1.00  0.00     0.029 A 
ATOM     50  C   UNL     1       6.496   3.280  16.562  1.00  0.00     0.049 A 
ATOM     51  H   UNL     1       8.107   4.298  15.720  1.00  0.00     0.167 HD
ATOM     52  C   UNL     1      11.582   6.135  13.721  1.00  0.00     0.034 A 
ATOM     53  C   UNL     1       6.763   3.129  17.875  1.00  0.00     0.034 A 
ATOM     54  C   UNL     1      11.919   6.096  15.121  1.00  0.00     0.049 A 
ATOM     55  C   UNL     1       8.056   3.681  18.420  1.00  0.00     0.074 A 
ATOM     56  C   UNL     1      13.052   6.580  15.752  1.00  0.00     0.029 A 
ATOM     57  N   UNL     1      11.118   5.544  16.113  1.00  0.00    -0.354 N 
ATOM     58  N   UNL     1       9.041   4.265  17.776  1.00  0.00    -0.248 NA
ATOM     59  C   UNL     1       8.268   3.568  19.869  1.00  0.00     0.031 C 
ATOM     60  C   UNL     1      12.955   6.283  17.116  1.00  0.00     0.029 A 
ATOM     61  C   UNL     1      11.735   5.668  17.347  1.00  0.00     0.049 A 
ATOM     62  H   UNL     1      10.239   5.127  15.961  1.00  0.00     0.167 HD
ATOM     63  C   UNL     1       9.973   4.616  18.747  1.00  0.00     0.074 A 
ATOM     64  C   UNL     1       9.429   4.190  20.020  1.00  0.00     0.031 C 
ATOM     65  C   UNL     1      11.171   5.238  18.604  1.00  0.00     0.034 A 
BRANCH  52  66
ATOM     66  C   UNL     1      12.565   6.725  12.739  1.00  0.00     0.023 A 
ATOM     67  C   UNL     1      12.241   7.860  11.974  1.00  0.00     0.031 A 
ATOM     68  C   UNL     1      13.815   6.121  12.523  1.00  0.00     0.131 A 
ATOM     69  C   UNL     1      13.112   8.298  10.967  1.00  0.00     0.055 A 
ATOM     70  C   UNL     1      14.717   6.617  11.579  1.00  0.00     0.041 A 
ATOM     71  F   UNL     1      14.172   5.024  13.208  1.00  0.00    -0.206 F 
ATOM     72  C   UNL     1      14.360   7.701  10.781  1.00  0.00     0.022 A 
BRANCH  69  73
ATOM     73  S   UNL     1      12.520   9.556   9.802  1.00  0.00     0.124 S 
ATOM     74  O   UNL     1      11.377   8.877   9.194  1.00  0.00    -0.237 OA
ATOM     75  O   UNL     1      12.204  10.676  10.680  1.00  0.00    -0.237 OA
ATOM     76  O   UNL     1      13.660   9.761   8.912  1.00  0.00    -0.744 OA
ENDBRANCH  69  73
ENDBRANCH  52  66
BRANCH  53  77
ATOM     77  C   UNL     1       5.801   2.425  18.770  1.00  0.00     0.023 A 
ATOM     78  C   UNL     1       5.138   3.109  19.801  1.00  0.00     0.031 A 
ATOM     79  C   UNL     1       5.567   1.045  18.638  1.00  0.00     0.131 A 
ATOM     80  C   UNL     1       4.315   2.405  20.693  1.00  0.00     0.055 A 
ATOM     81  C   UNL     1       4.708   0.357  19.498  1.00  0.00     0.041 A 
ATOM     82  F   UNL     1       6.167   0.345  17.662  1.00  0.00    -0.206 F 
ATOM     83  C   UNL     1       4.087   1.035  20.543  1.00  0.00     0.022 A 
BRANCH  80  84
ATOM     84  S   UNL     1       3.614   3.291  22.112  1.00  0.00     0.124 S 
ATOM     85  O   UNL     1       4.811   3.826  22.751  1.00  0.00    -0.237 OA
ATOM     86  O   UNL     1       2.745   4.265  21.459  1.00  0.00    -0.237 OA
ATOM     87  O   UNL     1       2.922   2.244  22.860  1.00  0.00    -0.744 OA
ENDBRANCH  80  84
ENDBRANCH  53  77
BRANCH  65  88
ATOM     88  C   UNL     1      11.939   5.541  19.864  1.00  0.00     0.023 A 
ATOM     89  C   UNL     1      12.526   4.523  20.635  1.00  0.00     0.031 A 
ATOM     90  C   UNL     1      12.080   6.871  20.297  1.00  0.00     0.131 A 
ATOM     91  C   UNL     1      13.188   4.848  21.828  1.00  0.00     0.055 A 
ATOM     92  C   UNL     1      12.784   7.192  21.458  1.00  0.00     0.041 A 
ATOM     93  F   UNL     1      11.539   7.879  19.595  1.00  0.00    -0.206 F 
ATOM     94  C   UNL     1      13.333   6.177  22.237  1.00  0.00     0.022 A 
BRANCH  91  95
ATOM     95  S   UNL     1      13.800   3.503  22.879  1.00  0.00     0.124 S 
ATOM     96  O   UNL     1      12.574   2.772  23.181  1.00  0.00    -0.237 OA
ATOM     97  O   UNL     1      14.747   2.825  21.999  1.00  0.00    -0.237 OA
ATOM     98  O   UNL     1      14.402   4.201  24.014  1.00  0.00    -0.744 OA
ENDBRANCH  91  95
ENDBRANCH  65  88
ENDBRANCH  39  40
ENDBRANCH  31  34
ENDBRANCH  29  30
ENDBRANCH  28  29
ENDBRANCH   1  28
TORSDOF 17
