REMARK SMILES COc1ccc(NC(=O)c2nn(C)cc2C(=O)NCCCCNC(=O)c2ccc(-c3c4nc(c(-c5cc(S(=O)(=O)[O-])ccc5F)c5ccc([nH]5)c(-c5cc(S(=O)(=O)[O-])ccc5F)c5nc(c(-c6cc(S(=O)(=O)[O-])ccc6F)c6ccc3[nH]6)C=C5)C=C4)cc2)c(C)c1
REMARK SMILES IDX 20 1 19 2 18 3 16 4 17 5 15 7 10 8 11 9 12 10 14 11 13 12
REMARK SMILES IDX 8 13 7 14 9 16 6 17 3 18 4 19 91 20 5 21 89 22 90 23 2 24
REMARK SMILES IDX 1 25 21 26 22 27 23 28 24 29 25 31 26 32 27 33 88 34 28 35
REMARK SMILES IDX 87 36 29 37 30 38 31 39 81 40 32 41 86 42 80 43 82 44 33 45
REMARK SMILES IDX 85 46 79 47 78 48 34 50 66 51 46 52 65 53 47 54 50 55 64 56
REMARK SMILES IDX 83 57 48 58 49 59 63 61 84 62 51 63 35 64 36 65 44 66 37 67
REMARK SMILES IDX 43 68 45 69 42 70 38 71 39 72 40 73 41 74 67 75 68 76 76 77
REMARK SMILES IDX 69 78 75 79 77 80 74 81 70 82 71 83 72 84 73 85 52 86 53 87
REMARK SMILES IDX 61 88 54 89 60 90 62 91 59 92 55 93 56 94 57 95 58 96
REMARK H PARENT 18 6 7 15 23 30 82 49 50 60
REMARK Flexibility Score: inf
ROOT
ATOM      1  C   UNL     1       4.757   1.846   0.618  1.00  0.00     0.023 C 
ENDROOT
BRANCH   1   2
ATOM      2  C   UNL     1       5.464   2.633   1.728  1.00  0.00     0.116 C 
BRANCH   2   3
ATOM      3  N   UNL     1       4.592   3.042   2.824  1.00  0.00    -0.352 N 
ATOM      4  C   UNL     1       4.364   2.570   4.102  1.00  0.00     0.255 C 
ATOM      5  O   UNL     1       3.581   3.201   4.794  1.00  0.00    -0.269 OA
ATOM      6  H   UNL     1       4.045   3.830   2.603  1.00  0.00     0.163 HD
BRANCH   4   7
ATOM      7  C   UNL     1       4.969   1.335   4.589  1.00  0.00     0.090 A 
ATOM      8  C   UNL     1       4.468   0.502   5.658  1.00  0.00     0.163 A 
ATOM      9  N   UNL     1       5.221  -0.610   5.806  1.00  0.00    -0.167 NA
ATOM     10  N   UNL     1       6.192  -0.471   4.898  1.00  0.00    -0.274 N 
ATOM     11  C   UNL     1       6.141   0.707   4.221  1.00  0.00     0.123 A 
ATOM     12  C   UNL     1       7.121  -1.550   4.668  1.00  0.00     0.173 C 
BRANCH   8  13
ATOM     13  C   UNL     1       3.298   0.699   6.527  1.00  0.00     0.277 C 
ATOM     14  N   UNL     1       2.018   0.801   6.015  1.00  0.00    -0.320 N 
ATOM     15  H   UNL     1       1.341   1.033   6.691  1.00  0.00     0.170 HD
ATOM     16  O   UNL     1       3.412   0.776   7.755  1.00  0.00    -0.267 OA
BRANCH  14  17
ATOM     17  C   UNL     1       1.490   0.639   4.722  1.00  0.00     0.044 A 
ATOM     18  C   UNL     1       0.551   0.566   2.059  1.00  0.00     0.119 A 
ATOM     19  C   UNL     1       1.731  -0.076   2.402  1.00  0.00     0.048 A 
ATOM     20  C   UNL     1      -0.204   1.165   3.067  1.00  0.00     0.052 A 
ATOM     21  C   UNL     1       2.181  -0.054   3.724  1.00  0.00     0.030 A 
ATOM     22  C   UNL     1       0.232   1.188   4.408  1.00  0.00    -0.024 A 
ATOM     23  C   UNL     1      -0.719   1.790   5.409  1.00  0.00     0.047 C 
BRANCH  18  24
ATOM     24  O   UNL     1       0.025   0.661   0.801  1.00  0.00    -0.497 OA
ATOM     25  C   UNL     1       0.733  -0.014  -0.232  1.00  0.00     0.278 C 
ENDBRANCH  18  24
ENDBRANCH  14  17
ENDBRANCH   8  13
ENDBRANCH   4   7
ENDBRANCH   2   3
ENDBRANCH   1   2
BRANCH   1  26
ATOM     26  C   UNL     1       3.754   2.643  -0.214  1.00  0.00     0.023 C 
BRANCH  26  27
ATOM     27  C   UNL     1       4.345   3.800  -1.011  1.00  0.00     0.116 C 
BRANCH  27  28
ATOM     28  N   UNL     1       4.928   3.448  -2.303  1.00  0.00    -0.352 N 
ATOM     29  C   UNL     1       5.429   4.279  -3.298  1.00  0.00     0.251 C 
ATOM     30  H   UNL     1       4.973   2.484  -2.497  1.00  0.00     0.163 HD
ATOM     31  O   UNL     1       5.716   3.832  -4.405  1.00  0.00    -0.269 OA
BRANCH  29  32
ATOM     32  C   UNL     1       5.771   5.687  -2.972  1.00  0.00     0.039 A 
ATOM     33  C   UNL     1       7.062   6.123  -3.307  1.00  0.00     0.014 A 
ATOM     34  C   UNL     1       5.005   6.400  -2.063  1.00  0.00     0.014 A 
ATOM     35  C   UNL     1       7.693   7.056  -2.494  1.00  0.00     0.010 A 
ATOM     36  C   UNL     1       5.672   7.188  -1.160  1.00  0.00     0.010 A 
ATOM     37  C   UNL     1       7.033   7.453  -1.341  1.00  0.00    -0.014 A 
BRANCH  37  38
ATOM     38  C   UNL     1       7.661   8.104  -0.207  1.00  0.00     0.031 A 
ATOM     39  C   UNL     1       7.313   9.507   0.065  1.00  0.00     0.074 A 
ATOM     40  C   UNL     1       8.322   7.334   0.685  1.00  0.00     0.049 A 
ATOM     41  N   UNL     1       7.857  10.235   0.968  1.00  0.00    -0.248 NA
ATOM     42  C   UNL     1       6.312  10.226  -0.719  1.00  0.00     0.031 C 
ATOM     43  C   UNL     1       8.666   7.648   2.068  1.00  0.00     0.029 A 
ATOM     44  N   UNL     1       9.040   6.169   0.407  1.00  0.00    -0.354 N 
ATOM     45  C   UNL     1       7.104  11.380   1.098  1.00  0.00     0.074 A 
ATOM     46  C   UNL     1       6.214  11.365  -0.033  1.00  0.00     0.031 C 
ATOM     47  C   UNL     1       9.714   6.893   2.437  1.00  0.00     0.029 A 
ATOM     48  C   UNL     1      10.172   6.198   1.247  1.00  0.00     0.049 A 
ATOM     49  H   UNL     1       8.804   5.469  -0.244  1.00  0.00     0.167 HD
ATOM     50  C   UNL     1       7.257  12.115   2.234  1.00  0.00     0.034 A 
ATOM     51  C   UNL     1      11.417   6.339   0.702  1.00  0.00     0.034 A 
ATOM     52  C   UNL     1       8.443  11.655   2.966  1.00  0.00     0.049 A 
ATOM     53  C   UNL     1      12.090   7.633   1.111  1.00  0.00     0.074 A 
ATOM     54  C   UNL     1       8.629  10.847   4.075  1.00  0.00     0.029 A 
ATOM     55  N   UNL     1       9.683  11.751   2.340  1.00  0.00    -0.354 N 
ATOM     56  N   UNL     1      11.457   8.690   1.550  1.00  0.00    -0.248 NA
ATOM     57  C   UNL     1      13.537   7.810   1.115  1.00  0.00     0.031 C 
ATOM     58  C   UNL     1       9.972  10.371   4.043  1.00  0.00     0.029 A 
ATOM     59  C   UNL     1      10.610  10.928   2.947  1.00  0.00     0.049 A 
ATOM     60  H   UNL     1       9.873  12.330   1.566  1.00  0.00     0.167 HD
ATOM     61  C   UNL     1      12.362   9.655   1.920  1.00  0.00     0.074 A 
ATOM     62  C   UNL     1      13.651   9.046   1.632  1.00  0.00     0.031 C 
ATOM     63  C   UNL     1      11.979  10.864   2.444  1.00  0.00     0.034 A 
BRANCH  50  64
ATOM     64  C   UNL     1       6.228  13.062   2.820  1.00  0.00     0.023 A 
ATOM     65  C   UNL     1       6.338  13.405   4.186  1.00  0.00     0.031 A 
ATOM     66  C   UNL     1       5.089  13.585   2.171  1.00  0.00     0.131 A 
ATOM     67  C   UNL     1       5.344  14.155   4.846  1.00  0.00     0.055 A 
ATOM     68  C   UNL     1       4.094  14.321   2.829  1.00  0.00     0.041 A 
ATOM     69  F   UNL     1       4.871  13.440   0.863  1.00  0.00    -0.206 F 
ATOM     70  C   UNL     1       4.212  14.603   4.177  1.00  0.00     0.022 A 
BRANCH  67  71
ATOM     71  S   UNL     1       5.539  14.517   6.611  1.00  0.00     0.124 S 
ATOM     72  O   UNL     1       5.543  13.182   7.199  1.00  0.00    -0.237 OA
ATOM     73  O   UNL     1       6.804  15.242   6.640  1.00  0.00    -0.237 OA
ATOM     74  O   UNL     1       4.360  15.325   6.922  1.00  0.00    -0.744 OA
ENDBRANCH  67  71
ENDBRANCH  50  64
BRANCH  51  75
ATOM     75  C   UNL     1      11.540   5.621  -0.605  1.00  0.00     0.023 A 
ATOM     76  C   UNL     1      11.297   4.228  -0.572  1.00  0.00     0.031 A 
ATOM     77  C   UNL     1      11.392   6.279  -1.833  1.00  0.00     0.131 A 
ATOM     78  C   UNL     1      10.714   3.584  -1.673  1.00  0.00     0.055 A 
ATOM     79  C   UNL     1      10.893   5.606  -2.960  1.00  0.00     0.041 A 
ATOM     80  F   UNL     1      11.578   7.604  -1.928  1.00  0.00    -0.206 F 
ATOM     81  C   UNL     1      10.497   4.269  -2.868  1.00  0.00     0.022 A 
BRANCH  78  82
ATOM     82  S   UNL     1       9.998   1.932  -1.407  1.00  0.00     0.124 S 
ATOM     83  O   UNL     1      11.188   1.095  -1.306  1.00  0.00    -0.237 OA
ATOM     84  O   UNL     1       9.239   2.111  -0.169  1.00  0.00    -0.237 OA
ATOM     85  O   UNL     1       9.175   1.710  -2.592  1.00  0.00    -0.744 OA
ENDBRANCH  78  82
ENDBRANCH  51  75
BRANCH  63  86
ATOM     86  C   UNL     1      12.870  12.086   2.614  1.00  0.00     0.023 A 
ATOM     87  C   UNL     1      14.163  12.179   2.085  1.00  0.00     0.031 A 
ATOM     88  C   UNL     1      12.403  13.260   3.264  1.00  0.00     0.131 A 
ATOM     89  C   UNL     1      14.960  13.321   2.285  1.00  0.00     0.055 A 
ATOM     90  C   UNL     1      13.160  14.431   3.376  1.00  0.00     0.041 A 
ATOM     91  F   UNL     1      11.182  13.335   3.812  1.00  0.00    -0.206 F 
ATOM     92  C   UNL     1      14.459  14.461   2.902  1.00  0.00     0.022 A 
BRANCH  89  93
ATOM     93  S   UNL     1      16.699  13.236   1.788  1.00  0.00     0.124 S 
ATOM     94  O   UNL     1      17.199  12.159   2.639  1.00  0.00    -0.237 OA
ATOM     95  O   UNL     1      16.604  12.925   0.366  1.00  0.00    -0.237 OA
ATOM     96  O   UNL     1      17.213  14.566   2.103  1.00  0.00    -0.744 OA
ENDBRANCH  89  93
ENDBRANCH  63  86
ENDBRANCH  37  38
ENDBRANCH  29  32
ENDBRANCH  27  28
ENDBRANCH  26  27
ENDBRANCH   1  26
TORSDOF 17
