REMARK SMILES COc1cccc([C@@H]2[NH2+][C@@](C)(C(=O)NCCCCNC(=O)c3ccc(-c4c5nc(c(-c6cc(S(=O)(=O)[O-])ccc6F)c6ccc([nH]6)c(-c6cc(S(=O)(=O)[O-])ccc6F)c6nc(c(-c7cc(S(=O)(=O)[O-])ccc7F)c7ccc4[nH]7)C=C6)C=C5)cc3)[C@@H]3C(=O)N(c4cccc(Cl)c4)C(=O)[C@@H]32)c1O
REMARK SMILES IDX 17 1 16 2 15 3 14 4 12 5 13 6 10 8 8 9 9 10 98 11 85 14
REMARK SMILES IDX 96 15 11 16 86 17 88 18 97 19 87 20 7 21 3 22 4 23 99 24
REMARK SMILES IDX 5 25 6 26 2 27 1 28 100 29 89 31 90 32 95 33 91 34 93 35
REMARK SMILES IDX 92 36 94 37 18 38 19 39 20 40 21 42 22 43 23 44 84 45 24 46
REMARK SMILES IDX 83 47 25 48 26 49 27 50 77 51 28 52 82 53 76 54 78 55 29 56
REMARK SMILES IDX 81 57 75 58 74 59 30 61 62 62 42 63 61 64 43 65 46 66 60 67
REMARK SMILES IDX 79 68 44 69 45 70 59 72 80 73 47 74 31 75 32 76 40 77 33 78
REMARK SMILES IDX 39 79 41 80 38 81 34 82 35 83 36 84 37 85 63 86 64 87 72 88
REMARK SMILES IDX 65 89 71 90 73 91 70 92 66 93 67 94 68 95 69 96 48 97 49 98
REMARK SMILES IDX 57 99 50 100 56 101 58 102 55 103 51 104 52 105 53 106
REMARK SMILES IDX 54 107
REMARK H PARENT 14 7 9 12 9 13 100 30 19 41 78 60 46 71
REMARK Flexibility Score: inf
ROOT
ATOM      1  C   UNL     1       0.834  -6.654   7.658  1.00  0.00     0.023 C 
ENDROOT
BRANCH   1   2
ATOM      2  C   UNL     1       0.422  -5.840   6.431  1.00  0.00     0.023 C 
BRANCH   2   3
ATOM      3  C   UNL     1       0.848  -4.377   6.472  1.00  0.00     0.116 C 
BRANCH   3   4
ATOM      4  N   UNL     1       2.294  -4.233   6.473  1.00  0.00    -0.351 N 
ATOM      5  C   UNL     1       3.118  -3.600   5.587  1.00  0.00     0.281 C 
ATOM      6  O   UNL     1       4.333  -3.701   5.779  1.00  0.00    -0.268 OA
ATOM      7  H   UNL     1       2.752  -4.659   7.234  1.00  0.00     0.163 HD
BRANCH   5   8
ATOM      8  C   UNL     1       2.541  -2.750   4.411  1.00  0.00     0.185 C 
ATOM      9  C   UNL     1       2.377  -4.036   2.369  1.00  0.00     0.232 C 
ATOM     10  N   UNL     1       1.660  -3.624   3.591  1.00  0.00    -0.326 N 
ATOM     11  C   UNL     1       3.772  -3.406   2.425  1.00  0.00     0.162 C 
ATOM     12  H   UNL     1       1.404  -4.451   4.130  1.00  0.00     0.347 HD
ATOM     13  H   UNL     1       0.817  -3.111   3.334  1.00  0.00     0.347 HD
ATOM     14  C   UNL     1       3.696  -2.329   3.489  1.00  0.00     0.169 C 
ATOM     15  C   UNL     1       4.193  -2.660   1.188  1.00  0.00     0.244 C 
ATOM     16  C   UNL     1       1.781  -1.565   5.032  1.00  0.00     0.091 C 
ATOM     17  C   UNL     1       3.556  -1.064   2.684  1.00  0.00     0.244 C 
ATOM     18  N   UNL     1       3.964  -1.316   1.391  1.00  0.00    -0.250 N 
ATOM     19  O   UNL     1       4.654  -3.209   0.199  1.00  0.00    -0.273 OA
ATOM     20  O   UNL     1       3.134  -0.002   3.125  1.00  0.00    -0.273 OA
BRANCH   9  21
ATOM     21  C   UNL     1       1.579  -3.776   1.092  1.00  0.00     0.056 A 
ATOM     22  C   UNL     1       0.338  -2.296  -0.424  1.00  0.00     0.161 A 
ATOM     23  C   UNL     1       0.372  -3.306  -1.393  1.00  0.00     0.050 A 
ATOM     24  C   UNL     1       0.908  -2.558   0.828  1.00  0.00     0.166 A 
ATOM     25  C   UNL     1       0.983  -4.532  -1.139  1.00  0.00     0.005 A 
ATOM     26  C   UNL     1       1.595  -4.761   0.090  1.00  0.00     0.014 A 
BRANCH  22  27
ATOM     27  O   UNL     1      -0.326  -1.179  -0.849  1.00  0.00    -0.493 OA
ATOM     28  C   UNL     1      -0.028   0.074  -0.257  1.00  0.00     0.278 C 
ENDBRANCH  22  27
BRANCH  24  29
ATOM     29  O   UNL     1       0.799  -1.700   1.885  1.00  0.00    -0.504 OA
ATOM     30  H   UNL     1       0.366  -0.876   1.777  1.00  0.00     0.293 HD
ENDBRANCH  24  29
ENDBRANCH   9  21
BRANCH  18  31
ATOM     31  C   UNL     1       4.034  -0.313   0.384  1.00  0.00     0.053 A 
ATOM     32  C   UNL     1       3.786  -0.618  -0.963  1.00  0.00     0.027 A 
ATOM     33  C   UNL     1       4.287   1.027   0.721  1.00  0.00     0.047 A 
ATOM     34  C   UNL     1       3.736   0.391  -1.932  1.00  0.00     0.004 A 
ATOM     35  C   UNL     1       4.265   2.026  -0.252  1.00  0.00     0.043 A 
ATOM     36  C   UNL     1       3.973   1.717  -1.575  1.00  0.00     0.020 A 
ATOM     37  Cl  UNL     1       4.590   3.657   0.191  1.00  0.00    -0.084 Cl
ENDBRANCH  18  31
ENDBRANCH   5   8
ENDBRANCH   3   4
ENDBRANCH   2   3
ENDBRANCH   1   2
BRANCH   1  38
ATOM     38  C   UNL     1       0.427  -6.056   9.000  1.00  0.00     0.116 C 
BRANCH  38  39
ATOM     39  N   UNL     1      -1.007  -5.846   9.111  1.00  0.00    -0.352 N 
ATOM     40  C   UNL     1      -1.874  -6.232  10.104  1.00  0.00     0.251 C 
ATOM     41  H   UNL     1      -1.418  -5.354   8.364  1.00  0.00     0.163 HD
ATOM     42  O   UNL     1      -3.082  -6.102   9.932  1.00  0.00    -0.269 OA
BRANCH  40  43
ATOM     43  C   UNL     1      -1.357  -6.833  11.354  1.00  0.00     0.039 A 
ATOM     44  C   UNL     1      -2.021  -7.938  11.890  1.00  0.00     0.014 A 
ATOM     45  C   UNL     1      -0.227  -6.318  11.998  1.00  0.00     0.014 A 
ATOM     46  C   UNL     1      -1.516  -8.562  13.033  1.00  0.00     0.010 A 
ATOM     47  C   UNL     1       0.324  -6.995  13.084  1.00  0.00     0.010 A 
ATOM     48  C   UNL     1      -0.317  -8.121  13.619  1.00  0.00    -0.014 A 
BRANCH  48  49
ATOM     49  C   UNL     1       0.266  -8.845  14.780  1.00  0.00     0.031 A 
ATOM     50  C   UNL     1       0.422  -8.162  16.113  1.00  0.00     0.074 A 
ATOM     51  C   UNL     1       0.680 -10.118  14.623  1.00  0.00     0.049 A 
ATOM     52  N   UNL     1       0.868  -8.648  17.244  1.00  0.00    -0.248 NA
ATOM     53  C   UNL     1       0.055  -6.741  16.175  1.00  0.00     0.031 C 
ATOM     54  C   UNL     1       0.632 -10.871  13.367  1.00  0.00     0.029 A 
ATOM     55  N   UNL     1       1.205 -11.012  15.522  1.00  0.00    -0.354 N 
ATOM     56  C   UNL     1       0.845  -7.591  18.149  1.00  0.00     0.074 A 
ATOM     57  C   UNL     1       0.407  -6.424  17.412  1.00  0.00     0.031 C 
ATOM     58  C   UNL     1       1.049 -12.127  13.590  1.00  0.00     0.029 A 
ATOM     59  C   UNL     1       1.440 -12.259  14.989  1.00  0.00     0.049 A 
ATOM     60  H   UNL     1       1.397 -10.782  16.460  1.00  0.00     0.167 HD
ATOM     61  C   UNL     1       1.138  -7.598  19.474  1.00  0.00     0.034 A 
ATOM     62  C   UNL     1       1.908 -13.384  15.564  1.00  0.00     0.034 A 
ATOM     63  C   UNL     1       1.572  -8.774  20.192  1.00  0.00     0.049 A 
ATOM     64  C   UNL     1       2.245 -13.362  17.032  1.00  0.00     0.074 A 
ATOM     65  C   UNL     1       1.832  -8.912  21.544  1.00  0.00     0.029 A 
ATOM     66  N   UNL     1       1.829 -10.013  19.614  1.00  0.00    -0.354 N 
ATOM     67  N   UNL     1       2.143 -12.374  17.893  1.00  0.00    -0.248 NA
ATOM     68  C   UNL     1       2.745 -14.615  17.608  1.00  0.00     0.031 C 
ATOM     69  C   UNL     1       2.329 -10.202  21.768  1.00  0.00     0.029 A 
ATOM     70  C   UNL     1       2.288 -10.904  20.575  1.00  0.00     0.049 A 
ATOM     71  H   UNL     1       1.705 -10.226  18.661  1.00  0.00     0.167 HD
ATOM     72  C   UNL     1       2.535 -12.902  19.121  1.00  0.00     0.074 A 
ATOM     73  C   UNL     1       2.847 -14.298  18.889  1.00  0.00     0.031 C 
ATOM     74  C   UNL     1       2.624 -12.290  20.331  1.00  0.00     0.034 A 
BRANCH  61  75
ATOM     75  C   UNL     1       1.034  -6.283  20.217  1.00  0.00     0.023 A 
ATOM     76  C   UNL     1      -0.175  -5.569  20.303  1.00  0.00     0.031 A 
ATOM     77  C   UNL     1       2.173  -5.712  20.815  1.00  0.00     0.131 A 
ATOM     78  C   UNL     1      -0.198  -4.292  20.886  1.00  0.00     0.055 A 
ATOM     79  C   UNL     1       2.122  -4.484  21.478  1.00  0.00     0.041 A 
ATOM     80  F   UNL     1       3.363  -6.330  20.750  1.00  0.00    -0.206 F 
ATOM     81  C   UNL     1       0.936  -3.757  21.500  1.00  0.00     0.022 A 
BRANCH  78  82
ATOM     82  S   UNL     1      -1.682  -3.270  20.674  1.00  0.00     0.124 S 
ATOM     83  O   UNL     1      -1.814  -3.239  19.219  1.00  0.00    -0.237 OA
ATOM     84  O   UNL     1      -2.696  -4.032  21.392  1.00  0.00    -0.237 OA
ATOM     85  O   UNL     1      -1.310  -1.994  21.283  1.00  0.00    -0.744 OA
ENDBRANCH  78  82
ENDBRANCH  61  75
BRANCH  62  86
ATOM     86  C   UNL     1       2.068 -14.633  14.765  1.00  0.00     0.023 A 
ATOM     87  C   UNL     1       1.318 -15.782  15.066  1.00  0.00     0.031 A 
ATOM     88  C   UNL     1       3.002 -14.713  13.716  1.00  0.00     0.131 A 
ATOM     89  C   UNL     1       1.548 -16.974  14.361  1.00  0.00     0.055 A 
ATOM     90  C   UNL     1       3.185 -15.884  12.979  1.00  0.00     0.041 A 
ATOM     91  F   UNL     1       3.743 -13.644  13.384  1.00  0.00    -0.206 F 
ATOM     92  C   UNL     1       2.465 -17.028  13.309  1.00  0.00     0.022 A 
BRANCH  89  93
ATOM     93  S   UNL     1       0.689 -18.479  14.896  1.00  0.00     0.124 S 
ATOM     94  O   UNL     1       1.142 -18.604  16.277  1.00  0.00    -0.237 OA
ATOM     95  O   UNL     1      -0.711 -18.112  14.710  1.00  0.00    -0.237 OA
ATOM     96  O   UNL     1       1.190 -19.500  13.979  1.00  0.00    -0.744 OA
ENDBRANCH  89  93
ENDBRANCH  62  86
BRANCH  74  97
ATOM     97  C   UNL     1       3.043 -13.153  21.501  1.00  0.00     0.023 A 
ATOM     98  C   UNL     1       4.299 -13.786  21.543  1.00  0.00     0.031 A 
ATOM     99  C   UNL     1       2.151 -13.396  22.561  1.00  0.00     0.131 A 
ATOM    100  C   UNL     1       4.589 -14.702  22.566  1.00  0.00     0.055 A 
ATOM    101  C   UNL     1       2.479 -14.242  23.621  1.00  0.00     0.041 A 
ATOM    102  F   UNL     1       0.936 -12.825  22.577  1.00  0.00    -0.206 F 
ATOM    103  C   UNL     1       3.695 -14.919  23.616  1.00  0.00     0.022 A 
BRANCH 100 104
ATOM    104  S   UNL     1       6.082 -15.723  22.419  1.00  0.00     0.124 S 
ATOM    105  O   UNL     1       5.899 -16.339  21.108  1.00  0.00    -0.237 OA
ATOM    106  O   UNL     1       7.148 -14.731  22.513  1.00  0.00    -0.237 OA
ATOM    107  O   UNL     1       5.984 -16.638  23.554  1.00  0.00    -0.744 OA
ENDBRANCH 100 104
ENDBRANCH  74  97
ENDBRANCH  48  49
ENDBRANCH  40  43
ENDBRANCH  38  39
ENDBRANCH   1  38
TORSDOF 18
