REMARK SMILES O=C1C[C@@H](C(=O)NCCCCNC(=O)c2ccc(-c3c4nc(c(-c5cc(S(=O)(=O)[O-])ccc5F)c5ccc([nH]5)c(-c5cc(S(=O)(=O)[O-])ccc5F)c5nc(c(-c6cc(S(=O)(=O)[O-])ccc6F)c6ccc3[nH]6)C=C5)C=C4)cc2)C2(CC[NH+](Cc3c[nH]nc3-c3ccc(Cl)cc3)CC2)N1
REMARK SMILES IDX 9 1 8 2 7 3 5 4 6 5 4 7 1 8 2 9 3 10 97 11 78 12 79 14 96 15
REMARK SMILES IDX 80 16 95 17 81 18 82 20 83 21 84 22 87 23 85 24 86 25 88 27
REMARK SMILES IDX 89 28 94 29 90 30 93 31 91 32 92 33 10 34 11 35 12 36 13 37
REMARK SMILES IDX 14 39 15 40 16 41 77 42 17 43 76 44 18 45 19 46 20 47 70 48
REMARK SMILES IDX 21 49 75 50 69 51 71 52 22 53 74 54 68 55 67 56 23 58 55 59
REMARK SMILES IDX 35 60 54 61 36 62 39 63 53 64 72 65 37 66 38 67 52 69 73 70
REMARK SMILES IDX 40 71 24 72 25 73 33 74 26 75 32 76 34 77 31 78 27 79 28 80
REMARK SMILES IDX 29 81 30 82 56 83 57 84 65 85 58 86 64 87 66 88 63 89 59 90
REMARK SMILES IDX 60 91 61 92 62 93 41 94 42 95 50 96 43 97 49 98 51 99 48 100
REMARK SMILES IDX 44 101 45 102 46 103 47 104
REMARK H PARENT 7 6 97 13 81 19 85 26 12 38 71 57 39 68
REMARK Flexibility Score: inf
ROOT
ATOM      1  C   UNL     1       1.713   3.368  -0.659  1.00  0.00     0.023 C 
ENDROOT
BRANCH   1   2
ATOM      2  C   UNL     1       1.638   2.023  -1.386  1.00  0.00     0.116 C 
BRANCH   2   3
ATOM      3  N   UNL     1       2.667   1.829  -2.395  1.00  0.00    -0.356 N 
ATOM      4  C   UNL     1       3.756   1.019  -2.473  1.00  0.00     0.226 C 
ATOM      5  O   UNL     1       4.424   1.091  -3.511  1.00  0.00    -0.275 OA
ATOM      6  H   UNL     1       2.552   2.404  -3.186  1.00  0.00     0.163 HD
BRANCH   4   7
ATOM      7  C   UNL     1       4.230   0.071  -1.365  1.00  0.00     0.114 C 
ATOM      8  O   UNL     1       1.752  -1.101   0.931  1.00  0.00    -0.275 OA
ATOM      9  C   UNL     1       2.685  -0.604   0.331  1.00  0.00     0.221 C 
ATOM     10  C   UNL     1       3.196  -1.010  -1.026  1.00  0.00     0.116 C 
ATOM     11  N   UNL     1       3.438   0.460   0.778  1.00  0.00    -0.349 N 
ATOM     12  C   UNL     1       4.638   0.697  -0.013  1.00  0.00     0.063 C 
ATOM     13  H   UNL     1       3.190   1.007   1.558  1.00  0.00     0.164 HD
ATOM     14  C   UNL     1       4.968   2.195  -0.098  1.00  0.00     0.091 C 
ATOM     15  C   UNL     1       5.760  -0.126   0.689  1.00  0.00     0.091 C 
ATOM     16  C   UNL     1       6.436   2.508  -0.318  1.00  0.00     0.264 C 
ATOM     17  C   UNL     1       7.176   0.445   0.627  1.00  0.00     0.264 C 
ATOM     18  N   UNL     1       7.278   1.892   0.684  1.00  0.00    -0.331 N 
ATOM     19  H   UNL     1       8.249   2.076   0.431  1.00  0.00     0.348 HD
BRANCH  18  20
ATOM     20  C   UNL     1       7.367   2.567   1.988  1.00  0.00     0.303 C 
BRANCH  20  21
ATOM     21  C   UNL     1       6.125   2.563   2.828  1.00  0.00     0.052 A 
ATOM     22  C   UNL     1       5.649   1.514   3.594  1.00  0.00     0.115 A 
ATOM     23  C   UNL     1       5.229   3.647   3.153  1.00  0.00     0.101 A 
ATOM     24  N   UNL     1       4.485   1.929   4.157  1.00  0.00    -0.285 N 
ATOM     25  N   UNL     1       4.213   3.212   3.919  1.00  0.00    -0.175 NA
ATOM     26  H   UNL     1       3.901   1.342   4.688  1.00  0.00     0.189 HD
BRANCH  23  27
ATOM     27  C   UNL     1       5.306   5.074   2.831  1.00  0.00     0.003 A 
ATOM     28  C   UNL     1       5.303   6.001   3.885  1.00  0.00     0.012 A 
ATOM     29  C   UNL     1       5.341   5.556   1.519  1.00  0.00     0.012 A 
ATOM     30  C   UNL     1       5.378   7.374   3.635  1.00  0.00     0.021 A 
ATOM     31  C   UNL     1       5.424   6.930   1.263  1.00  0.00     0.021 A 
ATOM     32  C   UNL     1       5.450   7.832   2.323  1.00  0.00     0.041 A 
ATOM     33  Cl  UNL     1       5.568   9.518   2.012  1.00  0.00    -0.084 Cl
ENDBRANCH  23  27
ENDBRANCH  20  21
ENDBRANCH  18  20
ENDBRANCH   4   7
ENDBRANCH   2   3
ENDBRANCH   1   2
BRANCH   1  34
ATOM     34  C   UNL     1       1.349   4.572  -1.520  1.00  0.00     0.023 C 
BRANCH  34  35
ATOM     35  C   UNL     1      -0.013   4.461  -2.187  1.00  0.00     0.116 C 
BRANCH  35  36
ATOM     36  N   UNL     1      -1.086   4.192  -1.237  1.00  0.00    -0.352 N 
ATOM     37  C   UNL     1      -2.312   4.806  -1.140  1.00  0.00     0.251 C 
ATOM     38  H   UNL     1      -0.910   3.480  -0.581  1.00  0.00     0.163 HD
ATOM     39  O   UNL     1      -3.054   4.579  -0.192  1.00  0.00    -0.269 OA
BRANCH  37  40
ATOM     40  C   UNL     1      -2.685   5.774  -2.187  1.00  0.00     0.039 A 
ATOM     41  C   UNL     1      -3.071   7.061  -1.815  1.00  0.00     0.014 A 
ATOM     42  C   UNL     1      -2.529   5.431  -3.533  1.00  0.00     0.014 A 
ATOM     43  C   UNL     1      -3.219   8.036  -2.800  1.00  0.00     0.010 A 
ATOM     44  C   UNL     1      -2.582   6.425  -4.498  1.00  0.00     0.010 A 
ATOM     45  C   UNL     1      -2.922   7.739  -4.141  1.00  0.00    -0.014 A 
BRANCH  45  46
ATOM     46  C   UNL     1      -2.954   8.789  -5.191  1.00  0.00     0.031 A 
ATOM     47  C   UNL     1      -3.905   8.655  -6.347  1.00  0.00     0.074 A 
ATOM     48  C   UNL     1      -2.077   9.813  -5.138  1.00  0.00     0.049 A 
ATOM     49  N   UNL     1      -4.021   9.405  -7.412  1.00  0.00    -0.248 NA
ATOM     50  C   UNL     1      -4.824   7.507  -6.317  1.00  0.00     0.031 C 
ATOM     51  C   UNL     1      -1.079  10.020  -4.085  1.00  0.00     0.029 A 
ATOM     52  N   UNL     1      -1.873  10.866  -5.994  1.00  0.00    -0.354 N 
ATOM     53  C   UNL     1      -5.013   8.812  -8.184  1.00  0.00     0.074 A 
ATOM     54  C   UNL     1      -5.420   7.607  -7.495  1.00  0.00     0.031 C 
ATOM     55  C   UNL     1      -0.390  11.142  -4.344  1.00  0.00     0.029 A 
ATOM     56  C   UNL     1      -0.852  11.705  -5.609  1.00  0.00     0.049 A 
ATOM     57  H   UNL     1      -2.409  11.009  -6.808  1.00  0.00     0.167 HD
ATOM     58  C   UNL     1      -5.549   9.247  -9.350  1.00  0.00     0.034 A 
ATOM     59  C   UNL     1      -0.332  12.790  -6.217  1.00  0.00     0.034 A 
ATOM     60  C   UNL     1      -5.137  10.459 -10.013  1.00  0.00     0.049 A 
ATOM     61  C   UNL     1      -0.925  13.234  -7.532  1.00  0.00     0.074 A 
ATOM     62  C   UNL     1      -5.656  11.028 -11.162  1.00  0.00     0.029 A 
ATOM     63  N   UNL     1      -4.098  11.283  -9.596  1.00  0.00    -0.354 N 
ATOM     64  N   UNL     1      -1.908  12.697  -8.218  1.00  0.00    -0.248 NA
ATOM     65  C   UNL     1      -0.346  14.434  -8.149  1.00  0.00     0.031 C 
ATOM     66  C   UNL     1      -4.879  12.144 -11.486  1.00  0.00     0.029 A 
ATOM     67  C   UNL     1      -3.934  12.329 -10.489  1.00  0.00     0.049 A 
ATOM     68  H   UNL     1      -3.559  11.143  -8.784  1.00  0.00     0.167 HD
ATOM     69  C   UNL     1      -2.082  13.513  -9.333  1.00  0.00     0.074 A 
ATOM     70  C   UNL     1      -1.119  14.588  -9.213  1.00  0.00     0.031 C 
ATOM     71  C   UNL     1      -2.959  13.388 -10.362  1.00  0.00     0.034 A 
BRANCH  58  72
ATOM     72  C   UNL     1      -6.613   8.392  -9.994  1.00  0.00     0.023 A 
ATOM     73  C   UNL     1      -7.845   8.140  -9.365  1.00  0.00     0.031 A 
ATOM     74  C   UNL     1      -6.388   7.812 -11.255  1.00  0.00     0.131 A 
ATOM     75  C   UNL     1      -8.776   7.280  -9.967  1.00  0.00     0.055 A 
ATOM     76  C   UNL     1      -7.352   7.025 -11.887  1.00  0.00     0.041 A 
ATOM     77  F   UNL     1      -5.221   7.994 -11.893  1.00  0.00    -0.206 F 
ATOM     78  C   UNL     1      -8.550   6.744 -11.237  1.00  0.00     0.022 A 
BRANCH  75  79
ATOM     79  S   UNL     1     -10.226   6.763  -9.008  1.00  0.00     0.124 S 
ATOM     80  O   UNL     1      -9.602   6.130  -7.849  1.00  0.00    -0.237 OA
ATOM     81  O   UNL     1     -10.906   8.028  -8.758  1.00  0.00    -0.237 OA
ATOM     82  O   UNL     1     -10.923   5.846  -9.909  1.00  0.00    -0.744 OA
ENDBRANCH  75  79
ENDBRANCH  58  72
BRANCH  59  83
ATOM     83  C   UNL     1       0.827  13.518  -5.619  1.00  0.00     0.023 A 
ATOM     84  C   UNL     1       0.720  14.865  -5.237  1.00  0.00     0.031 A 
ATOM     85  C   UNL     1       2.079  12.893  -5.476  1.00  0.00     0.131 A 
ATOM     86  C   UNL     1       1.856  15.559  -4.790  1.00  0.00     0.055 A 
ATOM     87  C   UNL     1       3.190  13.570  -4.968  1.00  0.00     0.041 A 
ATOM     88  F   UNL     1       2.241  11.607  -5.825  1.00  0.00    -0.206 F 
ATOM     89  C   UNL     1       3.086  14.916  -4.638  1.00  0.00     0.022 A 
BRANCH  86  90
ATOM     90  S   UNL     1       1.728  17.349  -4.520  1.00  0.00     0.124 S 
ATOM     91  O   UNL     1       1.267  17.812  -5.824  1.00  0.00    -0.237 OA
ATOM     92  O   UNL     1       0.758  17.422  -3.433  1.00  0.00    -0.237 OA
ATOM     93  O   UNL     1       3.092  17.737  -4.165  1.00  0.00    -0.744 OA
ENDBRANCH  86  90
ENDBRANCH  59  83
BRANCH  71  94
ATOM     94  C   UNL     1      -2.942  14.469 -11.416  1.00  0.00     0.023 A 
ATOM     95  C   UNL     1      -1.831  14.670 -12.253  1.00  0.00     0.031 A 
ATOM     96  C   UNL     1      -4.053  15.315 -11.580  1.00  0.00     0.131 A 
ATOM     97  C   UNL     1      -1.831  15.729 -13.173  1.00  0.00     0.055 A 
ATOM     98  C   UNL     1      -4.077  16.321 -12.546  1.00  0.00     0.041 A 
ATOM     99  F   UNL     1      -5.141  15.173 -10.805  1.00  0.00    -0.206 F 
ATOM    100  C   UNL     1      -2.955  16.542 -13.340  1.00  0.00     0.022 A 
BRANCH  97 101
ATOM    101  S   UNL     1      -0.303  16.096 -14.078  1.00  0.00     0.124 S 
ATOM    102  O   UNL     1       0.640  16.343 -12.992  1.00  0.00    -0.237 OA
ATOM    103  O   UNL     1      -0.090  14.871 -14.842  1.00  0.00    -0.237 OA
ATOM    104  O   UNL     1      -0.651  17.271 -14.876  1.00  0.00    -0.744 OA
ENDBRANCH  97 101
ENDBRANCH  71  94
ENDBRANCH  45  46
ENDBRANCH  37  40
ENDBRANCH  35  36
ENDBRANCH  34  35
ENDBRANCH   1  34
TORSDOF 17
