REMARK SMILES Cc1cc([C@@H]([NH3+])C[C@H](C)CC(=O)NCCCCNC(=O)c2ccc(-c3c4nc(c(-c5cc(S(=O)(=O)[O-])ccc5F)c5ccc([nH]5)c(-c5cc(S(=O)(=O)[O-])ccc5F)c5nc(c(-c6cc(S(=O)(=O)[O-])ccc6F)c6ccc3[nH]6)C=C5)C=C4)cc2)ccc1F
REMARK SMILES IDX 15 1 14 2 13 3 11 4 12 5 10 7 8 8 9 9 7 10 5 11 4 12 1 13
REMARK SMILES IDX 2 14 3 15 86 16 85 17 87 18 84 19 6 20 16 24 17 25 18 26
REMARK SMILES IDX 19 27 20 29 21 30 22 31 83 32 23 33 82 34 24 35 25 36 26 37
REMARK SMILES IDX 76 38 27 39 81 40 75 41 77 42 28 43 80 44 74 45 73 46 29 48
REMARK SMILES IDX 61 49 41 50 60 51 42 52 45 53 59 54 78 55 43 56 44 57 58 59
REMARK SMILES IDX 79 60 46 61 30 62 31 63 39 64 32 65 38 66 40 67 37 68 33 69
REMARK SMILES IDX 34 70 35 71 36 72 62 73 63 74 71 75 64 76 70 77 72 78 69 79
REMARK SMILES IDX 65 80 66 81 67 82 68 83 47 84 48 85 56 86 49 87 55 88 57 89
REMARK SMILES IDX 54 90 50 91 51 92 52 93 53 94
REMARK H PARENT 13 6 6 21 6 22 6 23 18 28 77 47 45 58
REMARK Flexibility Score: inf
ROOT
ATOM      1  C   UNL     1      -4.766  -1.597   0.738  1.00  0.00     0.023 C 
ENDROOT
BRANCH   1   2
ATOM      2  C   UNL     1      -5.657  -1.462   1.978  1.00  0.00     0.116 C 
BRANCH   2   3
ATOM      3  N   UNL     1      -4.882  -1.606   3.197  1.00  0.00    -0.356 N 
ATOM      4  C   UNL     1      -4.260  -0.665   3.962  1.00  0.00     0.220 C 
ATOM      5  O   UNL     1      -3.590  -1.048   4.924  1.00  0.00    -0.275 OA
ATOM      6  H   UNL     1      -4.792  -2.530   3.523  1.00  0.00     0.163 HD
BRANCH   4   7
ATOM      7  C   UNL     1      -4.413   0.830   3.681  1.00  0.00     0.103 C 
BRANCH   7   8
ATOM      8  C   UNL     1      -3.829   1.292   2.330  1.00  0.00     0.001 C 
ATOM      9  C   UNL     1      -4.950   1.764   1.383  1.00  0.00     0.008 C 
BRANCH   8  10
ATOM     10  C   UNL     1      -2.740   2.393   2.446  1.00  0.00     0.074 C 
BRANCH  10  11
ATOM     11  C   UNL     1      -1.638   2.299   1.349  1.00  0.00     0.212 C 
BRANCH  11  12
ATOM     12  C   UNL     1      -2.163   2.128  -0.067  1.00  0.00     0.010 A 
ATOM     13  C   UNL     1      -2.855  -0.759  -2.483  1.00  0.00     0.047 C 
ATOM     14  C   UNL     1      -2.788   0.615  -1.889  1.00  0.00    -0.015 A 
ATOM     15  C   UNL     1      -2.164   0.847  -0.656  1.00  0.00     0.016 A 
ATOM     16  C   UNL     1      -3.380   1.690  -2.550  1.00  0.00     0.126 A 
ATOM     17  C   UNL     1      -3.355   2.972  -2.010  1.00  0.00     0.040 A 
ATOM     18  F   UNL     1      -4.002   1.493  -3.721  1.00  0.00    -0.207 F 
ATOM     19  C   UNL     1      -2.746   3.192  -0.773  1.00  0.00     0.013 A 
ENDBRANCH  11  12
BRANCH  11  20
ATOM     20  N   UNL     1      -0.758   3.471   1.445  1.00  0.00    -0.351 N 
ATOM     21  H   UNL     1      -1.296   4.317   1.255  1.00  0.00     0.345 HD
ATOM     22  H   UNL     1      -0.005   3.387   0.762  1.00  0.00     0.345 HD
ATOM     23  H   UNL     1      -0.362   3.524   2.383  1.00  0.00     0.345 HD
ENDBRANCH  11  20
ENDBRANCH  10  11
ENDBRANCH   8  10
ENDBRANCH   7   8
ENDBRANCH   4   7
ENDBRANCH   2   3
ENDBRANCH   1   2
BRANCH   1  24
ATOM     24  C   UNL     1      -4.649  -3.010   0.167  1.00  0.00     0.023 C 
BRANCH  24  25
ATOM     25  C   UNL     1      -5.906  -3.437  -0.565  1.00  0.00     0.116 C 
BRANCH  25  26
ATOM     26  N   UNL     1      -6.191  -2.585  -1.719  1.00  0.00    -0.352 N 
ATOM     27  C   UNL     1      -7.200  -2.749  -2.648  1.00  0.00     0.251 C 
ATOM     28  H   UNL     1      -5.599  -1.810  -1.848  1.00  0.00     0.163 HD
ATOM     29  O   UNL     1      -7.286  -2.051  -3.634  1.00  0.00    -0.269 OA
BRANCH  27  30
ATOM     30  C   UNL     1      -8.217  -3.737  -2.283  1.00  0.00     0.039 A 
ATOM     31  C   UNL     1      -8.399  -4.927  -2.991  1.00  0.00     0.014 A 
ATOM     32  C   UNL     1      -8.849  -3.481  -1.071  1.00  0.00     0.014 A 
ATOM     33  C   UNL     1      -9.235  -5.902  -2.454  1.00  0.00     0.010 A 
ATOM     34  C   UNL     1      -9.535  -4.494  -0.479  1.00  0.00     0.010 A 
ATOM     35  C   UNL     1      -9.785  -5.675  -1.196  1.00  0.00    -0.014 A 
BRANCH  35  36
ATOM     36  C   UNL     1     -10.710  -6.555  -0.510  1.00  0.00     0.031 A 
ATOM     37  C   UNL     1     -10.271  -7.857   0.015  1.00  0.00     0.074 A 
ATOM     38  C   UNL     1     -11.864  -5.939  -0.165  1.00  0.00     0.049 A 
ATOM     39  N   UNL     1     -11.080  -8.764   0.429  1.00  0.00    -0.248 NA
ATOM     40  C   UNL     1      -8.868  -8.258   0.118  1.00  0.00     0.031 C 
ATOM     41  C   UNL     1     -12.815  -6.251   0.882  1.00  0.00     0.029 A 
ATOM     42  N   UNL     1     -12.445  -4.840  -0.819  1.00  0.00    -0.354 N 
ATOM     43  C   UNL     1     -10.339  -9.677   1.153  1.00  0.00     0.074 A 
ATOM     44  C   UNL     1      -8.964  -9.401   0.814  1.00  0.00     0.031 C 
ATOM     45  C   UNL     1     -13.966  -5.601   0.621  1.00  0.00     0.029 A 
ATOM     46  C   UNL     1     -13.823  -4.998  -0.700  1.00  0.00     0.049 A 
ATOM     47  H   UNL     1     -11.972  -4.106  -1.272  1.00  0.00     0.167 HD
ATOM     48  C   UNL     1     -10.979 -10.422   2.101  1.00  0.00     0.034 A 
ATOM     49  C   UNL     1     -14.595  -5.279  -1.793  1.00  0.00     0.034 A 
ATOM     50  C   UNL     1     -12.412 -10.113   2.075  1.00  0.00     0.049 A 
ATOM     51  C   UNL     1     -15.221  -6.645  -1.639  1.00  0.00     0.074 A 
ATOM     52  C   UNL     1     -13.174  -9.232   2.824  1.00  0.00     0.029 A 
ATOM     53  N   UNL     1     -13.165 -10.430   0.950  1.00  0.00    -0.354 N 
ATOM     54  N   UNL     1     -14.676  -7.621  -0.964  1.00  0.00    -0.248 NA
ATOM     55  C   UNL     1     -16.543  -6.982  -2.150  1.00  0.00     0.031 C 
ATOM     56  C   UNL     1     -14.359  -8.953   2.094  1.00  0.00     0.029 A 
ATOM     57  C   UNL     1     -14.324  -9.672   0.910  1.00  0.00     0.049 A 
ATOM     58  H   UNL     1     -12.910 -11.101   0.275  1.00  0.00     0.167 HD
ATOM     59  C   UNL     1     -15.552  -8.671  -0.890  1.00  0.00     0.074 A 
ATOM     60  C   UNL     1     -16.701  -8.223  -1.658  1.00  0.00     0.031 C 
ATOM     61  C   UNL     1     -15.286  -9.810  -0.183  1.00  0.00     0.034 A 
BRANCH  48  62
ATOM     62  C   UNL     1     -10.306 -11.174   3.240  1.00  0.00     0.023 A 
ATOM     63  C   UNL     1      -8.959 -11.601   3.248  1.00  0.00     0.031 A 
ATOM     64  C   UNL     1     -11.030 -11.457   4.425  1.00  0.00     0.131 A 
ATOM     65  C   UNL     1      -8.383 -12.203   4.391  1.00  0.00     0.055 A 
ATOM     66  C   UNL     1     -10.465 -12.078   5.546  1.00  0.00     0.041 A 
ATOM     67  F   UNL     1     -12.317 -11.110   4.567  1.00  0.00    -0.206 F 
ATOM     68  C   UNL     1      -9.132 -12.443   5.540  1.00  0.00     0.022 A 
BRANCH  65  69
ATOM     69  S   UNL     1      -6.620 -12.646   4.455  1.00  0.00     0.124 S 
ATOM     70  O   UNL     1      -6.159 -11.919   5.637  1.00  0.00    -0.237 OA
ATOM     71  O   UNL     1      -6.664 -14.098   4.598  1.00  0.00    -0.237 OA
ATOM     72  O   UNL     1      -6.089 -12.152   3.187  1.00  0.00    -0.744 OA
ENDBRANCH  65  69
ENDBRANCH  48  62
BRANCH  49  73
ATOM     73  C   UNL     1     -14.075  -4.678  -3.064  1.00  0.00     0.023 A 
ATOM     74  C   UNL     1     -13.220  -5.384  -3.933  1.00  0.00     0.031 A 
ATOM     75  C   UNL     1     -14.074  -3.266  -3.144  1.00  0.00     0.131 A 
ATOM     76  C   UNL     1     -12.316  -4.669  -4.747  1.00  0.00     0.055 A 
ATOM     77  C   UNL     1     -13.147  -2.567  -3.921  1.00  0.00     0.041 A 
ATOM     78  F   UNL     1     -14.895  -2.547  -2.360  1.00  0.00    -0.206 F 
ATOM     79  C   UNL     1     -12.235  -3.271  -4.697  1.00  0.00     0.022 A 
BRANCH  76  80
ATOM     80  S   UNL     1     -11.129  -5.540  -5.817  1.00  0.00     0.124 S 
ATOM     81  O   UNL     1     -11.805  -5.480  -7.109  1.00  0.00    -0.237 OA
ATOM     82  O   UNL     1      -9.924  -4.722  -5.709  1.00  0.00    -0.237 OA
ATOM     83  O   UNL     1     -11.032  -6.860  -5.207  1.00  0.00    -0.744 OA
ENDBRANCH  76  80
ENDBRANCH  49  73
BRANCH  61  84
ATOM     84  C   UNL     1     -15.976 -11.145  -0.363  1.00  0.00     0.023 A 
ATOM     85  C   UNL     1     -15.691 -12.184   0.558  1.00  0.00     0.031 A 
ATOM     86  C   UNL     1     -16.746 -11.513  -1.478  1.00  0.00     0.131 A 
ATOM     87  C   UNL     1     -16.124 -13.497   0.340  1.00  0.00     0.055 A 
ATOM     88  C   UNL     1     -17.268 -12.800  -1.639  1.00  0.00     0.041 A 
ATOM     89  F   UNL     1     -16.971 -10.674  -2.498  1.00  0.00    -0.206 F 
ATOM     90  C   UNL     1     -16.942 -13.804  -0.739  1.00  0.00     0.022 A 
BRANCH  87  91
ATOM     91  S   UNL     1     -15.476 -14.861   1.346  1.00  0.00     0.124 S 
ATOM     92  O   UNL     1     -16.624 -15.178   2.191  1.00  0.00    -0.237 OA
ATOM     93  O   UNL     1     -15.150 -15.862   0.331  1.00  0.00    -0.237 OA
ATOM     94  O   UNL     1     -14.327 -14.276   2.026  1.00  0.00    -0.744 OA
ENDBRANCH  87  91
ENDBRANCH  61  84
ENDBRANCH  35  36
ENDBRANCH  27  30
ENDBRANCH  25  26
ENDBRANCH  24  25
ENDBRANCH   1  24
TORSDOF 19
