REMARK SMILES COc1cc(OC)c(-c2cc(C(=O)NCCCCNC(=O)c3ccc(-c4c5nc(c(-c6cc(S(=O)(=O)[O-])ccc6F)c6ccc([nH]6)c(-c6cc(S(=O)(=O)[O-])ccc6F)c6nc(c(-c7cc(S(=O)(=O)[O-])ccc7F)c7ccc4[nH]7)C=C6)C=C5)cc3)c3c(-c4ccc(Cl)cc4)[nH]nc3n2)cc1OC
REMARK SMILES IDX 17 1 16 2 15 3 14 4 12 5 13 6 11 8 9 9 10 10 97 11 96 12
REMARK SMILES IDX 85 13 95 14 86 15 94 16 8 18 3 19 4 20 99 21 5 22 98 23 2 24
REMARK SMILES IDX 1 25 100 26 101 27 6 28 7 29 87 30 88 31 93 32 89 33 92 34
REMARK SMILES IDX 90 35 91 36 18 37 19 38 20 39 21 41 22 42 23 43 84 44 24 45
REMARK SMILES IDX 83 46 25 47 26 48 27 49 77 50 28 51 82 52 76 53 78 54 29 55
REMARK SMILES IDX 81 56 75 57 74 58 30 60 62 61 42 62 61 63 43 64 46 65 60 66
REMARK SMILES IDX 79 67 44 68 45 69 59 71 80 72 47 73 31 74 32 75 40 76 33 77
REMARK SMILES IDX 39 78 41 79 38 80 34 81 35 82 36 83 37 84 63 85 64 86 72 87
REMARK SMILES IDX 65 88 71 89 73 90 70 91 66 92 67 93 68 94 69 95 48 96 49 97
REMARK SMILES IDX 57 98 50 99 56 100 58 101 55 102 51 103 52 104 53 105 54 106
REMARK H PARENT 14 7 94 17 19 40 78 59 46 70
REMARK Flexibility Score: inf
ROOT
ATOM      1  C   UNL     1       5.006   4.479  -7.424  1.00  0.00     0.023 C 
ENDROOT
BRANCH   1   2
ATOM      2  C   UNL     1       4.267   4.489  -6.075  1.00  0.00     0.023 C 
BRANCH   2   3
ATOM      3  C   UNL     1       5.104   4.996  -4.902  1.00  0.00     0.116 C 
BRANCH   3   4
ATOM      4  N   UNL     1       5.285   6.434  -4.932  1.00  0.00    -0.352 N 
ATOM      5  C   UNL     1       4.764   7.510  -4.263  1.00  0.00     0.252 C 
ATOM      6  O   UNL     1       5.391   8.550  -4.437  1.00  0.00    -0.269 OA
ATOM      7  H   UNL     1       5.951   6.706  -5.603  1.00  0.00     0.163 HD
BRANCH   5   8
ATOM      8  C   UNL     1       3.592   7.474  -3.355  1.00  0.00     0.055 A 
ATOM      9  C   UNL     1       1.946   6.195  -1.988  1.00  0.00     0.077 A 
ATOM     10  C   UNL     1       2.904   6.303  -3.030  1.00  0.00     0.043 A 
ATOM     11  N   UNL     1       1.474   7.222  -1.242  1.00  0.00    -0.226 NA
ATOM     12  C   UNL     1       2.002   8.417  -1.617  1.00  0.00     0.182 A 
ATOM     13  C   UNL     1       3.020   8.547  -2.638  1.00  0.00     0.059 A 
ATOM     14  N   UNL     1       1.638   9.599  -1.120  1.00  0.00    -0.154 NA
ATOM     15  C   UNL     1       3.223   9.917  -2.747  1.00  0.00     0.075 A 
ATOM     16  N   UNL     1       2.396  10.472  -1.798  1.00  0.00    -0.275 N 
ATOM     17  H   UNL     1       2.363  11.441  -1.629  1.00  0.00     0.190 HD
BRANCH   9  18
ATOM     18  C   UNL     1       1.470   4.836  -1.677  1.00  0.00     0.046 A 
ATOM     19  C   UNL     1       0.938   2.073  -1.302  1.00  0.00     0.164 A 
ATOM     20  C   UNL     1      -0.052   2.950  -1.779  1.00  0.00     0.097 A 
ATOM     21  C   UNL     1       2.206   2.563  -1.005  1.00  0.00     0.161 A 
ATOM     22  C   UNL     1       0.210   4.316  -2.002  1.00  0.00     0.132 A 
ATOM     23  C   UNL     1       2.434   3.937  -1.157  1.00  0.00     0.064 A 
BRANCH  19  24
ATOM     24  O   UNL     1       0.641   0.738  -1.316  1.00  0.00    -0.493 OA
ATOM     25  C   UNL     1       0.091   0.292  -0.077  1.00  0.00     0.278 C 
ENDBRANCH  19  24
BRANCH  21  26
ATOM     26  O   UNL     1       3.341   1.899  -0.641  1.00  0.00    -0.493 OA
ATOM     27  C   UNL     1       3.283   0.530  -0.287  1.00  0.00     0.278 C 
ENDBRANCH  21  26
BRANCH  22  28
ATOM     28  O   UNL     1      -0.853   4.987  -2.552  1.00  0.00    -0.496 OA
ATOM     29  C   UNL     1      -0.561   5.968  -3.542  1.00  0.00     0.278 C 
ENDBRANCH  22  28
ENDBRANCH   9  18
BRANCH  15  30
ATOM     30  C   UNL     1       4.020  10.779  -3.612  1.00  0.00     0.000 A 
ATOM     31  C   UNL     1       5.072  11.534  -3.074  1.00  0.00     0.012 A 
ATOM     32  C   UNL     1       3.784  10.817  -4.994  1.00  0.00     0.012 A 
ATOM     33  C   UNL     1       5.916  12.264  -3.915  1.00  0.00     0.021 A 
ATOM     34  C   UNL     1       4.638  11.535  -5.835  1.00  0.00     0.021 A 
ATOM     35  C   UNL     1       5.707  12.245  -5.293  1.00  0.00     0.041 A 
ATOM     36  Cl  UNL     1       6.786  13.089  -6.335  1.00  0.00    -0.084 Cl
ENDBRANCH  15  30
ENDBRANCH   5   8
ENDBRANCH   3   4
ENDBRANCH   2   3
ENDBRANCH   1   2
BRANCH   1  37
ATOM     37  C   UNL     1       6.306   3.672  -7.455  1.00  0.00     0.116 C 
BRANCH  37  38
ATOM     38  N   UNL     1       6.114   2.275  -7.086  1.00  0.00    -0.352 N 
ATOM     39  C   UNL     1       7.083   1.333  -6.787  1.00  0.00     0.251 C 
ATOM     40  H   UNL     1       5.181   1.964  -7.044  1.00  0.00     0.163 HD
ATOM     41  O   UNL     1       6.844   0.145  -6.952  1.00  0.00    -0.269 OA
BRANCH  39  42
ATOM     42  C   UNL     1       8.395   1.773  -6.261  1.00  0.00     0.039 A 
ATOM     43  C   UNL     1       9.574   1.162  -6.682  1.00  0.00     0.014 A 
ATOM     44  C   UNL     1       8.442   2.802  -5.319  1.00  0.00     0.014 A 
ATOM     45  C   UNL     1      10.792   1.660  -6.218  1.00  0.00     0.010 A 
ATOM     46  C   UNL     1       9.646   3.362  -4.933  1.00  0.00     0.010 A 
ATOM     47  C   UNL     1      10.832   2.790  -5.371  1.00  0.00    -0.014 A 
BRANCH  47  48
ATOM     48  C   UNL     1      12.098   3.516  -5.183  1.00  0.00     0.031 A 
ATOM     49  C   UNL     1      12.726   3.834  -6.492  1.00  0.00     0.074 A 
ATOM     50  C   UNL     1      12.583   4.029  -4.025  1.00  0.00     0.049 A 
ATOM     51  N   UNL     1      13.663   3.164  -7.077  1.00  0.00    -0.248 NA
ATOM     52  C   UNL     1      12.081   4.824  -7.376  1.00  0.00     0.031 C 
ATOM     53  C   UNL     1      11.916   4.040  -2.720  1.00  0.00     0.029 A 
ATOM     54  N   UNL     1      13.744   4.719  -3.766  1.00  0.00    -0.354 N 
ATOM     55  C   UNL     1      13.973   3.901  -8.212  1.00  0.00     0.074 A 
ATOM     56  C   UNL     1      12.804   4.684  -8.492  1.00  0.00     0.031 C 
ATOM     57  C   UNL     1      12.563   4.878  -1.876  1.00  0.00     0.029 A 
ATOM     58  C   UNL     1      13.786   5.347  -2.513  1.00  0.00     0.049 A 
ATOM     59  H   UNL     1      14.488   4.767  -4.409  1.00  0.00     0.167 HD
ATOM     60  C   UNL     1      15.284   4.109  -8.524  1.00  0.00     0.034 A 
ATOM     61  C   UNL     1      14.756   6.164  -2.004  1.00  0.00     0.034 A 
ATOM     62  C   UNL     1      16.117   3.202  -7.758  1.00  0.00     0.049 A 
ATOM     63  C   UNL     1      16.016   5.805  -2.687  1.00  0.00     0.074 A 
ATOM     64  C   UNL     1      16.388   1.852  -7.723  1.00  0.00     0.029 A 
ATOM     65  N   UNL     1      16.500   3.719  -6.547  1.00  0.00    -0.354 N 
ATOM     66  N   UNL     1      16.588   4.643  -2.536  1.00  0.00    -0.248 NA
ATOM     67  C   UNL     1      16.460   6.572  -3.844  1.00  0.00     0.031 C 
ATOM     68  C   UNL     1      16.824   1.564  -6.393  1.00  0.00     0.029 A 
ATOM     69  C   UNL     1      16.886   2.749  -5.664  1.00  0.00     0.049 A 
ATOM     70  H   UNL     1      16.497   4.681  -6.337  1.00  0.00     0.167 HD
ATOM     71  C   UNL     1      17.089   4.347  -3.786  1.00  0.00     0.074 A 
ATOM     72  C   UNL     1      17.151   5.626  -4.485  1.00  0.00     0.031 C 
ATOM     73  C   UNL     1      17.061   3.065  -4.256  1.00  0.00     0.034 A 
BRANCH  60  74
ATOM     74  C   UNL     1      15.867   5.434  -9.015  1.00  0.00     0.023 A 
ATOM     75  C   UNL     1      17.272   5.496  -9.140  1.00  0.00     0.031 A 
ATOM     76  C   UNL     1      15.203   6.681  -9.056  1.00  0.00     0.131 A 
ATOM     77  C   UNL     1      17.948   6.729  -9.182  1.00  0.00     0.055 A 
ATOM     78  C   UNL     1      15.878   7.904  -9.139  1.00  0.00     0.041 A 
ATOM     79  F   UNL     1      13.878   6.811  -8.941  1.00  0.00    -0.206 F 
ATOM     80  C   UNL     1      17.259   7.936  -9.173  1.00  0.00     0.022 A 
BRANCH  77  81
ATOM     81  S   UNL     1      19.758   6.730  -9.099  1.00  0.00     0.124 S 
ATOM     82  O   UNL     1      19.993   6.045  -7.834  1.00  0.00    -0.237 OA
ATOM     83  O   UNL     1      20.113   5.997 -10.310  1.00  0.00    -0.237 OA
ATOM     84  O   UNL     1      20.094   8.152  -9.115  1.00  0.00    -0.744 OA
ENDBRANCH  77  81
ENDBRANCH  60  74
BRANCH  61  85
ATOM     85  C   UNL     1      14.646   7.367  -1.119  1.00  0.00     0.023 A 
ATOM     86  C   UNL     1      15.748   7.947  -0.436  1.00  0.00     0.031 A 
ATOM     87  C   UNL     1      13.471   8.146  -1.179  1.00  0.00     0.131 A 
ATOM     88  C   UNL     1      15.650   9.250   0.119  1.00  0.00     0.055 A 
ATOM     89  C   UNL     1      13.385   9.434  -0.642  1.00  0.00     0.041 A 
ATOM     90  F   UNL     1      12.390   7.715  -1.847  1.00  0.00    -0.206 F 
ATOM     91  C   UNL     1      14.479   9.998  -0.005  1.00  0.00     0.022 A 
BRANCH  88  92
ATOM     92  S   UNL     1      17.078  10.054   0.936  1.00  0.00     0.124 S 
ATOM     93  O   UNL     1      17.199   9.293   2.175  1.00  0.00    -0.237 OA
ATOM     94  O   UNL     1      18.145   9.881  -0.041  1.00  0.00    -0.237 OA
ATOM     95  O   UNL     1      16.636  11.439   1.114  1.00  0.00    -0.744 OA
ENDBRANCH  88  92
ENDBRANCH  61  85
BRANCH  73  96
ATOM     96  C   UNL     1      17.149   1.949  -3.245  1.00  0.00     0.023 A 
ATOM     97  C   UNL     1      16.261   1.732  -2.169  1.00  0.00     0.031 A 
ATOM     98  C   UNL     1      18.232   1.062  -3.386  1.00  0.00     0.131 A 
ATOM     99  C   UNL     1      16.492   0.669  -1.272  1.00  0.00     0.055 A 
ATOM    100  C   UNL     1      18.443  -0.001  -2.513  1.00  0.00     0.041 A 
ATOM    101  F   UNL     1      19.114   1.215  -4.388  1.00  0.00    -0.206 F 
ATOM    102  C   UNL     1      17.579  -0.195  -1.444  1.00  0.00     0.022 A 
BRANCH  99 103
ATOM    103  S   UNL     1      15.419   0.421   0.179  1.00  0.00     0.124 S 
ATOM    104  O   UNL     1      15.234   1.767   0.708  1.00  0.00    -0.237 OA
ATOM    105  O   UNL     1      14.235  -0.201  -0.410  1.00  0.00    -0.237 OA
ATOM    106  O   UNL     1      16.207  -0.468   1.036  1.00  0.00    -0.744 OA
ENDBRANCH  99 103
ENDBRANCH  73  96
ENDBRANCH  47  48
ENDBRANCH  39  42
ENDBRANCH  37  38
ENDBRANCH   1  37
TORSDOF 19
