REMARK SMILES CCn1cc(S(=O)(=O)N2CCC(CCc3ccc(C(=O)NCCCCNC(=O)c4ccc(-c5c6nc(c(-c7cc(S(=O)(=O)[O-])ccc7F)c7ccc([nH]7)c(-c7cc(S(=O)(=O)[O-])ccc7F)c7nc(c(-c8cc(S(=O)(=O)[O-])ccc8F)c8ccc5[nH]8)C=C7)C=C6)cc4)cc3)CC2)cn1
REMARK SMILES IDX 22 1 21 2 19 3 20 4 18 6 15 7 16 8 93 9 17 10 92 11 14 12
REMARK SMILES IDX 13 13 12 14 9 15 10 16 95 17 11 18 94 19 6 20 7 21 8 22 5 23
REMARK SMILES IDX 3 24 4 25 97 26 96 27 2 28 1 29 23 30 24 31 25 32 26 33
REMARK SMILES IDX 27 34 28 36 29 37 30 38 91 39 31 40 90 41 32 42 33 43 34 44
REMARK SMILES IDX 84 45 35 46 89 47 83 48 85 49 36 50 88 51 82 52 81 53 37 55
REMARK SMILES IDX 69 56 49 57 68 58 50 59 53 60 67 61 86 62 51 63 52 64 66 66
REMARK SMILES IDX 87 67 54 68 38 69 39 70 47 71 40 72 46 73 48 74 45 75 41 76
REMARK SMILES IDX 42 77 43 78 44 79 70 80 71 81 79 82 72 83 78 84 80 85 77 86
REMARK SMILES IDX 73 87 74 88 75 89 76 90 55 91 56 92 64 93 57 94 63 95 65 96
REMARK SMILES IDX 62 97 58 98 59 99 60 100 61 101
REMARK H PARENT 21 5 26 35 85 54 53 65
REMARK Flexibility Score: inf
ROOT
ATOM      1  C   UNL     1       2.820   2.186  -2.258  1.00  0.00     0.116 C 
ENDROOT
BRANCH   1   2
ATOM      2  N   UNL     1       2.526   3.606  -2.185  1.00  0.00    -0.352 N 
ATOM      3  C   UNL     1       2.667   4.563  -1.210  1.00  0.00     0.251 C 
ATOM      4  O   UNL     1       2.282   5.700  -1.490  1.00  0.00    -0.269 OA
ATOM      5  H   UNL     1       2.141   3.962  -3.019  1.00  0.00     0.163 HD
BRANCH   3   6
ATOM      6  C   UNL     1       3.250   4.327   0.147  1.00  0.00     0.039 A 
ATOM      7  C   UNL     1       4.289   4.076   2.785  1.00  0.00    -0.048 A 
ATOM      8  C   UNL     1       4.113   5.337   2.210  1.00  0.00     0.004 A 
ATOM      9  C   UNL     1       4.009   2.957   1.997  1.00  0.00     0.004 A 
ATOM     10  C   UNL     1       3.617   5.457   0.902  1.00  0.00     0.014 A 
ATOM     11  C   UNL     1       3.431   3.079   0.732  1.00  0.00     0.014 A 
BRANCH   7  12
ATOM     12  C   UNL     1       4.755   3.921   4.216  1.00  0.00     0.036 C 
BRANCH  12  13
ATOM     13  C   UNL     1       3.687   3.355   5.184  1.00  0.00     0.008 C 
BRANCH  13  14
ATOM     14  C   UNL     1       3.245   1.900   4.924  1.00  0.00    -0.008 C 
ATOM     15  N   UNL     1       2.781  -0.930   5.417  1.00  0.00    -0.198 NA
ATOM     16  C   UNL     1       3.959  -0.495   4.628  1.00  0.00     0.103 C 
ATOM     17  C   UNL     1       1.650   0.036   5.465  1.00  0.00     0.103 C 
ATOM     18  C   UNL     1       4.405   0.902   5.035  1.00  0.00     0.020 C 
ATOM     19  C   UNL     1       2.128   1.436   5.867  1.00  0.00     0.020 C 
BRANCH  15  20
ATOM     20  S   UNL     1       2.336  -2.572   5.185  1.00  0.00     0.246 S 
ATOM     21  O   UNL     1       1.202  -2.859   6.031  1.00  0.00    -0.207 OA
ATOM     22  O   UNL     1       3.535  -3.385   5.209  1.00  0.00    -0.207 OA
BRANCH  20  23
ATOM     23  C   UNL     1       1.721  -2.794   3.602  1.00  0.00     0.120 A 
ATOM     24  N   UNL     1       0.872  -2.486   1.613  1.00  0.00    -0.272 N 
ATOM     25  C   UNL     1       1.565  -1.860   2.607  1.00  0.00     0.130 A 
ATOM     26  N   UNL     1       0.689  -3.800   1.847  1.00  0.00    -0.180 NA
ATOM     27  C   UNL     1       1.215  -3.985   3.065  1.00  0.00     0.156 A 
BRANCH  24  28
ATOM     28  C   UNL     1       0.256  -1.860   0.456  1.00  0.00     0.141 C 
ATOM     29  C   UNL     1       0.061  -0.358   0.616  1.00  0.00     0.029 C 
ENDBRANCH  24  28
ENDBRANCH  20  23
ENDBRANCH  15  20
ENDBRANCH  13  14
ENDBRANCH  12  13
ENDBRANCH   7  12
ENDBRANCH   3   6
ENDBRANCH   1   2
BRANCH   1  30
ATOM     30  C   UNL     1       1.611   1.350  -1.826  1.00  0.00     0.023 C 
BRANCH  30  31
ATOM     31  C   UNL     1       0.526   1.160  -2.897  1.00  0.00     0.023 C 
BRANCH  31  32
ATOM     32  C   UNL     1       0.896   0.175  -4.001  1.00  0.00     0.116 C 
BRANCH  32  33
ATOM     33  N   UNL     1       1.060  -1.196  -3.517  1.00  0.00    -0.352 N 
ATOM     34  C   UNL     1       1.743  -2.228  -4.139  1.00  0.00     0.251 C 
ATOM     35  H   UNL     1       0.639  -1.409  -2.652  1.00  0.00     0.163 HD
ATOM     36  O   UNL     1       1.470  -3.396  -3.887  1.00  0.00    -0.269 OA
BRANCH  34  37
ATOM     37  C   UNL     1       2.793  -1.876  -5.111  1.00  0.00     0.039 A 
ATOM     38  C   UNL     1       2.826  -2.446  -6.382  1.00  0.00     0.014 A 
ATOM     39  C   UNL     1       3.675  -0.854  -4.759  1.00  0.00     0.014 A 
ATOM     40  C   UNL     1       3.671  -1.883  -7.339  1.00  0.00     0.010 A 
ATOM     41  C   UNL     1       4.410  -0.221  -5.738  1.00  0.00     0.010 A 
ATOM     42  C   UNL     1       4.423  -0.729  -7.033  1.00  0.00    -0.014 A 
BRANCH  42  43
ATOM     43  C   UNL     1       5.051   0.054  -8.109  1.00  0.00     0.031 A 
ATOM     44  C   UNL     1       4.175   0.240  -9.298  1.00  0.00     0.074 A 
ATOM     45  C   UNL     1       6.243   0.693  -8.037  1.00  0.00     0.049 A 
ATOM     46  N   UNL     1       4.248  -0.417 -10.406  1.00  0.00    -0.248 NA
ATOM     47  C   UNL     1       2.971   1.081  -9.195  1.00  0.00     0.031 C 
ATOM     48  C   UNL     1       7.147   0.805  -6.887  1.00  0.00     0.029 A 
ATOM     49  N   UNL     1       6.884   1.442  -8.985  1.00  0.00    -0.354 N 
ATOM     50  C   UNL     1       3.280   0.120 -11.244  1.00  0.00     0.074 A 
ATOM     51  C   UNL     1       2.401   0.869 -10.386  1.00  0.00     0.031 C 
ATOM     52  C   UNL     1       8.103   1.730  -7.134  1.00  0.00     0.029 A 
ATOM     53  C   UNL     1       7.997   2.148  -8.521  1.00  0.00     0.049 A 
ATOM     54  H   UNL     1       6.585   1.480  -9.922  1.00  0.00     0.167 HD
ATOM     55  C   UNL     1       3.457   0.098 -12.595  1.00  0.00     0.034 A 
ATOM     56  C   UNL     1       8.835   2.959  -9.227  1.00  0.00     0.034 A 
ATOM     57  C   UNL     1       4.534  -0.807 -12.947  1.00  0.00     0.049 A 
ATOM     58  C   UNL     1       8.762   2.504 -10.631  1.00  0.00     0.074 A 
ATOM     59  C   UNL     1       4.769  -2.159 -12.795  1.00  0.00     0.029 A 
ATOM     60  N   UNL     1       5.764  -0.239 -13.196  1.00  0.00    -0.354 N 
ATOM     61  N   UNL     1       9.188   1.334 -11.017  1.00  0.00    -0.248 NA
ATOM     62  C   UNL     1       7.809   3.142 -11.523  1.00  0.00     0.031 C 
ATOM     63  C   UNL     1       6.161  -2.263 -12.495  1.00  0.00     0.029 A 
ATOM     64  C   UNL     1       6.727  -0.988 -12.568  1.00  0.00     0.049 A 
ATOM     65  H   UNL     1       5.925   0.569 -13.735  1.00  0.00     0.167 HD
ATOM     66  C   UNL     1       8.234   0.892 -11.917  1.00  0.00     0.074 A 
ATOM     67  C   UNL     1       7.488   2.093 -12.287  1.00  0.00     0.031 C 
ATOM     68  C   UNL     1       7.973  -0.442 -12.056  1.00  0.00     0.034 A 
BRANCH  55  69
ATOM     69  C   UNL     1       2.992   1.172 -13.559  1.00  0.00     0.023 A 
ATOM     70  C   UNL     1       3.356   1.011 -14.913  1.00  0.00     0.031 A 
ATOM     71  C   UNL     1       2.512   2.452 -13.205  1.00  0.00     0.131 A 
ATOM     72  C   UNL     1       3.369   2.103 -15.796  1.00  0.00     0.055 A 
ATOM     73  C   UNL     1       2.467   3.521 -14.106  1.00  0.00     0.041 A 
ATOM     74  F   UNL     1       2.145   2.772 -11.960  1.00  0.00    -0.206 F 
ATOM     75  C   UNL     1       2.932   3.362 -15.400  1.00  0.00     0.022 A 
BRANCH  72  76
ATOM     76  S   UNL     1       4.151   1.887 -17.415  1.00  0.00     0.124 S 
ATOM     77  O   UNL     1       5.480   1.420 -17.035  1.00  0.00    -0.237 OA
ATOM     78  O   UNL     1       3.275   0.903 -18.042  1.00  0.00    -0.237 OA
ATOM     79  O   UNL     1       4.101   3.226 -17.996  1.00  0.00    -0.744 OA
ENDBRANCH  72  76
ENDBRANCH  55  69
BRANCH  56  80
ATOM     80  C   UNL     1       9.459   4.252  -8.827  1.00  0.00     0.023 A 
ATOM     81  C   UNL     1      10.552   4.834  -9.515  1.00  0.00     0.031 A 
ATOM     82  C   UNL     1       8.776   5.083  -7.913  1.00  0.00     0.131 A 
ATOM     83  C   UNL     1      10.902   6.189  -9.290  1.00  0.00     0.055 A 
ATOM     84  C   UNL     1       9.119   6.422  -7.705  1.00  0.00     0.041 A 
ATOM     85  F   UNL     1       7.688   4.643  -7.261  1.00  0.00    -0.206 F 
ATOM     86  C   UNL     1      10.175   6.985  -8.402  1.00  0.00     0.022 A 
BRANCH  83  87
ATOM     87  S   UNL     1      12.260   6.979 -10.224  1.00  0.00     0.124 S 
ATOM     88  O   UNL     1      13.438   6.298  -9.698  1.00  0.00    -0.237 OA
ATOM     89  O   UNL     1      11.904   6.688 -11.608  1.00  0.00    -0.237 OA
ATOM     90  O   UNL     1      12.155   8.391  -9.853  1.00  0.00    -0.744 OA
ENDBRANCH  83  87
ENDBRANCH  56  80
BRANCH  68  91
ATOM     91  C   UNL     1       8.986  -1.422 -11.492  1.00  0.00     0.023 A 
ATOM     92  C   UNL     1       9.399  -1.494 -10.140  1.00  0.00     0.031 A 
ATOM     93  C   UNL     1       9.502  -2.381 -12.380  1.00  0.00     0.131 A 
ATOM     94  C   UNL     1      10.311  -2.491  -9.733  1.00  0.00     0.055 A 
ATOM     95  C   UNL     1      10.382  -3.380 -11.969  1.00  0.00     0.041 A 
ATOM     96  F   UNL     1       9.137  -2.378 -13.673  1.00  0.00    -0.206 F 
ATOM     97  C   UNL     1      10.797  -3.434 -10.645  1.00  0.00     0.022 A 
BRANCH  94  98
ATOM     98  S   UNL     1      10.911  -2.562  -8.012  1.00  0.00     0.124 S 
ATOM     99  O   UNL     1      11.315  -1.189  -7.731  1.00  0.00    -0.237 OA
ATOM    100  O   UNL     1       9.738  -3.042  -7.285  1.00  0.00    -0.237 OA
ATOM    101  O   UNL     1      12.017  -3.520  -8.076  1.00  0.00    -0.744 OA
ENDBRANCH  94  98
ENDBRANCH  68  91
ENDBRANCH  42  43
ENDBRANCH  34  37
ENDBRANCH  32  33
ENDBRANCH  31  32
ENDBRANCH  30  31
ENDBRANCH   1  30
TORSDOF 20
