REMARK SMILES CC[C@H](C(=O)NCCCCNC(=O)c1ccc(-c2c3nc(c(-c4cc(S(=O)(=O)[O-])ccc4F)c4ccc([nH]4)c(-c4cc(S(=O)(=O)[O-])ccc4F)c4nc(c(-c5cc(S(=O)(=O)[O-])ccc5F)c5ccc2[nH]5)C=C4)C=C3)cc1)[N@@H+](C)[C@H]1CC[C@@H]([NH2+]C)CC1
REMARK SMILES IDX 8 1 7 2 6 3 4 4 5 5 3 7 2 8 1 9 77 10 78 11 79 13 86 14
REMARK SMILES IDX 80 15 85 16 81 17 82 18 83 19 84 20 9 23 10 24 11 25 12 26
REMARK SMILES IDX 13 28 14 29 15 30 76 31 16 32 75 33 17 34 18 35 19 36 69 37
REMARK SMILES IDX 20 38 74 39 68 40 70 41 21 42 73 43 67 44 66 45 22 47 54 48
REMARK SMILES IDX 34 49 53 50 35 51 38 52 52 53 71 54 36 55 37 56 51 58 72 59
REMARK SMILES IDX 39 60 23 61 24 62 32 63 25 64 31 65 33 66 30 67 26 68 27 69
REMARK SMILES IDX 28 70 29 71 55 72 56 73 64 74 57 75 63 76 65 77 62 78 58 79
REMARK SMILES IDX 59 80 60 81 61 82 40 83 41 84 49 85 42 86 48 87 50 88 47 89
REMARK SMILES IDX 43 90 44 91 45 92 46 93
REMARK H PARENT 6 6 77 12 83 21 83 22 11 27 70 46 38 57
REMARK Flexibility Score: inf
ROOT
ATOM      1  C   UNL     1       3.188  -1.510   0.150  1.00  0.00     0.023 C 
ENDROOT
BRANCH   1   2
ATOM      2  C   UNL     1       2.148  -0.784  -0.701  1.00  0.00     0.116 C 
BRANCH   2   3
ATOM      3  N   UNL     1       1.370   0.178   0.048  1.00  0.00    -0.351 N 
ATOM      4  C   UNL     1       0.692   1.284  -0.379  1.00  0.00     0.278 C 
ATOM      5  O   UNL     1       0.115   1.931   0.501  1.00  0.00    -0.268 OA
ATOM      6  H   UNL     1       1.321   0.009   1.017  1.00  0.00     0.163 HD
BRANCH   4   7
ATOM      7  C   UNL     1       0.749   1.722  -1.879  1.00  0.00     0.273 C 
BRANCH   7   8
ATOM      8  C   UNL     1       0.351   0.715  -2.984  1.00  0.00     0.072 C 
ATOM      9  C   UNL     1      -0.559  -0.454  -2.629  1.00  0.00     0.011 C 
ENDBRANCH   7   8
BRANCH   7  10
ATOM     10  N   UNL     1       0.172   3.083  -2.058  1.00  0.00    -0.325 N 
ATOM     11  C   UNL     1       0.828   3.847  -3.117  1.00  0.00     0.333 C 
ATOM     12  H   UNL     1       0.419   3.450  -1.139  1.00  0.00     0.348 HD
BRANCH  10  13
ATOM     13  C   UNL     1      -1.285   3.334  -1.982  1.00  0.00     0.184 C 
ATOM     14  C   UNL     1      -2.207   2.160  -1.589  1.00  0.00     0.071 C 
ATOM     15  C   UNL     1      -1.477   4.578  -1.080  1.00  0.00     0.071 C 
ATOM     16  C   UNL     1      -3.632   2.564  -1.224  1.00  0.00     0.071 C 
ATOM     17  C   UNL     1      -2.935   4.881  -0.731  1.00  0.00     0.071 C 
ATOM     18  C   UNL     1      -3.671   3.663  -0.158  1.00  0.00     0.182 C 
BRANCH  18  19
ATOM     19  N   UNL     1      -3.074   3.306   1.134  1.00  0.00    -0.346 N 
ATOM     20  C   UNL     1      -3.699   2.167   1.788  1.00  0.00     0.331 C 
ATOM     21  H   UNL     1      -3.150   4.112   1.755  1.00  0.00     0.346 HD
ATOM     22  H   UNL     1      -2.107   3.041   0.946  1.00  0.00     0.346 HD
ENDBRANCH  18  19
ENDBRANCH  10  13
ENDBRANCH   7  10
ENDBRANCH   4   7
ENDBRANCH   2   3
ENDBRANCH   1   2
BRANCH   1  23
ATOM     23  C   UNL     1       2.640  -2.265   1.365  1.00  0.00     0.023 C 
BRANCH  23  24
ATOM     24  C   UNL     1       1.466  -3.201   1.096  1.00  0.00     0.116 C 
BRANCH  24  25
ATOM     25  N   UNL     1       1.809  -4.294   0.198  1.00  0.00    -0.352 N 
ATOM     26  C   UNL     1       1.768  -5.653   0.427  1.00  0.00     0.251 C 
ATOM     27  H   UNL     1       2.112  -4.025  -0.699  1.00  0.00     0.163 HD
ATOM     28  O   UNL     1       2.228  -6.429  -0.400  1.00  0.00    -0.269 OA
BRANCH  26  29
ATOM     29  C   UNL     1       1.199  -6.157   1.696  1.00  0.00     0.039 A 
ATOM     30  C   UNL     1       1.957  -7.025   2.486  1.00  0.00     0.014 A 
ATOM     31  C   UNL     1      -0.060  -5.730   2.124  1.00  0.00     0.014 A 
ATOM     32  C   UNL     1       1.492  -7.390   3.753  1.00  0.00     0.010 A 
ATOM     33  C   UNL     1      -0.491  -6.043   3.410  1.00  0.00     0.010 A 
ATOM     34  C   UNL     1       0.288  -6.862   4.245  1.00  0.00    -0.014 A 
BRANCH  34  35
ATOM     35  C   UNL     1      -0.189  -7.131   5.628  1.00  0.00     0.031 A 
ATOM     36  C   UNL     1      -1.490  -7.854   5.837  1.00  0.00     0.074 A 
ATOM     37  C   UNL     1       0.483  -6.628   6.683  1.00  0.00     0.049 A 
ATOM     38  N   UNL     1      -2.188  -8.007   6.931  1.00  0.00    -0.248 NA
ATOM     39  C   UNL     1      -2.099  -8.454   4.641  1.00  0.00     0.031 C 
ATOM     40  C   UNL     1       1.746  -5.891   6.611  1.00  0.00     0.029 A 
ATOM     41  N   UNL     1       0.181  -6.635   8.023  1.00  0.00    -0.354 N 
ATOM     42  C   UNL     1      -3.338  -8.693   6.553  1.00  0.00     0.074 A 
ATOM     43  C   UNL     1      -3.257  -8.885   5.119  1.00  0.00     0.031 C 
ATOM     44  C   UNL     1       2.111  -5.520   7.849  1.00  0.00     0.029 A 
ATOM     45  C   UNL     1       1.084  -5.941   8.797  1.00  0.00     0.049 A 
ATOM     46  H   UNL     1      -0.606  -7.093   8.396  1.00  0.00     0.167 HD
ATOM     47  C   UNL     1      -4.359  -9.131   7.331  1.00  0.00     0.034 A 
ATOM     48  C   UNL     1       1.070  -5.648  10.114  1.00  0.00     0.034 A 
ATOM     49  C   UNL     1      -4.412  -8.950   8.761  1.00  0.00     0.049 A 
ATOM     50  C   UNL     1      -0.086  -6.124  10.957  1.00  0.00     0.074 A 
ATOM     51  C   UNL     1      -5.372  -9.398   9.652  1.00  0.00     0.029 A 
ATOM     52  N   UNL     1      -3.465  -8.264   9.510  1.00  0.00    -0.354 N 
ATOM     53  N   UNL     1      -1.157  -6.788  10.588  1.00  0.00    -0.248 NA
ATOM     54  C   UNL     1      -0.036  -5.814  12.392  1.00  0.00     0.031 C 
ATOM     55  C   UNL     1      -5.036  -8.936  10.929  1.00  0.00     0.029 A 
ATOM     56  C   UNL     1      -3.830  -8.258  10.847  1.00  0.00     0.049 A 
ATOM     57  H   UNL     1      -2.654  -7.843   9.145  1.00  0.00     0.167 HD
ATOM     58  C   UNL     1      -1.888  -7.006  11.752  1.00  0.00     0.074 A 
ATOM     59  C   UNL     1      -1.138  -6.402  12.834  1.00  0.00     0.031 C 
ATOM     60  C   UNL     1      -3.067  -7.655  11.914  1.00  0.00     0.034 A 
BRANCH  47  61
ATOM     61  C   UNL     1      -5.510  -9.818   6.638  1.00  0.00     0.023 A 
ATOM     62  C   UNL     1      -5.338 -11.028   5.944  1.00  0.00     0.031 A 
ATOM     63  C   UNL     1      -6.791  -9.237   6.640  1.00  0.00     0.131 A 
ATOM     64  C   UNL     1      -6.402 -11.573   5.212  1.00  0.00     0.055 A 
ATOM     65  C   UNL     1      -7.869  -9.830   5.979  1.00  0.00     0.041 A 
ATOM     66  F   UNL     1      -7.013  -8.073   7.270  1.00  0.00    -0.206 F 
ATOM     67  C   UNL     1      -7.674 -10.996   5.244  1.00  0.00     0.022 A 
BRANCH  64  68
ATOM     68  S   UNL     1      -6.061 -12.960   4.095  1.00  0.00     0.124 S 
ATOM     69  O   UNL     1      -5.063 -12.378   3.200  1.00  0.00    -0.237 OA
ATOM     70  O   UNL     1      -5.577 -13.989   5.008  1.00  0.00    -0.237 OA
ATOM     71  O   UNL     1      -7.358 -13.231   3.478  1.00  0.00    -0.744 OA
ENDBRANCH  64  68
ENDBRANCH  47  61
BRANCH  48  72
ATOM     72  C   UNL     1       2.168  -4.842  10.720  1.00  0.00     0.023 A 
ATOM     73  C   UNL     1       3.038  -5.406  11.666  1.00  0.00     0.031 A 
ATOM     74  C   UNL     1       2.339  -3.486  10.391  1.00  0.00     0.131 A 
ATOM     75  C   UNL     1       4.012  -4.606  12.284  1.00  0.00     0.055 A 
ATOM     76  C   UNL     1       3.340  -2.707  10.973  1.00  0.00     0.041 A 
ATOM     77  F   UNL     1       1.537  -2.900   9.487  1.00  0.00    -0.206 F 
ATOM     78  C   UNL     1       4.177  -3.264  11.935  1.00  0.00     0.022 A 
BRANCH  75  79
ATOM     79  S   UNL     1       5.015  -5.330  13.610  1.00  0.00     0.124 S 
ATOM     80  O   UNL     1       3.993  -5.739  14.566  1.00  0.00    -0.237 OA
ATOM     81  O   UNL     1       5.708  -6.407  12.912  1.00  0.00    -0.237 OA
ATOM     82  O   UNL     1       5.864  -4.221  14.039  1.00  0.00    -0.744 OA
ENDBRANCH  75  79
ENDBRANCH  48  72
BRANCH  60  83
ATOM     83  C   UNL     1      -3.584  -7.808  13.321  1.00  0.00     0.023 A 
ATOM     84  C   UNL     1      -4.101  -6.721  14.046  1.00  0.00     0.031 A 
ATOM     85  C   UNL     1      -3.576  -9.074  13.933  1.00  0.00     0.131 A 
ATOM     86  C   UNL     1      -4.561  -6.916  15.357  1.00  0.00     0.055 A 
ATOM     87  C   UNL     1      -4.077  -9.270  15.220  1.00  0.00     0.041 A 
ATOM     88  F   UNL     1      -3.093 -10.144  13.282  1.00  0.00    -0.206 F 
ATOM     89  C   UNL     1      -4.567  -8.186  15.943  1.00  0.00     0.022 A 
BRANCH  86  90
ATOM     90  S   UNL     1      -5.116  -5.478  16.313  1.00  0.00     0.124 S 
ATOM     91  O   UNL     1      -3.896  -4.682  16.399  1.00  0.00    -0.237 OA
ATOM     92  O   UNL     1      -6.176  -4.931  15.472  1.00  0.00    -0.237 OA
ATOM     93  O   UNL     1      -5.568  -6.058  17.576  1.00  0.00    -0.744 OA
ENDBRANCH  86  90
ENDBRANCH  60  83
ENDBRANCH  34  35
ENDBRANCH  26  29
ENDBRANCH  24  25
ENDBRANCH  23  24
ENDBRANCH   1  23
TORSDOF 18
