REMARK SMILES O=C(C[C@H](CNC(=O)c1ccccn1)c1ccc(Cl)cc1)NCCCCNC(=O)c1ccc(-c2c3nc(c(-c4cc(S(=O)(=O)[O-])ccc4F)c4ccc([nH]4)c(-c4cc(S(=O)(=O)[O-])ccc4F)c4nc(c(-c5cc(S(=O)(=O)[O-])ccc5F)c5ccc2[nH]5)C=C4)C=C3)cc1
REMARK SMILES IDX 24 1 23 2 22 3 1 4 2 5 3 7 4 8 15 9 16 10 21 11 17 12 20 13
REMARK SMILES IDX 18 14 19 15 5 16 6 17 7 18 8 20 9 21 10 22 14 23 11 24 13 25
REMARK SMILES IDX 12 26 25 27 26 28 27 29 28 30 29 32 30 33 31 34 92 35 32 36
REMARK SMILES IDX 91 37 33 38 34 39 35 40 85 41 36 42 90 43 84 44 86 45 37 46
REMARK SMILES IDX 89 47 83 48 82 49 38 51 70 52 50 53 69 54 51 55 54 56 68 57
REMARK SMILES IDX 87 58 52 59 53 60 67 62 88 63 55 64 39 65 40 66 48 67 41 68
REMARK SMILES IDX 47 69 49 70 46 71 42 72 43 73 44 74 45 75 71 76 72 77 80 78
REMARK SMILES IDX 73 79 79 80 81 81 78 82 74 83 75 84 76 85 77 86 56 87 57 88
REMARK SMILES IDX 65 89 58 90 64 91 66 92 63 93 59 94 60 95 61 96 62 97
REMARK H PARENT 22 6 6 19 27 31 86 50 54 61
REMARK Flexibility Score: inf
ROOT
ATOM      1  C   UNL     1       8.001   2.446   4.606  1.00  0.00     0.023 C 
ENDROOT
BRANCH   1   2
ATOM      2  C   UNL     1       6.686   1.691   4.812  1.00  0.00     0.116 C 
BRANCH   2   3
ATOM      3  N   UNL     1       5.943   1.534   3.576  1.00  0.00    -0.356 N 
ATOM      4  O   UNL     1       6.271  -0.713   3.376  1.00  0.00    -0.275 OA
ATOM      5  C   UNL     1       5.795   0.332   2.933  1.00  0.00     0.220 C 
ATOM      6  H   UNL     1       5.523   2.331   3.179  1.00  0.00     0.163 HD
BRANCH   5   7
ATOM      7  C   UNL     1       5.053   0.328   1.599  1.00  0.00     0.110 C 
BRANCH   7   8
ATOM      8  C   UNL     1       4.138   1.524   1.272  1.00  0.00     0.048 C 
BRANCH   8   9
ATOM      9  C   UNL     1       4.824   2.847   0.939  1.00  0.00    -0.043 A 
ATOM     10  C   UNL     1       6.137   2.937   0.457  1.00  0.00     0.005 A 
ATOM     11  C   UNL     1       4.129   4.044   1.207  1.00  0.00     0.005 A 
ATOM     12  C   UNL     1       6.758   4.184   0.314  1.00  0.00     0.021 A 
ATOM     13  C   UNL     1       4.748   5.287   1.061  1.00  0.00     0.021 A 
ATOM     14  C   UNL     1       6.070   5.351   0.637  1.00  0.00     0.041 A 
ATOM     15  Cl  UNL     1       6.873   6.868   0.565  1.00  0.00    -0.084 Cl
ENDBRANCH   8   9
BRANCH   8  16
ATOM     16  C   UNL     1       3.088   1.151   0.203  1.00  0.00     0.125 C 
BRANCH  16  17
ATOM     17  N   UNL     1       3.627   0.495  -0.978  1.00  0.00    -0.350 N 
ATOM     18  C   UNL     1       3.115  -0.612  -1.632  1.00  0.00     0.269 C 
ATOM     19  H   UNL     1       4.449   0.882  -1.355  1.00  0.00     0.163 HD
ATOM     20  O   UNL     1       3.731  -1.109  -2.569  1.00  0.00    -0.268 OA
BRANCH  18  21
ATOM     21  C   UNL     1       1.804  -1.178  -1.191  1.00  0.00     0.128 A 
ATOM     22  C   UNL     1       0.671  -0.370  -1.174  1.00  0.00     0.034 A 
ATOM     23  N   UNL     1       1.812  -2.471  -0.778  1.00  0.00    -0.251 NA
ATOM     24  C   UNL     1      -0.510  -0.903  -0.665  1.00  0.00     0.004 A 
ATOM     25  C   UNL     1       0.643  -2.964  -0.317  1.00  0.00     0.112 A 
ATOM     26  C   UNL     1      -0.526  -2.223  -0.228  1.00  0.00     0.020 A 
ENDBRANCH  18  21
ENDBRANCH  16  17
ENDBRANCH   8  16
ENDBRANCH   7   8
ENDBRANCH   5   7
ENDBRANCH   2   3
ENDBRANCH   1   2
BRANCH   1  27
ATOM     27  C   UNL     1       7.878   3.810   3.919  1.00  0.00     0.023 C 
BRANCH  27  28
ATOM     28  C   UNL     1       6.905   4.801   4.550  1.00  0.00     0.116 C 
BRANCH  28  29
ATOM     29  N   UNL     1       7.371   5.289   5.834  1.00  0.00    -0.352 N 
ATOM     30  C   UNL     1       7.592   6.579   6.258  1.00  0.00     0.251 C 
ATOM     31  H   UNL     1       7.557   4.592   6.503  1.00  0.00     0.163 HD
ATOM     32  O   UNL     1       8.176   6.760   7.323  1.00  0.00    -0.269 OA
BRANCH  30  33
ATOM     33  C   UNL     1       7.162   7.744   5.443  1.00  0.00     0.039 A 
ATOM     34  C   UNL     1       8.007   8.857   5.373  1.00  0.00     0.014 A 
ATOM     35  C   UNL     1       5.927   7.779   4.789  1.00  0.00     0.014 A 
ATOM     36  C   UNL     1       7.641   9.971   4.610  1.00  0.00     0.010 A 
ATOM     37  C   UNL     1       5.593   8.864   3.973  1.00  0.00     0.010 A 
ATOM     38  C   UNL     1       6.445   9.975   3.875  1.00  0.00    -0.014 A 
BRANCH  38  39
ATOM     39  C   UNL     1       6.080  11.132   3.007  1.00  0.00     0.031 A 
ATOM     40  C   UNL     1       4.854  11.956   3.302  1.00  0.00     0.074 A 
ATOM     41  C   UNL     1       6.833  11.422   1.926  1.00  0.00     0.049 A 
ATOM     42  N   UNL     1       4.349  12.962   2.633  1.00  0.00    -0.248 NA
ATOM     43  C   UNL     1       4.080  11.583   4.495  1.00  0.00     0.031 C 
ATOM     44  C   UNL     1       8.032  10.689   1.514  1.00  0.00     0.029 A 
ATOM     45  N   UNL     1       6.705  12.406   0.976  1.00  0.00    -0.354 N 
ATOM     46  C   UNL     1       3.195  13.336   3.314  1.00  0.00     0.074 A 
ATOM     47  C   UNL     1       3.046  12.408   4.416  1.00  0.00     0.031 C 
ATOM     48  C   UNL     1       8.544  11.267   0.416  1.00  0.00     0.029 A 
ATOM     49  C   UNL     1       7.686  12.375   0.010  1.00  0.00     0.049 A 
ATOM     50  H   UNL     1       5.980  13.072   0.985  1.00  0.00     0.167 HD
ATOM     51  C   UNL     1       2.349  14.367   3.057  1.00  0.00     0.034 A 
ATOM     52  C   UNL     1       7.867  13.139  -1.087  1.00  0.00     0.034 A 
ATOM     53  C   UNL     1       2.515  15.291   1.960  1.00  0.00     0.049 A 
ATOM     54  C   UNL     1       6.886  14.248  -1.379  1.00  0.00     0.074 A 
ATOM     55  C   UNL     1       1.747  16.401   1.646  1.00  0.00     0.029 A 
ATOM     56  N   UNL     1       3.506  15.212   0.989  1.00  0.00    -0.354 N 
ATOM     57  N   UNL     1       5.825  14.615  -0.698  1.00  0.00    -0.248 NA
ATOM     58  C   UNL     1       7.134  15.051  -2.584  1.00  0.00     0.031 C 
ATOM     59  C   UNL     1       2.219  16.939   0.444  1.00  0.00     0.029 A 
ATOM     60  C   UNL     1       3.341  16.225   0.054  1.00  0.00     0.049 A 
ATOM     61  H   UNL     1       4.220  14.536   0.967  1.00  0.00     0.167 HD
ATOM     62  C   UNL     1       5.301  15.713  -1.375  1.00  0.00     0.074 A 
ATOM     63  C   UNL     1       6.170  15.956  -2.507  1.00  0.00     0.031 C 
ATOM     64  C   UNL     1       4.203  16.457  -1.082  1.00  0.00     0.034 A 
BRANCH  51  65
ATOM     65  C   UNL     1       1.147  14.527   3.960  1.00  0.00     0.023 A 
ATOM     66  C   UNL     1       1.280  14.785   5.336  1.00  0.00     0.031 A 
ATOM     67  C   UNL     1      -0.155  14.403   3.441  1.00  0.00     0.131 A 
ATOM     68  C   UNL     1       0.141  14.832   6.155  1.00  0.00     0.055 A 
ATOM     69  C   UNL     1      -1.288  14.540   4.246  1.00  0.00     0.041 A 
ATOM     70  F   UNL     1      -0.349  14.134   2.140  1.00  0.00    -0.206 F 
ATOM     71  C   UNL     1      -1.143  14.740   5.615  1.00  0.00     0.022 A 
BRANCH  68  72
ATOM     72  S   UNL     1       0.369  14.857   7.954  1.00  0.00     0.124 S 
ATOM     73  O   UNL     1       1.155  13.644   8.168  1.00  0.00    -0.237 OA
ATOM     74  O   UNL     1       1.069  16.119   8.166  1.00  0.00    -0.237 OA
ATOM     75  O   UNL     1      -0.996  14.805   8.473  1.00  0.00    -0.744 OA
ENDBRANCH  68  72
ENDBRANCH  51  65
BRANCH  52  76
ATOM     76  C   UNL     1       9.011  12.879  -2.009  1.00  0.00     0.023 A 
ATOM     77  C   UNL     1      10.012  13.843  -2.210  1.00  0.00     0.031 A 
ATOM     78  C   UNL     1       9.094  11.682  -2.743  1.00  0.00     0.131 A 
ATOM     79  C   UNL     1      11.024  13.615  -3.156  1.00  0.00     0.055 A 
ATOM     80  C   UNL     1      10.137  11.435  -3.638  1.00  0.00     0.041 A 
ATOM     81  F   UNL     1       8.162  10.727  -2.593  1.00  0.00    -0.206 F 
ATOM     82  C   UNL     1      11.102  12.411  -3.859  1.00  0.00     0.022 A 
BRANCH  79  83
ATOM     83  S   UNL     1      12.184  14.960  -3.528  1.00  0.00     0.124 S 
ATOM     84  O   UNL     1      11.281  16.017  -3.966  1.00  0.00    -0.237 OA
ATOM     85  O   UNL     1      12.835  15.164  -2.238  1.00  0.00    -0.237 OA
ATOM     86  O   UNL     1      13.037  14.394  -4.571  1.00  0.00    -0.744 OA
ENDBRANCH  79  83
ENDBRANCH  52  76
BRANCH  64  87
ATOM     87  C   UNL     1       3.910  17.639  -1.977  1.00  0.00     0.023 A 
ATOM     88  C   UNL     1       3.560  17.481  -3.330  1.00  0.00     0.031 A 
ATOM     89  C   UNL     1       3.995  18.948  -1.468  1.00  0.00     0.131 A 
ATOM     90  C   UNL     1       3.364  18.611  -4.139  1.00  0.00     0.055 A 
ATOM     91  C   UNL     1       3.734  20.067  -2.261  1.00  0.00     0.041 A 
ATOM     92  F   UNL     1       4.330  19.162  -0.185  1.00  0.00    -0.206 F 
ATOM     93  C   UNL     1       3.430  19.902  -3.609  1.00  0.00     0.022 A 
BRANCH  90  94
ATOM     94  S   UNL     1       3.120  18.376  -5.921  1.00  0.00     0.124 S 
ATOM     95  O   UNL     1       4.333  17.659  -6.302  1.00  0.00    -0.237 OA
ATOM     96  O   UNL     1       1.882  17.605  -5.968  1.00  0.00    -0.237 OA
ATOM     97  O   UNL     1       3.019  19.741  -6.437  1.00  0.00    -0.744 OA
ENDBRANCH  90  94
ENDBRANCH  64  87
ENDBRANCH  38  39
ENDBRANCH  30  33
ENDBRANCH  28  29
ENDBRANCH  27  28
ENDBRANCH   1  27
TORSDOF 19
