REMARK SMILES Cc1nsc(NC(=O)c2ccc(N)cc2)c1C(=O)NCCCCNC(=O)c1ccc(-c2c3nc(c(-c4cc(S(=O)(=O)[O-])ccc4F)c4ccc([nH]4)c(-c4cc(S(=O)(=O)[O-])ccc4F)c4nc(c(-c5cc(S(=O)(=O)[O-])ccc5F)c5ccc2[nH]5)C=C4)C=C3)cc1
REMARK SMILES IDX 21 1 20 2 19 3 17 4 18 5 16 7 1 8 2 9 3 10 4 11 5 12 6 13
REMARK SMILES IDX 7 14 8 16 9 17 10 18 15 19 11 20 14 21 12 22 13 23 22 26
REMARK SMILES IDX 23 27 24 28 25 29 26 31 27 32 28 33 89 34 29 35 88 36 30 37
REMARK SMILES IDX 31 38 32 39 82 40 33 41 87 42 81 43 83 44 34 45 86 46 80 47
REMARK SMILES IDX 79 48 35 50 67 51 47 52 66 53 48 54 51 55 65 56 84 57 49 58
REMARK SMILES IDX 50 59 64 61 85 62 52 63 36 64 37 65 45 66 38 67 44 68 46 69
REMARK SMILES IDX 43 70 39 71 40 72 41 73 42 74 68 75 69 76 77 77 70 78 76 79
REMARK SMILES IDX 78 80 75 81 71 82 72 83 73 84 74 85 53 86 54 87 62 88 55 89
REMARK SMILES IDX 61 90 63 91 60 92 56 93 57 94 58 95 59 96
REMARK H PARENT 19 6 6 15 13 24 13 25 24 30 83 49 51 60
REMARK Flexibility Score: inf
ROOT
ATOM      1  C   UNL     1      -1.424   2.230  -0.815  1.00  0.00     0.023 C 
ENDROOT
BRANCH   1   2
ATOM      2  C   UNL     1      -0.254   1.644  -0.023  1.00  0.00     0.116 C 
BRANCH   2   3
ATOM      3  N   UNL     1      -0.326   1.765   1.421  1.00  0.00    -0.352 N 
ATOM      4  C   UNL     1      -0.133   0.829   2.419  1.00  0.00     0.256 C 
ATOM      5  O   UNL     1      -0.257   1.214   3.583  1.00  0.00    -0.269 OA
ATOM      6  H   UNL     1      -0.549   2.667   1.745  1.00  0.00     0.163 HD
BRANCH   4   7
ATOM      7  C   UNL     1       0.065  -0.589   2.120  1.00  0.00     0.097 A 
ATOM      8  C   UNL     1       1.879  -0.667   0.189  1.00  0.00     0.069 C 
ATOM      9  C   UNL     1       0.829  -1.246   1.075  1.00  0.00     0.066 A 
ATOM     10  N   UNL     1       0.574  -2.545   0.898  1.00  0.00    -0.195 NA
ATOM     11  S   UNL     1      -0.424  -3.045   2.107  1.00  0.00    -0.017 S 
ATOM     12  C   UNL     1      -0.364  -1.593   2.993  1.00  0.00     0.129 A 
BRANCH  12  13
ATOM     13  N   UNL     1      -0.802  -1.476   4.303  1.00  0.00    -0.312 N 
ATOM     14  C   UNL     1      -1.024  -2.429   5.279  1.00  0.00     0.256 C 
ATOM     15  H   UNL     1      -0.986  -0.552   4.589  1.00  0.00     0.171 HD
ATOM     16  O   UNL     1      -1.583  -2.121   6.332  1.00  0.00    -0.269 OA
BRANCH  14  17
ATOM     17  C   UNL     1      -0.588  -3.834   5.128  1.00  0.00     0.040 A 
ATOM     18  C   UNL     1       0.743  -4.162   4.854  1.00  0.00     0.016 A 
ATOM     19  C   UNL     1      -1.544  -4.844   5.254  1.00  0.00     0.016 A 
ATOM     20  C   UNL     1       1.078  -5.488   4.557  1.00  0.00     0.026 A 
ATOM     21  C   UNL     1      -1.193  -6.168   4.976  1.00  0.00     0.026 A 
ATOM     22  C   UNL     1       0.102  -6.490   4.558  1.00  0.00     0.031 A 
BRANCH  22  23
ATOM     23  N   UNL     1       0.441  -7.803   4.271  1.00  0.00    -0.399 N 
ATOM     24  H   UNL     1       1.355  -8.022   3.977  1.00  0.00     0.156 HD
ATOM     25  H   UNL     1      -0.231  -8.516   4.360  1.00  0.00     0.156 HD
ENDBRANCH  22  23
ENDBRANCH  14  17
ENDBRANCH  12  13
ENDBRANCH   4   7
ENDBRANCH   2   3
ENDBRANCH   1   2
BRANCH   1  26
ATOM     26  C   UNL     1      -1.620   3.747  -0.808  1.00  0.00     0.023 C 
BRANCH  26  27
ATOM     27  C   UNL     1      -0.396   4.578  -1.167  1.00  0.00     0.116 C 
BRANCH  27  28
ATOM     28  N   UNL     1       0.119   4.338  -2.514  1.00  0.00    -0.352 N 
ATOM     29  C   UNL     1       1.184   4.986  -3.119  1.00  0.00     0.251 C 
ATOM     30  H   UNL     1      -0.337   3.646  -3.045  1.00  0.00     0.163 HD
ATOM     31  O   UNL     1       1.321   4.962  -4.339  1.00  0.00    -0.269 OA
BRANCH  29  32
ATOM     32  C   UNL     1       2.140   5.715  -2.264  1.00  0.00     0.039 A 
ATOM     33  C   UNL     1       2.532   7.025  -2.557  1.00  0.00     0.014 A 
ATOM     34  C   UNL     1       2.579   5.084  -1.103  1.00  0.00     0.014 A 
ATOM     35  C   UNL     1       3.282   7.734  -1.615  1.00  0.00     0.010 A 
ATOM     36  C   UNL     1       3.209   5.821  -0.128  1.00  0.00     0.010 A 
ATOM     37  C   UNL     1       3.593   7.138  -0.383  1.00  0.00    -0.014 A 
BRANCH  37  38
ATOM     38  C   UNL     1       4.178   7.923   0.712  1.00  0.00     0.031 A 
ATOM     39  C   UNL     1       3.393   9.123   1.127  1.00  0.00     0.074 A 
ATOM     40  C   UNL     1       5.173   7.448   1.494  1.00  0.00     0.049 A 
ATOM     41  N   UNL     1       3.759  10.363   1.130  1.00  0.00    -0.248 NA
ATOM     42  C   UNL     1       1.975   8.931   1.475  1.00  0.00     0.031 C 
ATOM     43  C   UNL     1       5.819   6.132   1.402  1.00  0.00     0.029 A 
ATOM     44  N   UNL     1       5.713   7.966   2.635  1.00  0.00    -0.354 N 
ATOM     45  C   UNL     1       2.708  11.078   1.706  1.00  0.00     0.074 A 
ATOM     46  C   UNL     1       1.581  10.186   1.695  1.00  0.00     0.031 C 
ATOM     47  C   UNL     1       6.449   5.854   2.562  1.00  0.00     0.029 A 
ATOM     48  C   UNL     1       6.409   7.035   3.405  1.00  0.00     0.049 A 
ATOM     49  H   UNL     1       5.620   8.912   2.892  1.00  0.00     0.167 HD
ATOM     50  C   UNL     1       2.925  12.253   2.366  1.00  0.00     0.034 A 
ATOM     51  C   UNL     1       6.901   7.187   4.661  1.00  0.00     0.034 A 
ATOM     52  C   UNL     1       4.231  12.786   2.042  1.00  0.00     0.049 A 
ATOM     53  C   UNL     1       7.032   8.641   4.904  1.00  0.00     0.074 A 
ATOM     54  C   UNL     1       4.867  13.172   0.877  1.00  0.00     0.029 A 
ATOM     55  N   UNL     1       5.232  12.645   2.978  1.00  0.00    -0.354 N 
ATOM     56  N   UNL     1       7.848   9.407   4.235  1.00  0.00    -0.248 NA
ATOM     57  C   UNL     1       5.946   9.338   5.577  1.00  0.00     0.031 C 
ATOM     58  C   UNL     1       6.223  12.764   1.045  1.00  0.00     0.029 A 
ATOM     59  C   UNL     1       6.363  12.226   2.326  1.00  0.00     0.049 A 
ATOM     60  H   UNL     1       5.150  12.815   3.944  1.00  0.00     0.167 HD
ATOM     61  C   UNL     1       7.144  10.582   4.027  1.00  0.00     0.074 A 
ATOM     62  C   UNL     1       6.045  10.533   4.988  1.00  0.00     0.031 C 
ATOM     63  C   UNL     1       7.352  11.336   2.906  1.00  0.00     0.034 A 
BRANCH  50  64
ATOM     64  C   UNL     1       2.161  12.727   3.597  1.00  0.00     0.023 A 
ATOM     65  C   UNL     1       2.636  13.898   4.224  1.00  0.00     0.031 A 
ATOM     66  C   UNL     1       1.234  11.976   4.352  1.00  0.00     0.131 A 
ATOM     67  C   UNL     1       2.333  14.182   5.568  1.00  0.00     0.055 A 
ATOM     68  C   UNL     1       0.878  12.302   5.667  1.00  0.00     0.041 A 
ATOM     69  F   UNL     1       0.673  10.847   3.908  1.00  0.00    -0.206 F 
ATOM     70  C   UNL     1       1.462  13.384   6.299  1.00  0.00     0.022 A 
BRANCH  67  71
ATOM     71  S   UNL     1       3.275  15.488   6.398  1.00  0.00     0.124 S 
ATOM     72  O   UNL     1       4.646  15.086   6.100  1.00  0.00    -0.237 OA
ATOM     73  O   UNL     1       2.789  16.684   5.718  1.00  0.00    -0.237 OA
ATOM     74  O   UNL     1       2.874  15.356   7.796  1.00  0.00    -0.744 OA
ENDBRANCH  67  71
ENDBRANCH  50  64
BRANCH  51  75
ATOM     75  C   UNL     1       6.984   6.148   5.722  1.00  0.00     0.023 A 
ATOM     76  C   UNL     1       7.907   6.199   6.785  1.00  0.00     0.031 A 
ATOM     77  C   UNL     1       5.968   5.168   5.807  1.00  0.00     0.131 A 
ATOM     78  C   UNL     1       7.793   5.294   7.868  1.00  0.00     0.055 A 
ATOM     79  C   UNL     1       5.865   4.273   6.873  1.00  0.00     0.041 A 
ATOM     80  F   UNL     1       4.993   5.101   4.886  1.00  0.00    -0.206 F 
ATOM     81  C   UNL     1       6.776   4.337   7.915  1.00  0.00     0.022 A 
BRANCH  78  82
ATOM     82  S   UNL     1       8.936   5.400   9.284  1.00  0.00     0.124 S 
ATOM     83  O   UNL     1      10.225   5.104   8.670  1.00  0.00    -0.237 OA
ATOM     84  O   UNL     1       8.734   6.770   9.743  1.00  0.00    -0.237 OA
ATOM     85  O   UNL     1       8.444   4.370  10.200  1.00  0.00    -0.744 OA
ENDBRANCH  78  82
ENDBRANCH  51  75
BRANCH  63  86
ATOM     86  C   UNL     1       8.601  11.076   2.087  1.00  0.00     0.023 A 
ATOM     87  C   UNL     1       8.934   9.843   1.483  1.00  0.00     0.031 A 
ATOM     88  C   UNL     1       9.431  12.179   1.819  1.00  0.00     0.131 A 
ATOM     89  C   UNL     1      10.070   9.748   0.655  1.00  0.00     0.055 A 
ATOM     90  C   UNL     1      10.542  12.087   0.983  1.00  0.00     0.041 A 
ATOM     91  F   UNL     1       9.150  13.386   2.340  1.00  0.00    -0.206 F 
ATOM     92  C   UNL     1      10.870  10.868   0.403  1.00  0.00     0.022 A 
BRANCH  89  93
ATOM     93  S   UNL     1      10.542   8.158  -0.100  1.00  0.00     0.124 S 
ATOM     94  O   UNL     1      10.460   7.213   1.007  1.00  0.00    -0.237 OA
ATOM     95  O   UNL     1       9.541   7.999  -1.152  1.00  0.00    -0.237 OA
ATOM     96  O   UNL     1      11.900   8.405  -0.590  1.00  0.00    -0.744 OA
ENDBRANCH  89  93
ENDBRANCH  63  86
ENDBRANCH  37  38
ENDBRANCH  29  32
ENDBRANCH  27  28
ENDBRANCH  26  27
ENDBRANCH   1  26
TORSDOF 17
