REMARK SMILES [NH3+]Cc1c(-c2ccccc2)c(C(=O)NCCCCNC(=O)c2ccc(-c3c4nc(c(-c5cc(S(=O)(=O)[O-])ccc5F)c5ccc([nH]5)c(-c5cc(S(=O)(=O)[O-])ccc5F)c5nc(c(-c6cc(S(=O)(=O)[O-])ccc6F)c6ccc3[nH]6)C=C5)C=C4)cc2)c2ccccn12
REMARK SMILES IDX 17 1 16 2 15 3 14 4 12 5 13 6 11 8 3 9 4 10 90 11 85 12
REMARK SMILES IDX 89 13 86 14 88 15 87 16 2 17 1 18 5 22 6 23 10 24 7 25 9 26
REMARK SMILES IDX 8 27 18 28 19 29 20 30 21 32 22 33 23 34 84 35 24 36 83 37
REMARK SMILES IDX 25 38 26 39 27 40 77 41 28 42 82 43 76 44 78 45 29 46 81 47
REMARK SMILES IDX 75 48 74 49 30 51 62 52 42 53 61 54 43 55 46 56 60 57 79 58
REMARK SMILES IDX 44 59 45 60 59 62 80 63 47 64 31 65 32 66 40 67 33 68 39 69
REMARK SMILES IDX 41 70 38 71 34 72 35 73 36 74 37 75 63 76 64 77 72 78 65 79
REMARK SMILES IDX 71 80 73 81 70 82 66 83 67 84 68 85 69 86 48 87 49 88 57 89
REMARK SMILES IDX 50 90 56 91 58 92 55 93 51 94 52 95 53 96 54 97
REMARK H PARENT 14 7 1 19 1 20 1 21 19 31 78 50 46 61
REMARK Flexibility Score: inf
ROOT
ATOM      1  C   UNL     1       1.252  -3.642   8.717  1.00  0.00     0.023 C 
ENDROOT
BRANCH   1   2
ATOM      2  C   UNL     1       0.741  -2.649   7.675  1.00  0.00     0.023 C 
BRANCH   2   3
ATOM      3  C   UNL     1       1.555  -2.499   6.393  1.00  0.00     0.116 C 
BRANCH   3   4
ATOM      4  N   UNL     1       1.743  -3.712   5.622  1.00  0.00    -0.352 N 
ATOM      5  C   UNL     1       1.881  -3.900   4.260  1.00  0.00     0.254 C 
ATOM      6  O   UNL     1       2.102  -5.047   3.880  1.00  0.00    -0.269 OA
ATOM      7  H   UNL     1       1.780  -4.538   6.157  1.00  0.00     0.163 HD
BRANCH   5   8
ATOM      8  C   UNL     1       1.677  -2.797   3.313  1.00  0.00     0.073 A 
ATOM      9  C   UNL     1       0.909  -1.617   1.484  1.00  0.00     0.086 A 
ATOM     10  C   UNL     1       1.082  -2.901   2.005  1.00  0.00     0.022 A 
ATOM     11  N   UNL     1       1.412  -0.739   2.431  1.00  0.00    -0.314 N 
ATOM     12  C   UNL     1       2.098  -1.477   3.397  1.00  0.00     0.059 A 
ATOM     13  C   UNL     1       1.321   0.657   2.498  1.00  0.00     0.092 A 
ATOM     14  C   UNL     1       2.969  -0.746   4.264  1.00  0.00     0.027 A 
ATOM     15  C   UNL     1       2.017   1.332   3.427  1.00  0.00     0.018 A 
ATOM     16  C   UNL     1       2.916   0.597   4.295  1.00  0.00     0.004 A 
BRANCH   9  17
ATOM     17  C   UNL     1       0.258  -1.207   0.197  1.00  0.00     0.315 C 
BRANCH  17  18
ATOM     18  N   UNL     1       1.024  -0.225  -0.562  1.00  0.00    -0.353 N 
ATOM     19  H   UNL     1       0.524   0.006  -1.421  1.00  0.00     0.344 HD
ATOM     20  H   UNL     1       1.938  -0.613  -0.795  1.00  0.00     0.344 HD
ATOM     21  H   UNL     1       1.145   0.618  -0.002  1.00  0.00     0.344 HD
ENDBRANCH  17  18
ENDBRANCH   9  17
BRANCH  10  22
ATOM     22  C   UNL     1       0.672  -4.095   1.279  1.00  0.00    -0.016 A 
ATOM     23  C   UNL     1      -0.469  -4.809   1.652  1.00  0.00     0.009 A 
ATOM     24  C   UNL     1       1.433  -4.531   0.185  1.00  0.00     0.009 A 
ATOM     25  C   UNL     1      -0.850  -5.944   0.929  1.00  0.00     0.001 A 
ATOM     26  C   UNL     1       1.049  -5.662  -0.537  1.00  0.00     0.001 A 
ATOM     27  C   UNL     1      -0.093  -6.368  -0.165  1.00  0.00     0.000 A 
ENDBRANCH  10  22
ENDBRANCH   5   8
ENDBRANCH   3   4
ENDBRANCH   2   3
ENDBRANCH   1   2
BRANCH   1  28
ATOM     28  C   UNL     1       2.737  -3.586   9.062  1.00  0.00     0.116 C 
BRANCH  28  29
ATOM     29  N   UNL     1       3.185  -2.298   9.568  1.00  0.00    -0.352 N 
ATOM     30  C   UNL     1       3.844  -1.978  10.736  1.00  0.00     0.251 C 
ATOM     31  H   UNL     1       2.987  -1.532   8.982  1.00  0.00     0.163 HD
ATOM     32  O   UNL     1       4.079  -0.801  10.988  1.00  0.00    -0.269 OA
BRANCH  30  33
ATOM     33  C   UNL     1       4.216  -3.036  11.708  1.00  0.00     0.039 A 
ATOM     34  C   UNL     1       3.953  -2.823  13.065  1.00  0.00     0.014 A 
ATOM     35  C   UNL     1       4.794  -4.237  11.296  1.00  0.00     0.014 A 
ATOM     36  C   UNL     1       4.172  -3.851  13.987  1.00  0.00     0.010 A 
ATOM     37  C   UNL     1       4.928  -5.290  12.200  1.00  0.00     0.010 A 
ATOM     38  C   UNL     1       4.609  -5.115  13.555  1.00  0.00    -0.014 A 
BRANCH  38  39
ATOM     39  C   UNL     1       4.720  -6.259  14.502  1.00  0.00     0.031 A 
ATOM     40  C   UNL     1       6.050  -6.925  14.741  1.00  0.00     0.074 A 
ATOM     41  C   UNL     1       3.610  -6.746  15.095  1.00  0.00     0.049 A 
ATOM     42  N   UNL     1       6.335  -7.969  15.478  1.00  0.00    -0.248 NA
ATOM     43  C   UNL     1       7.205  -6.364  14.026  1.00  0.00     0.031 C 
ATOM     44  C   UNL     1       2.252  -6.234  14.898  1.00  0.00     0.029 A 
ATOM     45  N   UNL     1       3.443  -7.784  15.979  1.00  0.00    -0.354 N 
ATOM     46  C   UNL     1       7.695  -8.200  15.302  1.00  0.00     0.074 A 
ATOM     47  C   UNL     1       8.159  -7.229  14.334  1.00  0.00     0.031 C 
ATOM     48  C   UNL     1       1.399  -6.935  15.662  1.00  0.00     0.029 A 
ATOM     49  C   UNL     1       2.138  -7.973  16.374  1.00  0.00     0.049 A 
ATOM     50  H   UNL     1       4.188  -8.341  16.301  1.00  0.00     0.167 HD
ATOM     51  C   UNL     1       8.490  -9.118  15.909  1.00  0.00     0.034 A 
ATOM     52  C   UNL     1       1.596  -8.878  17.213  1.00  0.00     0.034 A 
ATOM     53  C   UNL     1       8.017 -10.069  16.886  1.00  0.00     0.049 A 
ATOM     54  C   UNL     1       2.500  -9.874  17.893  1.00  0.00     0.074 A 
ATOM     55  C   UNL     1       8.742 -11.007  17.601  1.00  0.00     0.029 A 
ATOM     56  N   UNL     1       6.694 -10.205  17.288  1.00  0.00    -0.354 N 
ATOM     57  N   UNL     1       3.796 -10.042  17.758  1.00  0.00    -0.248 NA
ATOM     58  C   UNL     1       1.871 -10.790  18.853  1.00  0.00     0.031 C 
ATOM     59  C   UNL     1       7.853 -11.746  18.390  1.00  0.00     0.029 A 
ATOM     60  C   UNL     1       6.581 -11.222  18.225  1.00  0.00     0.049 A 
ATOM     61  H   UNL     1       5.945  -9.659  16.956  1.00  0.00     0.167 HD
ATOM     62  C   UNL     1       4.141 -11.057  18.646  1.00  0.00     0.074 A 
ATOM     63  C   UNL     1       2.920 -11.452  19.318  1.00  0.00     0.031 C 
ATOM     64  C   UNL     1       5.357 -11.609  18.887  1.00  0.00     0.034 A 
BRANCH  51  65
ATOM     65  C   UNL     1       9.949  -9.139  15.513  1.00  0.00     0.023 A 
ATOM     66  C   UNL     1      10.787  -8.031  15.728  1.00  0.00     0.031 A 
ATOM     67  C   UNL     1      10.502 -10.266  14.879  1.00  0.00     0.131 A 
ATOM     68  C   UNL     1      12.101  -8.037  15.235  1.00  0.00     0.055 A 
ATOM     69  C   UNL     1      11.838 -10.300  14.470  1.00  0.00     0.041 A 
ATOM     70  F   UNL     1       9.750 -11.349  14.629  1.00  0.00    -0.206 F 
ATOM     71  C   UNL     1      12.641  -9.174  14.631  1.00  0.00     0.022 A 
BRANCH  68  72
ATOM     72  S   UNL     1      13.040  -6.486  15.258  1.00  0.00     0.124 S 
ATOM     73  O   UNL     1      12.189  -5.615  14.450  1.00  0.00    -0.237 OA
ATOM     74  O   UNL     1      13.104  -6.175  16.681  1.00  0.00    -0.237 OA
ATOM     75  O   UNL     1      14.314  -6.847  14.639  1.00  0.00    -0.744 OA
ENDBRANCH  68  72
ENDBRANCH  51  65
BRANCH  52  76
ATOM     76  C   UNL     1       0.128  -8.882  17.476  1.00  0.00     0.023 A 
ATOM     77  C   UNL     1      -0.379  -8.578  18.749  1.00  0.00     0.031 A 
ATOM     78  C   UNL     1      -0.788  -9.232  16.468  1.00  0.00     0.131 A 
ATOM     79  C   UNL     1      -1.757  -8.676  18.997  1.00  0.00     0.055 A 
ATOM     80  C   UNL     1      -2.163  -9.279  16.706  1.00  0.00     0.041 A 
ATOM     81  F   UNL     1      -0.357  -9.523  15.230  1.00  0.00    -0.206 F 
ATOM     82  C   UNL     1      -2.654  -9.014  17.981  1.00  0.00     0.022 A 
BRANCH  79  83
ATOM     83  S   UNL     1      -2.354  -8.435  20.693  1.00  0.00     0.124 S 
ATOM     84  O   UNL     1      -1.611  -9.459  21.419  1.00  0.00    -0.237 OA
ATOM     85  O   UNL     1      -1.968  -7.053  20.956  1.00  0.00    -0.237 OA
ATOM     86  O   UNL     1      -3.793  -8.668  20.583  1.00  0.00    -0.744 OA
ENDBRANCH  79  83
ENDBRANCH  52  76
BRANCH  64  87
ATOM     87  C   UNL     1       5.429 -12.659  19.970  1.00  0.00     0.023 A 
ATOM     88  C   UNL     1       4.794 -13.906  19.840  1.00  0.00     0.031 A 
ATOM     89  C   UNL     1       6.126 -12.392  21.162  1.00  0.00     0.131 A 
ATOM     90  C   UNL     1       4.813 -14.814  20.910  1.00  0.00     0.055 A 
ATOM     91  C   UNL     1       6.194 -13.325  22.198  1.00  0.00     0.041 A 
ATOM     92  F   UNL     1       6.750 -11.217  21.341  1.00  0.00    -0.206 F 
ATOM     93  C   UNL     1       5.522 -14.538  22.082  1.00  0.00     0.022 A 
BRANCH  90  94
ATOM     94  S   UNL     1       3.809 -16.321  20.791  1.00  0.00     0.124 S 
ATOM     95  O   UNL     1       2.477 -15.780  20.540  1.00  0.00    -0.237 OA
ATOM     96  O   UNL     1       4.433 -17.023  19.675  1.00  0.00    -0.237 OA
ATOM     97  O   UNL     1       3.984 -16.953  22.098  1.00  0.00    -0.744 OA
ENDBRANCH  90  94
ENDBRANCH  64  87
ENDBRANCH  38  39
ENDBRANCH  30  33
ENDBRANCH  28  29
ENDBRANCH   1  28
TORSDOF 17
