REMARK SMILES CC[C@](C)([NH3+])C(=O)N1CC[NH+]([C@H](C)C(=O)NCCCCNC(=O)c2ccc(-c3c4nc(c(-c5cc(S(=O)(=O)[O-])ccc5F)c5ccc([nH]5)c(-c5cc(S(=O)(=O)[O-])ccc5F)c5nc(c(-c6cc(S(=O)(=O)[O-])ccc6F)c6ccc3[nH]6)C=C5)C=C4)cc2)CC1
REMARK SMILES IDX 18 1 17 2 16 3 14 4 15 5 12 7 13 8 11 9 6 10 7 11 8 12 9 13
REMARK SMILES IDX 88 14 10 15 87 16 3 18 4 19 2 20 1 21 5 22 19 26 20 27 21 28
REMARK SMILES IDX 22 29 23 31 24 32 25 33 86 34 26 35 85 36 27 37 28 38 29 39
REMARK SMILES IDX 79 40 30 41 84 42 78 43 80 44 31 45 83 46 77 47 76 48 32 50
REMARK SMILES IDX 64 51 44 52 63 53 45 54 48 55 62 56 81 57 46 58 47 59 61 61
REMARK SMILES IDX 82 62 49 63 33 64 34 65 42 66 35 67 41 68 43 69 40 70 36 71
REMARK SMILES IDX 37 72 38 73 39 74 65 75 66 76 74 77 67 78 73 79 75 80 72 81
REMARK SMILES IDX 68 82 69 83 70 84 71 85 50 86 51 87 59 88 52 89 58 90 60 91
REMARK SMILES IDX 57 92 53 93 54 94 55 95 56 96
REMARK H PARENT 16 6 11 17 5 23 5 24 5 25 21 30 80 49 48 60
REMARK Flexibility Score: inf
ROOT
ATOM      1  C   UNL     1       5.903  -3.317   3.815  1.00  0.00     0.023 C 
ENDROOT
BRANCH   1   2
ATOM      2  C   UNL     1       5.930  -3.840   2.386  1.00  0.00     0.116 C 
BRANCH   2   3
ATOM      3  N   UNL     1       6.652  -5.086   2.227  1.00  0.00    -0.351 N 
ATOM      4  C   UNL     1       6.436  -6.131   1.372  1.00  0.00     0.278 C 
ATOM      5  O   UNL     1       7.332  -6.979   1.289  1.00  0.00    -0.268 OA
ATOM      6  H   UNL     1       7.421  -5.198   2.831  1.00  0.00     0.163 HD
BRANCH   4   7
ATOM      7  C   UNL     1       5.130  -6.282   0.550  1.00  0.00     0.271 C 
ATOM      8  C   UNL     1       3.863  -6.125   1.401  1.00  0.00     0.086 C 
BRANCH   7   9
ATOM      9  N   UNL     1       5.169  -5.601  -0.779  1.00  0.00    -0.322 N 
ATOM     10  C   UNL     1       3.571  -2.388  -2.813  1.00  0.00     0.283 C 
ATOM     11  O   UNL     1       4.204  -1.325  -2.896  1.00  0.00    -0.268 OA
ATOM     12  N   UNL     1       4.269  -3.574  -2.658  1.00  0.00    -0.326 N 
ATOM     13  C   UNL     1       5.633  -3.515  -2.141  1.00  0.00     0.181 C 
ATOM     14  C   UNL     1       3.831  -4.954  -2.843  1.00  0.00     0.181 C 
ATOM     15  C   UNL     1       5.659  -4.210  -0.764  1.00  0.00     0.284 C 
ATOM     16  C   UNL     1       3.891  -5.734  -1.514  1.00  0.00     0.284 C 
ATOM     17  H   UNL     1       5.884  -6.111  -1.298  1.00  0.00     0.348 HD
BRANCH  10  18
ATOM     18  C   UNL     1       2.008  -2.314  -2.665  1.00  0.00     0.171 C 
ATOM     19  C   UNL     1       1.535  -0.911  -3.108  1.00  0.00     0.090 C 
BRANCH  18  20
ATOM     20  C   UNL     1       1.591  -2.573  -1.193  1.00  0.00     0.075 C 
ATOM     21  C   UNL     1       2.278  -1.691  -0.153  1.00  0.00     0.011 C 
ENDBRANCH  18  20
BRANCH  18  22
ATOM     22  N   UNL     1       1.300  -3.278  -3.546  1.00  0.00    -0.345 N 
ATOM     23  H   UNL     1       1.570  -3.113  -4.516  1.00  0.00     0.345 HD
ATOM     24  H   UNL     1       0.293  -3.153  -3.447  1.00  0.00     0.345 HD
ATOM     25  H   UNL     1       1.552  -4.230  -3.280  1.00  0.00     0.345 HD
ENDBRANCH  18  22
ENDBRANCH  10  18
ENDBRANCH   7   9
ENDBRANCH   4   7
ENDBRANCH   2   3
ENDBRANCH   1   2
BRANCH   1  26
ATOM     26  C   UNL     1       7.262  -2.923   4.389  1.00  0.00     0.023 C 
BRANCH  26  27
ATOM     27  C   UNL     1       8.130  -2.039   3.497  1.00  0.00     0.116 C 
BRANCH  27  28
ATOM     28  N   UNL     1       7.482  -0.796   3.105  1.00  0.00    -0.352 N 
ATOM     29  C   UNL     1       7.896   0.505   3.283  1.00  0.00     0.251 C 
ATOM     30  H   UNL     1       6.619  -0.902   2.643  1.00  0.00     0.163 HD
ATOM     31  O   UNL     1       7.150   1.428   2.983  1.00  0.00    -0.269 OA
BRANCH  29  32
ATOM     32  C   UNL     1       9.221   0.775   3.885  1.00  0.00     0.039 A 
ATOM     33  C   UNL     1       9.306   1.681   4.944  1.00  0.00     0.014 A 
ATOM     34  C   UNL     1      10.361   0.102   3.441  1.00  0.00     0.014 A 
ATOM     35  C   UNL     1      10.517   1.838   5.622  1.00  0.00     0.010 A 
ATOM     36  C   UNL     1      11.544   0.197   4.168  1.00  0.00     0.010 A 
ATOM     37  C   UNL     1      11.632   1.057   5.275  1.00  0.00    -0.014 A 
BRANCH  37  38
ATOM     38  C   UNL     1      12.892   1.110   6.065  1.00  0.00     0.031 A 
ATOM     39  C   UNL     1      14.171   1.561   5.412  1.00  0.00     0.074 A 
ATOM     40  C   UNL     1      12.899   0.673   7.341  1.00  0.00     0.049 A 
ATOM     41  N   UNL     1      15.386   1.576   5.896  1.00  0.00    -0.248 NA
ATOM     42  C   UNL     1      14.073   2.025   4.020  1.00  0.00     0.031 C 
ATOM     43  C   UNL     1      11.733   0.163   8.069  1.00  0.00     0.029 A 
ATOM     44  N   UNL     1      13.922   0.572   8.251  1.00  0.00    -0.354 N 
ATOM     45  C   UNL     1      16.200   2.027   4.863  1.00  0.00     0.074 A 
ATOM     46  C   UNL     1      15.346   2.225   3.712  1.00  0.00     0.031 C 
ATOM     47  C   UNL     1      12.104  -0.178   9.313  1.00  0.00     0.029 A 
ATOM     48  C   UNL     1      13.538   0.043   9.463  1.00  0.00     0.049 A 
ATOM     49  H   UNL     1      14.846   0.853   8.056  1.00  0.00     0.167 HD
ATOM     50  C   UNL     1      17.534   2.272   4.880  1.00  0.00     0.034 A 
ATOM     51  C   UNL     1      14.261  -0.246  10.564  1.00  0.00     0.034 A 
ATOM     52  C   UNL     1      18.367   2.100   6.045  1.00  0.00     0.049 A 
ATOM     53  C   UNL     1      15.742   0.043  10.558  1.00  0.00     0.074 A 
ATOM     54  C   UNL     1      19.713   2.388   6.190  1.00  0.00     0.029 A 
ATOM     55  N   UNL     1      17.937   1.590   7.263  1.00  0.00    -0.354 N 
ATOM     56  N   UNL     1      16.485   0.528   9.590  1.00  0.00    -0.248 NA
ATOM     57  C   UNL     1      16.479  -0.240  11.797  1.00  0.00     0.031 C 
ATOM     58  C   UNL     1      20.110   1.998   7.473  1.00  0.00     0.029 A 
ATOM     59  C   UNL     1      18.997   1.532   8.155  1.00  0.00     0.049 A 
ATOM     60  H   UNL     1      17.015   1.311   7.463  1.00  0.00     0.167 HD
ATOM     61  C   UNL     1      17.769   0.637  10.116  1.00  0.00     0.074 A 
ATOM     62  C   UNL     1      17.695   0.184  11.489  1.00  0.00     0.031 C 
ATOM     63  C   UNL     1      18.907   1.075   9.521  1.00  0.00     0.034 A 
BRANCH  50  64
ATOM     64  C   UNL     1      18.175   2.735   3.595  1.00  0.00     0.023 A 
ATOM     65  C   UNL     1      17.843   3.967   3.005  1.00  0.00     0.031 A 
ATOM     66  C   UNL     1      19.128   1.929   2.947  1.00  0.00     0.131 A 
ATOM     67  C   UNL     1      18.410   4.328   1.773  1.00  0.00     0.055 A 
ATOM     68  C   UNL     1      19.745   2.329   1.760  1.00  0.00     0.041 A 
ATOM     69  F   UNL     1      19.470   0.734   3.454  1.00  0.00    -0.206 F 
ATOM     70  C   UNL     1      19.378   3.530   1.159  1.00  0.00     0.022 A 
BRANCH  67  71
ATOM     71  S   UNL     1      17.777   5.801   0.927  1.00  0.00     0.124 S 
ATOM     72  O   UNL     1      16.375   5.442   0.721  1.00  0.00    -0.237 OA
ATOM     73  O   UNL     1      18.029   6.858   1.899  1.00  0.00    -0.237 OA
ATOM     74  O   UNL     1      18.581   5.869  -0.291  1.00  0.00    -0.744 OA
ENDBRANCH  67  71
ENDBRANCH  50  64
BRANCH  51  75
ATOM     75  C   UNL     1      13.615  -0.857  11.762  1.00  0.00     0.023 A 
ATOM     76  C   UNL     1      13.574  -0.176  12.989  1.00  0.00     0.031 A 
ATOM     77  C   UNL     1      13.084  -2.159  11.715  1.00  0.00     0.131 A 
ATOM     78  C   UNL     1      13.070  -0.818  14.131  1.00  0.00     0.055 A 
ATOM     79  C   UNL     1      12.532  -2.772  12.841  1.00  0.00     0.041 A 
ATOM     80  F   UNL     1      13.092  -2.854  10.566  1.00  0.00    -0.206 F 
ATOM     81  C   UNL     1      12.539  -2.107  14.063  1.00  0.00     0.022 A 
BRANCH  78  82
ATOM     82  S   UNL     1      13.217   0.021  15.733  1.00  0.00     0.124 S 
ATOM     83  O   UNL     1      14.651   0.274  15.806  1.00  0.00    -0.237 OA
ATOM     84  O   UNL     1      12.367   1.190  15.540  1.00  0.00    -0.237 OA
ATOM     85  O   UNL     1      12.708  -0.968  16.682  1.00  0.00    -0.744 OA
ENDBRANCH  78  82
ENDBRANCH  51  75
BRANCH  63  86
ATOM     86  C   UNL     1      20.149   1.133  10.374  1.00  0.00     0.023 A 
ATOM     87  C   UNL     1      20.773  -0.031  10.854  1.00  0.00     0.031 A 
ATOM     88  C   UNL     1      20.709   2.376  10.720  1.00  0.00     0.131 A 
ATOM     89  C   UNL     1      21.889   0.072  11.698  1.00  0.00     0.055 A 
ATOM     90  C   UNL     1      21.854   2.471  11.512  1.00  0.00     0.041 A 
ATOM     91  F   UNL     1      20.152   3.519  10.290  1.00  0.00    -0.206 F 
ATOM     92  C   UNL     1      22.443   1.315  12.016  1.00  0.00     0.022 A 
BRANCH  89  93
ATOM     93  S   UNL     1      22.559  -1.438  12.445  1.00  0.00     0.124 S 
ATOM     94  O   UNL     1      21.408  -1.950  13.181  1.00  0.00    -0.237 OA
ATOM     95  O   UNL     1      22.965  -2.212  11.277  1.00  0.00    -0.237 OA
ATOM     96  O   UNL     1      23.659  -0.951  13.276  1.00  0.00    -0.744 OA
ENDBRANCH  89  93
ENDBRANCH  63  86
ENDBRANCH  37  38
ENDBRANCH  29  32
ENDBRANCH  27  28
ENDBRANCH  26  27
ENDBRANCH   1  26
TORSDOF 18
