REMARK SMILES Cc1ccc2c(c1)c(-c1ccnc3c(C)cccc13)c(C)n2CC(=O)NCCCCNC(=O)c1ccc(-c2c3nc(c(-c4cc(S(=O)(=O)[O-])ccc4F)c4ccc([nH]4)c(-c4cc(S(=O)(=O)[O-])ccc4F)c4nc(c(-c5cc(S(=O)(=O)[O-])ccc5F)c5ccc2[nH]5)C=C4)C=C3)cc1
REMARK SMILES IDX 29 1 28 2 27 3 26 4 24 5 25 6 23 8 22 9 1 10 2 11 3 12 7 13
REMARK SMILES IDX 4 14 6 15 5 16 8 17 20 18 21 19 9 20 10 21 19 22 11 23 13 24
REMARK SMILES IDX 18 25 12 26 14 27 17 28 15 29 16 30 30 31 31 32 32 33 33 35
REMARK SMILES IDX 34 36 35 37 96 38 36 39 95 40 37 41 38 42 39 43 89 44 40 45
REMARK SMILES IDX 94 46 88 47 90 48 41 49 93 50 87 51 86 52 42 54 74 55 54 56
REMARK SMILES IDX 73 57 55 58 58 59 72 60 91 61 56 62 57 63 71 65 92 66 59 67
REMARK SMILES IDX 43 68 44 69 52 70 45 71 51 72 53 73 50 74 46 75 47 76 48 77
REMARK SMILES IDX 49 78 75 79 76 80 84 81 77 82 83 83 85 84 82 85 78 86 79 87
REMARK SMILES IDX 80 88 81 89 60 90 61 91 69 92 62 93 68 94 70 95 67 96 63 97
REMARK SMILES IDX 64 98 65 99 66 100
REMARK H PARENT 26 7 31 34 90 53 58 64
REMARK Flexibility Score: inf
ROOT
ATOM      1  C   UNL     1       0.730  -4.976   5.344  1.00  0.00     0.023 C 
ENDROOT
BRANCH   1   2
ATOM      2  C   UNL     1       0.663  -4.539   3.874  1.00  0.00     0.023 C 
BRANCH   2   3
ATOM      3  C   UNL     1       1.136  -5.596   2.880  1.00  0.00     0.116 C 
BRANCH   3   4
ATOM      4  N   UNL     1       0.255  -6.746   2.834  1.00  0.00    -0.355 N 
ATOM      5  C   UNL     1      -0.528  -7.186   1.806  1.00  0.00     0.239 C 
ATOM      6  O   UNL     1      -1.157  -8.235   1.965  1.00  0.00    -0.273 OA
ATOM      7  H   UNL     1       0.216  -7.284   3.658  1.00  0.00     0.163 HD
BRANCH   5   8
ATOM      8  C   UNL     1      -0.556  -6.449   0.480  1.00  0.00     0.222 C 
BRANCH   8   9
ATOM      9  N   UNL     1      -1.167  -5.125   0.556  1.00  0.00    -0.335 N 
ATOM     10  C   UNL     1       0.926   0.107   0.066  1.00  0.00     0.044 C 
ATOM     11  C   UNL     1       0.426  -1.306   0.132  1.00  0.00    -0.050 A 
ATOM     12  C   UNL     1       1.237  -2.363  -0.279  1.00  0.00     0.005 A 
ATOM     13  C   UNL     1      -0.881  -1.569   0.571  1.00  0.00     0.014 A 
ATOM     14  C   UNL     1       0.787  -3.686  -0.226  1.00  0.00     0.027 A 
ATOM     15  C   UNL     1      -1.353  -2.898   0.651  1.00  0.00     0.008 A 
ATOM     16  C   UNL     1      -0.504  -3.939   0.274  1.00  0.00     0.049 A 
ATOM     17  C   UNL     1      -2.583  -3.486   1.068  1.00  0.00     0.011 A 
ATOM     18  C   UNL     1      -2.468  -4.863   0.943  1.00  0.00     0.024 A 
ATOM     19  C   UNL     1      -3.485  -5.922   1.224  1.00  0.00     0.065 C 
BRANCH  17  20
ATOM     20  C   UNL     1      -3.791  -2.819   1.541  1.00  0.00    -0.005 A 
ATOM     21  C   UNL     1      -4.571  -2.158   0.596  1.00  0.00     0.029 A 
ATOM     22  C   UNL     1      -4.170  -2.814   2.909  1.00  0.00     0.008 A 
ATOM     23  C   UNL     1      -5.714  -1.531   1.034  1.00  0.00     0.112 A 
ATOM     24  C   UNL     1      -5.365  -2.140   3.255  1.00  0.00     0.074 A 
ATOM     25  C   UNL     1      -3.412  -3.436   3.930  1.00  0.00     0.011 A 
ATOM     26  N   UNL     1      -6.118  -1.521   2.319  1.00  0.00    -0.256 NA
ATOM     27  C   UNL     1      -5.758  -2.124   4.603  1.00  0.00    -0.025 A 
ATOM     28  C   UNL     1      -3.807  -3.398   5.261  1.00  0.00     0.001 A 
ATOM     29  C   UNL     1      -7.022  -1.437   5.052  1.00  0.00     0.047 C 
ATOM     30  C   UNL     1      -4.979  -2.743   5.596  1.00  0.00     0.005 A 
ENDBRANCH  17  20
ENDBRANCH   8   9
ENDBRANCH   5   8
ENDBRANCH   3   4
ENDBRANCH   2   3
ENDBRANCH   1   2
BRANCH   1  31
ATOM     31  C   UNL     1       2.081  -5.571   5.745  1.00  0.00     0.116 C 
BRANCH  31  32
ATOM     32  N   UNL     1       3.195  -4.680   5.497  1.00  0.00    -0.352 N 
ATOM     33  C   UNL     1       3.851  -3.731   6.229  1.00  0.00     0.251 C 
ATOM     34  H   UNL     1       3.567  -4.783   4.591  1.00  0.00     0.163 HD
ATOM     35  O   UNL     1       4.853  -3.244   5.699  1.00  0.00    -0.269 OA
BRANCH  33  36
ATOM     36  C   UNL     1       3.396  -3.208   7.544  1.00  0.00     0.039 A 
ATOM     37  C   UNL     1       2.322  -3.705   8.281  1.00  0.00     0.014 A 
ATOM     38  C   UNL     1       4.069  -2.065   8.016  1.00  0.00     0.014 A 
ATOM     39  C   UNL     1       1.837  -3.005   9.373  1.00  0.00     0.010 A 
ATOM     40  C   UNL     1       3.606  -1.375   9.126  1.00  0.00     0.010 A 
ATOM     41  C   UNL     1       2.445  -1.810   9.753  1.00  0.00    -0.014 A 
BRANCH  41  42
ATOM     42  C   UNL     1       1.839  -1.081  10.858  1.00  0.00     0.031 A 
ATOM     43  C   UNL     1       1.836  -1.815  12.156  1.00  0.00     0.074 A 
ATOM     44  C   UNL     1       1.400   0.184  10.719  1.00  0.00     0.049 A 
ATOM     45  N   UNL     1       0.827  -2.204  12.867  1.00  0.00    -0.248 NA
ATOM     46  C   UNL     1       3.134  -2.313  12.638  1.00  0.00     0.031 C 
ATOM     47  C   UNL     1       1.617   1.093   9.588  1.00  0.00     0.029 A 
ATOM     48  N   UNL     1       0.763   0.974  11.622  1.00  0.00    -0.354 N 
ATOM     49  C   UNL     1       1.372  -2.822  13.995  1.00  0.00     0.074 A 
ATOM     50  C   UNL     1       2.770  -3.016  13.709  1.00  0.00     0.031 C 
ATOM     51  C   UNL     1       1.366   2.361   9.984  1.00  0.00     0.029 A 
ATOM     52  C   UNL     1       0.826   2.329  11.332  1.00  0.00     0.049 A 
ATOM     53  H   UNL     1       0.297   0.616  12.412  1.00  0.00     0.167 HD
ATOM     54  C   UNL     1       0.684  -2.934  15.168  1.00  0.00     0.034 A 
ATOM     55  C   UNL     1       0.561   3.350  12.185  1.00  0.00     0.034 A 
ATOM     56  C   UNL     1      -0.726  -2.740  14.968  1.00  0.00     0.049 A 
ATOM     57  C   UNL     1      -0.215   2.805  13.326  1.00  0.00     0.074 A 
ATOM     58  C   UNL     1      -1.714  -3.413  14.281  1.00  0.00     0.029 A 
ATOM     59  N   UNL     1      -1.244  -1.502  15.257  1.00  0.00    -0.354 N 
ATOM     60  N   UNL     1      -1.439   2.366  13.234  1.00  0.00    -0.248 NA
ATOM     61  C   UNL     1       0.537   2.329  14.478  1.00  0.00     0.031 C 
ATOM     62  C   UNL     1      -2.576  -2.395  13.785  1.00  0.00     0.029 A 
ATOM     63  C   UNL     1      -2.098  -1.164  14.242  1.00  0.00     0.049 A 
ATOM     64  H   UNL     1      -1.038  -0.956  16.050  1.00  0.00     0.167 HD
ATOM     65  C   UNL     1      -1.462   1.233  14.035  1.00  0.00     0.074 A 
ATOM     66  C   UNL     1      -0.249   1.316  14.847  1.00  0.00     0.031 C 
ATOM     67  C   UNL     1      -2.303   0.190  13.768  1.00  0.00     0.034 A 
BRANCH  54  68
ATOM     68  C   UNL     1       1.331  -2.856  16.534  1.00  0.00     0.023 A 
ATOM     69  C   UNL     1       2.678  -2.493  16.724  1.00  0.00     0.031 A 
ATOM     70  C   UNL     1       0.544  -2.903  17.704  1.00  0.00     0.131 A 
ATOM     71  C   UNL     1       3.193  -2.189  17.991  1.00  0.00     0.055 A 
ATOM     72  C   UNL     1       1.040  -2.536  18.963  1.00  0.00     0.041 A 
ATOM     73  F   UNL     1      -0.754  -3.242  17.653  1.00  0.00    -0.206 F 
ATOM     74  C   UNL     1       2.372  -2.170  19.111  1.00  0.00     0.022 A 
BRANCH  71  75
ATOM     75  S   UNL     1       4.951  -1.789  18.187  1.00  0.00     0.124 S 
ATOM     76  O   UNL     1       4.892  -0.419  18.684  1.00  0.00    -0.237 OA
ATOM     77  O   UNL     1       5.377  -2.797  19.155  1.00  0.00    -0.237 OA
ATOM     78  O   UNL     1       5.493  -1.959  16.842  1.00  0.00    -0.744 OA
ENDBRANCH  71  75
ENDBRANCH  54  68
BRANCH  55  79
ATOM     79  C   UNL     1       1.388   4.573  12.327  1.00  0.00     0.023 A 
ATOM     80  C   UNL     1       2.768   4.515  12.051  1.00  0.00     0.031 A 
ATOM     81  C   UNL     1       0.914   5.698  13.020  1.00  0.00     0.131 A 
ATOM     82  C   UNL     1       3.629   5.525  12.499  1.00  0.00     0.055 A 
ATOM     83  C   UNL     1       1.774   6.716  13.452  1.00  0.00     0.041 A 
ATOM     84  F   UNL     1      -0.383   5.797  13.351  1.00  0.00    -0.206 F 
ATOM     85  C   UNL     1       3.142   6.625  13.204  1.00  0.00     0.022 A 
BRANCH  82  86
ATOM     86  S   UNL     1       5.419   5.372  12.246  1.00  0.00     0.124 S 
ATOM     87  O   UNL     1       5.764   6.687  11.701  1.00  0.00    -0.237 OA
ATOM     88  O   UNL     1       5.888   5.120  13.609  1.00  0.00    -0.237 OA
ATOM     89  O   UNL     1       5.544   4.266  11.315  1.00  0.00    -0.744 OA
ENDBRANCH  82  86
ENDBRANCH  55  79
BRANCH  67  90
ATOM     90  C   UNL     1      -3.376   0.363  12.716  1.00  0.00     0.023 A 
ATOM     91  C   UNL     1      -4.678  -0.036  13.059  1.00  0.00     0.031 A 
ATOM     92  C   UNL     1      -3.122   0.657  11.362  1.00  0.00     0.131 A 
ATOM     93  C   UNL     1      -5.657  -0.183  12.070  1.00  0.00     0.055 A 
ATOM     94  C   UNL     1      -4.123   0.581  10.387  1.00  0.00     0.041 A 
ATOM     95  F   UNL     1      -1.888   0.933  10.924  1.00  0.00    -0.206 F 
ATOM     96  C   UNL     1      -5.394   0.140  10.736  1.00  0.00     0.022 A 
BRANCH  93  97
ATOM     97  S   UNL     1      -7.238  -0.970  12.466  1.00  0.00     0.124 S 
ATOM     98  O   UNL     1      -8.189   0.113  12.235  1.00  0.00    -0.237 OA
ATOM     99  O   UNL     1      -7.288  -2.066  11.500  1.00  0.00    -0.237 OA
ATOM    100  O   UNL     1      -7.088  -1.384  13.859  1.00  0.00    -0.744 OA
ENDBRANCH  93  97
ENDBRANCH  67  90
ENDBRANCH  41  42
ENDBRANCH  33  36
ENDBRANCH  31  32
ENDBRANCH   1  31
TORSDOF 16
