REMARK SMILES O=C(NCCCCNC(=O)c1ccc(-c2c3nc(c(-c4cc(S(=O)(=O)[O-])ccc4F)c4ccc([nH]4)c(-c4cc(S(=O)(=O)[O-])ccc4F)c4nc(c(-c5cc(S(=O)(=O)[O-])ccc5F)c5ccc2[nH]5)C=C4)C=C3)cc1)C1=Cc2c(ccc(Cl)c2Sc2ccccc2)O[C@H]1C(F)(F)F
REMARK SMILES IDX 6 1 5 2 4 3 3 4 1 5 2 6 74 8 75 9 91 10 76 11 90 12 77 13
REMARK SMILES IDX 82 14 78 15 80 16 79 17 81 18 92 19 93 20 94 21 95 22 83 23
REMARK SMILES IDX 84 24 85 25 89 26 86 27 88 28 87 29 7 30 8 31 9 32 10 34
REMARK SMILES IDX 11 35 12 36 73 37 13 38 72 39 14 40 15 41 16 42 66 43 17 44
REMARK SMILES IDX 71 45 65 46 67 47 18 48 70 49 64 50 63 51 19 53 51 54 31 55
REMARK SMILES IDX 50 56 32 57 35 58 49 59 68 60 33 61 34 62 48 64 69 65 36 66
REMARK SMILES IDX 20 67 21 68 29 69 22 70 28 71 30 72 27 73 23 74 24 75 25 76
REMARK SMILES IDX 26 77 52 78 53 79 61 80 54 81 60 82 62 83 59 84 55 85 56 86
REMARK SMILES IDX 57 87 58 88 37 89 38 90 46 91 39 92 45 93 47 94 44 95 40 96
REMARK SMILES IDX 41 97 42 98 43 99
REMARK H PARENT 3 7 8 33 67 52 35 63
REMARK Flexibility Score: inf
ROOT
ATOM      1  C   UNL     1       3.938  -4.461  -0.098  1.00  0.00     0.023 C 
ENDROOT
BRANCH   1   2
ATOM      2  C   UNL     1       4.224  -3.257   0.790  1.00  0.00     0.023 C 
BRANCH   2   3
ATOM      3  C   UNL     1       3.751  -1.922   0.231  1.00  0.00     0.116 C 
BRANCH   3   4
ATOM      4  N   UNL     1       2.500  -1.456   0.799  1.00  0.00    -0.352 N 
ATOM      5  O   UNL     1       1.090  -0.010   1.806  1.00  0.00    -0.270 OA
ATOM      6  C   UNL     1       2.184  -0.221   1.292  1.00  0.00     0.251 C 
ATOM      7  H   UNL     1       1.776  -2.123   0.834  1.00  0.00     0.163 HD
BRANCH   6   8
ATOM      8  C   UNL     1       3.176   0.872   1.238  1.00  0.00     0.067 C 
ATOM      9  C   UNL     1       3.490   1.429   0.063  1.00  0.00     0.026 C 
ATOM     10  C   UNL     1       4.075   1.082   2.410  1.00  0.00     0.314 C 
ATOM     11  C   UNL     1       4.877   1.107  -0.351  1.00  0.00     0.033 A 
ATOM     12  O   UNL     1       5.488   1.012   2.038  1.00  0.00    -0.475 OA
ATOM     13  C   UNL     1       5.800   0.882   0.701  1.00  0.00     0.129 A 
ATOM     14  C   UNL     1       5.224   0.853  -1.704  1.00  0.00     0.042 A 
ATOM     15  C   UNL     1       7.063   0.372   0.428  1.00  0.00     0.049 A 
ATOM     16  C   UNL     1       6.500   0.287  -1.936  1.00  0.00     0.055 A 
ATOM     17  C   UNL     1       7.399   0.048  -0.883  1.00  0.00     0.025 A 
ATOM     18  Cl  UNL     1       7.037  -0.222  -3.507  1.00  0.00    -0.083 Cl
BRANCH  10  19
ATOM     19  C   UNL     1       3.779   2.420   3.104  1.00  0.00     0.429 C 
ATOM     20  F   UNL     1       2.453   2.652   3.243  1.00  0.00    -0.167 F 
ATOM     21  F   UNL     1       4.315   2.454   4.348  1.00  0.00    -0.167 F 
ATOM     22  F   UNL     1       4.294   3.471   2.418  1.00  0.00    -0.167 F 
ENDBRANCH  10  19
BRANCH  14  23
ATOM     23  S   UNL     1       4.101   1.056  -3.122  1.00  0.00    -0.088 SA
BRANCH  23  24
ATOM     24  C   UNL     1       2.873   2.246  -2.631  1.00  0.00     0.012 A 
ATOM     25  C   UNL     1       1.579   1.802  -2.324  1.00  0.00     0.015 A 
ATOM     26  C   UNL     1       3.198   3.595  -2.449  1.00  0.00     0.015 A 
ATOM     27  C   UNL     1       0.655   2.673  -1.745  1.00  0.00     0.001 A 
ATOM     28  C   UNL     1       2.267   4.468  -1.878  1.00  0.00     0.001 A 
ATOM     29  C   UNL     1       1.005   4.001  -1.507  1.00  0.00     0.000 A 
ENDBRANCH  23  24
ENDBRANCH  14  23
ENDBRANCH   6   8
ENDBRANCH   3   4
ENDBRANCH   2   3
ENDBRANCH   1   2
BRANCH   1  30
ATOM     30  C   UNL     1       4.507  -4.399  -1.514  1.00  0.00     0.116 C 
BRANCH  30  31
ATOM     31  N   UNL     1       5.949  -4.193  -1.577  1.00  0.00    -0.352 N 
ATOM     32  C   UNL     1       6.868  -4.851  -2.370  1.00  0.00     0.251 C 
ATOM     33  H   UNL     1       6.313  -3.499  -0.981  1.00  0.00     0.163 HD
ATOM     34  O   UNL     1       8.066  -4.606  -2.275  1.00  0.00    -0.269 OA
BRANCH  32  35
ATOM     35  C   UNL     1       6.376  -5.897  -3.292  1.00  0.00     0.039 A 
ATOM     36  C   UNL     1       6.838  -7.206  -3.141  1.00  0.00     0.014 A 
ATOM     37  C   UNL     1       5.353  -5.601  -4.195  1.00  0.00     0.014 A 
ATOM     38  C   UNL     1       6.189  -8.244  -3.816  1.00  0.00     0.010 A 
ATOM     39  C   UNL     1       4.664  -6.644  -4.806  1.00  0.00     0.010 A 
ATOM     40  C   UNL     1       5.057  -7.978  -4.603  1.00  0.00    -0.014 A 
BRANCH  40  41
ATOM     41  C   UNL     1       4.242  -9.067  -5.208  1.00  0.00     0.031 A 
ATOM     42  C   UNL     1       4.090  -9.132  -6.703  1.00  0.00     0.074 A 
ATOM     43  C   UNL     1       3.549  -9.913  -4.418  1.00  0.00     0.049 A 
ATOM     44  N   UNL     1       3.280  -9.864  -7.423  1.00  0.00    -0.248 NA
ATOM     45  C   UNL     1       4.935  -8.219  -7.487  1.00  0.00     0.031 C 
ATOM     46  C   UNL     1       3.580  -9.926  -2.952  1.00  0.00     0.029 A 
ATOM     47  N   UNL     1       2.660 -10.913  -4.733  1.00  0.00    -0.354 N 
ATOM     48  C   UNL     1       3.488  -9.471  -8.741  1.00  0.00     0.074 A 
ATOM     49  C   UNL     1       4.472  -8.410  -8.713  1.00  0.00     0.031 C 
ATOM     50  C   UNL     1       2.759 -10.889  -2.501  1.00  0.00     0.029 A 
ATOM     51  C   UNL     1       2.102 -11.530  -3.635  1.00  0.00     0.049 A 
ATOM     52  H   UNL     1       2.443 -11.166  -5.660  1.00  0.00     0.167 HD
ATOM     53  C   UNL     1       2.920  -9.961  -9.870  1.00  0.00     0.034 A 
ATOM     54  C   UNL     1       1.153 -12.485  -3.552  1.00  0.00     0.034 A 
ATOM     55  C   UNL     1       1.974 -11.049  -9.885  1.00  0.00     0.049 A 
ATOM     56  C   UNL     1       0.556 -13.032  -4.826  1.00  0.00     0.074 A 
ATOM     57  C   UNL     1       1.387 -11.665 -10.976  1.00  0.00     0.029 A 
ATOM     58  N   UNL     1       1.482 -11.688  -8.755  1.00  0.00    -0.354 N 
ATOM     59  N   UNL     1       0.794 -12.675  -6.067  1.00  0.00    -0.248 NA
ATOM     60  C   UNL     1      -0.429 -14.115  -4.691  1.00  0.00     0.031 C 
ATOM     61  C   UNL     1       0.505 -12.643 -10.506  1.00  0.00     0.029 A 
ATOM     62  C   UNL     1       0.590 -12.681  -9.123  1.00  0.00     0.049 A 
ATOM     63  H   UNL     1       1.731 -11.467  -7.828  1.00  0.00     0.167 HD
ATOM     64  C   UNL     1       0.021 -13.520  -6.859  1.00  0.00     0.074 A 
ATOM     65  C   UNL     1      -0.687 -14.404  -5.958  1.00  0.00     0.031 C 
ATOM     66  C   UNL     1      -0.088 -13.567  -8.210  1.00  0.00     0.034 A 
BRANCH  53  67
ATOM     67  C   UNL     1       3.292  -9.306 -11.176  1.00  0.00     0.023 A 
ATOM     68  C   UNL     1       4.601  -9.362 -11.683  1.00  0.00     0.031 A 
ATOM     69  C   UNL     1       2.326  -8.603 -11.917  1.00  0.00     0.131 A 
ATOM     70  C   UNL     1       4.925  -8.667 -12.857  1.00  0.00     0.055 A 
ATOM     71  C   UNL     1       2.637  -7.978 -13.126  1.00  0.00     0.041 A 
ATOM     72  F   UNL     1       1.063  -8.501 -11.472  1.00  0.00    -0.206 F 
ATOM     73  C   UNL     1       3.947  -7.997 -13.596  1.00  0.00     0.022 A 
BRANCH  70  74
ATOM     74  S   UNL     1       6.669  -8.551 -13.341  1.00  0.00     0.124 S 
ATOM     75  O   UNL     1       7.237  -7.817 -12.213  1.00  0.00    -0.237 OA
ATOM     76  O   UNL     1       7.060  -9.952 -13.452  1.00  0.00    -0.237 OA
ATOM     77  O   UNL     1       6.627  -7.813 -14.601  1.00  0.00    -0.744 OA
ENDBRANCH  70  74
ENDBRANCH  53  67
BRANCH  54  78
ATOM     78  C   UNL     1       0.685 -12.987  -2.226  1.00  0.00     0.023 A 
ATOM     79  C   UNL     1       0.886 -14.325  -1.850  1.00  0.00     0.031 A 
ATOM     80  C   UNL     1      -0.031 -12.157  -1.345  1.00  0.00     0.131 A 
ATOM     81  C   UNL     1       0.325 -14.810  -0.658  1.00  0.00     0.055 A 
ATOM     82  C   UNL     1      -0.539 -12.630  -0.134  1.00  0.00     0.041 A 
ATOM     83  F   UNL     1      -0.246 -10.867  -1.651  1.00  0.00    -0.206 F 
ATOM     84  C   UNL     1      -0.377 -13.970   0.208  1.00  0.00     0.022 A 
BRANCH  81  85
ATOM     85  S   UNL     1       0.433 -16.588  -0.310  1.00  0.00     0.124 S 
ATOM     86  O   UNL     1      -0.156 -17.163  -1.514  1.00  0.00    -0.237 OA
ATOM     87  O   UNL     1       1.871 -16.775  -0.145  1.00  0.00    -0.237 OA
ATOM     88  O   UNL     1      -0.359 -16.744   0.909  1.00  0.00    -0.744 OA
ENDBRANCH  81  85
ENDBRANCH  54  78
BRANCH  66  89
ATOM     89  C   UNL     1      -0.941 -14.662  -8.795  1.00  0.00     0.023 A 
ATOM     90  C   UNL     1      -2.341 -14.656  -8.681  1.00  0.00     0.031 A 
ATOM     91  C   UNL     1      -0.333 -15.721  -9.493  1.00  0.00     0.131 A 
ATOM     92  C   UNL     1      -3.087 -15.713  -9.224  1.00  0.00     0.055 A 
ATOM     93  C   UNL     1      -1.084 -16.744 -10.072  1.00  0.00     0.041 A 
ATOM     94  F   UNL     1       1.002 -15.771  -9.630  1.00  0.00    -0.206 F 
ATOM     95  C   UNL     1      -2.468 -16.749  -9.932  1.00  0.00     0.022 A 
BRANCH  92  96
ATOM     96  S   UNL     1      -4.879 -15.749  -8.948  1.00  0.00     0.124 S 
ATOM     97  O   UNL     1      -4.961 -15.823  -7.493  1.00  0.00    -0.237 OA
ATOM     98  O   UNL     1      -5.314 -14.491  -9.547  1.00  0.00    -0.237 OA
ATOM     99  O   UNL     1      -5.312 -16.953  -9.657  1.00  0.00    -0.744 OA
ENDBRANCH  92  96
ENDBRANCH  66  89
ENDBRANCH  40  41
ENDBRANCH  32  35
ENDBRANCH  30  31
ENDBRANCH   1  30
TORSDOF 17
