REMARK SMILES Cc1nc(S(=O)(=O)N[C@H]2C=C[C@H](C(=O)NCCCCNC(=O)c3ccc(-c4c5nc(c(-c6cc(S(=O)(=O)[O-])ccc6F)c6ccc([nH]6)c(-c6cc(S(=O)(=O)[O-])ccc6F)c6nc(c(-c7cc(S(=O)(=O)[O-])ccc7F)c7ccc4[nH]7)C=C6)C=C5)cc3)C2)cn1C
REMARK SMILES IDX 17 1 16 2 15 3 13 4 14 5 12 7 9 8 10 9 86 10 11 11 8 12 5 14
REMARK SMILES IDX 6 15 7 16 4 17 1 18 2 19 3 20 88 21 87 22 89 23 18 24 19 25
REMARK SMILES IDX 20 26 21 27 22 29 23 30 24 31 85 32 25 33 84 34 26 35 27 36
REMARK SMILES IDX 28 37 78 38 29 39 83 40 77 41 79 42 30 43 82 44 76 45 75 46
REMARK SMILES IDX 31 48 63 49 43 50 62 51 44 52 47 53 61 54 80 55 45 56 46 57
REMARK SMILES IDX 60 59 81 60 48 61 32 62 33 63 41 64 34 65 40 66 42 67 39 68
REMARK SMILES IDX 35 69 36 70 37 71 38 72 64 73 65 74 73 75 66 76 72 77 74 78
REMARK SMILES IDX 71 79 67 80 68 81 69 82 70 83 49 84 50 85 58 86 51 87 57 88
REMARK SMILES IDX 59 89 56 90 52 91 53 92 54 93 55 94
REMARK H PARENT 15 6 8 13 20 28 79 47 47 58
REMARK Flexibility Score: inf
ROOT
ATOM      1  C   UNL     1       1.474   6.999   0.483  1.00  0.00     0.023 C 
ENDROOT
BRANCH   1   2
ATOM      2  C   UNL     1       2.760   7.076   1.304  1.00  0.00     0.116 C 
BRANCH   2   3
ATOM      3  N   UNL     1       2.643   6.382   2.576  1.00  0.00    -0.356 N 
ATOM      4  C   UNL     1       3.311   5.275   3.025  1.00  0.00     0.226 C 
ATOM      5  O   UNL     1       3.060   4.858   4.155  1.00  0.00    -0.274 OA
ATOM      6  H   UNL     1       1.988   6.763   3.205  1.00  0.00     0.163 HD
BRANCH   4   7
ATOM      7  C   UNL     1       4.328   4.608   2.094  1.00  0.00     0.103 C 
ATOM      8  C   UNL     1       3.703   2.351   1.348  1.00  0.00     0.093 C 
ATOM      9  C   UNL     1       4.824   2.315   2.325  1.00  0.00    -0.011 C 
ATOM     10  C   UNL     1       3.624   3.838   0.971  1.00  0.00     0.042 C 
ATOM     11  C   UNL     1       5.147   3.539   2.755  1.00  0.00    -0.016 C 
BRANCH   8  12
ATOM     12  N   UNL     1       4.035   1.594   0.145  1.00  0.00    -0.203 NA
ATOM     13  H   UNL     1       3.664   2.110  -0.653  1.00  0.00     0.142 HD
BRANCH  12  14
ATOM     14  S   UNL     1       3.459   0.010   0.033  1.00  0.00     0.260 S 
ATOM     15  O   UNL     1       3.796  -0.660   1.269  1.00  0.00    -0.205 OA
ATOM     16  O   UNL     1       3.897  -0.481  -1.256  1.00  0.00    -0.205 OA
BRANCH  14  17
ATOM     17  C   UNL     1       1.715   0.017  -0.045  1.00  0.00     0.188 A 
ATOM     18  C   UNL     1      -1.493  -1.629   0.025  1.00  0.00     0.088 C 
ATOM     19  C   UNL     1      -0.312  -0.728  -0.017  1.00  0.00     0.106 A 
ATOM     20  N   UNL     1       0.943  -1.129   0.033  1.00  0.00    -0.221 NA
ATOM     21  N   UNL     1      -0.377   0.643  -0.111  1.00  0.00    -0.337 N 
ATOM     22  C   UNL     1       0.902   1.126  -0.172  1.00  0.00     0.129 A 
ATOM     23  C   UNL     1      -1.573   1.451  -0.115  1.00  0.00     0.151 C 
ENDBRANCH  14  17
ENDBRANCH  12  14
ENDBRANCH   8  12
ENDBRANCH   4   7
ENDBRANCH   2   3
ENDBRANCH   1   2
BRANCH   1  24
ATOM     24  C   UNL     1       0.259   7.686   1.112  1.00  0.00     0.023 C 
BRANCH  24  25
ATOM     25  C   UNL     1       0.439   9.164   1.445  1.00  0.00     0.116 C 
BRANCH  25  26
ATOM     26  N   UNL     1       0.738   9.975   0.277  1.00  0.00    -0.352 N 
ATOM     27  C   UNL     1       0.222  11.199  -0.083  1.00  0.00     0.251 C 
ATOM     28  H   UNL     1       1.403   9.597  -0.343  1.00  0.00     0.163 HD
ATOM     29  O   UNL     1       0.497  11.671  -1.182  1.00  0.00    -0.269 OA
BRANCH  27  30
ATOM     30  C   UNL     1      -0.689  11.919   0.836  1.00  0.00     0.039 A 
ATOM     31  C   UNL     1      -1.860  12.482   0.322  1.00  0.00     0.014 A 
ATOM     32  C   UNL     1      -0.397  12.032   2.198  1.00  0.00     0.014 A 
ATOM     33  C   UNL     1      -2.773  13.096   1.184  1.00  0.00     0.010 A 
ATOM     34  C   UNL     1      -1.338  12.585   3.064  1.00  0.00     0.010 A 
ATOM     35  C   UNL     1      -2.537  13.120   2.568  1.00  0.00    -0.014 A 
BRANCH  35  36
ATOM     36  C   UNL     1      -3.521  13.706   3.516  1.00  0.00     0.031 A 
ATOM     37  C   UNL     1      -3.153  14.920   4.325  1.00  0.00     0.074 A 
ATOM     38  C   UNL     1      -4.710  13.103   3.707  1.00  0.00     0.049 A 
ATOM     39  N   UNL     1      -3.814  15.507   5.289  1.00  0.00    -0.248 NA
ATOM     40  C   UNL     1      -1.849  15.530   4.029  1.00  0.00     0.031 C 
ATOM     41  C   UNL     1      -5.173  11.902   3.008  1.00  0.00     0.029 A 
ATOM     42  N   UNL     1      -5.743  13.407   4.559  1.00  0.00    -0.354 N 
ATOM     43  C   UNL     1      -3.000  16.546   5.729  1.00  0.00     0.074 A 
ATOM     44  C   UNL     1      -1.773  16.465   4.963  1.00  0.00     0.031 C 
ATOM     45  C   UNL     1      -6.400  11.582   3.448  1.00  0.00     0.029 A 
ATOM     46  C   UNL     1      -6.795  12.524   4.490  1.00  0.00     0.049 A 
ATOM     47  H   UNL     1      -5.731  14.185   5.162  1.00  0.00     0.167 HD
ATOM     48  C   UNL     1      -3.259  17.491   6.668  1.00  0.00     0.034 A 
ATOM     49  C   UNL     1      -7.941  12.470   5.197  1.00  0.00     0.034 A 
ATOM     50  C   UNL     1      -4.493  17.565   7.413  1.00  0.00     0.049 A 
ATOM     51  C   UNL     1      -8.202  13.517   6.250  1.00  0.00     0.074 A 
ATOM     52  C   UNL     1      -4.880  18.506   8.352  1.00  0.00     0.029 A 
ATOM     53  N   UNL     1      -5.542  16.660   7.306  1.00  0.00    -0.354 N 
ATOM     54  N   UNL     1      -7.436  14.512   6.633  1.00  0.00    -0.248 NA
ATOM     55  C   UNL     1      -9.486  13.437   6.959  1.00  0.00     0.031 C 
ATOM     56  C   UNL     1      -6.134  18.138   8.854  1.00  0.00     0.029 A 
ATOM     57  C   UNL     1      -6.562  17.006   8.179  1.00  0.00     0.049 A 
ATOM     58  H   UNL     1      -5.557  15.884   6.700  1.00  0.00     0.167 HD
ATOM     59  C   UNL     1      -8.160  15.195   7.606  1.00  0.00     0.074 A 
ATOM     60  C   UNL     1      -9.425  14.502   7.745  1.00  0.00     0.031 C 
ATOM     61  C   UNL     1      -7.815  16.300   8.314  1.00  0.00     0.034 A 
BRANCH  48  62
ATOM     62  C   UNL     1      -2.168  18.495   6.952  1.00  0.00     0.023 A 
ATOM     63  C   UNL     1      -1.703  19.378   5.961  1.00  0.00     0.031 A 
ATOM     64  C   UNL     1      -1.548  18.540   8.213  1.00  0.00     0.131 A 
ATOM     65  C   UNL     1      -0.593  20.197   6.216  1.00  0.00     0.055 A 
ATOM     66  C   UNL     1      -0.500  19.422   8.489  1.00  0.00     0.041 A 
ATOM     67  F   UNL     1      -1.934  17.709   9.195  1.00  0.00    -0.206 F 
ATOM     68  C   UNL     1      -0.004  20.244   7.481  1.00  0.00     0.022 A 
BRANCH  65  69
ATOM     69  S   UNL     1       0.171  21.072   4.823  1.00  0.00     0.124 S 
ATOM     70  O   UNL     1       0.511  19.965   3.932  1.00  0.00    -0.237 OA
ATOM     71  O   UNL     1      -0.904  21.948   4.372  1.00  0.00    -0.237 OA
ATOM     72  O   UNL     1       1.316  21.748   5.429  1.00  0.00    -0.744 OA
ENDBRANCH  65  69
ENDBRANCH  48  62
BRANCH  49  73
ATOM     73  C   UNL     1      -8.930  11.386   4.945  1.00  0.00     0.023 A 
ATOM     74  C   UNL     1     -10.189  11.672   4.394  1.00  0.00     0.031 A 
ATOM     75  C   UNL     1      -8.642  10.051   5.279  1.00  0.00     0.131 A 
ATOM     76  C   UNL     1     -11.130  10.645   4.229  1.00  0.00     0.055 A 
ATOM     77  C   UNL     1      -9.566   9.024   5.072  1.00  0.00     0.041 A 
ATOM     78  F   UNL     1      -7.449   9.723   5.799  1.00  0.00    -0.206 F 
ATOM     79  C   UNL     1     -10.823   9.321   4.555  1.00  0.00     0.022 A 
BRANCH  76  80
ATOM     80  S   UNL     1     -12.790  11.075   3.640  1.00  0.00     0.124 S 
ATOM     81  O   UNL     1     -13.241  12.002   4.671  1.00  0.00    -0.237 OA
ATOM     82  O   UNL     1     -12.506  11.656   2.333  1.00  0.00    -0.237 OA
ATOM     83  O   UNL     1     -13.483   9.788   3.610  1.00  0.00    -0.744 OA
ENDBRANCH  76  80
ENDBRANCH  49  73
BRANCH  61  84
ATOM     84  C   UNL     1      -8.847  16.853   9.265  1.00  0.00     0.023 A 
ATOM     85  C   UNL     1      -9.221  16.169  10.434  1.00  0.00     0.031 A 
ATOM     86  C   UNL     1      -9.472  18.082   8.986  1.00  0.00     0.131 A 
ATOM     87  C   UNL     1     -10.229  16.694  11.257  1.00  0.00     0.055 A 
ATOM     88  C   UNL     1     -10.436  18.625   9.836  1.00  0.00     0.041 A 
ATOM     89  F   UNL     1      -9.153  18.775   7.881  1.00  0.00    -0.206 F 
ATOM     90  C   UNL     1     -10.828  17.924  10.973  1.00  0.00     0.022 A 
BRANCH  87  91
ATOM     91  S   UNL     1     -10.807  15.708  12.666  1.00  0.00     0.124 S 
ATOM     92  O   UNL     1     -11.275  14.489  12.012  1.00  0.00    -0.237 OA
ATOM     93  O   UNL     1      -9.597  15.575  13.471  1.00  0.00    -0.237 OA
ATOM     94  O   UNL     1     -11.856  16.536  13.257  1.00  0.00    -0.744 OA
ENDBRANCH  87  91
ENDBRANCH  61  84
ENDBRANCH  35  36
ENDBRANCH  27  30
ENDBRANCH  25  26
ENDBRANCH  24  25
ENDBRANCH   1  24
TORSDOF 17
