REMARK SMILES CC(C)CCOc1ccccc1-c1cc(C(=O)NCCCCNC(=O)c2ccc(-c3c4nc(c(-c5cc(S(=O)(=O)[O-])ccc5F)c5ccc([nH]5)c(-c5cc(S(=O)(=O)[O-])ccc5F)c5nc(c(-c6cc(S(=O)(=O)[O-])ccc6F)c6ccc3[nH]6)C=C5)C=C4)cc2)no1
REMARK SMILES IDX 19 1 18 2 16 3 17 4 15 6 13 7 14 8 90 9 89 10 12 11 7 12
REMARK SMILES IDX 8 13 9 14 11 15 10 16 6 17 5 18 4 19 2 20 1 21 3 22 20 23
REMARK SMILES IDX 21 24 22 25 23 26 24 27 25 29 26 30 27 31 88 32 28 33 87 34
REMARK SMILES IDX 29 35 30 36 31 37 81 38 32 39 86 40 80 41 82 42 33 43 85 44
REMARK SMILES IDX 79 45 78 46 34 48 66 49 46 50 65 51 47 52 50 53 64 54 83 55
REMARK SMILES IDX 48 56 49 57 63 59 84 60 51 61 35 62 36 63 44 64 37 65 43 66
REMARK SMILES IDX 45 67 42 68 38 69 39 70 40 71 41 72 67 73 68 74 76 75 69 76
REMARK SMILES IDX 75 77 77 78 74 79 70 80 71 81 72 82 73 83 52 84 53 85 61 86
REMARK SMILES IDX 54 87 60 88 62 89 59 90 55 91 56 92 57 93 58 94
REMARK H PARENT 18 5 23 28 82 47 50 58
REMARK Flexibility Score: inf
ROOT
ATOM      1  C   UNL     1      -2.909   1.553   4.314  1.00  0.00     0.116 C 
ENDROOT
BRANCH   1   2
ATOM      2  N   UNL     1      -2.654   2.769   3.561  1.00  0.00    -0.351 N 
ATOM      3  C   UNL     1      -1.764   3.078   2.549  1.00  0.00     0.273 C 
ATOM      4  O   UNL     1      -1.935   4.151   1.970  1.00  0.00    -0.267 OA
ATOM      5  H   UNL     1      -3.230   3.524   3.824  1.00  0.00     0.163 HD
BRANCH   3   6
ATOM      6  C   UNL     1      -0.642   2.184   2.209  1.00  0.00     0.171 A 
ATOM      7  C   UNL     1       1.273   0.050   2.585  1.00  0.00     0.171 A 
ATOM      8  C   UNL     1      -0.063   0.733   3.198  1.00  0.00     0.088 A 
ATOM      9  O   UNL     1       1.819   1.097   1.115  1.00  0.00    -0.355 OA
ATOM     10  N   UNL     1       0.413   2.527   0.932  1.00  0.00    -0.074 NA
BRANCH   7  11
ATOM     11  C   UNL     1       1.663  -1.350   2.602  1.00  0.00     0.062 A 
ATOM     12  C   UNL     1       0.635  -2.317   2.467  1.00  0.00     0.130 A 
ATOM     13  C   UNL     1       0.949  -3.668   2.403  1.00  0.00     0.047 A 
ATOM     14  C   UNL     1       2.285  -4.060   2.480  1.00  0.00     0.004 A 
ATOM     15  C   UNL     1       2.993  -1.746   2.686  1.00  0.00     0.016 A 
ATOM     16  C   UNL     1       3.299  -3.107   2.637  1.00  0.00     0.001 A 
BRANCH  12  17
ATOM     17  O   UNL     1      -0.701  -1.976   2.520  1.00  0.00    -0.493 OA
BRANCH  17  18
ATOM     18  C   UNL     1      -1.270  -1.567   1.263  1.00  0.00     0.230 C 
BRANCH  18  19
ATOM     19  C   UNL     1      -1.379  -0.026   1.141  1.00  0.00     0.044 C 
BRANCH  19  20
ATOM     20  C   UNL     1       0.140   0.694   1.058  1.00  0.00    -0.014 C 
ATOM     21  C   UNL     1       0.282   0.856  -0.697  1.00  0.00     0.007 C 
ATOM     22  C   UNL     1       1.333   2.029   2.450  1.00  0.00     0.007 C 
ENDBRANCH  19  20
ENDBRANCH  18  19
ENDBRANCH  17  18
ENDBRANCH  12  17
ENDBRANCH   7  11
ENDBRANCH   3   6
ENDBRANCH   1   2
BRANCH   1  23
ATOM     23  C   UNL     1      -2.321   1.579   5.725  1.00  0.00     0.023 C 
BRANCH  23  24
ATOM     24  C   UNL     1      -3.194   2.301   6.750  1.00  0.00     0.023 C 
BRANCH  24  25
ATOM     25  C   UNL     1      -4.606   1.742   6.898  1.00  0.00     0.116 C 
BRANCH  25  26
ATOM     26  N   UNL     1      -4.635   0.342   7.293  1.00  0.00    -0.352 N 
ATOM     27  C   UNL     1      -5.506  -0.275   8.162  1.00  0.00     0.251 C 
ATOM     28  H   UNL     1      -3.947  -0.235   6.890  1.00  0.00     0.163 HD
ATOM     29  O   UNL     1      -5.312  -1.437   8.505  1.00  0.00    -0.269 OA
BRANCH  27  30
ATOM     30  C   UNL     1      -6.646   0.494   8.706  1.00  0.00     0.039 A 
ATOM     31  C   UNL     1      -6.878   0.471  10.081  1.00  0.00     0.014 A 
ATOM     32  C   UNL     1      -7.441   1.282   7.868  1.00  0.00     0.014 A 
ATOM     33  C   UNL     1      -7.865   1.296  10.623  1.00  0.00     0.010 A 
ATOM     34  C   UNL     1      -8.359   2.170   8.420  1.00  0.00     0.010 A 
ATOM     35  C   UNL     1      -8.581   2.189   9.805  1.00  0.00    -0.014 A 
BRANCH  35  36
ATOM     36  C   UNL     1      -9.541   3.157  10.399  1.00  0.00     0.031 A 
ATOM     37  C   UNL     1     -11.000   3.107  10.033  1.00  0.00     0.074 A 
ATOM     38  C   UNL     1      -9.087   4.100  11.249  1.00  0.00     0.049 A 
ATOM     39  N   UNL     1     -11.980   3.867  10.449  1.00  0.00    -0.248 NA
ATOM     40  C   UNL     1     -11.409   2.086   9.055  1.00  0.00     0.031 C 
ATOM     41  C   UNL     1      -7.686   4.276  11.642  1.00  0.00     0.029 A 
ATOM     42  N   UNL     1      -9.748   5.083  11.943  1.00  0.00    -0.354 N 
ATOM     43  C   UNL     1     -13.118   3.420   9.786  1.00  0.00     0.074 A 
ATOM     44  C   UNL     1     -12.693   2.364   8.892  1.00  0.00     0.031 C 
ATOM     45  C   UNL     1      -7.601   5.271  12.538  1.00  0.00     0.029 A 
ATOM     46  C   UNL     1      -8.925   5.849  12.739  1.00  0.00     0.049 A 
ATOM     47  H   UNL     1     -10.719   5.228  11.877  1.00  0.00     0.167 HD
ATOM     48  C   UNL     1     -14.399   3.837   9.927  1.00  0.00     0.034 A 
ATOM     49  C   UNL     1      -9.201   6.906  13.529  1.00  0.00     0.034 A 
ATOM     50  C   UNL     1     -14.804   4.893  10.824  1.00  0.00     0.049 A 
ATOM     51  C   UNL     1     -10.630   7.376  13.633  1.00  0.00     0.074 A 
ATOM     52  C   UNL     1     -16.083   5.355  11.084  1.00  0.00     0.029 A 
ATOM     53  N   UNL     1     -13.941   5.664  11.592  1.00  0.00    -0.354 N 
ATOM     54  N   UNL     1     -11.704   6.893  13.050  1.00  0.00    -0.248 NA
ATOM     55  C   UNL     1     -10.886   8.524  14.511  1.00  0.00     0.031 C 
ATOM     56  C   UNL     1     -15.985   6.464  11.928  1.00  0.00     0.029 A 
ATOM     57  C   UNL     1     -14.656   6.630  12.286  1.00  0.00     0.049 A 
ATOM     58  H   UNL     1     -12.965   5.543  11.638  1.00  0.00     0.167 HD
ATOM     59  C   UNL     1     -12.766   7.664  13.516  1.00  0.00     0.074 A 
ATOM     60  C   UNL     1     -12.205   8.619  14.449  1.00  0.00     0.031 C 
ATOM     61  C   UNL     1     -14.085   7.591  13.201  1.00  0.00     0.034 A 
BRANCH  48  62
ATOM     62  C   UNL     1     -15.454   3.178   9.069  1.00  0.00     0.023 A 
ATOM     63  C   UNL     1     -15.749   1.807   9.174  1.00  0.00     0.031 A 
ATOM     64  C   UNL     1     -16.181   3.936   8.134  1.00  0.00     0.131 A 
ATOM     65  C   UNL     1     -16.699   1.228   8.320  1.00  0.00     0.055 A 
ATOM     66  C   UNL     1     -17.186   3.370   7.348  1.00  0.00     0.041 A 
ATOM     67  F   UNL     1     -15.925   5.243   7.967  1.00  0.00    -0.206 F 
ATOM     68  C   UNL     1     -17.442   2.005   7.429  1.00  0.00     0.022 A 
BRANCH  65  69
ATOM     69  S   UNL     1     -16.849  -0.580   8.289  1.00  0.00     0.124 S 
ATOM     70  O   UNL     1     -15.489  -0.983   7.941  1.00  0.00    -0.237 OA
ATOM     71  O   UNL     1     -17.277  -0.884   9.649  1.00  0.00    -0.237 OA
ATOM     72  O   UNL     1     -17.848  -0.823   7.250  1.00  0.00    -0.744 OA
ENDBRANCH  65  69
ENDBRANCH  48  62
BRANCH  49  73
ATOM     73  C   UNL     1      -8.109   7.617  14.260  1.00  0.00     0.023 A 
ATOM     74  C   UNL     1      -8.110   7.712  15.661  1.00  0.00     0.031 A 
ATOM     75  C   UNL     1      -7.081   8.274  13.559  1.00  0.00     0.131 A 
ATOM     76  C   UNL     1      -7.144   8.497  16.310  1.00  0.00     0.055 A 
ATOM     77  C   UNL     1      -6.080   8.992  14.214  1.00  0.00     0.041 A 
ATOM     78  F   UNL     1      -7.032   8.222  12.218  1.00  0.00    -0.206 F 
ATOM     79  C   UNL     1      -6.118   9.122  15.598  1.00  0.00     0.022 A 
BRANCH  76  80
ATOM     80  S   UNL     1      -7.323   8.799  18.091  1.00  0.00     0.124 S 
ATOM     81  O   UNL     1      -8.658   9.380  18.158  1.00  0.00    -0.237 OA
ATOM     82  O   UNL     1      -7.178   7.455  18.641  1.00  0.00    -0.237 OA
ATOM     83  O   UNL     1      -6.225   9.715  18.392  1.00  0.00    -0.744 OA
ENDBRANCH  76  80
ENDBRANCH  49  73
BRANCH  61  84
ATOM     84  C   UNL     1     -15.015   8.550  13.908  1.00  0.00     0.023 A 
ATOM     85  C   UNL     1     -14.901   9.943  13.752  1.00  0.00     0.031 A 
ATOM     86  C   UNL     1     -16.009   8.066  14.778  1.00  0.00     0.131 A 
ATOM     87  C   UNL     1     -15.706  10.801  14.515  1.00  0.00     0.055 A 
ATOM     88  C   UNL     1     -16.866   8.924  15.468  1.00  0.00     0.041 A 
ATOM     89  F   UNL     1     -16.163   6.746  14.975  1.00  0.00    -0.206 F 
ATOM     90  C   UNL     1     -16.704  10.301  15.354  1.00  0.00     0.022 A 
BRANCH  87  91
ATOM     91  S   UNL     1     -15.332  12.576  14.505  1.00  0.00     0.124 S 
ATOM     92  O   UNL     1     -13.936  12.591  14.930  1.00  0.00    -0.237 OA
ATOM     93  O   UNL     1     -15.579  12.939  13.114  1.00  0.00    -0.237 OA
ATOM     94  O   UNL     1     -16.280  13.130  15.470  1.00  0.00    -0.744 OA
ENDBRANCH  87  91
ENDBRANCH  61  84
ENDBRANCH  35  36
ENDBRANCH  27  30
ENDBRANCH  25  26
ENDBRANCH  24  25
ENDBRANCH  23  24
ENDBRANCH   1  23
TORSDOF 19
