REMARK SMILES O=C(NCCCCNC(=O)c1ccc(-c2c3nc(c(-c4cc(S(=O)(=O)[O-])ccc4F)c4ccc([nH]4)c(-c4cc(S(=O)(=O)[O-])ccc4F)c4nc(c(-c5cc(S(=O)(=O)[O-])ccc5F)c5ccc2[nH]5)C=C4)C=C3)cc1)C1=Cc2cc(Cl)c(Cl)c(Cl)c2O[C@@H]1C(F)(F)F
REMARK SMILES IDX 6 1 5 2 4 3 3 4 1 5 2 6 74 8 75 9 86 10 76 11 85 12 77 13
REMARK SMILES IDX 84 14 78 15 82 16 79 17 80 18 83 19 81 20 87 21 88 22 89 23
REMARK SMILES IDX 90 24 7 25 8 26 9 27 10 29 11 30 12 31 73 32 13 33 72 34
REMARK SMILES IDX 14 35 15 36 16 37 66 38 17 39 71 40 65 41 67 42 18 43 70 44
REMARK SMILES IDX 64 45 63 46 19 48 51 49 31 50 50 51 32 52 35 53 49 54 68 55
REMARK SMILES IDX 33 56 34 57 48 59 69 60 36 61 20 62 21 63 29 64 22 65 28 66
REMARK SMILES IDX 30 67 27 68 23 69 24 70 25 71 26 72 52 73 53 74 61 75 54 76
REMARK SMILES IDX 60 77 62 78 59 79 55 80 56 81 57 82 58 83 37 84 38 85 46 86
REMARK SMILES IDX 39 87 45 88 47 89 44 90 40 91 41 92 42 93 43 94
REMARK H PARENT 3 7 8 28 67 47 35 58
REMARK Flexibility Score: inf
ROOT
ATOM      1  C   UNL     1       3.941   0.174  -4.488  1.00  0.00     0.023 C 
ENDROOT
BRANCH   1   2
ATOM      2  C   UNL     1       4.204  -0.724  -3.281  1.00  0.00     0.023 C 
BRANCH   2   3
ATOM      3  C   UNL     1       3.774  -0.149  -1.931  1.00  0.00     0.116 C 
BRANCH   3   4
ATOM      4  N   UNL     1       2.590  -0.785  -1.352  1.00  0.00    -0.352 N 
ATOM      5  O   UNL     1       1.135  -1.344   0.299  1.00  0.00    -0.270 OA
ATOM      6  C   UNL     1       2.264  -1.005  -0.031  1.00  0.00     0.251 C 
ATOM      7  H   UNL     1       1.925  -1.105  -2.005  1.00  0.00     0.163 HD
BRANCH   6   8
ATOM      8  C   UNL     1       3.275  -0.677   0.998  1.00  0.00     0.067 C 
ATOM      9  C   UNL     1       4.458  -1.306   1.051  1.00  0.00     0.025 C 
ATOM     10  C   UNL     1       3.046   0.569   1.795  1.00  0.00     0.314 C 
ATOM     11  C   UNL     1       5.569  -0.331   1.012  1.00  0.00     0.020 A 
ATOM     12  O   UNL     1       4.095   1.536   1.568  1.00  0.00    -0.474 OA
ATOM     13  C   UNL     1       6.774  -0.746   0.432  1.00  0.00     0.034 A 
ATOM     14  C   UNL     1       5.316   1.050   1.150  1.00  0.00     0.148 A 
ATOM     15  C   UNL     1       7.692   0.197  -0.045  1.00  0.00     0.062 A 
ATOM     16  C   UNL     1       6.258   1.997   0.706  1.00  0.00     0.103 A 
ATOM     17  Cl  UNL     1       9.079  -0.421  -0.876  1.00  0.00    -0.083 Cl
ATOM     18  C   UNL     1       7.443   1.572   0.085  1.00  0.00     0.082 A 
ATOM     19  Cl  UNL     1       5.870   3.687   0.844  1.00  0.00    -0.079 Cl
ATOM     20  Cl  UNL     1       8.559   2.729  -0.570  1.00  0.00    -0.081 Cl
BRANCH  10  21
ATOM     21  C   UNL     1       2.914   0.250   3.298  1.00  0.00     0.429 C 
ATOM     22  F   UNL     1       2.602   1.357   4.013  1.00  0.00    -0.167 F 
ATOM     23  F   UNL     1       1.943  -0.661   3.541  1.00  0.00    -0.167 F 
ATOM     24  F   UNL     1       4.063  -0.246   3.820  1.00  0.00    -0.167 F 
ENDBRANCH  10  21
ENDBRANCH   6   8
ENDBRANCH   3   4
ENDBRANCH   2   3
ENDBRANCH   1   2
BRANCH   1  25
ATOM     25  C   UNL     1       4.542   1.579  -4.442  1.00  0.00     0.116 C 
BRANCH  25  26
ATOM     26  N   UNL     1       5.987   1.622  -4.268  1.00  0.00    -0.352 N 
ATOM     27  C   UNL     1       6.927   2.366  -4.963  1.00  0.00     0.251 C 
ATOM     28  H   UNL     1       6.346   1.043  -3.557  1.00  0.00     0.163 HD
ATOM     29  O   UNL     1       8.112   2.254  -4.707  1.00  0.00    -0.269 OA
BRANCH  27  30
ATOM     30  C   UNL     1       6.469   3.236  -6.071  1.00  0.00     0.039 A 
ATOM     31  C   UNL     1       7.010   3.034  -7.343  1.00  0.00     0.014 A 
ATOM     32  C   UNL     1       5.424   4.142  -5.881  1.00  0.00     0.014 A 
ATOM     33  C   UNL     1       6.403   3.632  -8.450  1.00  0.00     0.010 A 
ATOM     34  C   UNL     1       4.772   4.671  -6.991  1.00  0.00     0.010 A 
ATOM     35  C   UNL     1       5.231   4.388  -8.288  1.00  0.00    -0.014 A 
BRANCH  35  36
ATOM     36  C   UNL     1       4.421   4.819  -9.459  1.00  0.00     0.031 A 
ATOM     37  C   UNL     1       4.188   6.278  -9.724  1.00  0.00     0.074 A 
ATOM     38  C   UNL     1       3.806   3.885 -10.215  1.00  0.00     0.049 A 
ATOM     39  N   UNL     1       3.420   6.844 -10.619  1.00  0.00    -0.248 NA
ATOM     40  C   UNL     1       4.882   7.223  -8.838  1.00  0.00     0.031 C 
ATOM     41  C   UNL     1       3.901   2.436 -10.014  1.00  0.00     0.029 A 
ATOM     42  N   UNL     1       2.961   4.011 -11.290  1.00  0.00    -0.354 N 
ATOM     43  C   UNL     1       3.524   8.213 -10.395  1.00  0.00     0.074 A 
ATOM     44  C   UNL     1       4.382   8.381  -9.240  1.00  0.00     0.031 C 
ATOM     45  C   UNL     1       3.157   1.811 -10.940  1.00  0.00     0.029 A 
ATOM     46  C   UNL     1       2.495   2.809 -11.773  1.00  0.00     0.049 A 
ATOM     47  H   UNL     1       2.710   4.880 -11.679  1.00  0.00     0.167 HD
ATOM     48  C   UNL     1       2.973   9.232 -11.100  1.00  0.00     0.034 A 
ATOM     49  C   UNL     1       1.620   2.538 -12.762  1.00  0.00     0.034 A 
ATOM     50  C   UNL     1       2.127   9.043 -12.254  1.00  0.00     0.049 A 
ATOM     51  C   UNL     1       1.016   3.684 -13.530  1.00  0.00     0.074 A 
ATOM     52  C   UNL     1       1.575  10.001 -13.087  1.00  0.00     0.029 A 
ATOM     53  N   UNL     1       1.699   7.810 -12.731  1.00  0.00    -0.354 N 
ATOM     54  N   UNL     1       1.182   4.974 -13.351  1.00  0.00    -0.248 NA
ATOM     55  C   UNL     1       0.116   3.339 -14.637  1.00  0.00     0.031 C 
ATOM     56  C   UNL     1       0.766   9.352 -14.027  1.00  0.00     0.029 A 
ATOM     57  C   UNL     1       0.864   7.984 -13.825  1.00  0.00     0.049 A 
ATOM     58  H   UNL     1       1.952   6.939 -12.349  1.00  0.00     0.167 HD
ATOM     59  C   UNL     1       0.420   5.594 -14.336  1.00  0.00     0.074 A 
ATOM     60  C   UNL     1      -0.191   4.536 -15.115  1.00  0.00     0.031 C 
ATOM     61  C   UNL     1       0.245   6.918 -14.578  1.00  0.00     0.034 A 
BRANCH  48  62
ATOM     62  C   UNL     1       3.255  10.635 -10.616  1.00  0.00     0.023 A 
ATOM     63  C   UNL     1       4.562  11.150 -10.575  1.00  0.00     0.031 A 
ATOM     64  C   UNL     1       2.213  11.450 -10.140  1.00  0.00     0.131 A 
ATOM     65  C   UNL     1       4.806  12.399  -9.986  1.00  0.00     0.055 A 
ATOM     66  C   UNL     1       2.452  12.729  -9.634  1.00  0.00     0.041 A 
ATOM     67  F   UNL     1       0.945  11.007 -10.137  1.00  0.00    -0.206 F 
ATOM     68  C   UNL     1       3.757  13.204  -9.536  1.00  0.00     0.022 A 
BRANCH  65  69
ATOM     69  S   UNL     1       6.525  12.882  -9.666  1.00  0.00     0.124 S 
ATOM     70  O   UNL     1       6.987  11.783  -8.821  1.00  0.00    -0.237 OA
ATOM     71  O   UNL     1       7.091  12.937 -11.009  1.00  0.00    -0.237 OA
ATOM     72  O   UNL     1       6.399  14.170  -8.987  1.00  0.00    -0.744 OA
ENDBRANCH  65  69
ENDBRANCH  48  62
BRANCH  49  73
ATOM     73  C   UNL     1       1.244   1.128 -13.068  1.00  0.00     0.023 A 
ATOM     74  C   UNL     1       1.608   0.526 -14.282  1.00  0.00     0.031 A 
ATOM     75  C   UNL     1       0.492   0.369 -12.153  1.00  0.00     0.131 A 
ATOM     76  C   UNL     1       1.190  -0.784 -14.566  1.00  0.00     0.055 A 
ATOM     77  C   UNL     1       0.116  -0.949 -12.422  1.00  0.00     0.041 A 
ATOM     78  F   UNL     1       0.127   0.894 -10.973  1.00  0.00    -0.206 F 
ATOM     79  C   UNL     1       0.457  -1.529 -13.640  1.00  0.00     0.022 A 
BRANCH  76  80
ATOM     80  S   UNL     1       1.567  -1.483 -16.197  1.00  0.00     0.124 S 
ATOM     81  O   UNL     1       0.912  -0.532 -17.088  1.00  0.00    -0.237 OA
ATOM     82  O   UNL     1       3.026  -1.468 -16.202  1.00  0.00    -0.237 OA
ATOM     83  O   UNL     1       0.960  -2.811 -16.146  1.00  0.00    -0.744 OA
ENDBRANCH  76  80
ENDBRANCH  49  73
BRANCH  61  84
ATOM     84  C   UNL     1      -0.623   7.287 -15.754  1.00  0.00     0.023 A 
ATOM     85  C   UNL     1      -2.011   7.063 -15.743  1.00  0.00     0.031 A 
ATOM     86  C   UNL     1      -0.051   7.864 -16.901  1.00  0.00     0.131 A 
ATOM     87  C   UNL     1      -2.775   7.374 -16.878  1.00  0.00     0.055 A 
ATOM     88  C   UNL     1      -0.825   8.220 -18.006  1.00  0.00     0.041 A 
ATOM     89  F   UNL     1       1.270   8.096 -16.962  1.00  0.00    -0.206 F 
ATOM     90  C   UNL     1      -2.194   7.965 -18.003  1.00  0.00     0.022 A 
BRANCH  87  91
ATOM     91  S   UNL     1      -4.534   6.930 -16.893  1.00  0.00     0.124 S 
ATOM     92  O   UNL     1      -4.481   5.479 -16.743  1.00  0.00    -0.237 OA
ATOM     93  O   UNL     1      -5.054   7.671 -15.748  1.00  0.00    -0.237 OA
ATOM     94  O   UNL     1      -4.996   7.402 -18.197  1.00  0.00    -0.744 OA
ENDBRANCH  87  91
ENDBRANCH  61  84
ENDBRANCH  35  36
ENDBRANCH  27  30
ENDBRANCH  25  26
ENDBRANCH   1  25
TORSDOF 15
