REMARK SMILES C[C@@]1(O)CC(NCCCCNC(=O)c2ccc(-c3c4nc(c(-c5cc(S(=O)(=O)[O-])ccc5F)c5ccc([nH]5)c(-c5cc(S(=O)(=O)[O-])ccc5F)c5nc(c(-c6cc(S(=O)(=O)[O-])ccc6F)c6ccc3[nH]6)C=C5)C=C4)cc2)=C(C(=O)Nc2ccccc2)[C@H](c2ccccc2C(=O)[O-])[C@@H]1C(=O)Nc1ccccc1
REMARK SMILES IDX 9 1 8 2 7 3 6 4 5 6 1 7 2 8 4 9 97 10 87 11 77 12 3 13 98 15
REMARK SMILES IDX 99 16 100 17 101 19 102 20 106 21 103 22 105 23 104 24 88 25
REMARK SMILES IDX 89 26 93 27 90 28 92 29 91 30 94 31 95 32 96 33 78 34 79 35
REMARK SMILES IDX 80 36 81 38 82 39 86 40 83 41 85 42 84 43 10 44 11 45 12 46
REMARK SMILES IDX 13 48 14 49 15 50 76 51 16 52 75 53 17 54 18 55 19 56 69 57
REMARK SMILES IDX 20 58 74 59 68 60 70 61 21 62 73 63 67 64 66 65 22 67 54 68
REMARK SMILES IDX 34 69 53 70 35 71 38 72 52 73 71 74 36 75 37 76 51 78 72 79
REMARK SMILES IDX 39 80 23 81 24 82 32 83 25 84 31 85 33 86 30 87 26 88 27 89
REMARK SMILES IDX 28 90 29 91 55 92 56 93 64 94 57 95 63 96 65 97 62 98 58 99
REMARK SMILES IDX 59 100 60 101 61 102 40 103 41 104 49 105 42 106 48 107
REMARK SMILES IDX 50 108 47 109 43 110 44 111 45 112 46 113
REMARK H PARENT 6 5 3 14 100 18 80 37 11 47 70 66 38 77
REMARK Flexibility Score: inf
ROOT
ATOM      1  C   UNL     1       1.280   7.030  -0.549  1.00  0.00     0.023 C 
ENDROOT
BRANCH   1   2
ATOM      2  C   UNL     1       0.662   5.714  -0.109  1.00  0.00     0.023 C 
BRANCH   2   3
ATOM      3  C   UNL     1       0.043   4.947  -1.267  1.00  0.00     0.112 C 
BRANCH   3   4
ATOM      4  N   UNL     1       1.062   4.221  -2.027  1.00  0.00    -0.388 N 
ATOM      5  H   UNL     1       1.768   4.754  -2.459  1.00  0.00     0.160 HD
BRANCH   4   6
ATOM      6  C   UNL     1       1.116   2.841  -2.189  1.00  0.00     0.023 C 
ATOM      7  C   UNL     1       0.847   0.105   0.322  1.00  0.00     0.043 C 
ATOM      8  C   UNL     1       0.344   0.608  -1.051  1.00  0.00     0.080 C 
ATOM      9  C   UNL     1       0.557   2.111  -1.003  1.00  0.00     0.089 C 
ATOM     10  C   UNL     1       1.029  -0.137  -2.183  1.00  0.00     0.123 C 
ATOM     11  C   UNL     1       1.218   0.725  -3.508  1.00  0.00     0.073 C 
ATOM     12  C   UNL     1       1.692   2.150  -3.208  1.00  0.00     0.045 C 
BRANCH   8  13
ATOM     13  O   UNL     1      -1.066   0.517  -1.187  1.00  0.00    -0.389 OA
ATOM     14  H   UNL     1      -1.492   0.996  -0.459  1.00  0.00     0.211 HD
ENDBRANCH   8  13
BRANCH  10  15
ATOM     15  C   UNL     1       0.724  -1.625  -2.484  1.00  0.00     0.231 C 
ATOM     16  O   UNL     1       1.277  -2.099  -3.498  1.00  0.00    -0.274 OA
ATOM     17  N   UNL     1       0.068  -2.582  -1.773  1.00  0.00    -0.326 N 
ATOM     18  H   UNL     1       0.042  -3.428  -2.276  1.00  0.00     0.169 HD
BRANCH  17  19
ATOM     19  C   UNL     1      -0.584  -2.725  -0.535  1.00  0.00     0.041 A 
ATOM     20  C   UNL     1      -0.235  -3.852   0.216  1.00  0.00     0.026 A 
ATOM     21  C   UNL     1      -1.540  -1.878   0.008  1.00  0.00     0.026 A 
ATOM     22  C   UNL     1      -0.644  -3.983   1.548  1.00  0.00     0.002 A 
ATOM     23  C   UNL     1      -1.914  -1.963   1.355  1.00  0.00     0.002 A 
ATOM     24  C   UNL     1      -1.434  -3.001   2.138  1.00  0.00     0.000 A 
ENDBRANCH  17  19
ENDBRANCH  10  15
BRANCH  11  25
ATOM     25  C   UNL     1       0.288   0.687  -4.803  1.00  0.00    -0.030 A 
ATOM     26  C   UNL     1       0.589   1.593  -5.862  1.00  0.00     0.005 A 
ATOM     27  C   UNL     1      -0.523  -0.398  -5.201  1.00  0.00     0.001 A 
ATOM     28  C   UNL     1       0.383   1.284  -7.216  1.00  0.00     0.000 A 
ATOM     29  C   UNL     1      -0.707  -0.725  -6.564  1.00  0.00     0.010 A 
ATOM     30  C   UNL     1      -0.202   0.085  -7.570  1.00  0.00     0.001 A 
BRANCH  27  31
ATOM     31  C   UNL     1      -1.409  -1.167  -4.307  1.00  0.00     0.072 C 
ATOM     32  O   UNL     1      -1.778  -2.312  -4.430  1.00  0.00    -0.545 OA
ATOM     33  O   UNL     1      -1.927  -0.350  -3.373  1.00  0.00    -0.545 OA
ENDBRANCH  27  31
ENDBRANCH  11  25
BRANCH  12  34
ATOM     34  C   UNL     1       2.755   2.868  -4.034  1.00  0.00     0.253 C 
ATOM     35  O   UNL     1       2.690   4.104  -4.134  1.00  0.00    -0.269 OA
ATOM     36  N   UNL     1       3.892   2.313  -4.567  1.00  0.00    -0.322 N 
ATOM     37  H   UNL     1       4.585   3.003  -4.684  1.00  0.00     0.170 HD
BRANCH  36  38
ATOM     38  C   UNL     1       4.375   1.059  -4.999  1.00  0.00     0.041 A 
ATOM     39  C   UNL     1       5.759   0.848  -4.982  1.00  0.00     0.026 A 
ATOM     40  C   UNL     1       3.605   0.052  -5.565  1.00  0.00     0.026 A 
ATOM     41  C   UNL     1       6.309  -0.387  -5.364  1.00  0.00     0.002 A 
ATOM     42  C   UNL     1       4.127  -1.200  -5.900  1.00  0.00     0.002 A 
ATOM     43  C   UNL     1       5.486  -1.428  -5.781  1.00  0.00     0.000 A 
ENDBRANCH  36  38
ENDBRANCH  12  34
ENDBRANCH   4   6
ENDBRANCH   3   4
ENDBRANCH   2   3
ENDBRANCH   1   2
BRANCH   1  44
ATOM     44  C   UNL     1       0.310   7.947  -1.279  1.00  0.00     0.116 C 
BRANCH  44  45
ATOM     45  N   UNL     1      -0.833   8.343  -0.462  1.00  0.00    -0.352 N 
ATOM     46  C   UNL     1      -1.400   9.596  -0.401  1.00  0.00     0.251 C 
ATOM     47  H   UNL     1      -1.238   7.645   0.101  1.00  0.00     0.163 HD
ATOM     48  O   UNL     1      -2.266   9.869   0.419  1.00  0.00    -0.269 OA
BRANCH  46  49
ATOM     49  C   UNL     1      -0.885  10.605  -1.346  1.00  0.00     0.039 A 
ATOM     50  C   UNL     1      -0.260  11.749  -0.850  1.00  0.00     0.014 A 
ATOM     51  C   UNL     1      -0.859  10.298  -2.709  1.00  0.00     0.014 A 
ATOM     52  C   UNL     1       0.461  12.561  -1.727  1.00  0.00     0.010 A 
ATOM     53  C   UNL     1      -0.063  11.054  -3.556  1.00  0.00     0.010 A 
ATOM     54  C   UNL     1       0.601  12.196  -3.076  1.00  0.00    -0.014 A 
BRANCH  54  55
ATOM     55  C   UNL     1       1.402  13.003  -4.032  1.00  0.00     0.031 A 
ATOM     56  C   UNL     1       0.714  13.604  -5.227  1.00  0.00     0.074 A 
ATOM     57  C   UNL     1       2.737  13.122  -3.881  1.00  0.00     0.049 A 
ATOM     58  N   UNL     1       1.231  14.200  -6.269  1.00  0.00    -0.248 NA
ATOM     59  C   UNL     1      -0.752  13.480  -5.269  1.00  0.00     0.031 C 
ATOM     60  C   UNL     1       3.519  12.568  -2.774  1.00  0.00     0.029 A 
ATOM     61  N   UNL     1       3.676  13.736  -4.673  1.00  0.00    -0.354 N 
ATOM     62  C   UNL     1       0.157  14.500  -7.099  1.00  0.00     0.074 A 
ATOM     63  C   UNL     1      -1.028  13.958  -6.471  1.00  0.00     0.031 C 
ATOM     64  C   UNL     1       4.813  12.885  -2.948  1.00  0.00     0.029 A 
ATOM     65  C   UNL     1       4.965  13.608  -4.207  1.00  0.00     0.049 A 
ATOM     66  H   UNL     1       3.449  14.223  -5.498  1.00  0.00     0.167 HD
ATOM     67  C   UNL     1       0.156  15.187  -8.267  1.00  0.00     0.034 A 
ATOM     68  C   UNL     1       6.137  14.005  -4.748  1.00  0.00     0.034 A 
ATOM     69  C   UNL     1       1.346  15.732  -8.869  1.00  0.00     0.049 A 
ATOM     70  C   UNL     1       6.119  14.720  -6.079  1.00  0.00     0.074 A 
ATOM     71  C   UNL     1       1.457  16.483 -10.025  1.00  0.00     0.029 A 
ATOM     72  N   UNL     1       2.632  15.579  -8.368  1.00  0.00    -0.354 N 
ATOM     73  N   UNL     1       5.092  15.023  -6.840  1.00  0.00    -0.248 NA
ATOM     74  C   UNL     1       7.414  15.152  -6.622  1.00  0.00     0.031 C 
ATOM     75  C   UNL     1       2.814  16.713 -10.267  1.00  0.00     0.029 A 
ATOM     76  C   UNL     1       3.545  16.193  -9.210  1.00  0.00     0.049 A 
ATOM     77  H   UNL     1       2.862  15.104  -7.536  1.00  0.00     0.167 HD
ATOM     78  C   UNL     1       5.616  15.721  -7.926  1.00  0.00     0.074 A 
ATOM     79  C   UNL     1       7.047  15.792  -7.723  1.00  0.00     0.031 C 
ATOM     80  C   UNL     1       4.970  16.264  -8.989  1.00  0.00     0.034 A 
BRANCH  67  81
ATOM     81  C   UNL     1      -1.166  15.356  -8.975  1.00  0.00     0.023 A 
ATOM     82  C   UNL     1      -2.239  16.045  -8.383  1.00  0.00     0.031 A 
ATOM     83  C   UNL     1      -1.368  14.796 -10.248  1.00  0.00     0.131 A 
ATOM     84  C   UNL     1      -3.484  16.088  -9.026  1.00  0.00     0.055 A 
ATOM     85  C   UNL     1      -2.583  14.921 -10.924  1.00  0.00     0.041 A 
ATOM     86  F   UNL     1      -0.390  14.104 -10.854  1.00  0.00    -0.206 F 
ATOM     87  C   UNL     1      -3.656  15.556 -10.306  1.00  0.00     0.022 A 
BRANCH  84  88
ATOM     88  S   UNL     1      -4.914  16.708  -8.099  1.00  0.00     0.124 S 
ATOM     89  O   UNL     1      -4.938  15.802  -6.953  1.00  0.00    -0.237 OA
ATOM     90  O   UNL     1      -4.534  18.086  -7.815  1.00  0.00    -0.237 OA
ATOM     91  O   UNL     1      -6.025  16.546  -9.034  1.00  0.00    -0.744 OA
ENDBRANCH  84  88
ENDBRANCH  67  81
BRANCH  68  92
ATOM     92  C   UNL     1       7.429  13.721  -4.056  1.00  0.00     0.023 A 
ATOM     93  C   UNL     1       8.262  14.766  -3.623  1.00  0.00     0.031 A 
ATOM     94  C   UNL     1       7.880  12.402  -3.866  1.00  0.00     0.131 A 
ATOM     95  C   UNL     1       9.522  14.478  -3.076  1.00  0.00     0.055 A 
ATOM     96  C   UNL     1       9.106  12.119  -3.262  1.00  0.00     0.041 A 
ATOM     97  F   UNL     1       7.127  11.363  -4.262  1.00  0.00    -0.206 F 
ATOM     98  C   UNL     1       9.943  13.161  -2.877  1.00  0.00     0.022 A 
BRANCH  95  99
ATOM     99  S   UNL     1      10.653  15.853  -2.729  1.00  0.00     0.124 S 
ATOM    100  O   UNL     1      10.762  16.483  -4.040  1.00  0.00    -0.237 OA
ATOM    101  O   UNL     1       9.918  16.602  -1.715  1.00  0.00    -0.237 OA
ATOM    102  O   UNL     1      11.864  15.186  -2.254  1.00  0.00    -0.744 OA
ENDBRANCH  95  99
ENDBRANCH  68  92
BRANCH  80 103
ATOM    103  C   UNL     1       5.789  17.056  -9.978  1.00  0.00     0.023 A 
ATOM    104  C   UNL     1       6.734  16.453 -10.824  1.00  0.00     0.031 A 
ATOM    105  C   UNL     1       5.580  18.443 -10.100  1.00  0.00     0.131 A 
ATOM    106  C   UNL     1       7.457  17.241 -11.734  1.00  0.00     0.055 A 
ATOM    107  C   UNL     1       6.257  19.210 -11.047  1.00  0.00     0.041 A 
ATOM    108  F   UNL     1       4.691  19.071  -9.312  1.00  0.00    -0.206 F 
ATOM    109  C   UNL     1       7.208  18.610 -11.866  1.00  0.00     0.022 A 
BRANCH 106 110
ATOM    110  S   UNL     1       8.778  16.466 -12.706  1.00  0.00     0.124 S 
ATOM    111  O   UNL     1       9.675  15.978 -11.663  1.00  0.00    -0.237 OA
ATOM    112  O   UNL     1       8.057  15.443 -13.456  1.00  0.00    -0.237 OA
ATOM    113  O   UNL     1       9.304  17.567 -13.510  1.00  0.00    -0.744 OA
ENDBRANCH 106 110
ENDBRANCH  80 103
ENDBRANCH  54  55
ENDBRANCH  46  49
ENDBRANCH  44  45
ENDBRANCH   1  44
TORSDOF 21
