REMARK SMILES CCOc1ccccc1[C@@H](C(=O)NCCCCNC(=O)c1ccc(-c2c3nc(c(-c4cc(S(=O)(=O)[O-])ccc4F)c4ccc([nH]4)c(-c4cc(S(=O)(=O)[O-])ccc4F)c4nc(c(-c5cc(S(=O)(=O)[O-])ccc5F)c5ccc2[nH]5)C=C4)C=C3)cc1)[NH+]1CCC(C(=O)N2CCCC2)CC1
REMARK SMILES IDX 15 1 14 2 13 3 11 4 12 5 10 7 9 8 4 9 5 10 6 11 8 12 7 13
REMARK SMILES IDX 3 14 2 15 1 16 84 17 85 18 96 19 86 21 95 22 87 23 88 24
REMARK SMILES IDX 89 25 90 26 91 27 94 28 92 29 93 30 16 31 17 32 18 33 19 34
REMARK SMILES IDX 20 36 21 37 22 38 83 39 23 40 82 41 24 42 25 43 26 44 76 45
REMARK SMILES IDX 27 46 81 47 75 48 77 49 28 50 80 51 74 52 73 53 29 55 61 56
REMARK SMILES IDX 41 57 60 58 42 59 45 60 59 61 78 62 43 63 44 64 58 66 79 67
REMARK SMILES IDX 46 68 30 69 31 70 39 71 32 72 38 73 40 74 37 75 33 76 34 77
REMARK SMILES IDX 35 78 36 79 62 80 63 81 71 82 64 83 70 84 72 85 69 86 65 87
REMARK SMILES IDX 66 88 67 89 68 90 47 91 48 92 56 93 49 94 55 95 57 96 54 97
REMARK SMILES IDX 50 98 51 99 52 100 53 101
REMARK H PARENT 13 6 84 20 18 35 77 54 45 65
REMARK Flexibility Score: inf
ROOT
ATOM      1  C   UNL     1       1.913  -1.856   4.130  1.00  0.00     0.023 C 
ENDROOT
BRANCH   1   2
ATOM      2  C   UNL     1       1.345  -0.669   3.355  1.00  0.00     0.116 C 
BRANCH   2   3
ATOM      3  N   UNL     1       2.331   0.377   3.192  1.00  0.00    -0.351 N 
ATOM      4  C   UNL     1       3.180   0.615   2.142  1.00  0.00     0.283 C 
ATOM      5  O   UNL     1       3.962   1.560   2.295  1.00  0.00    -0.268 OA
ATOM      6  H   UNL     1       2.402   1.009   3.943  1.00  0.00     0.163 HD
BRANCH   4   7
ATOM      7  C   UNL     1       3.053  -0.211   0.819  1.00  0.00     0.309 C 
BRANCH   7   8
ATOM      8  C   UNL     1       3.284  -1.712   0.958  1.00  0.00     0.061 A 
ATOM      9  C   UNL     1       2.296  -2.657   0.606  1.00  0.00     0.128 A 
ATOM     10  C   UNL     1       2.582  -4.024   0.631  1.00  0.00     0.047 A 
ATOM     11  C   UNL     1       3.847  -4.470   1.015  1.00  0.00     0.004 A 
ATOM     12  C   UNL     1       4.529  -2.191   1.405  1.00  0.00     0.014 A 
ATOM     13  C   UNL     1       4.812  -3.555   1.425  1.00  0.00     0.001 A 
BRANCH   9  14
ATOM     14  O   UNL     1       0.971  -2.309   0.563  1.00  0.00    -0.493 OA
BRANCH  14  15
ATOM     15  C   UNL     1       0.413  -1.972  -0.705  1.00  0.00     0.226 C 
ATOM     16  C   UNL     1      -0.281  -0.617  -0.578  1.00  0.00     0.049 C 
ENDBRANCH  14  15
ENDBRANCH   9  14
ENDBRANCH   7   8
BRANCH   7  17
ATOM     17  N   UNL     1       3.803   0.414  -0.330  1.00  0.00    -0.321 N 
ATOM     18  C   UNL     1       5.264   0.481  -0.174  1.00  0.00     0.263 C 
ATOM     19  C   UNL     1       3.458  -0.212  -1.613  1.00  0.00     0.263 C 
ATOM     20  H   UNL     1       3.484   1.383  -0.323  1.00  0.00     0.349 HD
ATOM     21  C   UNL     1       5.847   1.374  -1.273  1.00  0.00     0.075 C 
ATOM     22  C   UNL     1       4.041   0.548  -2.796  1.00  0.00     0.075 C 
ATOM     23  C   UNL     1       5.548   0.775  -2.640  1.00  0.00     0.090 C 
BRANCH  23  24
ATOM     24  C   UNL     1       6.042   1.463  -3.911  1.00  0.00     0.226 C 
ATOM     25  O   UNL     1       6.562   0.770  -4.793  1.00  0.00    -0.275 OA
ATOM     26  N   UNL     1       5.634   2.742  -4.193  1.00  0.00    -0.342 N 
ATOM     27  C   UNL     1       5.584   3.924  -3.358  1.00  0.00     0.119 C 
ATOM     28  C   UNL     1       5.109   3.044  -5.512  1.00  0.00     0.119 C 
ATOM     29  C   UNL     1       4.345   4.634  -3.860  1.00  0.00     0.023 C 
ATOM     30  C   UNL     1       4.427   4.404  -5.367  1.00  0.00     0.023 C 
ENDBRANCH  23  24
ENDBRANCH   7  17
ENDBRANCH   4   7
ENDBRANCH   2   3
ENDBRANCH   1   2
BRANCH   1  31
ATOM     31  C   UNL     1       2.092  -1.578   5.622  1.00  0.00     0.023 C 
BRANCH  31  32
ATOM     32  C   UNL     1       0.804  -1.226   6.354  1.00  0.00     0.116 C 
BRANCH  32  33
ATOM     33  N   UNL     1      -0.191  -2.284   6.279  1.00  0.00    -0.352 N 
ATOM     34  C   UNL     1      -1.031  -2.732   7.268  1.00  0.00     0.251 C 
ATOM     35  H   UNL     1      -0.274  -2.735   5.408  1.00  0.00     0.163 HD
ATOM     36  O   UNL     1      -1.703  -3.745   7.092  1.00  0.00    -0.269 OA
BRANCH  34  37
ATOM     37  C   UNL     1      -1.084  -2.006   8.554  1.00  0.00     0.039 A 
ATOM     38  C   UNL     1      -1.018  -2.734   9.743  1.00  0.00     0.014 A 
ATOM     39  C   UNL     1      -1.160  -0.610   8.584  1.00  0.00     0.014 A 
ATOM     40  C   UNL     1      -0.974  -2.056  10.962  1.00  0.00     0.010 A 
ATOM     41  C   UNL     1      -1.028   0.064   9.794  1.00  0.00     0.010 A 
ATOM     42  C   UNL     1      -0.944  -0.651  10.997  1.00  0.00    -0.014 A 
BRANCH  42  43
ATOM     43  C   UNL     1      -0.842   0.078  12.287  1.00  0.00     0.031 A 
ATOM     44  C   UNL     1      -1.960   0.982  12.732  1.00  0.00     0.074 A 
ATOM     45  C   UNL     1       0.270  -0.046  13.039  1.00  0.00     0.049 A 
ATOM     46  N   UNL     1      -2.048   1.723  13.806  1.00  0.00    -0.248 NA
ATOM     47  C   UNL     1      -3.121   1.089  11.834  1.00  0.00     0.031 C 
ATOM     48  C   UNL     1       1.438  -0.859  12.690  1.00  0.00     0.029 A 
ATOM     49  N   UNL     1       0.604   0.507  14.249  1.00  0.00    -0.354 N 
ATOM     50  C   UNL     1      -3.267   2.387  13.711  1.00  0.00     0.074 A 
ATOM     51  C   UNL     1      -3.847   2.016  12.439  1.00  0.00     0.031 C 
ATOM     52  C   UNL     1       2.340  -0.781  13.681  1.00  0.00     0.029 A 
ATOM     53  C   UNL     1       1.842   0.124  14.712  1.00  0.00     0.049 A 
ATOM     54  H   UNL     1       0.012   1.121  14.742  1.00  0.00     0.167 HD
ATOM     55  C   UNL     1      -3.860   3.206  14.614  1.00  0.00     0.034 A 
ATOM     56  C   UNL     1       2.504   0.469  15.835  1.00  0.00     0.034 A 
ATOM     57  C   UNL     1      -3.269   3.559  15.882  1.00  0.00     0.049 A 
ATOM     58  C   UNL     1       1.839   1.412  16.807  1.00  0.00     0.074 A 
ATOM     59  C   UNL     1      -3.802   4.339  16.894  1.00  0.00     0.029 A 
ATOM     60  N   UNL     1      -2.006   3.167  16.309  1.00  0.00    -0.354 N 
ATOM     61  N   UNL     1       0.659   1.984  16.729  1.00  0.00    -0.248 NA
ATOM     62  C   UNL     1       2.590   1.745  18.023  1.00  0.00     0.031 C 
ATOM     63  C   UNL     1      -2.834   4.482  17.894  1.00  0.00     0.029 A 
ATOM     64  C   UNL     1      -1.729   3.719  17.551  1.00  0.00     0.049 A 
ATOM     65  H   UNL     1      -1.397   2.581  15.804  1.00  0.00     0.167 HD
ATOM     66  C   UNL     1       0.516   2.720  17.903  1.00  0.00     0.074 A 
ATOM     67  C   UNL     1       1.721   2.501  18.677  1.00  0.00     0.031 C 
ATOM     68  C   UNL     1      -0.517   3.504  18.306  1.00  0.00     0.034 A 
BRANCH  55  69
ATOM     69  C   UNL     1      -5.204   3.792  14.246  1.00  0.00     0.023 A 
ATOM     70  C   UNL     1      -6.326   2.978  14.010  1.00  0.00     0.031 A 
ATOM     71  C   UNL     1      -5.361   5.182  14.104  1.00  0.00     0.131 A 
ATOM     72  C   UNL     1      -7.529   3.550  13.570  1.00  0.00     0.055 A 
ATOM     73  C   UNL     1      -6.586   5.753  13.751  1.00  0.00     0.041 A 
ATOM     74  F   UNL     1      -4.322   6.011  14.292  1.00  0.00    -0.206 F 
ATOM     75  C   UNL     1      -7.675   4.935  13.466  1.00  0.00     0.022 A 
BRANCH  72  76
ATOM     76  S   UNL     1      -8.849   2.451  12.989  1.00  0.00     0.124 S 
ATOM     77  O   UNL     1      -8.177   1.726  11.913  1.00  0.00    -0.237 OA
ATOM     78  O   UNL     1      -9.164   1.676  14.183  1.00  0.00    -0.237 OA
ATOM     79  O   UNL     1      -9.894   3.373  12.549  1.00  0.00    -0.744 OA
ENDBRANCH  72  76
ENDBRANCH  55  69
BRANCH  56  80
ATOM     80  C   UNL     1       3.871  -0.063  16.103  1.00  0.00     0.023 A 
ATOM     81  C   UNL     1       4.127  -0.876  17.220  1.00  0.00     0.031 A 
ATOM     82  C   UNL     1       4.956   0.274  15.274  1.00  0.00     0.131 A 
ATOM     83  C   UNL     1       5.440  -1.280  17.506  1.00  0.00     0.055 A 
ATOM     84  C   UNL     1       6.251  -0.181  15.529  1.00  0.00     0.041 A 
ATOM     85  F   UNL     1       4.769   1.047  14.192  1.00  0.00    -0.206 F 
ATOM     86  C   UNL     1       6.501  -0.951  16.660  1.00  0.00     0.022 A 
BRANCH  83  87
ATOM     87  S   UNL     1       5.758  -2.161  19.059  1.00  0.00     0.124 S 
ATOM     88  O   UNL     1       5.258  -1.212  20.047  1.00  0.00    -0.237 OA
ATOM     89  O   UNL     1       4.973  -3.378  18.883  1.00  0.00    -0.237 OA
ATOM     90  O   UNL     1       7.208  -2.350  19.052  1.00  0.00    -0.744 OA
ENDBRANCH  83  87
ENDBRANCH  56  80
BRANCH  68  91
ATOM     91  C   UNL     1      -0.400   4.147  19.668  1.00  0.00     0.023 A 
ATOM     92  C   UNL     1       0.582   5.113  19.950  1.00  0.00     0.031 A 
ATOM     93  C   UNL     1      -1.276   3.776  20.704  1.00  0.00     0.131 A 
ATOM     94  C   UNL     1       0.705   5.627  21.249  1.00  0.00     0.055 A 
ATOM     95  C   UNL     1      -1.194   4.343  21.976  1.00  0.00     0.041 A 
ATOM     96  F   UNL     1      -2.231   2.855  20.495  1.00  0.00    -0.206 F 
ATOM     97  C   UNL     1      -0.190   5.263  22.259  1.00  0.00     0.022 A 
BRANCH  94  98
ATOM     98  S   UNL     1       2.117   6.699  21.631  1.00  0.00     0.124 S 
ATOM     99  O   UNL     1       3.248   5.843  21.289  1.00  0.00    -0.237 OA
ATOM    100  O   UNL     1       1.891   7.840  20.750  1.00  0.00    -0.237 OA
ATOM    101  O   UNL     1       1.960   6.978  23.058  1.00  0.00    -0.744 OA
ENDBRANCH  94  98
ENDBRANCH  68  91
ENDBRANCH  42  43
ENDBRANCH  34  37
ENDBRANCH  32  33
ENDBRANCH  31  32
ENDBRANCH   1  31
TORSDOF 19
