REMARK SMILES CC(C)OCCS(=O)(=O)N[C@H]1COC[C@@H]1C(=O)NCCCCNC(=O)c1ccc(-c2c3nc(c(-c4cc(S(=O)(=O)[O-])ccc4F)c4ccc([nH]4)c(-c4cc(S(=O)(=O)[O-])ccc4F)c4nc(c(-c5cc(S(=O)(=O)[O-])ccc5F)c5ccc2[nH]5)C=C4)C=C3)cc1
REMARK SMILES IDX 19 1 18 2 16 3 17 4 15 6 11 7 12 8 13 9 14 10 10 11 7 13
REMARK SMILES IDX 8 14 9 15 6 16 5 17 4 18 2 19 1 20 3 21 20 22 21 23 22 24
REMARK SMILES IDX 23 25 24 26 25 28 26 29 27 30 88 31 28 32 87 33 29 34 30 35
REMARK SMILES IDX 31 36 81 37 32 38 86 39 80 40 82 41 33 42 85 43 79 44 78 45
REMARK SMILES IDX 34 47 66 48 46 49 65 50 47 51 50 52 64 53 83 54 48 55 49 56
REMARK SMILES IDX 63 58 84 59 51 60 35 61 36 62 44 63 37 64 43 65 45 66 42 67
REMARK SMILES IDX 38 68 39 69 40 70 41 71 67 72 68 73 76 74 69 75 75 76 77 77
REMARK SMILES IDX 74 78 70 79 71 80 72 81 73 82 52 83 53 84 61 85 54 86 60 87
REMARK SMILES IDX 62 88 59 89 55 90 56 91 57 92 58 93
REMARK H PARENT 18 5 10 12 23 27 82 46 50 57
REMARK Flexibility Score: inf
ROOT
ATOM      1  C   UNL     1       0.412   2.197   2.201  1.00  0.00     0.116 C 
ENDROOT
BRANCH   1   2
ATOM      2  N   UNL     1       0.666   0.834   2.601  1.00  0.00    -0.356 N 
ATOM      3  C   UNL     1      -0.009  -0.176   2.021  1.00  0.00     0.227 C 
ATOM      4  O   UNL     1      -0.935  -0.669   2.677  1.00  0.00    -0.275 OA
ATOM      5  H   UNL     1       1.335   0.643   3.299  1.00  0.00     0.163 HD
BRANCH   3   6
ATOM      6  C   UNL     1       0.255  -0.641   0.579  1.00  0.00     0.124 C 
ATOM      7  C   UNL     1       1.915  -1.489  -0.137  1.00  0.00     0.110 C 
ATOM      8  C   UNL     1       2.139  -0.734  -2.017  1.00  0.00     0.181 C 
ATOM      9  O   UNL     1       0.750   0.523  -2.297  1.00  0.00    -0.379 OA
ATOM     10  C   UNL     1      -0.432   0.611  -0.805  1.00  0.00     0.175 C 
BRANCH   7  11
ATOM     11  N   UNL     1       2.013  -2.839   0.512  1.00  0.00    -0.209 NA
ATOM     12  H   UNL     1       2.196  -3.482  -0.258  1.00  0.00     0.141 HD
BRANCH  11  13
ATOM     13  S   UNL     1       0.880  -3.620   1.446  1.00  0.00     0.214 S 
ATOM     14  O   UNL     1       0.746  -2.845   2.653  1.00  0.00    -0.212 OA
ATOM     15  O   UNL     1       1.432  -4.959   1.547  1.00  0.00    -0.212 OA
BRANCH  13  16
ATOM     16  C   UNL     1      -0.711  -3.815   0.580  1.00  0.00     0.182 C 
BRANCH  16  17
ATOM     17  C   UNL     1      -1.602  -2.688   0.010  1.00  0.00     0.178 C 
BRANCH  17  18
ATOM     18  O   UNL     1      -1.213  -1.622  -0.907  1.00  0.00    -0.378 OA
BRANCH  18  19
ATOM     19  C   UNL     1       0.250  -1.230  -1.393  1.00  0.00     0.112 C 
ATOM     20  C   UNL     1       1.511   0.366  -0.553  1.00  0.00     0.038 C 
ATOM     21  C   UNL     1       0.505  -2.753  -2.099  1.00  0.00     0.038 C 
ENDBRANCH  18  19
ENDBRANCH  17  18
ENDBRANCH  16  17
ENDBRANCH  13  16
ENDBRANCH  11  13
ENDBRANCH   7  11
ENDBRANCH   3   6
ENDBRANCH   1   2
BRANCH   1  22
ATOM     22  C   UNL     1      -0.976   2.674   2.648  1.00  0.00     0.023 C 
BRANCH  22  23
ATOM     23  C   UNL     1      -1.192   2.643   4.161  1.00  0.00     0.023 C 
BRANCH  23  24
ATOM     24  C   UNL     1       0.019   3.089   4.960  1.00  0.00     0.116 C 
BRANCH  24  25
ATOM     25  N   UNL     1       0.581   4.345   4.475  1.00  0.00    -0.352 N 
ATOM     26  C   UNL     1       1.327   5.245   5.188  1.00  0.00     0.251 C 
ATOM     27  H   UNL     1       0.404   4.570   3.533  1.00  0.00     0.163 HD
ATOM     28  O   UNL     1       1.740   6.278   4.681  1.00  0.00    -0.269 OA
BRANCH  26  29
ATOM     29  C   UNL     1       1.533   4.930   6.604  1.00  0.00     0.039 A 
ATOM     30  C   UNL     1       0.865   5.711   7.544  1.00  0.00     0.014 A 
ATOM     31  C   UNL     1       2.168   3.734   6.952  1.00  0.00     0.014 A 
ATOM     32  C   UNL     1       0.810   5.271   8.860  1.00  0.00     0.010 A 
ATOM     33  C   UNL     1       2.023   3.253   8.243  1.00  0.00     0.010 A 
ATOM     34  C   UNL     1       1.362   4.027   9.211  1.00  0.00    -0.014 A 
BRANCH  34  35
ATOM     35  C   UNL     1       1.309   3.551  10.611  1.00  0.00     0.031 A 
ATOM     36  C   UNL     1       2.597   3.360  11.359  1.00  0.00     0.074 A 
ATOM     37  C   UNL     1       0.122   3.280  11.188  1.00  0.00     0.049 A 
ATOM     38  N   UNL     1       2.789   2.914  12.572  1.00  0.00    -0.248 NA
ATOM     39  C   UNL     1       3.837   3.682  10.633  1.00  0.00     0.031 C 
ATOM     40  C   UNL     1      -1.185   3.406  10.539  1.00  0.00     0.029 A 
ATOM     41  N   UNL     1      -0.178   2.845  12.453  1.00  0.00    -0.354 N 
ATOM     42  C   UNL     1       4.168   2.891  12.746  1.00  0.00     0.074 A 
ATOM     43  C   UNL     1       4.763   3.288  11.491  1.00  0.00     0.031 C 
ATOM     44  C   UNL     1      -2.146   3.093  11.422  1.00  0.00     0.029 A 
ATOM     45  C   UNL     1      -1.526   2.690  12.681  1.00  0.00     0.049 A 
ATOM     46  H   UNL     1       0.507   2.661  13.136  1.00  0.00     0.167 HD
ATOM     47  C   UNL     1       4.871   2.594  13.865  1.00  0.00     0.034 A 
ATOM     48  C   UNL     1      -2.181   2.258  13.777  1.00  0.00     0.034 A 
ATOM     49  C   UNL     1       4.252   2.211  15.107  1.00  0.00     0.049 A 
ATOM     50  C   UNL     1      -1.373   1.887  14.996  1.00  0.00     0.074 A 
ATOM     51  C   UNL     1       4.858   1.929  16.317  1.00  0.00     0.029 A 
ATOM     52  N   UNL     1       2.885   2.043  15.295  1.00  0.00    -0.354 N 
ATOM     53  N   UNL     1      -0.070   1.914  15.164  1.00  0.00    -0.248 NA
ATOM     54  C   UNL     1      -2.122   1.438  16.176  1.00  0.00     0.031 C 
ATOM     55  C   UNL     1       3.869   1.507  17.210  1.00  0.00     0.029 A 
ATOM     56  C   UNL     1       2.634   1.625  16.591  1.00  0.00     0.049 A 
ATOM     57  H   UNL     1       2.197   2.200  14.609  1.00  0.00     0.167 HD
ATOM     58  C   UNL     1       0.152   1.521  16.481  1.00  0.00     0.074 A 
ATOM     59  C   UNL     1      -1.152   1.276  17.064  1.00  0.00     0.031 C 
ATOM     60  C   UNL     1       1.324   1.382  17.152  1.00  0.00     0.034 A 
BRANCH  47  61
ATOM     61  C   UNL     1       6.377   2.643  13.773  1.00  0.00     0.023 A 
ATOM     62  C   UNL     1       7.063   3.830  13.457  1.00  0.00     0.031 A 
ATOM     63  C   UNL     1       7.137   1.477  13.968  1.00  0.00     0.131 A 
ATOM     64  C   UNL     1       8.453   3.806  13.270  1.00  0.00     0.055 A 
ATOM     65  C   UNL     1       8.529   1.481  13.872  1.00  0.00     0.041 A 
ATOM     66  F   UNL     1       6.537   0.308  14.241  1.00  0.00    -0.206 F 
ATOM     67  C   UNL     1       9.194   2.647  13.505  1.00  0.00     0.022 A 
BRANCH  64  68
ATOM     68  S   UNL     1       9.255   5.270  12.559  1.00  0.00     0.124 S 
ATOM     69  O   UNL     1       8.547   5.405  11.287  1.00  0.00    -0.237 OA
ATOM     70  O   UNL     1       8.980   6.297  13.556  1.00  0.00    -0.237 OA
ATOM     71  O   UNL     1      10.656   4.870  12.442  1.00  0.00    -0.744 OA
ENDBRANCH  64  68
ENDBRANCH  47  61
BRANCH  48  72
ATOM     72  C   UNL     1      -3.668   2.134  13.774  1.00  0.00     0.023 A 
ATOM     73  C   UNL     1      -4.463   2.883  14.657  1.00  0.00     0.031 A 
ATOM     74  C   UNL     1      -4.317   1.224  12.919  1.00  0.00     0.131 A 
ATOM     75  C   UNL     1      -5.849   2.669  14.705  1.00  0.00     0.055 A 
ATOM     76  C   UNL     1      -5.703   1.062  12.926  1.00  0.00     0.041 A 
ATOM     77  F   UNL     1      -3.608   0.480  12.055  1.00  0.00    -0.206 F 
ATOM     78  C   UNL     1      -6.477   1.776  13.834  1.00  0.00     0.022 A 
BRANCH  75  79
ATOM     79  S   UNL     1      -6.812   3.499  16.000  1.00  0.00     0.124 S 
ATOM     80  O   UNL     1      -6.145   3.029  17.209  1.00  0.00    -0.237 OA
ATOM     81  O   UNL     1      -6.620   4.906  15.666  1.00  0.00    -0.237 OA
ATOM     82  O   UNL     1      -8.166   2.990  15.796  1.00  0.00    -0.744 OA
ENDBRANCH  75  79
ENDBRANCH  48  72
BRANCH  60  83
ATOM     83  C   UNL     1       1.246   1.006  18.612  1.00  0.00     0.023 A 
ATOM     84  C   UNL     1       0.754  -0.240  19.036  1.00  0.00     0.031 A 
ATOM     85  C   UNL     1       1.685   1.913  19.594  1.00  0.00     0.131 A 
ATOM     86  C   UNL     1       0.661  -0.523  20.407  1.00  0.00     0.055 A 
ATOM     87  C   UNL     1       1.660   1.597  20.952  1.00  0.00     0.041 A 
ATOM     88  F   UNL     1       2.160   3.120  19.247  1.00  0.00    -0.206 F 
ATOM     89  C   UNL     1       1.133   0.378  21.366  1.00  0.00     0.022 A 
BRANCH  86  90
ATOM     90  S   UNL     1      -0.178  -2.043  20.927  1.00  0.00     0.124 S 
ATOM     91  O   UNL     1      -1.499  -1.879  20.329  1.00  0.00    -0.237 OA
ATOM     92  O   UNL     1       0.663  -3.082  20.341  1.00  0.00    -0.237 OA
ATOM     93  O   UNL     1      -0.146  -1.970  22.387  1.00  0.00    -0.744 OA
ENDBRANCH  86  90
ENDBRANCH  60  83
ENDBRANCH  34  35
ENDBRANCH  26  29
ENDBRANCH  24  25
ENDBRANCH  23  24
ENDBRANCH  22  23
ENDBRANCH   1  22
TORSDOF 20
