REMARK SMILES O=C(CC[N@H+]1CCC[C@@H](C(=O)NCCCCNC(=O)c2ccc(-c3c4nc(c(-c5cc(S(=O)(=O)[O-])ccc5F)c5ccc([nH]5)c(-c5cc(S(=O)(=O)[O-])ccc5F)c5nc(c(-c6cc(S(=O)(=O)[O-])ccc6F)c6ccc3[nH]6)C=C5)C=C4)cc2)C1)Nc1cccc(F)c1
REMARK SMILES IDX 14 1 13 2 12 3 10 4 11 5 9 7 5 8 6 9 83 10 7 12 8 13 4 14
REMARK SMILES IDX 3 15 2 16 1 17 84 18 85 20 86 21 91 22 87 23 89 24 88 25
REMARK SMILES IDX 90 26 15 27 16 28 17 29 18 30 19 32 20 33 21 34 82 35 22 36
REMARK SMILES IDX 81 37 23 38 24 39 25 40 75 41 26 42 80 43 74 44 76 45 27 46
REMARK SMILES IDX 79 47 73 48 72 49 28 51 60 52 40 53 59 54 41 55 44 56 58 57
REMARK SMILES IDX 77 58 42 59 43 60 57 62 78 63 45 64 29 65 30 66 38 67 31 68
REMARK SMILES IDX 37 69 39 70 36 71 32 72 33 73 34 74 35 75 61 76 62 77 70 78
REMARK SMILES IDX 63 79 69 80 71 81 68 82 64 83 65 84 66 85 67 86 46 87 47 88
REMARK SMILES IDX 55 89 48 90 54 91 56 92 53 93 49 94 50 95 51 96 52 97
REMARK H PARENT 12 6 5 11 84 19 17 31 76 50 44 61
REMARK Flexibility Score: inf
ROOT
ATOM      1  C   UNL     1       6.761   5.295  -0.359  1.00  0.00     0.023 C 
ENDROOT
BRANCH   1   2
ATOM      2  C   UNL     1       6.050   4.002   0.053  1.00  0.00     0.116 C 
BRANCH   2   3
ATOM      3  N   UNL     1       5.047   3.664  -0.938  1.00  0.00    -0.356 N 
ATOM      4  C   UNL     1       5.226   2.856  -2.025  1.00  0.00     0.228 C 
ATOM      5  O   UNL     1       4.697   3.186  -3.086  1.00  0.00    -0.275 OA
ATOM      6  H   UNL     1       4.151   4.055  -0.817  1.00  0.00     0.163 HD
BRANCH   4   7
ATOM      7  C   UNL     1       5.914   1.506  -1.835  1.00  0.00     0.133 C 
ATOM      8  N   UNL     1       5.147  -0.827  -1.080  1.00  0.00    -0.334 N 
ATOM      9  C   UNL     1       5.566  -1.353  -2.397  1.00  0.00     0.262 C 
ATOM     10  C   UNL     1       4.858   0.611  -1.169  1.00  0.00     0.275 C 
ATOM     11  H   UNL     1       5.897  -0.923  -0.396  1.00  0.00     0.348 HD
ATOM     12  C   UNL     1       6.709  -0.554  -3.022  1.00  0.00     0.062 C 
ATOM     13  C   UNL     1       6.327   0.911  -3.182  1.00  0.00     0.025 C 
BRANCH   8  14
ATOM     14  C   UNL     1       3.969  -1.623  -0.615  1.00  0.00     0.272 C 
BRANCH  14  15
ATOM     15  C   UNL     1       2.967  -0.967   0.357  1.00  0.00     0.161 C 
BRANCH  15  16
ATOM     16  C   UNL     1       1.936  -0.180  -0.439  1.00  0.00     0.230 C 
ATOM     17  O   UNL     1       1.273  -0.707  -1.329  1.00  0.00    -0.275 OA
ATOM     18  N   UNL     1       1.843   1.150  -0.082  1.00  0.00    -0.326 N 
ATOM     19  H   UNL     1       2.147   1.406   0.818  1.00  0.00     0.169 HD
BRANCH  18  20
ATOM     20  C   UNL     1       1.343   2.166  -0.921  1.00  0.00     0.044 A 
ATOM     21  C   UNL     1       1.631   2.213  -2.292  1.00  0.00     0.026 A 
ATOM     22  C   UNL     1       0.641   3.216  -0.335  1.00  0.00     0.065 A 
ATOM     23  C   UNL     1       1.288   3.339  -3.050  1.00  0.00     0.005 A 
ATOM     24  C   UNL     1       0.230   4.289  -1.119  1.00  0.00     0.125 A 
ATOM     25  C   UNL     1       0.573   4.378  -2.462  1.00  0.00     0.039 A 
ATOM     26  F   UNL     1      -0.498   5.263  -0.560  1.00  0.00    -0.207 F 
ENDBRANCH  18  20
ENDBRANCH  15  16
ENDBRANCH  14  15
ENDBRANCH   8  14
ENDBRANCH   4   7
ENDBRANCH   2   3
ENDBRANCH   1   2
BRANCH   1  27
ATOM     27  C   UNL     1       5.863   6.542  -0.368  1.00  0.00     0.023 C 
BRANCH  27  28
ATOM     28  C   UNL     1       5.253   6.917   0.980  1.00  0.00     0.116 C 
BRANCH  28  29
ATOM     29  N   UNL     1       6.264   7.188   1.989  1.00  0.00    -0.352 N 
ATOM     30  C   UNL     1       6.411   8.270   2.820  1.00  0.00     0.251 C 
ATOM     31  H   UNL     1       6.948   6.487   2.092  1.00  0.00     0.163 HD
ATOM     32  O   UNL     1       7.446   8.378   3.480  1.00  0.00    -0.269 OA
BRANCH  30  33
ATOM     33  C   UNL     1       5.362   9.310   2.905  1.00  0.00     0.039 A 
ATOM     34  C   UNL     1       5.750  10.652   2.958  1.00  0.00     0.014 A 
ATOM     35  C   UNL     1       4.006   8.976   2.950  1.00  0.00     0.014 A 
ATOM     36  C   UNL     1       4.779  11.657   2.990  1.00  0.00     0.010 A 
ATOM     37  C   UNL     1       3.040   9.981   2.906  1.00  0.00     0.010 A 
ATOM     38  C   UNL     1       3.415  11.333   2.925  1.00  0.00    -0.014 A 
BRANCH  38  39
ATOM     39  C   UNL     1       2.374  12.395   2.862  1.00  0.00     0.031 A 
ATOM     40  C   UNL     1       1.349  12.525   3.957  1.00  0.00     0.074 A 
ATOM     41  C   UNL     1       2.310  13.202   1.784  1.00  0.00     0.049 A 
ATOM     42  N   UNL     1       0.329  13.340   4.045  1.00  0.00    -0.248 NA
ATOM     43  C   UNL     1       1.473  11.592   5.085  1.00  0.00     0.031 C 
ATOM     44  C   UNL     1       3.217  13.145   0.636  1.00  0.00     0.029 A 
ATOM     45  N   UNL     1       1.441  14.217   1.470  1.00  0.00    -0.354 N 
ATOM     46  C   UNL     1      -0.322  13.008   5.229  1.00  0.00     0.074 A 
ATOM     47  C   UNL     1       0.387  11.875   5.788  1.00  0.00     0.031 C 
ATOM     48  C   UNL     1       2.869  14.095  -0.246  1.00  0.00     0.029 A 
ATOM     49  C   UNL     1       1.686  14.795   0.245  1.00  0.00     0.049 A 
ATOM     50  H   UNL     1       0.711  14.505   2.064  1.00  0.00     0.167 HD
ATOM     51  C   UNL     1      -1.398  13.604   5.804  1.00  0.00     0.034 A 
ATOM     52  C   UNL     1       1.024  15.762  -0.420  1.00  0.00     0.034 A 
ATOM     53  C   UNL     1      -2.090  14.734   5.230  1.00  0.00     0.049 A 
ATOM     54  C   UNL     1      -0.184  16.394   0.221  1.00  0.00     0.074 A 
ATOM     55  C   UNL     1      -3.143  15.459   5.760  1.00  0.00     0.029 A 
ATOM     56  N   UNL     1      -1.815  15.291   3.986  1.00  0.00    -0.354 N 
ATOM     57  N   UNL     1      -0.747  16.116   1.374  1.00  0.00    -0.248 NA
ATOM     58  C   UNL     1      -0.838  17.477  -0.523  1.00  0.00     0.031 C 
ATOM     59  C   UNL     1      -3.561  16.392   4.803  1.00  0.00     0.029 A 
ATOM     60  C   UNL     1      -2.709  16.318   3.713  1.00  0.00     0.049 A 
ATOM     61  H   UNL     1      -1.092  14.999   3.385  1.00  0.00     0.167 HD
ATOM     62  C   UNL     1      -1.808  17.009   1.504  1.00  0.00     0.074 A 
ATOM     63  C   UNL     1      -1.794  17.842   0.319  1.00  0.00     0.031 C 
ATOM     64  C   UNL     1      -2.705  17.132   2.517  1.00  0.00     0.034 A 
BRANCH  51  65
ATOM     65  C   UNL     1      -1.911  13.011   7.099  1.00  0.00     0.023 A 
ATOM     66  C   UNL     1      -1.105  12.928   8.249  1.00  0.00     0.031 A 
ATOM     67  C   UNL     1      -3.209  12.475   7.173  1.00  0.00     0.131 A 
ATOM     68  C   UNL     1      -1.565  12.239   9.382  1.00  0.00     0.055 A 
ATOM     69  C   UNL     1      -3.697  11.878   8.337  1.00  0.00     0.041 A 
ATOM     70  F   UNL     1      -4.023  12.503   6.105  1.00  0.00    -0.206 F 
ATOM     71  C   UNL     1      -2.866  11.737   9.444  1.00  0.00     0.022 A 
BRANCH  68  72
ATOM     72  S   UNL     1      -0.376  11.845  10.695  1.00  0.00     0.124 S 
ATOM     73  O   UNL     1       0.657  11.127   9.951  1.00  0.00    -0.237 OA
ATOM     74  O   UNL     1      -0.005  13.165  11.191  1.00  0.00    -0.237 OA
ATOM     75  O   UNL     1      -1.149  11.022  11.622  1.00  0.00    -0.744 OA
ENDBRANCH  68  72
ENDBRANCH  51  65
BRANCH  52  76
ATOM     76  C   UNL     1       1.479  16.175  -1.779  1.00  0.00     0.023 A 
ATOM     77  C   UNL     1       1.988  17.461  -2.020  1.00  0.00     0.031 A 
ATOM     78  C   UNL     1       1.403  15.282  -2.864  1.00  0.00     0.131 A 
ATOM     79  C   UNL     1       2.375  17.827  -3.319  1.00  0.00     0.055 A 
ATOM     80  C   UNL     1       1.836  15.633  -4.142  1.00  0.00     0.041 A 
ATOM     81  F   UNL     1       0.927  14.039  -2.686  1.00  0.00    -0.206 F 
ATOM     82  C   UNL     1       2.318  16.917  -4.378  1.00  0.00     0.022 A 
BRANCH  79  83
ATOM     83  S   UNL     1       2.900  19.537  -3.623  1.00  0.00     0.124 S 
ATOM     84  O   UNL     1       1.710  20.286  -3.237  1.00  0.00    -0.237 OA
ATOM     85  O   UNL     1       4.053  19.662  -2.738  1.00  0.00    -0.237 OA
ATOM     86  O   UNL     1       3.211  19.548  -5.051  1.00  0.00    -0.744 OA
ENDBRANCH  79  83
ENDBRANCH  52  76
BRANCH  64  87
ATOM     87  C   UNL     1      -3.727  18.240   2.402  1.00  0.00     0.023 A 
ATOM     88  C   UNL     1      -4.710  18.245   1.397  1.00  0.00     0.031 A 
ATOM     89  C   UNL     1      -3.710  19.313   3.311  1.00  0.00     0.131 A 
ATOM     90  C   UNL     1      -5.597  19.328   1.290  1.00  0.00     0.055 A 
ATOM     91  C   UNL     1      -4.639  20.353   3.243  1.00  0.00     0.041 A 
ATOM     92  F   UNL     1      -2.791  19.367   4.288  1.00  0.00    -0.206 F 
ATOM     93  C   UNL     1      -5.581  20.371   2.219  1.00  0.00     0.022 A 
BRANCH  90  94
ATOM     94  S   UNL     1      -6.707  19.410  -0.143  1.00  0.00     0.124 S 
ATOM     95  O   UNL     1      -5.765  19.381  -1.257  1.00  0.00    -0.237 OA
ATOM     96  O   UNL     1      -7.529  18.217   0.030  1.00  0.00    -0.237 OA
ATOM     97  O   UNL     1      -7.411  20.678   0.041  1.00  0.00    -0.744 OA
ENDBRANCH  90  94
ENDBRANCH  64  87
ENDBRANCH  38  39
ENDBRANCH  30  33
ENDBRANCH  28  29
ENDBRANCH  27  28
ENDBRANCH   1  27
TORSDOF 18
