REMARK SMILES [NH3+][C@]1(C(=O)NCCCCNC(=O)c2ccc(-c3c4nc(c(-c5cc(S(=O)(=O)[O-])ccc5F)c5ccc([nH]5)c(-c5cc(S(=O)(=O)[O-])ccc5F)c5nc(c(-c6cc(S(=O)(=O)[O-])ccc6F)c6ccc3[nH]6)C=C5)C=C4)cc2)CCC[C@@H]1CCn1cc(I)cn1
REMARK SMILES IDX 7 1 6 2 5 3 3 4 4 5 2 7 76 8 79 9 77 10 78 11 1 12 80 16
REMARK SMILES IDX 81 17 82 18 83 19 87 20 84 21 86 22 85 23 8 24 9 25 10 26
REMARK SMILES IDX 11 27 12 29 13 30 14 31 75 32 15 33 74 34 16 35 17 36 18 37
REMARK SMILES IDX 68 38 19 39 73 40 67 41 69 42 20 43 72 44 66 45 65 46 21 48
REMARK SMILES IDX 53 49 33 50 52 51 34 52 37 53 51 54 70 55 35 56 36 57 50 59
REMARK SMILES IDX 71 60 38 61 22 62 23 63 31 64 24 65 30 66 32 67 29 68 25 69
REMARK SMILES IDX 26 70 27 71 28 72 54 73 55 74 63 75 56 76 62 77 64 78 61 79
REMARK SMILES IDX 57 80 58 81 59 82 60 83 39 84 40 85 48 86 41 87 47 88 49 89
REMARK SMILES IDX 46 90 42 91 43 92 44 93 45 94
REMARK H PARENT 5 6 1 13 1 14 1 15 10 28 69 47 37 58
REMARK Flexibility Score: inf
ROOT
ATOM      1  C   UNL     1       2.903  -2.412   2.387  1.00  0.00     0.023 C 
ENDROOT
BRANCH   1   2
ATOM      2  C   UNL     1       1.536  -1.769   2.634  1.00  0.00     0.116 C 
BRANCH   2   3
ATOM      3  N   UNL     1       1.360  -0.605   1.808  1.00  0.00    -0.351 N 
ATOM      4  C   UNL     1       1.144  -0.479   0.481  1.00  0.00     0.281 C 
ATOM      5  O   UNL     1       1.192   0.683   0.051  1.00  0.00    -0.268 OA
ATOM      6  H   UNL     1       1.405   0.250   2.295  1.00  0.00     0.163 HD
BRANCH   4   7
ATOM      7  C   UNL     1       0.737  -1.630  -0.505  1.00  0.00     0.176 C 
ATOM      8  C   UNL     1       1.077  -3.108  -0.233  1.00  0.00     0.079 C 
ATOM      9  C   UNL     1      -0.832  -1.612  -0.618  1.00  0.00     0.062 C 
ATOM     10  C   UNL     1      -0.044  -3.891  -0.893  1.00  0.00     0.008 C 
ATOM     11  C   UNL     1      -1.260  -3.091  -0.472  1.00  0.00     0.011 C 
BRANCH   7  12
ATOM     12  N   UNL     1       1.470  -1.362  -1.758  1.00  0.00    -0.345 N 
ATOM     13  H   UNL     1       1.245  -2.083  -2.444  1.00  0.00     0.345 HD
ATOM     14  H   UNL     1       2.473  -1.370  -1.574  1.00  0.00     0.345 HD
ATOM     15  H   UNL     1       1.198  -0.449  -2.122  1.00  0.00     0.345 HD
ENDBRANCH   7  12
BRANCH   9  16
ATOM     16  C   UNL     1      -1.510  -1.016  -1.877  1.00  0.00     0.034 C 
BRANCH  16  17
ATOM     17  C   UNL     1      -1.332   0.488  -2.140  1.00  0.00     0.145 C 
BRANCH  17  18
ATOM     18  N   UNL     1      -0.280   0.868  -3.066  1.00  0.00    -0.272 N 
ATOM     19  C   UNL     1       0.155   0.197  -4.179  1.00  0.00     0.123 A 
ATOM     20  N   UNL     1       0.401   2.011  -2.851  1.00  0.00    -0.180 NA
ATOM     21  C   UNL     1       1.315   0.831  -4.548  1.00  0.00     0.051 A 
ATOM     22  C   UNL     1       1.419   1.948  -3.714  1.00  0.00     0.149 A 
ATOM     23  I   UNL     1       2.603   0.217  -5.961  1.00  0.00    -0.041 I 
ENDBRANCH  17  18
ENDBRANCH  16  17
ENDBRANCH   9  16
ENDBRANCH   4   7
ENDBRANCH   2   3
ENDBRANCH   1   2
BRANCH   1  24
ATOM     24  C   UNL     1       4.082  -1.630   2.963  1.00  0.00     0.023 C 
BRANCH  24  25
ATOM     25  C   UNL     1       3.967  -1.314   4.445  1.00  0.00     0.116 C 
BRANCH  25  26
ATOM     26  N   UNL     1       3.606  -2.471   5.253  1.00  0.00    -0.352 N 
ATOM     27  C   UNL     1       3.924  -2.711   6.566  1.00  0.00     0.251 C 
ATOM     28  H   UNL     1       3.070  -3.164   4.803  1.00  0.00     0.163 HD
ATOM     29  O   UNL     1       3.618  -3.771   7.101  1.00  0.00    -0.269 OA
BRANCH  27  30
ATOM     30  C   UNL     1       4.686  -1.680   7.288  1.00  0.00     0.039 A 
ATOM     31  C   UNL     1       5.921  -2.021   7.840  1.00  0.00     0.014 A 
ATOM     32  C   UNL     1       4.227  -0.360   7.304  1.00  0.00     0.014 A 
ATOM     33  C   UNL     1       6.736  -1.015   8.355  1.00  0.00     0.010 A 
ATOM     34  C   UNL     1       5.071   0.646   7.749  1.00  0.00     0.010 A 
ATOM     35  C   UNL     1       6.333   0.328   8.277  1.00  0.00    -0.014 A 
BRANCH  35  36
ATOM     36  C   UNL     1       7.203   1.425   8.762  1.00  0.00     0.031 A 
ATOM     37  C   UNL     1       6.746   2.264   9.920  1.00  0.00     0.074 A 
ATOM     38  C   UNL     1       8.346   1.712   8.110  1.00  0.00     0.049 A 
ATOM     39  N   UNL     1       7.280   3.346  10.421  1.00  0.00    -0.248 NA
ATOM     40  C   UNL     1       5.496   1.849  10.576  1.00  0.00     0.031 C 
ATOM     41  C   UNL     1       8.863   0.986   6.947  1.00  0.00     0.029 A 
ATOM     42  N   UNL     1       9.272   2.701   8.320  1.00  0.00    -0.354 N 
ATOM     43  C   UNL     1       6.420   3.754  11.435  1.00  0.00     0.074 A 
ATOM     44  C   UNL     1       5.301   2.838  11.433  1.00  0.00     0.031 C 
ATOM     45  C   UNL     1      10.021   1.545   6.559  1.00  0.00     0.029 A 
ATOM     46  C   UNL     1      10.305   2.694   7.412  1.00  0.00     0.049 A 
ATOM     47  H   UNL     1       9.204   3.355   9.053  1.00  0.00     0.167 HD
ATOM     48  C   UNL     1       6.566   4.786  12.302  1.00  0.00     0.034 A 
ATOM     49  C   UNL     1      11.351   3.532   7.275  1.00  0.00     0.034 A 
ATOM     50  C   UNL     1       7.703   5.671  12.297  1.00  0.00     0.049 A 
ATOM     51  C   UNL     1      11.489   4.680   8.244  1.00  0.00     0.074 A 
ATOM     52  C   UNL     1       7.990   6.712  13.162  1.00  0.00     0.029 A 
ATOM     53  N   UNL     1       8.742   5.622  11.375  1.00  0.00    -0.354 N 
ATOM     54  N   UNL     1      10.692   5.028   9.229  1.00  0.00    -0.248 NA
ATOM     55  C   UNL     1      12.667   5.542   8.089  1.00  0.00     0.031 C 
ATOM     56  C   UNL     1       9.170   7.327  12.730  1.00  0.00     0.029 A 
ATOM     57  C   UNL     1       9.658   6.629  11.636  1.00  0.00     0.049 A 
ATOM     58  H   UNL     1       8.817   4.967  10.644  1.00  0.00     0.167 HD
ATOM     59  C   UNL     1      11.292   6.130   9.830  1.00  0.00     0.074 A 
ATOM     60  C   UNL     1      12.518   6.384   9.101  1.00  0.00     0.031 C 
ATOM     61  C   UNL     1      10.873   6.862  10.893  1.00  0.00     0.034 A 
BRANCH  48  62
ATOM     62  C   UNL     1       5.457   5.014  13.299  1.00  0.00     0.023 A 
ATOM     63  C   UNL     1       5.124   4.048  14.265  1.00  0.00     0.031 A 
ATOM     64  C   UNL     1       4.692   6.192  13.257  1.00  0.00     0.131 A 
ATOM     65  C   UNL     1       4.005   4.238  15.090  1.00  0.00     0.055 A 
ATOM     66  C   UNL     1       3.632   6.413  14.139  1.00  0.00     0.041 A 
ATOM     67  F   UNL     1       4.948   7.141  12.343  1.00  0.00    -0.206 F 
ATOM     68  C   UNL     1       3.272   5.425  15.051  1.00  0.00     0.022 A 
BRANCH  65  69
ATOM     69  S   UNL     1       3.433   2.847  16.104  1.00  0.00     0.124 S 
ATOM     70  O   UNL     1       3.152   1.837  15.086  1.00  0.00    -0.237 OA
ATOM     71  O   UNL     1       4.584   2.587  16.961  1.00  0.00    -0.237 OA
ATOM     72  O   UNL     1       2.255   3.381  16.784  1.00  0.00    -0.744 OA
ENDBRANCH  65  69
ENDBRANCH  48  62
BRANCH  49  73
ATOM     73  C   UNL     1      12.344   3.331   6.182  1.00  0.00     0.023 A 
ATOM     74  C   UNL     1      13.676   2.994   6.469  1.00  0.00     0.031 A 
ATOM     75  C   UNL     1      11.983   3.505   4.834  1.00  0.00     0.131 A 
ATOM     76  C   UNL     1      14.611   2.885   5.427  1.00  0.00     0.055 A 
ATOM     77  C   UNL     1      12.905   3.347   3.797  1.00  0.00     0.041 A 
ATOM     78  F   UNL     1      10.721   3.819   4.504  1.00  0.00    -0.206 F 
ATOM     79  C   UNL     1      14.232   3.047   4.093  1.00  0.00     0.022 A 
BRANCH  76  80
ATOM     80  S   UNL     1      16.352   2.601   5.849  1.00  0.00     0.124 S 
ATOM     81  O   UNL     1      16.641   3.746   6.705  1.00  0.00    -0.237 OA
ATOM     82  O   UNL     1      16.294   1.302   6.511  1.00  0.00    -0.237 OA
ATOM     83  O   UNL     1      17.022   2.607   4.551  1.00  0.00    -0.744 OA
ENDBRANCH  76  80
ENDBRANCH  49  73
BRANCH  61  84
ATOM     84  C   UNL     1      11.780   7.971  11.361  1.00  0.00     0.023 A 
ATOM     85  C   UNL     1      11.970   9.141  10.607  1.00  0.00     0.031 A 
ATOM     86  C   UNL     1      12.450   7.856  12.592  1.00  0.00     0.131 A 
ATOM     87  C   UNL     1      12.842  10.135  11.073  1.00  0.00     0.055 A 
ATOM     88  C   UNL     1      13.275   8.871  13.075  1.00  0.00     0.041 A 
ATOM     89  F   UNL     1      12.300   6.758  13.351  1.00  0.00    -0.206 F 
ATOM     90  C   UNL     1      13.483  10.015  12.310  1.00  0.00     0.022 A 
BRANCH  87  91
ATOM     91  S   UNL     1      13.178  11.568  10.013  1.00  0.00     0.124 S 
ATOM     92  O   UNL     1      13.778  10.942   8.839  1.00  0.00    -0.237 OA
ATOM     93  O   UNL     1      11.848  12.136   9.823  1.00  0.00    -0.237 OA
ATOM     94  O   UNL     1      14.090  12.382  10.815  1.00  0.00    -0.744 OA
ENDBRANCH  87  91
ENDBRANCH  61  84
ENDBRANCH  35  36
ENDBRANCH  27  30
ENDBRANCH  25  26
ENDBRANCH  24  25
ENDBRANCH   1  24
TORSDOF 18
