REMARK SMILES C[C@H]1CN(c2ccc([N+](=O)[O-])c(C(=O)NCCCCNC(=O)c3ccc(-c4c5nc(c(-c6cc(S(=O)(=O)[O-])ccc6F)c6ccc([nH]6)c(-c6cc(S(=O)(=O)[O-])ccc6F)c6nc(c(-c7cc(S(=O)(=O)[O-])ccc7F)c7ccc4[nH]7)C=C6)C=C5)cc3)c2)C[C@H](C)O1
REMARK SMILES IDX 18 1 17 2 16 3 15 4 13 5 14 6 12 8 5 9 6 10 86 11 7 12 8 13
REMARK SMILES IDX 4 14 1 15 2 16 3 17 90 18 88 19 87 20 89 21 9 22 10 23 11 24
REMARK SMILES IDX 19 25 20 26 21 27 22 29 23 30 24 31 85 32 25 33 84 34 26 35
REMARK SMILES IDX 27 36 28 37 78 38 29 39 83 40 77 41 79 42 30 43 82 44 76 45
REMARK SMILES IDX 75 46 31 48 63 49 43 50 62 51 44 52 47 53 61 54 80 55 45 56
REMARK SMILES IDX 46 57 60 59 81 60 48 61 32 62 33 63 41 64 34 65 40 66 42 67
REMARK SMILES IDX 39 68 35 69 36 70 37 71 38 72 64 73 65 74 73 75 66 76 72 77
REMARK SMILES IDX 74 78 71 79 67 80 68 81 69 82 70 83 49 84 50 85 58 86 51 87
REMARK SMILES IDX 57 88 59 89 56 90 52 91 53 92 54 93 55 94
REMARK H PARENT 15 7 20 28 79 47 47 58
REMARK Flexibility Score: inf
ROOT
ATOM      1  C   UNL     1      -3.801  -0.240   6.703  1.00  0.00     0.023 C 
ENDROOT
BRANCH   1   2
ATOM      2  C   UNL     1      -2.899  -1.098   5.830  1.00  0.00     0.023 C 
BRANCH   2   3
ATOM      3  C   UNL     1      -1.569  -0.483   5.421  1.00  0.00     0.116 C 
BRANCH   3   4
ATOM      4  N   UNL     1      -0.632  -0.246   6.516  1.00  0.00    -0.352 N 
ATOM      5  C   UNL     1       0.719  -0.500   6.678  1.00  0.00     0.258 C 
ATOM      6  O   UNL     1       1.216  -0.237   7.769  1.00  0.00    -0.269 OA
ATOM      7  H   UNL     1      -1.046   0.183   7.300  1.00  0.00     0.163 HD
BRANCH   5   8
ATOM      8  C   UNL     1       1.545  -1.172   5.633  1.00  0.00     0.119 A 
ATOM      9  C   UNL     1       1.482  -2.175   3.400  1.00  0.00     0.038 A 
ATOM     10  C   UNL     1       2.501  -3.049   3.789  1.00  0.00     0.033 A 
ATOM     11  C   UNL     1       1.135  -1.161   4.301  1.00  0.00     0.047 A 
ATOM     12  C   UNL     1       3.140  -2.903   5.023  1.00  0.00     0.088 A 
ATOM     13  C   UNL     1       2.644  -1.969   5.943  1.00  0.00     0.282 A 
BRANCH   9  14
ATOM     14  N   UNL     1       0.794  -2.314   2.220  1.00  0.00    -0.366 N 
ATOM     15  C   UNL     1       0.636  -0.049  -0.796  1.00  0.00     0.040 C 
ATOM     16  C   UNL     1       1.014  -1.238   0.076  1.00  0.00     0.135 C 
ATOM     17  C   UNL     1       0.307  -1.173   1.438  1.00  0.00     0.148 C 
ATOM     18  O   UNL     1       0.665  -2.457  -0.614  1.00  0.00    -0.372 OA
ATOM     19  C   UNL     1       0.967  -3.652   0.141  1.00  0.00     0.135 C 
ATOM     20  C   UNL     1       0.471  -3.608   1.606  1.00  0.00     0.148 C 
ATOM     21  C   UNL     1       2.453  -3.984   0.050  1.00  0.00     0.040 C 
ENDBRANCH   9  14
BRANCH  13  22
ATOM     22  N   UNL     1       3.404  -1.783   7.163  1.00  0.00     0.063 N 
ATOM     23  O   UNL     1       3.560  -2.781   7.882  1.00  0.00    -0.258 OA
ATOM     24  O   UNL     1       3.979  -0.695   7.302  1.00  0.00    -0.258 OA
ENDBRANCH  13  22
ENDBRANCH   5   8
ENDBRANCH   3   4
ENDBRANCH   2   3
ENDBRANCH   1   2
BRANCH   1  25
ATOM     25  C   UNL     1      -4.084   1.168   6.193  1.00  0.00     0.116 C 
BRANCH  25  26
ATOM     26  N   UNL     1      -4.625   1.207   4.844  1.00  0.00    -0.352 N 
ATOM     27  C   UNL     1      -5.727   1.875   4.352  1.00  0.00     0.251 C 
ATOM     28  H   UNL     1      -4.129   0.676   4.180  1.00  0.00     0.163 HD
ATOM     29  O   UNL     1      -6.065   1.700   3.192  1.00  0.00    -0.269 OA
BRANCH  27  30
ATOM     30  C   UNL     1      -6.518   2.761   5.240  1.00  0.00     0.039 A 
ATOM     31  C   UNL     1      -7.911   2.677   5.198  1.00  0.00     0.014 A 
ATOM     32  C   UNL     1      -5.900   3.651   6.123  1.00  0.00     0.014 A 
ATOM     33  C   UNL     1      -8.678   3.424   6.096  1.00  0.00     0.010 A 
ATOM     34  C   UNL     1      -6.661   4.325   7.077  1.00  0.00     0.010 A 
ATOM     35  C   UNL     1      -8.059   4.219   7.076  1.00  0.00    -0.014 A 
BRANCH  35  36
ATOM     36  C   UNL     1      -8.871   4.920   8.107  1.00  0.00     0.031 A 
ATOM     37  C   UNL     1      -8.865   6.423   8.196  1.00  0.00     0.074 A 
ATOM     38  C   UNL     1      -9.585   4.192   8.992  1.00  0.00     0.049 A 
ATOM     39  N   UNL     1      -9.521   7.205   9.015  1.00  0.00    -0.248 NA
ATOM     40  C   UNL     1      -7.984   7.143   7.263  1.00  0.00     0.031 C 
ATOM     41  C   UNL     1      -9.611   2.728   9.053  1.00  0.00     0.029 A 
ATOM     42  N   UNL     1     -10.425   4.576  10.007  1.00  0.00    -0.354 N 
ATOM     43  C   UNL     1      -9.125   8.502   8.707  1.00  0.00     0.074 A 
ATOM     44  C   UNL     1      -8.127   8.398   7.665  1.00  0.00     0.031 C 
ATOM     45  C   UNL     1     -10.453   2.341  10.024  1.00  0.00     0.029 A 
ATOM     46  C   UNL     1     -10.996   3.522  10.685  1.00  0.00     0.049 A 
ATOM     47  H   UNL     1     -10.604   5.519  10.230  1.00  0.00     0.167 HD
ATOM     48  C   UNL     1      -9.569   9.671   9.231  1.00  0.00     0.034 A 
ATOM     49  C   UNL     1     -11.857   3.507  11.722  1.00  0.00     0.034 A 
ATOM     50  C   UNL     1     -10.581   9.757  10.256  1.00  0.00     0.049 A 
ATOM     51  C   UNL     1     -12.349   4.824  12.271  1.00  0.00     0.074 A 
ATOM     52  C   UNL     1     -11.168  10.889  10.793  1.00  0.00     0.029 A 
ATOM     53  N   UNL     1     -11.147   8.670  10.911  1.00  0.00    -0.354 N 
ATOM     54  N   UNL     1     -12.038   6.044  11.895  1.00  0.00    -0.248 NA
ATOM     55  C   UNL     1     -13.322   4.761  13.368  1.00  0.00     0.031 C 
ATOM     56  C   UNL     1     -12.026  10.493  11.824  1.00  0.00     0.029 A 
ATOM     57  C   UNL     1     -12.044   9.108  11.874  1.00  0.00     0.049 A 
ATOM     58  H   UNL     1     -10.941   7.727  10.720  1.00  0.00     0.167 HD
ATOM     59  C   UNL     1     -12.800   6.892  12.696  1.00  0.00     0.074 A 
ATOM     60  C   UNL     1     -13.607   6.042  13.546  1.00  0.00     0.031 C 
ATOM     61  C   UNL     1     -12.829   8.249  12.729  1.00  0.00     0.034 A 
BRANCH  48  62
ATOM     62  C   UNL     1      -8.946  10.952   8.725  1.00  0.00     0.023 A 
ATOM     63  C   UNL     1      -9.074  11.366   7.387  1.00  0.00     0.031 A 
ATOM     64  C   UNL     1      -8.216  11.777   9.600  1.00  0.00     0.131 A 
ATOM     65  C   UNL     1      -8.434  12.537   6.950  1.00  0.00     0.055 A 
ATOM     66  C   UNL     1      -7.647  12.980   9.178  1.00  0.00     0.041 A 
ATOM     67  F   UNL     1      -8.040  11.424  10.883  1.00  0.00    -0.206 F 
ATOM     68  C   UNL     1      -7.744  13.360   7.843  1.00  0.00     0.022 A 
BRANCH  65  69
ATOM     69  S   UNL     1      -8.413  12.906   5.175  1.00  0.00     0.124 S 
ATOM     70  O   UNL     1      -7.742  11.725   4.636  1.00  0.00    -0.237 OA
ATOM     71  O   UNL     1      -9.831  13.033   4.862  1.00  0.00    -0.237 OA
ATOM     72  O   UNL     1      -7.642  14.144   5.090  1.00  0.00    -0.744 OA
ENDBRANCH  65  69
ENDBRANCH  48  62
BRANCH  49  73
ATOM     73  C   UNL     1     -12.308   2.217  12.324  1.00  0.00     0.023 A 
ATOM     74  C   UNL     1     -13.662   1.844  12.319  1.00  0.00     0.031 A 
ATOM     75  C   UNL     1     -11.396   1.365  12.973  1.00  0.00     0.131 A 
ATOM     76  C   UNL     1     -14.075   0.690  13.004  1.00  0.00     0.055 A 
ATOM     77  C   UNL     1     -11.802   0.185  13.598  1.00  0.00     0.041 A 
ATOM     78  F   UNL     1     -10.088   1.668  13.006  1.00  0.00    -0.206 F 
ATOM     79  C   UNL     1     -13.152  -0.150  13.632  1.00  0.00     0.022 A 
BRANCH  76  80
ATOM     80  S   UNL     1     -15.852   0.361  13.162  1.00  0.00     0.124 S 
ATOM     81  O   UNL     1     -16.330   1.597  13.772  1.00  0.00    -0.237 OA
ATOM     82  O   UNL     1     -16.242   0.138  11.774  1.00  0.00    -0.237 OA
ATOM     83  O   UNL     1     -15.905  -0.821  14.020  1.00  0.00    -0.744 OA
ENDBRANCH  76  80
ENDBRANCH  49  73
BRANCH  61  84
ATOM     84  C   UNL     1     -13.795   8.886  13.701  1.00  0.00     0.023 A 
ATOM     85  C   UNL     1     -13.663   8.715  15.091  1.00  0.00     0.031 A 
ATOM     86  C   UNL     1     -14.886   9.638  13.230  1.00  0.00     0.131 A 
ATOM     87  C   UNL     1     -14.648   9.218  15.954  1.00  0.00     0.055 A 
ATOM     88  C   UNL     1     -15.821  10.202  14.100  1.00  0.00     0.041 A 
ATOM     89  F   UNL     1     -15.065   9.833  11.914  1.00  0.00    -0.206 F 
ATOM     90  C   UNL     1     -15.716   9.976  15.469  1.00  0.00     0.022 A 
BRANCH  87  91
ATOM     91  S   UNL     1     -14.586   8.752  17.706  1.00  0.00     0.124 S 
ATOM     92  O   UNL     1     -14.589   7.295  17.632  1.00  0.00    -0.237 OA
ATOM     93  O   UNL     1     -13.338   9.365  18.147  1.00  0.00    -0.237 OA
ATOM     94  O   UNL     1     -15.800   9.347  18.262  1.00  0.00    -0.744 OA
ENDBRANCH  87  91
ENDBRANCH  61  84
ENDBRANCH  35  36
ENDBRANCH  27  30
ENDBRANCH  25  26
ENDBRANCH   1  25
TORSDOF 16
