REMARK SMILES CCN1C(=O)C[C@@H](C(=O)Nc2cccc(C(=O)NCCCCNC(=O)c3ccc(-c4c5nc(c(-c6cc(S(=O)(=O)[O-])ccc6F)c6ccc([nH]6)c(-c6cc(S(=O)(=O)[O-])ccc6F)c6nc(c(-c7cc(S(=O)(=O)[O-])ccc7F)c7ccc4[nH]7)C=C6)C=C5)cc3)c2)S/C1=[NH+]/c1ccccc1
REMARK SMILES IDX 20 1 19 2 18 3 16 4 17 5 15 7 11 8 12 9 89 10 13 11 14 12
REMARK SMILES IDX 10 13 8 14 9 15 7 17 3 18 4 19 91 20 5 21 6 22 90 23 92 24
REMARK SMILES IDX 2 26 1 27 93 28 94 29 98 30 95 31 97 32 96 33 21 34 22 35
REMARK SMILES IDX 23 36 24 37 25 39 26 40 27 41 88 42 28 43 87 44 29 45 30 46
REMARK SMILES IDX 31 47 81 48 32 49 86 50 80 51 82 52 33 53 85 54 79 55 78 56
REMARK SMILES IDX 34 58 66 59 46 60 65 61 47 62 50 63 64 64 83 65 48 66 49 67
REMARK SMILES IDX 63 69 84 70 51 71 35 72 36 73 44 74 37 75 43 76 45 77 42 78
REMARK SMILES IDX 38 79 39 80 40 81 41 82 67 83 68 84 76 85 69 86 75 87 77 88
REMARK SMILES IDX 74 89 70 90 71 91 72 92 73 93 52 94 53 95 61 96 54 97 60 98
REMARK SMILES IDX 62 99 59 100 55 101 56 102 57 103 58 104
REMARK H PARENT 18 6 10 16 92 25 23 38 82 57 50 68
REMARK Flexibility Score: inf
ROOT
ATOM      1  C   UNL     1       1.166   5.865   4.956  1.00  0.00     0.023 C 
ENDROOT
BRANCH   1   2
ATOM      2  C   UNL     1       0.569   5.120   3.772  1.00  0.00     0.116 C 
BRANCH   2   3
ATOM      3  N   UNL     1      -0.204   3.926   4.076  1.00  0.00    -0.352 N 
ATOM      4  C   UNL     1      -1.261   3.358   3.391  1.00  0.00     0.251 C 
ATOM      5  O   UNL     1      -1.747   2.303   3.792  1.00  0.00    -0.269 OA
ATOM      6  H   UNL     1       0.066   3.451   4.895  1.00  0.00     0.163 HD
BRANCH   4   7
ATOM      7  C   UNL     1      -1.865   4.010   2.194  1.00  0.00     0.041 A 
ATOM      8  C   UNL     1      -1.686   5.468   0.258  1.00  0.00     0.041 A 
ATOM      9  C   UNL     1      -3.078   5.459   0.138  1.00  0.00     0.026 A 
ATOM     10  C   UNL     1      -1.097   4.703   1.257  1.00  0.00     0.040 A 
ATOM     11  C   UNL     1      -3.855   4.660   0.982  1.00  0.00     0.003 A 
ATOM     12  C   UNL     1      -3.250   3.941   2.015  1.00  0.00     0.014 A 
BRANCH   8  13
ATOM     13  N   UNL     1      -0.952   6.347  -0.554  1.00  0.00    -0.325 N 
ATOM     14  C   UNL     1       0.360   6.403  -0.940  1.00  0.00     0.238 C 
ATOM     15  O   UNL     1       0.776   7.514  -1.296  1.00  0.00    -0.273 OA
ATOM     16  H   UNL     1      -1.497   7.079  -0.925  1.00  0.00     0.169 HD
BRANCH  14  17
ATOM     17  C   UNL     1       1.263   5.166  -1.094  1.00  0.00     0.160 C 
ATOM     18  N   UNL     1       1.452   2.409  -0.058  1.00  0.00    -0.191 N 
ATOM     19  C   UNL     1       1.149   2.655  -1.383  1.00  0.00     0.311 C 
ATOM     20  C   UNL     1       2.304   3.218   0.676  1.00  0.00     0.319 C 
ATOM     21  O   UNL     1       1.221   1.806  -2.269  1.00  0.00    -0.247 OA
ATOM     22  C   UNL     1       0.538   3.983  -1.677  1.00  0.00     0.153 C 
ATOM     23  S   UNL     1       2.334   4.938   0.327  1.00  0.00    -0.024 SA
ATOM     24  N   UNL     1       3.089   2.887   1.651  1.00  0.00    -0.235 N 
ATOM     25  H   UNL     1       3.423   3.604   2.238  1.00  0.00     0.313 HD
BRANCH  18  26
ATOM     26  C   UNL     1       0.767   1.270   0.561  1.00  0.00     0.243 C 
ATOM     27  C   UNL     1       1.046  -0.095  -0.047  1.00  0.00     0.054 C 
ENDBRANCH  18  26
BRANCH  24  28
ATOM     28  C   UNL     1       3.494   1.574   1.921  1.00  0.00     0.125 A 
ATOM     29  C   UNL     1       3.248   0.995   3.170  1.00  0.00     0.051 A 
ATOM     30  C   UNL     1       4.285   0.875   1.003  1.00  0.00     0.051 A 
ATOM     31  C   UNL     1       3.752  -0.271   3.483  1.00  0.00     0.004 A 
ATOM     32  C   UNL     1       4.778  -0.397   1.306  1.00  0.00     0.004 A 
ATOM     33  C   UNL     1       4.512  -0.969   2.547  1.00  0.00     0.000 A 
ENDBRANCH  24  28
ENDBRANCH  14  17
ENDBRANCH   8  13
ENDBRANCH   4   7
ENDBRANCH   2   3
ENDBRANCH   1   2
BRANCH   1  34
ATOM     34  C   UNL     1       2.229   5.136   5.771  1.00  0.00     0.023 C 
BRANCH  34  35
ATOM     35  C   UNL     1       3.371   4.477   5.001  1.00  0.00     0.116 C 
BRANCH  35  36
ATOM     36  N   UNL     1       4.150   5.373   4.167  1.00  0.00    -0.352 N 
ATOM     37  C   UNL     1       5.517   5.545   4.080  1.00  0.00     0.251 C 
ATOM     38  H   UNL     1       3.621   5.949   3.569  1.00  0.00     0.163 HD
ATOM     39  O   UNL     1       5.971   6.381   3.312  1.00  0.00    -0.269 OA
BRANCH  37  40
ATOM     40  C   UNL     1       6.434   4.776   4.960  1.00  0.00     0.039 A 
ATOM     41  C   UNL     1       7.454   5.470   5.618  1.00  0.00     0.014 A 
ATOM     42  C   UNL     1       6.300   3.399   5.157  1.00  0.00     0.014 A 
ATOM     43  C   UNL     1       8.263   4.809   6.547  1.00  0.00     0.010 A 
ATOM     44  C   UNL     1       7.056   2.757   6.143  1.00  0.00     0.010 A 
ATOM     45  C   UNL     1       8.034   3.459   6.864  1.00  0.00    -0.014 A 
BRANCH  45  46
ATOM     46  C   UNL     1       8.791   2.803   7.970  1.00  0.00     0.031 A 
ATOM     47  C   UNL     1       9.711   1.642   7.694  1.00  0.00     0.074 A 
ATOM     48  C   UNL     1       8.632   3.243   9.236  1.00  0.00     0.049 A 
ATOM     49  N   UNL     1      10.445   0.952   8.532  1.00  0.00    -0.248 NA
ATOM     50  C   UNL     1       9.804   1.184   6.301  1.00  0.00     0.031 C 
ATOM     51  C   UNL     1       7.739   4.330   9.646  1.00  0.00     0.029 A 
ATOM     52  N   UNL     1       9.217   2.841  10.413  1.00  0.00    -0.354 N 
ATOM     53  C   UNL     1      11.094  -0.012   7.768  1.00  0.00     0.074 A 
ATOM     54  C   UNL     1      10.610   0.138   6.412  1.00  0.00     0.031 C 
ATOM     55  C   UNL     1       7.867   4.534  10.967  1.00  0.00     0.029 A 
ATOM     56  C   UNL     1       8.815   3.568  11.512  1.00  0.00     0.049 A 
ATOM     57  H   UNL     1       9.865   2.102  10.466  1.00  0.00     0.167 HD
ATOM     58  C   UNL     1      12.030  -0.917   8.152  1.00  0.00     0.034 A 
ATOM     59  C   UNL     1       9.167   3.470  12.810  1.00  0.00     0.034 A 
ATOM     60  C   UNL     1      12.509  -1.063   9.506  1.00  0.00     0.049 A 
ATOM     61  C   UNL     1      10.183   2.428  13.214  1.00  0.00     0.074 A 
ATOM     62  C   UNL     1      13.464  -1.940   9.994  1.00  0.00     0.029 A 
ATOM     63  N   UNL     1      12.072  -0.316  10.592  1.00  0.00    -0.354 N 
ATOM     64  N   UNL     1      10.817   1.556  12.464  1.00  0.00    -0.248 NA
ATOM     65  C   UNL     1      10.542   2.370  14.637  1.00  0.00     0.031 C 
ATOM     66  C   UNL     1      13.563  -1.762  11.378  1.00  0.00     0.029 A 
ATOM     67  C   UNL     1      12.723  -0.724  11.747  1.00  0.00     0.049 A 
ATOM     68  H   UNL     1      11.397   0.400  10.548  1.00  0.00     0.167 HD
ATOM     69  C   UNL     1      11.678   0.876  13.323  1.00  0.00     0.074 A 
ATOM     70  C   UNL     1      11.501   1.458  14.636  1.00  0.00     0.031 C 
ATOM     71  C   UNL     1      12.538  -0.139  13.053  1.00  0.00     0.034 A 
BRANCH  58  72
ATOM     72  C   UNL     1      12.595  -1.825   7.086  1.00  0.00     0.023 A 
ATOM     73  C   UNL     1      13.355  -1.314   6.019  1.00  0.00     0.031 A 
ATOM     74  C   UNL     1      12.380  -3.213   7.135  1.00  0.00     0.131 A 
ATOM     75  C   UNL     1      13.821  -2.175   5.014  1.00  0.00     0.055 A 
ATOM     76  C   UNL     1      12.911  -4.074   6.172  1.00  0.00     0.041 A 
ATOM     77  F   UNL     1      11.648  -3.757   8.120  1.00  0.00    -0.206 F 
ATOM     78  C   UNL     1      13.626  -3.555   5.097  1.00  0.00     0.022 A 
BRANCH  75  79
ATOM     79  S   UNL     1      14.588  -1.452   3.538  1.00  0.00     0.124 S 
ATOM     80  O   UNL     1      13.491  -0.651   3.000  1.00  0.00    -0.237 OA
ATOM     81  O   UNL     1      15.710  -0.707   4.097  1.00  0.00    -0.237 OA
ATOM     82  O   UNL     1      14.952  -2.618   2.736  1.00  0.00    -0.744 OA
ENDBRANCH  75  79
ENDBRANCH  58  72
BRANCH  59  83
ATOM     83  C   UNL     1       8.566   4.367  13.842  1.00  0.00     0.023 A 
ATOM     84  C   UNL     1       9.370   5.230  14.605  1.00  0.00     0.031 A 
ATOM     85  C   UNL     1       7.195   4.307  14.149  1.00  0.00     0.131 A 
ATOM     86  C   UNL     1       8.816   5.937  15.683  1.00  0.00     0.055 A 
ATOM     87  C   UNL     1       6.635   5.065  15.180  1.00  0.00     0.041 A 
ATOM     88  F   UNL     1       6.377   3.501  13.453  1.00  0.00    -0.206 F 
ATOM     89  C   UNL     1       7.451   5.870  15.968  1.00  0.00     0.022 A 
BRANCH  86  90
ATOM     90  S   UNL     1       9.932   6.837  16.796  1.00  0.00     0.124 S 
ATOM     91  O   UNL     1      10.874   5.792  17.180  1.00  0.00    -0.237 OA
ATOM     92  O   UNL     1      10.453   7.881  15.921  1.00  0.00    -0.237 OA
ATOM     93  O   UNL     1       9.047   7.302  17.861  1.00  0.00    -0.744 OA
ENDBRANCH  86  90
ENDBRANCH  59  83
BRANCH  71  94
ATOM     94  C   UNL     1      13.384  -0.640  14.199  1.00  0.00     0.023 A 
ATOM     95  C   UNL     1      12.814  -1.268  15.321  1.00  0.00     0.031 A 
ATOM     96  C   UNL     1      14.777  -0.448  14.188  1.00  0.00     0.131 A 
ATOM     97  C   UNL     1      13.620  -1.611  16.417  1.00  0.00     0.055 A 
ATOM     98  C   UNL     1      15.584  -0.852  15.253  1.00  0.00     0.041 A 
ATOM     99  F   UNL     1      15.378   0.146  13.144  1.00  0.00    -0.206 F 
ATOM    100  C   UNL     1      15.004  -1.421  16.384  1.00  0.00     0.022 A 
BRANCH  97 101
ATOM    101  S   UNL     1      12.820  -2.201  17.935  1.00  0.00     0.124 S 
ATOM    102  O   UNL     1      11.903  -1.108  18.241  1.00  0.00    -0.237 OA
ATOM    103  O   UNL     1      12.201  -3.447  17.495  1.00  0.00    -0.237 OA
ATOM    104  O   UNL     1      13.932  -2.359  18.870  1.00  0.00    -0.744 OA
ENDBRANCH  97 101
ENDBRANCH  71  94
ENDBRANCH  45  46
ENDBRANCH  37  40
ENDBRANCH  35  36
ENDBRANCH  34  35
ENDBRANCH   1  34
TORSDOF 18
