REMARK SMILES COc1ccc2c(c1)[C@H]([NH2+][C@H]1CCC[C@H](C(=O)NCCCCNC(=O)c3ccc(-c4c5nc(c(-c6cc(S(=O)(=O)[O-])ccc6F)c6ccc([nH]6)c(-c6cc(S(=O)(=O)[O-])ccc6F)c6nc(c(-c7cc(S(=O)(=O)[O-])ccc7F)c7ccc4[nH]7)C=C6)C=C5)cc3)C1)CC2
REMARK SMILES IDX 20 1 19 2 18 3 16 4 17 5 15 7 11 8 12 9 89 10 13 11 14 12
REMARK SMILES IDX 10 13 9 16 3 17 4 18 8 19 5 20 7 21 6 22 91 23 90 24 2 25
REMARK SMILES IDX 1 26 21 27 22 28 23 29 24 30 25 32 26 33 27 34 88 35 28 36
REMARK SMILES IDX 87 37 29 38 30 39 31 40 81 41 32 42 86 43 80 44 82 45 33 46
REMARK SMILES IDX 85 47 79 48 78 49 34 51 66 52 46 53 65 54 47 55 50 56 64 57
REMARK SMILES IDX 83 58 48 59 49 60 63 62 84 63 51 64 35 65 36 66 44 67 37 68
REMARK SMILES IDX 43 69 45 70 42 71 38 72 39 73 40 74 41 75 67 76 68 77 76 78
REMARK SMILES IDX 69 79 75 80 77 81 74 82 70 83 71 84 72 85 73 86 52 87 53 88
REMARK SMILES IDX 61 89 54 90 60 91 62 92 59 93 55 94 56 95 57 96 58 97
REMARK H PARENT 18 6 10 14 10 15 23 31 82 50 50 61
REMARK Flexibility Score: inf
ROOT
ATOM      1  C   UNL     1      -7.708  -4.564  -5.239  1.00  0.00     0.023 C 
ENDROOT
BRANCH   1   2
ATOM      2  C   UNL     1      -6.266  -4.091  -5.251  1.00  0.00     0.116 C 
BRANCH   2   3
ATOM      3  N   UNL     1      -6.167  -2.703  -4.867  1.00  0.00    -0.356 N 
ATOM      4  C   UNL     1      -5.501  -2.135  -3.834  1.00  0.00     0.223 C 
ATOM      5  O   UNL     1      -5.694  -0.935  -3.617  1.00  0.00    -0.275 OA
ATOM      6  H   UNL     1      -6.659  -2.074  -5.444  1.00  0.00     0.163 HD
BRANCH   4   7
ATOM      7  C   UNL     1      -4.549  -2.936  -2.960  1.00  0.00     0.084 C 
ATOM      8  C   UNL     1      -2.319  -4.145  -2.875  1.00  0.00     0.183 C 
ATOM      9  C   UNL     1      -2.943  -5.113  -1.828  1.00  0.00     0.065 C 
ATOM     10  C   UNL     1      -3.499  -3.723  -3.749  1.00  0.00     0.078 C 
ATOM     11  C   UNL     1      -4.151  -4.538  -1.056  1.00  0.00     0.007 C 
ATOM     12  C   UNL     1      -5.208  -3.853  -1.937  1.00  0.00     0.014 C 
BRANCH   8  13
ATOM     13  N   UNL     1      -1.616  -3.069  -2.183  1.00  0.00    -0.338 N 
ATOM     14  H   UNL     1      -2.332  -2.455  -1.795  1.00  0.00     0.347 HD
ATOM     15  H   UNL     1      -1.014  -3.572  -1.532  1.00  0.00     0.347 HD
BRANCH  13  16
ATOM     16  C   UNL     1      -0.668  -2.205  -2.907  1.00  0.00     0.214 C 
ATOM     17  C   UNL     1      -2.483  -0.418  -5.803  1.00  0.00     0.119 A 
ATOM     18  C   UNL     1      -2.406   0.884  -5.309  1.00  0.00     0.047 A 
ATOM     19  C   UNL     1      -1.801  -1.442  -5.134  1.00  0.00     0.056 A 
ATOM     20  C   UNL     1      -1.630   1.159  -4.175  1.00  0.00     0.008 A 
ATOM     21  C   UNL     1      -1.231  -1.214  -3.892  1.00  0.00     0.016 A 
ATOM     22  C   UNL     1      -1.045   0.104  -3.488  1.00  0.00    -0.038 A 
ATOM     23  C   UNL     1      -0.053   0.177  -2.378  1.00  0.00     0.042 C 
ATOM     24  C   UNL     1      -0.108  -1.243  -1.811  1.00  0.00     0.075 C 
BRANCH  17  25
ATOM     25  O   UNL     1      -3.188  -0.854  -6.888  1.00  0.00    -0.497 OA
ATOM     26  C   UNL     1      -4.028   0.050  -7.592  1.00  0.00     0.278 C 
ENDBRANCH  17  25
ENDBRANCH  13  16
ENDBRANCH   8  13
ENDBRANCH   4   7
ENDBRANCH   2   3
ENDBRANCH   1   2
BRANCH   1  27
ATOM     27  C   UNL     1      -8.569  -3.943  -6.330  1.00  0.00     0.023 C 
BRANCH  27  28
ATOM     28  C   UNL     1      -7.992  -4.074  -7.732  1.00  0.00     0.116 C 
BRANCH  28  29
ATOM     29  N   UNL     1      -7.680  -5.453  -8.082  1.00  0.00    -0.352 N 
ATOM     30  C   UNL     1      -8.085  -6.173  -9.177  1.00  0.00     0.251 C 
ATOM     31  H   UNL     1      -7.101  -5.933  -7.447  1.00  0.00     0.163 HD
ATOM     32  O   UNL     1      -7.886  -7.386  -9.223  1.00  0.00    -0.269 OA
BRANCH  30  33
ATOM     33  C   UNL     1      -8.780  -5.477 -10.277  1.00  0.00     0.039 A 
ATOM     34  C   UNL     1      -9.929  -6.046 -10.825  1.00  0.00     0.014 A 
ATOM     35  C   UNL     1      -8.308  -4.245 -10.740  1.00  0.00     0.014 A 
ATOM     36  C   UNL     1     -10.631  -5.354 -11.812  1.00  0.00     0.010 A 
ATOM     37  C   UNL     1      -9.065  -3.513 -11.644  1.00  0.00     0.010 A 
ATOM     38  C   UNL     1     -10.219  -4.071 -12.212  1.00  0.00    -0.014 A 
BRANCH  38  39
ATOM     39  C   UNL     1     -10.937  -3.330 -13.281  1.00  0.00     0.031 A 
ATOM     40  C   UNL     1     -10.211  -2.989 -14.556  1.00  0.00     0.074 A 
ATOM     41  C   UNL     1     -12.216  -2.946 -13.098  1.00  0.00     0.049 A 
ATOM     42  N   UNL     1     -10.624  -2.296 -15.585  1.00  0.00    -0.248 NA
ATOM     43  C   UNL     1      -8.822  -3.465 -14.676  1.00  0.00     0.031 C 
ATOM     44  C   UNL     1     -13.011  -3.189 -11.891  1.00  0.00     0.029 A 
ATOM     45  N   UNL     1     -13.075  -2.270 -13.927  1.00  0.00    -0.354 N 
ATOM     46  C   UNL     1      -9.550  -2.253 -16.468  1.00  0.00     0.074 A 
ATOM     47  C   UNL     1      -8.441  -2.912 -15.816  1.00  0.00     0.031 C 
ATOM     48  C   UNL     1     -14.248  -2.697 -12.072  1.00  0.00     0.029 A 
ATOM     49  C   UNL     1     -14.324  -2.064 -13.385  1.00  0.00     0.049 A 
ATOM     50  H   UNL     1     -12.822  -1.960 -14.826  1.00  0.00     0.167 HD
ATOM     51  C   UNL     1      -9.503  -1.748 -17.725  1.00  0.00     0.034 A 
ATOM     52  C   UNL     1     -15.401  -1.430 -13.889  1.00  0.00     0.034 A 
ATOM     53  C   UNL     1     -10.621  -1.109 -18.370  1.00  0.00     0.049 A 
ATOM     54  C   UNL     1     -15.311  -0.849 -15.282  1.00  0.00     0.074 A 
ATOM     55  C   UNL     1     -10.689  -0.568 -19.642  1.00  0.00     0.029 A 
ATOM     56  N   UNL     1     -11.873  -0.932 -17.795  1.00  0.00    -0.354 N 
ATOM     57  N   UNL     1     -14.293  -0.844 -16.114  1.00  0.00    -0.248 NA
ATOM     58  C   UNL     1     -16.522  -0.212 -15.813  1.00  0.00     0.031 C 
ATOM     59  C   UNL     1     -11.961  -0.014 -19.815  1.00  0.00     0.029 A 
ATOM     60  C   UNL     1     -12.716  -0.283 -18.684  1.00  0.00     0.049 A 
ATOM     61  H   UNL     1     -12.125  -1.225 -16.890  1.00  0.00     0.167 HD
ATOM     62  C   UNL     1     -14.763  -0.249 -17.283  1.00  0.00     0.074 A 
ATOM     63  C   UNL     1     -16.156   0.069 -17.053  1.00  0.00     0.031 C 
ATOM     64  C   UNL     1     -14.107   0.012 -18.443  1.00  0.00     0.034 A 
BRANCH  51  65
ATOM     65  C   UNL     1      -8.199  -1.871 -18.475  1.00  0.00     0.023 A 
ATOM     66  C   UNL     1      -7.662  -3.128 -18.810  1.00  0.00     0.031 A 
ATOM     67  C   UNL     1      -7.479  -0.726 -18.856  1.00  0.00     0.131 A 
ATOM     68  C   UNL     1      -6.415  -3.210 -19.445  1.00  0.00     0.055 A 
ATOM     69  C   UNL     1      -6.278  -0.813 -19.562  1.00  0.00     0.041 A 
ATOM     70  F   UNL     1      -7.929   0.499 -18.542  1.00  0.00    -0.206 F 
ATOM     71  C   UNL     1      -5.733  -2.061 -19.851  1.00  0.00     0.022 A 
BRANCH  68  72
ATOM     72  S   UNL     1      -5.639  -4.840 -19.623  1.00  0.00     0.124 S 
ATOM     73  O   UNL     1      -5.487  -5.245 -18.227  1.00  0.00    -0.237 OA
ATOM     74  O   UNL     1      -6.628  -5.579 -20.398  1.00  0.00    -0.237 OA
ATOM     75  O   UNL     1      -4.389  -4.549 -20.321  1.00  0.00    -0.744 OA
ENDBRANCH  68  72
ENDBRANCH  51  65
BRANCH  52  76
ATOM     76  C   UNL     1     -16.658  -1.292 -13.094  1.00  0.00     0.023 A 
ATOM     77  C   UNL     1     -17.874  -1.817 -13.562  1.00  0.00     0.031 A 
ATOM     78  C   UNL     1     -16.685  -0.545 -11.902  1.00  0.00     0.131 A 
ATOM     79  C   UNL     1     -19.072  -1.515 -12.897  1.00  0.00     0.055 A 
ATOM     80  C   UNL     1     -17.870  -0.310 -11.203  1.00  0.00     0.041 A 
ATOM     81  F   UNL     1     -15.554  -0.021 -11.403  1.00  0.00    -0.206 F 
ATOM     82  C   UNL     1     -19.077  -0.776 -11.713  1.00  0.00     0.022 A 
BRANCH  79  83
ATOM     83  S   UNL     1     -20.640  -1.970 -13.690  1.00  0.00     0.124 S 
ATOM     84  O   UNL     1     -20.500  -1.346 -15.000  1.00  0.00    -0.237 OA
ATOM     85  O   UNL     1     -20.579  -3.428 -13.663  1.00  0.00    -0.237 OA
ATOM     86  O   UNL     1     -21.648  -1.373 -12.816  1.00  0.00    -0.744 OA
ENDBRANCH  79  83
ENDBRANCH  52  76
BRANCH  64  87
ATOM     87  C   UNL     1     -14.918   0.598 -19.574  1.00  0.00     0.023 A 
ATOM     88  C   UNL     1     -15.520   1.865 -19.483  1.00  0.00     0.031 A 
ATOM     89  C   UNL     1     -15.120  -0.144 -20.753  1.00  0.00     0.131 A 
ATOM     90  C   UNL     1     -16.361   2.315 -20.511  1.00  0.00     0.055 A 
ATOM     91  C   UNL     1     -15.894   0.343 -21.806  1.00  0.00     0.041 A 
ATOM     92  F   UNL     1     -14.569  -1.361 -20.898  1.00  0.00    -0.206 F 
ATOM     93  C   UNL     1     -16.538   1.570 -21.680  1.00  0.00     0.022 A 
BRANCH  90  94
ATOM     94  S   UNL     1     -17.329   3.825 -20.241  1.00  0.00     0.124 S 
ATOM     95  O   UNL     1     -18.036   3.515 -19.003  1.00  0.00    -0.237 OA
ATOM     96  O   UNL     1     -16.291   4.846 -20.145  1.00  0.00    -0.237 OA
ATOM     97  O   UNL     1     -18.172   3.909 -21.433  1.00  0.00    -0.744 OA
ENDBRANCH  90  94
ENDBRANCH  64  87
ENDBRANCH  38  39
ENDBRANCH  30  33
ENDBRANCH  28  29
ENDBRANCH  27  28
ENDBRANCH   1  27
TORSDOF 17
