REMARK SMILES CCCC[C@@H](NS(=O)(=O)c1cc2c3c(c1)c(C)cc(=O)n3CC2)C(=O)NCCCCNC(=O)c1ccc(-c2c3nc(c(-c4cc(S(=O)(=O)[O-])ccc4F)c4ccc([nH]4)c(-c4cc(S(=O)(=O)[O-])ccc4F)c4nc(c(-c5cc(S(=O)(=O)[O-])ccc5F)c5ccc2[nH]5)C=C4)C=C3)cc1
REMARK SMILES IDX 28 1 27 2 26 3 24 4 25 5 5 7 4 8 3 9 2 10 1 11 6 12 7 14
REMARK SMILES IDX 8 15 9 16 10 17 11 18 15 19 12 20 14 21 13 22 23 23 16 24
REMARK SMILES IDX 21 25 22 26 17 27 18 28 19 29 20 30 29 31 30 32 31 33 32 34
REMARK SMILES IDX 33 36 34 37 35 38 96 39 36 40 95 41 37 42 38 43 39 44 89 45
REMARK SMILES IDX 40 46 94 47 88 48 90 49 41 50 93 51 87 52 86 53 42 55 74 56
REMARK SMILES IDX 54 57 73 58 55 59 58 60 72 61 91 62 56 63 57 64 71 66 92 67
REMARK SMILES IDX 59 68 43 69 44 70 52 71 45 72 51 73 53 74 50 75 46 76 47 77
REMARK SMILES IDX 48 78 49 79 75 80 76 81 84 82 77 83 83 84 85 85 82 86 78 87
REMARK SMILES IDX 79 88 80 89 81 90 60 91 61 92 69 93 62 94 68 95 70 96 67 97
REMARK SMILES IDX 63 98 64 99 65 100 66 101
REMARK H PARENT 26 6 6 13 31 35 90 54 58 65
REMARK Flexibility Score: inf
ROOT
ATOM      1  C   UNL     1       0.992   5.029  -3.803  1.00  0.00     0.023 C 
ENDROOT
BRANCH   1   2
ATOM      2  C   UNL     1      -0.366   4.883  -3.125  1.00  0.00     0.116 C 
BRANCH   2   3
ATOM      3  N   UNL     1      -0.979   3.622  -3.501  1.00  0.00    -0.355 N 
ATOM      4  C   UNL     1      -1.155   2.490  -2.757  1.00  0.00     0.238 C 
ATOM      5  O   UNL     1      -1.511   1.456  -3.325  1.00  0.00    -0.273 OA
ATOM      6  H   UNL     1      -1.315   3.576  -4.425  1.00  0.00     0.163 HD
BRANCH   4   7
ATOM      7  C   UNL     1      -0.917   2.512  -1.246  1.00  0.00     0.159 C 
BRANCH   7   8
ATOM      8  C   UNL     1       0.601   2.534  -1.000  1.00  0.00     0.030 C 
BRANCH   8   9
ATOM      9  C   UNL     1       1.047   2.325   0.447  1.00  0.00     0.002 C 
BRANCH   9  10
ATOM     10  C   UNL     1       0.606   1.011   1.087  1.00  0.00    -0.003 C 
ATOM     11  C   UNL     1       1.062  -0.220   0.318  1.00  0.00     0.004 C 
ENDBRANCH   9  10
ENDBRANCH   8   9
ENDBRANCH   7   8
BRANCH   7  12
ATOM     12  N   UNL     1      -1.608   3.660  -0.616  1.00  0.00    -0.199 NA
ATOM     13  H   UNL     1      -1.374   4.484  -1.169  1.00  0.00     0.142 HD
BRANCH  12  14
ATOM     14  S   UNL     1      -3.284   3.647  -0.449  1.00  0.00     0.241 S 
ATOM     15  O   UNL     1      -3.656   2.358   0.085  1.00  0.00    -0.207 OA
ATOM     16  O   UNL     1      -3.604   4.867   0.263  1.00  0.00    -0.207 OA
BRANCH  14  17
ATOM     17  C   UNL     1      -3.930   3.804  -2.099  1.00  0.00     0.083 A 
ATOM     18  C   UNL     1      -4.058   5.073  -2.697  1.00  0.00     0.027 A 
ATOM     19  C   UNL     1      -4.299   2.618  -2.782  1.00  0.00     0.032 A 
ATOM     20  C   UNL     1      -4.504   5.122  -4.008  1.00  0.00    -0.020 A 
ATOM     21  C   UNL     1      -4.711   2.672  -4.111  1.00  0.00     0.003 A 
ATOM     22  C   UNL     1      -4.802   3.936  -4.666  1.00  0.00     0.055 A 
ATOM     23  C   UNL     1      -4.716   6.284  -4.936  1.00  0.00     0.060 C 
ATOM     24  C   UNL     1      -5.008   1.530  -4.994  1.00  0.00    -0.036 A 
ATOM     25  N   UNL     1      -5.200   4.167  -5.971  1.00  0.00    -0.308 N 
ATOM     26  C   UNL     1      -5.205   5.600  -6.239  1.00  0.00     0.131 C 
ATOM     27  C   UNL     1      -4.827   0.136  -4.474  1.00  0.00     0.045 C 
ATOM     28  C   UNL     1      -5.396   1.776  -6.264  1.00  0.00     0.075 A 
ATOM     29  C   UNL     1      -5.544   3.157  -6.827  1.00  0.00     0.251 A 
ATOM     30  O   UNL     1      -5.945   3.320  -7.972  1.00  0.00    -0.269 OA
ENDBRANCH  14  17
ENDBRANCH  12  14
ENDBRANCH   7  12
ENDBRANCH   4   7
ENDBRANCH   2   3
ENDBRANCH   1   2
BRANCH   1  31
ATOM     31  C   UNL     1       0.885   5.278  -5.305  1.00  0.00     0.023 C 
BRANCH  31  32
ATOM     32  C   UNL     1       0.088   6.523  -5.667  1.00  0.00     0.116 C 
BRANCH  32  33
ATOM     33  N   UNL     1       0.675   7.733  -5.109  1.00  0.00    -0.352 N 
ATOM     34  C   UNL     1       0.984   8.894  -5.774  1.00  0.00     0.251 C 
ATOM     35  H   UNL     1       0.874   7.718  -4.144  1.00  0.00     0.163 HD
ATOM     36  O   UNL     1       1.632   9.782  -5.235  1.00  0.00    -0.269 OA
BRANCH  34  37
ATOM     37  C   UNL     1       0.523   9.024  -7.167  1.00  0.00     0.039 A 
ATOM     38  C   UNL     1       1.460   9.229  -8.179  1.00  0.00     0.014 A 
ATOM     39  C   UNL     1      -0.831   8.828  -7.459  1.00  0.00     0.014 A 
ATOM     40  C   UNL     1       1.039   9.198  -9.507  1.00  0.00     0.010 A 
ATOM     41  C   UNL     1      -1.233   8.728  -8.783  1.00  0.00     0.010 A 
ATOM     42  C   UNL     1      -0.304   8.929  -9.816  1.00  0.00    -0.014 A 
BRANCH  42  43
ATOM     43  C   UNL     1      -0.775   8.911 -11.219  1.00  0.00     0.031 A 
ATOM     44  C   UNL     1      -1.699   9.994 -11.694  1.00  0.00     0.074 A 
ATOM     45  C   UNL     1      -0.413   7.909 -12.042  1.00  0.00     0.049 A 
ATOM     46  N   UNL     1      -2.243  10.150 -12.870  1.00  0.00    -0.248 NA
ATOM     47  C   UNL     1      -2.077  11.026 -10.713  1.00  0.00     0.031 C 
ATOM     48  C   UNL     1       0.448   6.786 -11.673  1.00  0.00     0.029 A 
ATOM     49  N   UNL     1      -0.732   7.670 -13.355  1.00  0.00    -0.354 N 
ATOM     50  C   UNL     1      -3.024  11.294 -12.772  1.00  0.00     0.074 A 
ATOM     51  C   UNL     1      -2.937  11.756 -11.406  1.00  0.00     0.031 C 
ATOM     52  C   UNL     1       0.602   5.985 -12.740  1.00  0.00     0.029 A 
ATOM     53  C   UNL     1      -0.174   6.519 -13.859  1.00  0.00     0.049 A 
ATOM     54  H   UNL     1      -1.306   8.268 -13.887  1.00  0.00     0.167 HD
ATOM     55  C   UNL     1      -3.723  11.919 -13.744  1.00  0.00     0.034 A 
ATOM     56  C   UNL     1      -0.277   5.958 -15.082  1.00  0.00     0.034 A 
ATOM     57  C   UNL     1      -3.785  11.460 -15.105  1.00  0.00     0.049 A 
ATOM     58  C   UNL     1      -1.077   6.664 -16.146  1.00  0.00     0.074 A 
ATOM     59  C   UNL     1      -4.424  12.058 -16.176  1.00  0.00     0.029 A 
ATOM     60  N   UNL     1      -3.195  10.300 -15.583  1.00  0.00    -0.354 N 
ATOM     61  N   UNL     1      -1.732   7.799 -16.066  1.00  0.00    -0.248 NA
ATOM     62  C   UNL     1      -1.145   6.029 -17.470  1.00  0.00     0.031 C 
ATOM     63  C   UNL     1      -4.271  11.230 -17.288  1.00  0.00     0.029 A 
ATOM     64  C   UNL     1      -3.477  10.152 -16.930  1.00  0.00     0.049 A 
ATOM     65  H   UNL     1      -2.656   9.676 -15.046  1.00  0.00     0.167 HD
ATOM     66  C   UNL     1      -2.262   8.028 -17.333  1.00  0.00     0.074 A 
ATOM     67  C   UNL     1      -1.840   6.921 -18.165  1.00  0.00     0.031 C 
ATOM     68  C   UNL     1      -3.028   9.062 -17.762  1.00  0.00     0.034 A 
BRANCH  55  69
ATOM     69  C   UNL     1      -4.456  13.187 -13.400  1.00  0.00     0.023 A 
ATOM     70  C   UNL     1      -5.857  13.237 -13.505  1.00  0.00     0.031 A 
ATOM     71  C   UNL     1      -3.762  14.372 -13.101  1.00  0.00     0.131 A 
ATOM     72  C   UNL     1      -6.517  14.461 -13.357  1.00  0.00     0.055 A 
ATOM     73  C   UNL     1      -4.429  15.582 -12.912  1.00  0.00     0.041 A 
ATOM     74  F   UNL     1      -2.424  14.368 -12.982  1.00  0.00    -0.206 F 
ATOM     75  C   UNL     1      -5.813  15.632 -13.055  1.00  0.00     0.022 A 
BRANCH  72  76
ATOM     76  S   UNL     1      -8.309  14.589 -13.598  1.00  0.00     0.124 S 
ATOM     77  O   UNL     1      -8.737  15.224 -12.353  1.00  0.00    -0.237 OA
ATOM     78  O   UNL     1      -8.394  15.429 -14.789  1.00  0.00    -0.237 OA
ATOM     79  O   UNL     1      -8.740  13.206 -13.765  1.00  0.00    -0.744 OA
ENDBRANCH  72  76
ENDBRANCH  55  69
BRANCH  56  80
ATOM     80  C   UNL     1       0.462   4.694 -15.363  1.00  0.00     0.023 A 
ATOM     81  C   UNL     1       0.144   3.504 -14.686  1.00  0.00     0.031 A 
ATOM     82  C   UNL     1       1.561   4.687 -16.238  1.00  0.00     0.131 A 
ATOM     83  C   UNL     1       0.956   2.373 -14.849  1.00  0.00     0.055 A 
ATOM     84  C   UNL     1       2.329   3.540 -16.446  1.00  0.00     0.041 A 
ATOM     85  F   UNL     1       1.907   5.803 -16.898  1.00  0.00    -0.206 F 
ATOM     86  C   UNL     1       2.035   2.379 -15.737  1.00  0.00     0.022 A 
BRANCH  83  87
ATOM     87  S   UNL     1       0.696   0.889 -13.839  1.00  0.00     0.124 S 
ATOM     88  O   UNL     1       0.607  -0.160 -14.850  1.00  0.00    -0.237 OA
ATOM     89  O   UNL     1       1.907   0.876 -13.021  1.00  0.00    -0.237 OA
ATOM     90  O   UNL     1      -0.539   1.175 -13.118  1.00  0.00    -0.744 OA
ENDBRANCH  83  87
ENDBRANCH  56  80
BRANCH  68  91
ATOM     91  C   UNL     1      -3.466   9.097 -19.205  1.00  0.00     0.023 A 
ATOM     92  C   UNL     1      -3.043  10.154 -20.035  1.00  0.00     0.031 A 
ATOM     93  C   UNL     1      -4.436   8.209 -19.697  1.00  0.00     0.131 A 
ATOM     94  C   UNL     1      -3.629  10.328 -21.294  1.00  0.00     0.055 A 
ATOM     95  C   UNL     1      -4.983   8.359 -20.972  1.00  0.00     0.041 A 
ATOM     96  F   UNL     1      -4.878   7.194 -18.938  1.00  0.00    -0.206 F 
ATOM     97  C   UNL     1      -4.592   9.432 -21.770  1.00  0.00     0.022 A 
BRANCH  94  98
ATOM     98  S   UNL     1      -3.225  11.767 -22.322  1.00  0.00     0.124 S 
ATOM     99  O   UNL     1      -2.805  11.138 -23.573  1.00  0.00    -0.237 OA
ATOM    100  O   UNL     1      -4.502  12.472 -22.376  1.00  0.00    -0.237 OA
ATOM    101  O   UNL     1      -2.163  12.441 -21.582  1.00  0.00    -0.744 OA
ENDBRANCH  94  98
ENDBRANCH  68  91
ENDBRANCH  42  43
ENDBRANCH  34  37
ENDBRANCH  32  33
ENDBRANCH  31  32
ENDBRANCH   1  31
TORSDOF 20
