REMARK SMILES CC(=O)C1=C(c2ccccc2)NC(=S)N[C@@H]1c1cc(Cl)ccc1OCC(=O)NCCCCNC(=O)c1ccc(-c2c3nc(c(-c4cc(S(=O)(=O)[O-])ccc4F)c4ccc([nH]4)c(-c4cc(S(=O)(=O)[O-])ccc4F)c4nc(c(-c5cc(S(=O)(=O)[O-])ccc5F)c5ccc2[nH]5)C=C4)C=C3)cc1
REMARK SMILES IDX 30 1 29 2 28 3 26 4 27 5 25 7 24 8 23 9 17 10 18 11 19 12
REMARK SMILES IDX 22 13 20 14 21 15 16 16 4 17 5 18 12 19 15 20 13 21 14 24
REMARK SMILES IDX 2 25 1 26 3 27 6 28 7 29 11 30 8 31 10 32 9 33 31 34 32 35
REMARK SMILES IDX 33 36 34 37 35 39 36 40 37 41 98 42 38 43 97 44 39 45 40 46
REMARK SMILES IDX 41 47 91 48 42 49 96 50 90 51 92 52 43 53 95 54 89 55 88 56
REMARK SMILES IDX 44 58 76 59 56 60 75 61 57 62 60 63 74 64 93 65 58 66 59 67
REMARK SMILES IDX 73 69 94 70 61 71 45 72 46 73 54 74 47 75 53 76 55 77 52 78
REMARK SMILES IDX 48 79 49 80 50 81 51 82 77 83 78 84 86 85 79 86 85 87 87 88
REMARK SMILES IDX 84 89 80 90 81 91 82 92 83 93 62 94 63 95 71 96 64 97 70 98
REMARK SMILES IDX 72 99 69 100 65 101 66 102 67 103 68 104
REMARK H PARENT 28 6 12 22 15 23 33 38 92 57 60 68
REMARK Flexibility Score: inf
ROOT
ATOM      1  C   UNL     1       5.841  -5.916  -1.520  1.00  0.00     0.023 C 
ENDROOT
BRANCH   1   2
ATOM      2  C   UNL     1       5.922  -5.147  -2.838  1.00  0.00     0.116 C 
BRANCH   2   3
ATOM      3  N   UNL     1       4.641  -4.741  -3.386  1.00  0.00    -0.353 N 
ATOM      4  C   UNL     1       4.144  -3.472  -3.516  1.00  0.00     0.257 C 
ATOM      5  O   UNL     1       3.227  -3.260  -4.312  1.00  0.00    -0.271 OA
ATOM      6  H   UNL     1       4.058  -5.468  -3.704  1.00  0.00     0.163 HD
BRANCH   4   7
ATOM      7  C   UNL     1       4.707  -2.329  -2.670  1.00  0.00     0.329 C 
BRANCH   7   8
ATOM      8  O   UNL     1       5.152  -2.628  -1.370  1.00  0.00    -0.483 OA
BRANCH   8   9
ATOM      9  C   UNL     1       4.395  -2.645  -0.237  1.00  0.00     0.125 A 
ATOM     10  C   UNL     1       3.010  -2.814  -0.028  1.00  0.00     0.023 A 
ATOM     11  C   UNL     1       2.578  -2.989   1.317  1.00  0.00     0.030 A 
ATOM     12  C   UNL     1       3.451  -2.912   2.401  1.00  0.00     0.041 A 
ATOM     13  C   UNL     1       5.260  -2.586   0.879  1.00  0.00     0.048 A 
ATOM     14  Cl  UNL     1       2.855  -3.093   4.003  1.00  0.00    -0.084 Cl
ATOM     15  C   UNL     1       4.799  -2.703   2.187  1.00  0.00     0.024 A 
BRANCH  10  16
ATOM     16  C   UNL     1       1.961  -2.963  -1.129  1.00  0.00     0.152 C 
ATOM     17  C   UNL     1       0.512  -2.632  -0.805  1.00  0.00     0.046 C 
ATOM     18  C   UNL     1      -0.494  -3.397  -1.277  1.00  0.00     0.057 C 
ATOM     19  N   UNL     1      -0.194  -4.474  -2.080  1.00  0.00    -0.332 N 
ATOM     20  N   UNL     1       2.057  -4.327  -1.628  1.00  0.00    -0.351 N 
ATOM     21  C   UNL     1       1.051  -4.977  -2.257  1.00  0.00     0.171 C 
ATOM     22  H   UNL     1      -0.936  -4.909  -2.559  1.00  0.00     0.169 HD
ATOM     23  H   UNL     1       2.908  -4.806  -1.500  1.00  0.00     0.163 HD
ATOM     24  S   UNL     1       1.311  -6.371  -3.120  1.00  0.00    -0.041 S 
BRANCH  17  25
ATOM     25  C   UNL     1       0.223  -1.435   0.041  1.00  0.00     0.160 C 
ATOM     26  C   UNL     1       0.828  -0.116  -0.365  1.00  0.00     0.093 C 
ATOM     27  O   UNL     1      -0.475  -1.524   1.050  1.00  0.00    -0.295 OA
ENDBRANCH  17  25
BRANCH  18  28
ATOM     28  C   UNL     1      -1.930  -3.274  -0.963  1.00  0.00    -0.002 A 
ATOM     29  C   UNL     1      -2.534  -4.344  -0.279  1.00  0.00     0.010 A 
ATOM     30  C   UNL     1      -2.720  -2.193  -1.364  1.00  0.00     0.010 A 
ATOM     31  C   UNL     1      -3.900  -4.341  -0.006  1.00  0.00     0.001 A 
ATOM     32  C   UNL     1      -4.090  -2.188  -1.081  1.00  0.00     0.001 A 
ATOM     33  C   UNL     1      -4.678  -3.261  -0.408  1.00  0.00     0.000 A 
ENDBRANCH  18  28
ENDBRANCH  10  16
ENDBRANCH   8   9
ENDBRANCH   7   8
ENDBRANCH   4   7
ENDBRANCH   2   3
ENDBRANCH   1   2
BRANCH   1  34
ATOM     34  C   UNL     1       5.124  -7.268  -1.548  1.00  0.00     0.023 C 
BRANCH  34  35
ATOM     35  C   UNL     1       5.508  -8.227  -2.671  1.00  0.00     0.116 C 
BRANCH  35  36
ATOM     36  N   UNL     1       6.931  -8.521  -2.713  1.00  0.00    -0.352 N 
ATOM     37  C   UNL     1       7.586  -9.726  -2.820  1.00  0.00     0.251 C 
ATOM     38  H   UNL     1       7.519  -7.733  -2.656  1.00  0.00     0.163 HD
ATOM     39  O   UNL     1       8.809  -9.747  -2.728  1.00  0.00    -0.269 OA
BRANCH  37  40
ATOM     40  C   UNL     1       6.832 -10.991  -2.999  1.00  0.00     0.039 A 
ATOM     41  C   UNL     1       7.236 -12.117  -2.275  1.00  0.00     0.014 A 
ATOM     42  C   UNL     1       5.746 -11.084  -3.873  1.00  0.00     0.014 A 
ATOM     43  C   UNL     1       6.508 -13.307  -2.369  1.00  0.00     0.010 A 
ATOM     44  C   UNL     1       4.977 -12.248  -3.908  1.00  0.00     0.010 A 
ATOM     45  C   UNL     1       5.344 -13.372  -3.152  1.00  0.00    -0.014 A 
BRANCH  45  46
ATOM     46  C   UNL     1       4.498 -14.598  -3.178  1.00  0.00     0.031 A 
ATOM     47  C   UNL     1       4.305 -15.363  -4.460  1.00  0.00     0.074 A 
ATOM     48  C   UNL     1       3.859 -14.992  -2.057  1.00  0.00     0.049 A 
ATOM     49  N   UNL     1       3.549 -16.405  -4.697  1.00  0.00    -0.248 NA
ATOM     50  C   UNL     1       5.040 -14.876  -5.636  1.00  0.00     0.031 C 
ATOM     51  C   UNL     1       3.940 -14.320  -0.758  1.00  0.00     0.029 A 
ATOM     52  N   UNL     1       3.008 -16.047  -1.828  1.00  0.00    -0.354 N 
ATOM     53  C   UNL     1       3.710 -16.695  -6.048  1.00  0.00     0.074 A 
ATOM     54  C   UNL     1       4.589 -15.679  -6.589  1.00  0.00     0.031 C 
ATOM     55  C   UNL     1       3.193 -14.990   0.133  1.00  0.00     0.029 A 
ATOM     56  C   UNL     1       2.534 -16.107  -0.537  1.00  0.00     0.049 A 
ATOM     57  H   UNL     1       2.760 -16.698  -2.523  1.00  0.00     0.167 HD
ATOM     58  C   UNL     1       3.191 -17.722  -6.766  1.00  0.00     0.034 A 
ATOM     59  C   UNL     1       1.655 -16.952   0.040  1.00  0.00     0.034 A 
ATOM     60  C   UNL     1       2.317 -18.730  -6.212  1.00  0.00     0.049 A 
ATOM     61  C   UNL     1       1.053 -18.058  -0.792  1.00  0.00     0.074 A 
ATOM     62  C   UNL     1       1.774 -19.838  -6.840  1.00  0.00     0.029 A 
ATOM     63  N   UNL     1       1.849 -18.750  -4.904  1.00  0.00    -0.354 N 
ATOM     64  N   UNL     1       1.255 -18.344  -2.058  1.00  0.00    -0.248 NA
ATOM     65  C   UNL     1       0.113 -18.960  -0.115  1.00  0.00     0.031 C 
ATOM     66  C   UNL     1       0.919 -20.480  -5.939  1.00  0.00     0.029 A 
ATOM     67  C   UNL     1       0.996 -19.828  -4.719  1.00  0.00     0.049 A 
ATOM     68  H   UNL     1       2.087 -18.094  -4.210  1.00  0.00     0.167 HD
ATOM     69  C   UNL     1       0.492 -19.481  -2.316  1.00  0.00     0.074 A 
ATOM     70  C   UNL     1      -0.157 -19.836  -1.071  1.00  0.00     0.031 C 
ATOM     71  C   UNL     1       0.346 -20.171  -3.476  1.00  0.00     0.034 A 
BRANCH  58  72
ATOM     72  C   UNL     1       3.533 -17.791  -8.236  1.00  0.00     0.023 A 
ATOM     73  C   UNL     1       4.856 -17.965  -8.680  1.00  0.00     0.031 A 
ATOM     74  C   UNL     1       2.525 -17.673  -9.209  1.00  0.00     0.131 A 
ATOM     75  C   UNL     1       5.144 -17.945 -10.053  1.00  0.00     0.055 A 
ATOM     76  C   UNL     1       2.807 -17.739 -10.575  1.00  0.00     0.041 A 
ATOM     77  F   UNL     1       1.245 -17.485  -8.849  1.00  0.00    -0.206 F 
ATOM     78  C   UNL     1       4.125 -17.862 -11.005  1.00  0.00     0.022 A 
BRANCH  75  79
ATOM     79  S   UNL     1       6.880 -17.889 -10.573  1.00  0.00     0.124 S 
ATOM     80  O   UNL     1       7.345 -16.669  -9.919  1.00  0.00    -0.237 OA
ATOM     81  O   UNL     1       7.410 -19.140 -10.043  1.00  0.00    -0.237 OA
ATOM     82  O   UNL     1       6.799 -17.813 -12.031  1.00  0.00    -0.744 OA
ENDBRANCH  75  79
ENDBRANCH  58  72
BRANCH  59  83
ATOM     83  C   UNL     1       1.266 -16.785   1.472  1.00  0.00     0.023 A 
ATOM     84  C   UNL     1       1.531 -17.788   2.417  1.00  0.00     0.031 A 
ATOM     85  C   UNL     1       0.566 -15.644   1.905  1.00  0.00     0.131 A 
ATOM     86  C   UNL     1       1.051 -17.660   3.730  1.00  0.00     0.055 A 
ATOM     87  C   UNL     1       0.146 -15.491   3.227  1.00  0.00     0.041 A 
ATOM     88  F   UNL     1       0.283 -14.652   1.044  1.00  0.00    -0.206 F 
ATOM     89  C   UNL     1       0.374 -16.511   4.146  1.00  0.00     0.022 A 
BRANCH  86  90
ATOM     90  S   UNL     1       1.228 -19.068   4.861  1.00  0.00     0.124 S 
ATOM     91  O   UNL     1       0.542 -20.125   4.126  1.00  0.00    -0.237 OA
ATOM     92  O   UNL     1       2.678 -19.193   4.963  1.00  0.00    -0.237 OA
ATOM     93  O   UNL     1       0.555 -18.614   6.076  1.00  0.00    -0.744 OA
ENDBRANCH  86  90
ENDBRANCH  59  83
BRANCH  71  94
ATOM     94  C   UNL     1      -0.513 -21.414  -3.435  1.00  0.00     0.023 A 
ATOM     95  C   UNL     1      -1.895 -21.357  -3.182  1.00  0.00     0.031 A 
ATOM     96  C   UNL     1       0.067 -22.679  -3.643  1.00  0.00     0.131 A 
ATOM     97  C   UNL     1      -2.638 -22.543  -3.083  1.00  0.00     0.055 A 
ATOM     98  C   UNL     1      -0.690 -23.851  -3.612  1.00  0.00     0.041 A 
ATOM     99  F   UNL     1       1.383 -22.797  -3.885  1.00  0.00    -0.206 F 
ATOM    100  C   UNL     1      -2.048 -23.788  -3.317  1.00  0.00     0.022 A 
BRANCH  97 101
ATOM    101  S   UNL     1      -4.368 -22.447  -2.546  1.00  0.00     0.124 S 
ATOM    102  O   UNL     1      -4.245 -21.793  -1.247  1.00  0.00    -0.237 OA
ATOM    103  O   UNL     1      -4.980 -21.652  -3.605  1.00  0.00    -0.237 OA
ATOM    104  O   UNL     1      -4.791 -23.845  -2.498  1.00  0.00    -0.744 OA
ENDBRANCH  97 101
ENDBRANCH  71  94
ENDBRANCH  45  46
ENDBRANCH  37  40
ENDBRANCH  35  36
ENDBRANCH  34  35
ENDBRANCH   1  34
TORSDOF 19
