REMARK SMILES CC[C@@H](C)[C@@H](NC(=O)Cn1ncc2ccccc2c1=O)C(=O)NCCCCNC(=O)c1ccc(-c2c3nc(c(-c4cc(S(=O)(=O)[O-])ccc4F)c4ccc([nH]4)c(-c4cc(S(=O)(=O)[O-])ccc4F)c4nc(c(-c5cc(S(=O)(=O)[O-])ccc5F)c5ccc2[nH]5)C=C4)C=C3)cc1
REMARK SMILES IDX 25 1 24 2 23 3 21 4 22 5 5 7 3 8 4 9 2 10 1 11 6 12 7 13
REMARK SMILES IDX 8 15 9 16 10 17 11 18 19 19 12 20 18 21 20 22 13 23 17 24
REMARK SMILES IDX 14 25 16 26 15 27 26 28 27 29 28 30 29 31 30 33 31 34 32 35
REMARK SMILES IDX 93 36 33 37 92 38 34 39 35 40 36 41 86 42 37 43 91 44 85 45
REMARK SMILES IDX 87 46 38 47 90 48 84 49 83 50 39 52 71 53 51 54 70 55 52 56
REMARK SMILES IDX 55 57 69 58 88 59 53 60 54 61 68 63 89 64 56 65 40 66 41 67
REMARK SMILES IDX 49 68 42 69 48 70 50 71 47 72 43 73 44 74 45 75 46 76 72 77
REMARK SMILES IDX 73 78 81 79 74 80 80 81 82 82 79 83 75 84 76 85 77 86 78 87
REMARK SMILES IDX 57 88 58 89 66 90 59 91 65 92 67 93 64 94 60 95 61 96 62 97
REMARK SMILES IDX 63 98
REMARK H PARENT 23 6 6 14 28 32 87 51 55 62
REMARK Flexibility Score: inf
ROOT
ATOM      1  C   UNL     1       5.468  -3.257   1.727  1.00  0.00     0.023 C 
ENDROOT
BRANCH   1   2
ATOM      2  C   UNL     1       4.227  -4.288   1.343  1.00  0.00     0.116 C 
BRANCH   2   3
ATOM      3  N   UNL     1       2.229  -4.334   1.882  1.00  0.00    -0.354 N 
ATOM      4  C   UNL     1       0.848  -4.165   1.875  1.00  0.00     0.242 C 
ATOM      5  O   UNL     1       0.254  -4.558   2.890  1.00  0.00    -0.273 OA
ATOM      6  H   UNL     1       2.319  -4.799   2.745  1.00  0.00     0.163 HD
BRANCH   4   7
ATOM      7  C   UNL     1      -0.016  -3.636   0.674  1.00  0.00     0.174 C 
BRANCH   7   8
ATOM      8  C   UNL     1      -0.041  -2.073   0.714  1.00  0.00     0.018 C 
ATOM      9  C   UNL     1      -0.825  -1.586   1.944  1.00  0.00     0.010 C 
BRANCH   8  10
ATOM     10  C   UNL     1      -0.479  -1.320  -0.556  1.00  0.00     0.002 C 
ATOM     11  C   UNL     1       0.158   0.073  -0.611  1.00  0.00     0.004 C 
ENDBRANCH   8  10
ENDBRANCH   7   8
BRANCH   7  12
ATOM     12  N   UNL     1       0.070  -4.225  -0.683  1.00  0.00    -0.342 N 
ATOM     13  C   UNL     1       0.828  -5.150  -1.330  1.00  0.00     0.242 C 
ATOM     14  H   UNL     1      -0.610  -3.840  -1.282  1.00  0.00     0.164 HD
ATOM     15  O   UNL     1       0.457  -5.443  -2.476  1.00  0.00    -0.273 OA
BRANCH  13  16
ATOM     16  C   UNL     1       1.938  -5.965  -0.684  1.00  0.00     0.248 C 
BRANCH  16  17
ATOM     17  N   UNL     1       2.713  -5.240   0.286  1.00  0.00    -0.220 N 
ATOM     18  N   UNL     1       3.134  -6.125   1.856  1.00  0.00    -0.177 NA
ATOM     19  C   UNL     1       2.713  -3.412   0.200  1.00  0.00     0.275 A 
ATOM     20  C   UNL     1       3.457  -5.323   3.129  1.00  0.00     0.142 A 
ATOM     21  C   UNL     1       3.048  -2.499   1.872  1.00  0.00     0.050 A 
ATOM     22  O   UNL     1       2.558  -2.832  -0.867  1.00  0.00    -0.267 OA
ATOM     23  C   UNL     1       3.392  -3.441   3.282  1.00  0.00     0.007 A 
ATOM     24  C   UNL     1       3.066  -1.127   1.968  1.00  0.00     0.014 A 
ATOM     25  C   UNL     1       3.652  -2.819   4.474  1.00  0.00     0.010 A 
ATOM     26  C   UNL     1       3.362  -0.614   3.248  1.00  0.00     0.001 A 
ATOM     27  C   UNL     1       3.639  -1.411   4.425  1.00  0.00     0.001 A 
ENDBRANCH  16  17
ENDBRANCH  13  16
ENDBRANCH   7  12
ENDBRANCH   4   7
ENDBRANCH   2   3
ENDBRANCH   1   2
BRANCH   1  28
ATOM     28  C   UNL     1       6.479  -3.836   2.707  1.00  0.00     0.023 C 
BRANCH  28  29
ATOM     29  C   UNL     1       7.196  -5.053   2.177  1.00  0.00     0.116 C 
BRANCH  29  30
ATOM     30  N   UNL     1       8.026  -4.750   1.018  1.00  0.00    -0.352 N 
ATOM     31  C   UNL     1       9.361  -5.061   0.878  1.00  0.00     0.251 C 
ATOM     32  H   UNL     1       7.594  -4.281   0.267  1.00  0.00     0.163 HD
ATOM     33  O   UNL     1      10.042  -4.608  -0.030  1.00  0.00    -0.269 OA
BRANCH  31  34
ATOM     34  C   UNL     1       9.914  -5.953   1.911  1.00  0.00     0.039 A 
ATOM     35  C   UNL     1       9.209  -7.130   2.172  1.00  0.00     0.014 A 
ATOM     36  C   UNL     1      10.902  -5.488   2.778  1.00  0.00     0.014 A 
ATOM     37  C   UNL     1       9.348  -7.720   3.413  1.00  0.00     0.010 A 
ATOM     38  C   UNL     1      11.164  -6.205   3.949  1.00  0.00     0.010 A 
ATOM     39  C   UNL     1      10.368  -7.309   4.293  1.00  0.00    -0.014 A 
BRANCH  39  40
ATOM     40  C   UNL     1      10.629  -8.140   5.498  1.00  0.00     0.031 A 
ATOM     41  C   UNL     1      10.613  -7.576   6.891  1.00  0.00     0.074 A 
ATOM     42  C   UNL     1      10.843  -9.457   5.298  1.00  0.00     0.049 A 
ATOM     43  N   UNL     1      10.835  -8.194   8.022  1.00  0.00    -0.248 NA
ATOM     44  C   UNL     1      10.332  -6.140   7.043  1.00  0.00     0.031 C 
ATOM     45  C   UNL     1      10.902 -10.097   3.980  1.00  0.00     0.029 A 
ATOM     46  N   UNL     1      11.004 -10.499   6.172  1.00  0.00    -0.354 N 
ATOM     47  C   UNL     1      10.760  -7.224   9.016  1.00  0.00     0.074 A 
ATOM     48  C   UNL     1      10.494  -5.968   8.349  1.00  0.00     0.031 C 
ATOM     49  C   UNL     1      10.962 -11.421   4.131  1.00  0.00     0.029 A 
ATOM     50  C   UNL     1      11.107 -11.722   5.548  1.00  0.00     0.049 A 
ATOM     51  H   UNL     1      11.043 -10.386   7.149  1.00  0.00     0.167 HD
ATOM     52  C   UNL     1      10.896  -7.381  10.356  1.00  0.00     0.034 A 
ATOM     53  C   UNL     1      11.333 -12.953   6.043  1.00  0.00     0.034 A 
ATOM     54  C   UNL     1      11.144  -8.657  10.988  1.00  0.00     0.049 A 
ATOM     55  C   UNL     1      11.478 -13.095   7.528  1.00  0.00     0.074 A 
ATOM     56  C   UNL     1      11.285  -8.931  12.337  1.00  0.00     0.029 A 
ATOM     57  N   UNL     1      11.277  -9.871  10.324  1.00  0.00    -0.354 N 
ATOM     58  N   UNL     1      11.393 -12.167   8.453  1.00  0.00    -0.248 NA
ATOM     59  C   UNL     1      11.756 -14.438   8.043  1.00  0.00     0.031 C 
ATOM     60  C   UNL     1      11.566 -10.290  12.483  1.00  0.00     0.029 A 
ATOM     61  C   UNL     1      11.522 -10.889  11.234  1.00  0.00     0.049 A 
ATOM     62  H   UNL     1      11.209  -9.991   9.349  1.00  0.00     0.167 HD
ATOM     63  C   UNL     1      11.616 -12.813   9.662  1.00  0.00     0.074 A 
ATOM     64  C   UNL     1      11.780 -14.220   9.351  1.00  0.00     0.031 C 
ATOM     65  C   UNL     1      11.699 -12.287  10.910  1.00  0.00     0.034 A 
BRANCH  52  66
ATOM     66  C   UNL     1      10.778  -6.165  11.249  1.00  0.00     0.023 A 
ATOM     67  C   UNL     1      11.863  -5.777  12.062  1.00  0.00     0.031 A 
ATOM     68  C   UNL     1       9.564  -5.471  11.396  1.00  0.00     0.131 A 
ATOM     69  C   UNL     1      11.700  -4.753  13.006  1.00  0.00     0.055 A 
ATOM     70  C   UNL     1       9.421  -4.420  12.306  1.00  0.00     0.041 A 
ATOM     71  F   UNL     1       8.496  -5.798  10.650  1.00  0.00    -0.206 F 
ATOM     72  C   UNL     1      10.488  -4.066  13.125  1.00  0.00     0.022 A 
BRANCH  69  73
ATOM     73  S   UNL     1      13.028  -4.318  14.164  1.00  0.00     0.124 S 
ATOM     74  O   UNL     1      13.240  -2.905  13.857  1.00  0.00    -0.237 OA
ATOM     75  O   UNL     1      12.405  -4.589  15.456  1.00  0.00    -0.237 OA
ATOM     76  O   UNL     1      14.123  -5.206  13.791  1.00  0.00    -0.744 OA
ENDBRANCH  69  73
ENDBRANCH  52  66
BRANCH  53  77
ATOM     77  C   UNL     1      11.413 -14.105   5.099  1.00  0.00     0.023 A 
ATOM     78  C   UNL     1      12.358 -14.112   4.054  1.00  0.00     0.031 A 
ATOM     79  C   UNL     1      10.447 -15.123   5.120  1.00  0.00     0.131 A 
ATOM     80  C   UNL     1      12.246 -15.046   3.017  1.00  0.00     0.055 A 
ATOM     81  C   UNL     1      10.399 -16.111   4.134  1.00  0.00     0.041 A 
ATOM     82  F   UNL     1       9.515 -15.151   6.085  1.00  0.00    -0.206 F 
ATOM     83  C   UNL     1      11.284 -16.059   3.061  1.00  0.00     0.022 A 
BRANCH  80  84
ATOM     84  S   UNL     1      13.214 -14.856   1.492  1.00  0.00     0.124 S 
ATOM     85  O   UNL     1      13.993 -16.089   1.472  1.00  0.00    -0.237 OA
ATOM     86  O   UNL     1      12.162 -14.756   0.482  1.00  0.00    -0.237 OA
ATOM     87  O   UNL     1      13.972 -13.630   1.716  1.00  0.00    -0.744 OA
ENDBRANCH  80  84
ENDBRANCH  53  77
BRANCH  65  88
ATOM     88  C   UNL     1      12.006 -13.231  12.047  1.00  0.00     0.023 A 
ATOM     89  C   UNL     1      11.084 -13.401  13.096  1.00  0.00     0.031 A 
ATOM     90  C   UNL     1      13.253 -13.874  12.147  1.00  0.00     0.131 A 
ATOM     91  C   UNL     1      11.434 -14.170  14.213  1.00  0.00     0.055 A 
ATOM     92  C   UNL     1      13.575 -14.685  13.235  1.00  0.00     0.041 A 
ATOM     93  F   UNL     1      14.172 -13.734  11.178  1.00  0.00    -0.206 F 
ATOM     94  C   UNL     1      12.668 -14.824  14.281  1.00  0.00     0.022 A 
BRANCH  91  95
ATOM     95  S   UNL     1      10.339 -14.275  15.655  1.00  0.00     0.124 S 
ATOM     96  O   UNL     1      10.021 -15.701  15.687  1.00  0.00    -0.237 OA
ATOM     97  O   UNL     1      11.206 -13.805  16.732  1.00  0.00    -0.237 OA
ATOM     98  O   UNL     1       9.226 -13.396  15.317  1.00  0.00    -0.744 OA
ENDBRANCH  91  95
ENDBRANCH  65  88
ENDBRANCH  39  40
ENDBRANCH  31  34
ENDBRANCH  29  30
ENDBRANCH  28  29
ENDBRANCH   1  28
TORSDOF 19
