REMARK SMILES Cc1ccc(-c2cc(C(=O)NCCCCNC(=O)c3ccc(-c4c5nc(c(-c6cc(S(=O)(=O)[O-])ccc6F)c6ccc([nH]6)c(-c6cc(S(=O)(=O)[O-])ccc6F)c6nc(c(-c7cc(S(=O)(=O)[O-])ccc7F)c7ccc4[nH]7)C=C6)C=C5)cc3)c3c(-c4cccc([N+](=O)[O-])c4)[nH]nc3n2)cc1
REMARK SMILES IDX 14 1 13 2 12 3 11 4 9 5 10 6 8 8 6 9 7 10 96 11 95 12 82 13
REMARK SMILES IDX 94 14 83 15 93 16 5 18 1 19 2 20 3 21 98 22 4 23 97 24 84 25
REMARK SMILES IDX 85 26 92 27 86 28 88 29 87 30 89 31 90 32 91 33 15 34 16 35
REMARK SMILES IDX 17 36 18 38 19 39 20 40 81 41 21 42 80 43 22 44 23 45 24 46
REMARK SMILES IDX 74 47 25 48 79 49 73 50 75 51 26 52 78 53 72 54 71 55 27 57
REMARK SMILES IDX 59 58 39 59 58 60 40 61 43 62 57 63 76 64 41 65 42 66 56 68
REMARK SMILES IDX 77 69 44 70 28 71 29 72 37 73 30 74 36 75 38 76 35 77 31 78
REMARK SMILES IDX 32 79 33 80 34 81 60 82 61 83 69 84 62 85 68 86 70 87 67 88
REMARK SMILES IDX 63 89 64 90 65 91 66 92 45 93 46 94 54 95 47 96 53 97 55 98
REMARK SMILES IDX 52 99 48 100 49 101 50 102 51 103
REMARK H PARENT 11 7 93 17 16 37 75 56 43 67
REMARK Flexibility Score: inf
ROOT
ATOM      1  C   UNL     1      -3.238   1.009  -5.733  1.00  0.00     0.023 C 
ENDROOT
BRANCH   1   2
ATOM      2  C   UNL     1      -2.786   1.107  -4.272  1.00  0.00     0.023 C 
BRANCH   2   3
ATOM      3  C   UNL     1      -3.425   2.257  -3.477  1.00  0.00     0.116 C 
BRANCH   3   4
ATOM      4  N   UNL     1      -4.862   2.075  -3.282  1.00  0.00    -0.352 N 
ATOM      5  C   UNL     1      -5.663   1.460  -2.352  1.00  0.00     0.252 C 
ATOM      6  O   UNL     1      -6.864   1.651  -2.526  1.00  0.00    -0.269 OA
ATOM      7  H   UNL     1      -5.388   2.500  -3.998  1.00  0.00     0.163 HD
BRANCH   5   8
ATOM      8  C   UNL     1      -5.185   0.644  -1.204  1.00  0.00     0.055 A 
ATOM      9  C   UNL     1      -3.334  -0.249   0.219  1.00  0.00     0.074 A 
ATOM     10  C   UNL     1      -3.832   0.407  -0.936  1.00  0.00     0.043 A 
ATOM     11  N   UNL     1      -4.089  -0.825   1.186  1.00  0.00    -0.226 NA
ATOM     12  C   UNL     1      -5.417  -0.671   0.962  1.00  0.00     0.182 A 
ATOM     13  C   UNL     1      -5.958   0.032  -0.187  1.00  0.00     0.059 A 
ATOM     14  N   UNL     1      -6.375  -1.138   1.764  1.00  0.00    -0.154 NA
ATOM     15  C   UNL     1      -7.334  -0.076  -0.024  1.00  0.00     0.076 A 
ATOM     16  N   UNL     1      -7.502  -0.740   1.167  1.00  0.00    -0.275 N 
ATOM     17  H   UNL     1      -8.391  -0.911   1.554  1.00  0.00     0.190 HD
BRANCH   9  18
ATOM     18  C   UNL     1      -1.874  -0.268   0.402  1.00  0.00     0.000 A 
ATOM     19  C   UNL     1       2.433  -0.219   0.085  1.00  0.00     0.044 C 
ATOM     20  C   UNL     1       0.948  -0.241   0.294  1.00  0.00    -0.051 A 
ATOM     21  C   UNL     1       0.251  -1.450   0.407  1.00  0.00     0.004 A 
ATOM     22  C   UNL     1       0.233   0.956   0.285  1.00  0.00     0.004 A 
ATOM     23  C   UNL     1      -1.149  -1.465   0.468  1.00  0.00     0.010 A 
ATOM     24  C   UNL     1      -1.157   0.942   0.352  1.00  0.00     0.010 A 
ENDBRANCH   9  18
BRANCH  15  25
ATOM     25  C   UNL     1      -8.502   0.304  -0.804  1.00  0.00     0.007 A 
ATOM     26  C   UNL     1      -9.334   1.347  -0.373  1.00  0.00     0.011 A 
ATOM     27  C   UNL     1      -8.776  -0.346  -2.014  1.00  0.00     0.096 A 
ATOM     28  C   UNL     1     -10.402   1.776  -1.165  1.00  0.00     0.008 A 
ATOM     29  C   UNL     1      -9.826   0.113  -2.819  1.00  0.00     0.270 A 
ATOM     30  C   UNL     1     -10.645   1.169  -2.398  1.00  0.00     0.085 A 
BRANCH  29  31
ATOM     31  N   UNL     1     -10.048  -0.500  -4.133  1.00  0.00     0.062 N 
ATOM     32  O   UNL     1     -10.936  -0.020  -4.854  1.00  0.00    -0.258 OA
ATOM     33  O   UNL     1      -9.363  -1.489  -4.436  1.00  0.00    -0.258 OA
ENDBRANCH  29  31
ENDBRANCH  15  25
ENDBRANCH   5   8
ENDBRANCH   3   4
ENDBRANCH   2   3
ENDBRANCH   1   2
BRANCH   1  34
ATOM     34  C   UNL     1      -2.845   2.207  -6.590  1.00  0.00     0.116 C 
BRANCH  34  35
ATOM     35  N   UNL     1      -1.569   2.105  -7.282  1.00  0.00    -0.352 N 
ATOM     36  C   UNL     1      -0.910   3.084  -8.019  1.00  0.00     0.251 C 
ATOM     37  H   UNL     1      -1.115   1.234  -7.221  1.00  0.00     0.163 HD
ATOM     38  O   UNL     1       0.076   2.839  -8.679  1.00  0.00    -0.269 OA
BRANCH  36  39
ATOM     39  C   UNL     1      -1.375   4.490  -7.874  1.00  0.00     0.039 A 
ATOM     40  C   UNL     1      -0.442   5.416  -7.394  1.00  0.00     0.014 A 
ATOM     41  C   UNL     1      -2.729   4.813  -7.931  1.00  0.00     0.014 A 
ATOM     42  C   UNL     1      -0.892   6.557  -6.735  1.00  0.00     0.010 A 
ATOM     43  C   UNL     1      -3.179   5.897  -7.200  1.00  0.00     0.010 A 
ATOM     44  C   UNL     1      -2.262   6.722  -6.536  1.00  0.00    -0.014 A 
BRANCH  44  45
ATOM     45  C   UNL     1      -2.812   7.629  -5.532  1.00  0.00     0.031 A 
ATOM     46  C   UNL     1      -3.495   8.874  -5.934  1.00  0.00     0.074 A 
ATOM     47  C   UNL     1      -2.703   7.325  -4.219  1.00  0.00     0.049 A 
ATOM     48  N   UNL     1      -3.695   9.880  -5.151  1.00  0.00    -0.248 NA
ATOM     49  C   UNL     1      -3.919   9.126  -7.306  1.00  0.00     0.031 C 
ATOM     50  C   UNL     1      -3.392   7.959  -3.098  1.00  0.00     0.029 A 
ATOM     51  N   UNL     1      -1.705   6.558  -3.623  1.00  0.00    -0.354 N 
ATOM     52  C   UNL     1      -4.508  10.772  -5.806  1.00  0.00     0.074 A 
ATOM     53  C   UNL     1      -4.497  10.323  -7.175  1.00  0.00     0.031 C 
ATOM     54  C   UNL     1      -2.663   7.784  -1.985  1.00  0.00     0.029 A 
ATOM     55  C   UNL     1      -1.419   7.151  -2.380  1.00  0.00     0.049 A 
ATOM     56  H   UNL     1      -1.280   5.754  -3.999  1.00  0.00     0.167 HD
ATOM     57  C   UNL     1      -5.195  11.694  -5.073  1.00  0.00     0.034 A 
ATOM     58  C   UNL     1      -0.171   7.614  -2.085  1.00  0.00     0.034 A 
ATOM     59  C   UNL     1      -4.654  11.788  -3.709  1.00  0.00     0.049 A 
ATOM     60  C   UNL     1      -0.133   9.085  -1.748  1.00  0.00     0.074 A 
ATOM     61  C   UNL     1      -5.104  11.375  -2.466  1.00  0.00     0.029 A 
ATOM     62  N   UNL     1      -3.325  12.173  -3.532  1.00  0.00    -0.354 N 
ATOM     63  N   UNL     1      -1.090   9.928  -2.027  1.00  0.00    -0.248 NA
ATOM     64  C   UNL     1       0.993   9.720  -1.077  1.00  0.00     0.031 C 
ATOM     65  C   UNL     1      -4.011  11.447  -1.557  1.00  0.00     0.029 A 
ATOM     66  C   UNL     1      -2.909  11.944  -2.234  1.00  0.00     0.049 A 
ATOM     67  H   UNL     1      -2.758  12.558  -4.238  1.00  0.00     0.167 HD
ATOM     68  C   UNL     1      -0.734  11.187  -1.608  1.00  0.00     0.074 A 
ATOM     69  C   UNL     1       0.570  10.993  -0.995  1.00  0.00     0.031 C 
ATOM     70  C   UNL     1      -1.545  12.271  -1.817  1.00  0.00     0.034 A 
BRANCH  57  71
ATOM     71  C   UNL     1      -6.510  12.349  -5.492  1.00  0.00     0.023 A 
ATOM     72  C   UNL     1      -7.278  13.027  -4.515  1.00  0.00     0.031 A 
ATOM     73  C   UNL     1      -7.132  12.255  -6.758  1.00  0.00     0.131 A 
ATOM     74  C   UNL     1      -8.578  13.508  -4.791  1.00  0.00     0.055 A 
ATOM     75  C   UNL     1      -8.414  12.750  -7.037  1.00  0.00     0.041 A 
ATOM     76  F   UNL     1      -6.563  11.665  -7.809  1.00  0.00    -0.206 F 
ATOM     77  C   UNL     1      -9.150  13.370  -6.049  1.00  0.00     0.022 A 
BRANCH  74  78
ATOM     78  S   UNL     1      -9.553  14.274  -3.465  1.00  0.00     0.124 S 
ATOM     79  O   UNL     1      -9.662  13.188  -2.497  1.00  0.00    -0.237 OA
ATOM     80  O   UNL     1      -8.719  15.406  -3.080  1.00  0.00    -0.237 OA
ATOM     81  O   UNL     1     -10.806  14.632  -4.130  1.00  0.00    -0.744 OA
ENDBRANCH  74  78
ENDBRANCH  57  71
BRANCH  58  82
ATOM     82  C   UNL     1       0.917   6.832  -2.736  1.00  0.00     0.023 A 
ATOM     83  C   UNL     1       0.936   5.447  -2.469  1.00  0.00     0.031 A 
ATOM     84  C   UNL     1       1.609   7.293  -3.862  1.00  0.00     0.131 A 
ATOM     85  C   UNL     1       1.445   4.553  -3.418  1.00  0.00     0.055 A 
ATOM     86  C   UNL     1       2.203   6.397  -4.763  1.00  0.00     0.041 A 
ATOM     87  F   UNL     1       1.607   8.595  -4.181  1.00  0.00    -0.206 F 
ATOM     88  C   UNL     1       2.076   5.019  -4.572  1.00  0.00     0.022 A 
BRANCH  85  89
ATOM     89  S   UNL     1       0.984   2.800  -3.272  1.00  0.00     0.124 S 
ATOM     90  O   UNL     1       2.088   2.262  -2.488  1.00  0.00    -0.237 OA
ATOM     91  O   UNL     1      -0.310   2.866  -2.591  1.00  0.00    -0.237 OA
ATOM     92  O   UNL     1       0.904   2.351  -4.658  1.00  0.00    -0.744 OA
ENDBRANCH  85  89
ENDBRANCH  58  82
BRANCH  70  93
ATOM     93  C   UNL     1      -1.178  13.730  -1.578  1.00  0.00     0.023 A 
ATOM     94  C   UNL     1       0.121  14.179  -1.294  1.00  0.00     0.031 A 
ATOM     95  C   UNL     1      -2.153  14.755  -1.692  1.00  0.00     0.131 A 
ATOM     96  C   UNL     1       0.398  15.540  -1.055  1.00  0.00     0.055 A 
ATOM     97  C   UNL     1      -1.863  16.115  -1.526  1.00  0.00     0.041 A 
ATOM     98  F   UNL     1      -3.433  14.486  -1.986  1.00  0.00    -0.206 F 
ATOM     99  C   UNL     1      -0.583  16.516  -1.187  1.00  0.00     0.022 A 
BRANCH  96 100
ATOM    100  S   UNL     1       2.069  15.994  -0.514  1.00  0.00     0.124 S 
ATOM    101  O   UNL     1       2.168  15.302   0.768  1.00  0.00    -0.237 OA
ATOM    102  O   UNL     1       2.902  15.459  -1.586  1.00  0.00    -0.237 OA
ATOM    103  O   UNL     1       2.022  17.452  -0.431  1.00  0.00    -0.744 OA
ENDBRANCH  96 100
ENDBRANCH  70  93
ENDBRANCH  44  45
ENDBRANCH  36  39
ENDBRANCH  34  35
ENDBRANCH   1  34
TORSDOF 17
