REMARK SMILES Cc1cccc(S(=O)(=O)Nc2cc(C(=O)NCCCCNC(=O)c3ccc(-c4c5nc(c(-c6cc(S(=O)(=O)[O-])ccc6F)c6ccc([nH]6)c(-c6cc(S(=O)(=O)[O-])ccc6F)c6nc(c(-c7cc(S(=O)(=O)[O-])ccc7F)c7ccc4[nH]7)C=C6)C=C5)cc3)ccc2N2CCC[C@H](C[NH+]3CCCC3)C2)c1
REMARK SMILES IDX 18 1 17 2 16 3 14 4 15 5 13 7 11 8 12 9 89 10 88 11 87 12
REMARK SMILES IDX 10 13 7 15 8 16 9 17 6 18 1 19 2 20 3 21 102 22 4 23 5 24
REMARK SMILES IDX 90 25 91 26 101 27 92 28 94 29 93 30 95 31 96 32 97 33
REMARK SMILES IDX 100 34 98 36 99 37 19 38 20 39 21 40 22 41 23 43 24 44 25 45
REMARK SMILES IDX 86 46 26 47 85 48 27 49 28 50 29 51 79 52 30 53 84 54 78 55
REMARK SMILES IDX 80 56 31 57 83 58 77 59 76 60 32 62 64 63 44 64 63 65 45 66
REMARK SMILES IDX 48 67 62 68 81 69 46 70 47 71 61 73 82 74 49 75 33 76 34 77
REMARK SMILES IDX 42 78 35 79 41 80 43 81 40 82 36 83 37 84 38 85 39 86 65 87
REMARK SMILES IDX 66 88 74 89 67 90 73 91 75 92 72 93 68 94 69 95 70 96 71 97
REMARK SMILES IDX 50 98 51 99 59 100 52 101 58 102 60 103 57 104 53 105 54 106
REMARK SMILES IDX 55 107 56 108
REMARK H PARENT 16 6 10 14 96 35 21 42 80 61 48 72
REMARK Flexibility Score: inf
ROOT
ATOM      1  C   UNL     1       0.319   1.785  -4.190  1.00  0.00     0.023 C 
ENDROOT
BRANCH   1   2
ATOM      2  C   UNL     1       0.871   0.994  -2.997  1.00  0.00     0.116 C 
BRANCH   2   3
ATOM      3  N   UNL     1       2.311   1.193  -2.867  1.00  0.00    -0.352 N 
ATOM      4  C   UNL     1       3.062   2.130  -2.209  1.00  0.00     0.251 C 
ATOM      5  O   UNL     1       4.289   2.066  -2.328  1.00  0.00    -0.269 OA
ATOM      6  H   UNL     1       2.847   0.521  -3.347  1.00  0.00     0.163 HD
BRANCH   4   7
ATOM      7  C   UNL     1       2.487   3.159  -1.296  1.00  0.00     0.042 A 
ATOM      8  C   UNL     1       0.632   4.276  -0.200  1.00  0.00     0.073 A 
ATOM      9  C   UNL     1       1.148   3.543  -1.270  1.00  0.00     0.042 A 
ATOM     10  C   UNL     1       1.490   4.851   0.754  1.00  0.00     0.061 A 
ATOM     11  C   UNL     1       2.857   4.562   0.656  1.00  0.00     0.029 A 
ATOM     12  C   UNL     1       3.345   3.698  -0.327  1.00  0.00     0.016 A 
BRANCH   8  13
ATOM     13  N   UNL     1      -0.798   4.330  -0.086  1.00  0.00    -0.277 N 
ATOM     14  H   UNL     1      -1.292   5.108  -0.432  1.00  0.00     0.180 HD
BRANCH  13  15
ATOM     15  S   UNL     1      -1.650   3.026   0.663  1.00  0.00     0.261 S 
ATOM     16  O   UNL     1      -2.884   2.911  -0.061  1.00  0.00    -0.201 OA
ATOM     17  O   UNL     1      -1.739   3.318   2.088  1.00  0.00    -0.201 OA
BRANCH  15  18
ATOM     18  C   UNL     1      -0.727   1.508   0.543  1.00  0.00     0.088 A 
ATOM     19  C   UNL     1       2.802   0.061   0.898  1.00  0.00     0.044 C 
ATOM     20  C   UNL     1       1.324   0.186   0.689  1.00  0.00    -0.050 A 
ATOM     21  C   UNL     1       0.652  -0.900   0.142  1.00  0.00     0.003 A 
ATOM     22  C   UNL     1       0.608   1.369   0.959  1.00  0.00     0.025 A 
ATOM     23  C   UNL     1      -0.688  -0.775  -0.178  1.00  0.00     0.002 A 
ATOM     24  C   UNL     1      -1.387   0.407   0.022  1.00  0.00     0.022 A 
ENDBRANCH  15  18
ENDBRANCH  13  15
ENDBRANCH   8  13
BRANCH  10  25
ATOM     25  N   UNL     1       1.072   5.678   1.776  1.00  0.00    -0.369 N 
ATOM     26  C   UNL     1       1.317   7.105   1.662  1.00  0.00     0.116 C 
ATOM     27  C   UNL     1       0.149   5.202   2.793  1.00  0.00     0.126 C 
ATOM     28  C   UNL     1       1.746   7.636   3.026  1.00  0.00     0.022 C 
ATOM     29  C   UNL     1       0.545   5.705   4.183  1.00  0.00     0.064 C 
ATOM     30  C   UNL     1       0.746   7.228   4.108  1.00  0.00     0.013 C 
BRANCH  29  31
ATOM     31  C   UNL     1       1.743   4.853   4.678  1.00  0.00     0.267 C 
BRANCH  31  32
ATOM     32  N   UNL     1       2.162   4.910   6.080  1.00  0.00    -0.335 N 
ATOM     33  C   UNL     1       1.114   4.593   7.048  1.00  0.00     0.262 C 
ATOM     34  C   UNL     1       2.804   6.149   6.499  1.00  0.00     0.262 C 
ATOM     35  H   UNL     1       2.864   4.170   6.090  1.00  0.00     0.348 HD
ATOM     36  C   UNL     1       0.633   5.935   7.559  1.00  0.00     0.067 C 
ATOM     37  C   UNL     1       1.876   6.807   7.513  1.00  0.00     0.067 C 
ENDBRANCH  31  32
ENDBRANCH  29  31
ENDBRANCH  10  25
ENDBRANCH   4   7
ENDBRANCH   2   3
ENDBRANCH   1   2
BRANCH   1  38
ATOM     38  C   UNL     1       0.689   1.169  -5.532  1.00  0.00     0.023 C 
BRANCH  38  39
ATOM     39  C   UNL     1      -0.025  -0.145  -5.796  1.00  0.00     0.116 C 
BRANCH  39  40
ATOM     40  N   UNL     1      -1.282  -0.037  -6.518  1.00  0.00    -0.352 N 
ATOM     41  C   UNL     1      -2.016  -1.043  -7.126  1.00  0.00     0.251 C 
ATOM     42  H   UNL     1      -1.662   0.869  -6.582  1.00  0.00     0.163 HD
ATOM     43  O   UNL     1      -2.924  -0.791  -7.914  1.00  0.00    -0.269 OA
BRANCH  41  44
ATOM     44  C   UNL     1      -1.853  -2.443  -6.652  1.00  0.00     0.039 A 
ATOM     45  C   UNL     1      -3.040  -3.118  -6.322  1.00  0.00     0.014 A 
ATOM     46  C   UNL     1      -0.633  -2.910  -6.186  1.00  0.00     0.014 A 
ATOM     47  C   UNL     1      -3.033  -4.032  -5.281  1.00  0.00     0.010 A 
ATOM     48  C   UNL     1      -0.637  -3.679  -5.055  1.00  0.00     0.010 A 
ATOM     49  C   UNL     1      -1.847  -4.177  -4.577  1.00  0.00    -0.014 A 
BRANCH  49  50
ATOM     50  C   UNL     1      -1.718  -4.879  -3.325  1.00  0.00     0.031 A 
ATOM     51  C   UNL     1      -1.233  -6.259  -3.399  1.00  0.00     0.074 A 
ATOM     52  C   UNL     1      -1.839  -4.167  -2.186  1.00  0.00     0.049 A 
ATOM     53  N   UNL     1      -1.259  -7.094  -2.433  1.00  0.00    -0.248 NA
ATOM     54  C   UNL     1      -0.688  -6.828  -4.630  1.00  0.00     0.031 C 
ATOM     55  C   UNL     1      -1.480  -4.547  -0.826  1.00  0.00     0.029 A 
ATOM     56  N   UNL     1      -2.514  -2.967  -2.009  1.00  0.00    -0.354 N 
ATOM     57  C   UNL     1      -0.432  -8.141  -2.775  1.00  0.00     0.074 A 
ATOM     58  C   UNL     1      -0.225  -7.999  -4.190  1.00  0.00     0.031 C 
ATOM     59  C   UNL     1      -2.236  -3.834   0.032  1.00  0.00     0.029 A 
ATOM     60  C   UNL     1      -3.180  -3.075  -0.783  1.00  0.00     0.049 A 
ATOM     61  H   UNL     1      -2.523  -2.197  -2.622  1.00  0.00     0.167 HD
ATOM     62  C   UNL     1       0.099  -8.876  -1.758  1.00  0.00     0.034 A 
ATOM     63  C   UNL     1      -4.540  -3.146  -0.697  1.00  0.00     0.034 A 
ATOM     64  C   UNL     1      -0.539  -8.482  -0.490  1.00  0.00     0.049 A 
ATOM     65  C   UNL     1      -4.885  -4.508  -0.105  1.00  0.00     0.074 A 
ATOM     66  C   UNL     1      -0.136  -7.689   0.572  1.00  0.00     0.029 A 
ATOM     67  N   UNL     1      -1.927  -8.591  -0.384  1.00  0.00    -0.354 N 
ATOM     68  N   UNL     1      -4.159  -5.590  -0.277  1.00  0.00    -0.248 NA
ATOM     69  C   UNL     1      -5.950  -4.696   0.872  1.00  0.00     0.031 C 
ATOM     70  C   UNL     1      -1.314  -7.224   1.236  1.00  0.00     0.029 A 
ATOM     71  C   UNL     1      -2.427  -7.750   0.593  1.00  0.00     0.049 A 
ATOM     72  H   UNL     1      -2.480  -9.191  -0.935  1.00  0.00     0.167 HD
ATOM     73  C   UNL     1      -4.534  -6.538   0.643  1.00  0.00     0.074 A 
ATOM     74  C   UNL     1      -5.688  -5.941   1.306  1.00  0.00     0.031 C 
ATOM     75  C   UNL     1      -3.860  -7.712   0.875  1.00  0.00     0.034 A 
BRANCH  62  76
ATOM     76  C   UNL     1       1.354  -9.726  -1.847  1.00  0.00     0.023 A 
ATOM     77  C   UNL     1       1.999 -10.097  -0.647  1.00  0.00     0.031 A 
ATOM     78  C   UNL     1       2.011 -10.151  -3.023  1.00  0.00     0.131 A 
ATOM     79  C   UNL     1       3.227 -10.791  -0.647  1.00  0.00     0.055 A 
ATOM     80  C   UNL     1       3.239 -10.829  -3.025  1.00  0.00     0.041 A 
ATOM     81  F   UNL     1       1.504  -9.968  -4.243  1.00  0.00    -0.206 F 
ATOM     82  C   UNL     1       3.858 -11.150  -1.833  1.00  0.00     0.022 A 
BRANCH  79  83
ATOM     83  S   UNL     1       3.999 -11.217   0.936  1.00  0.00     0.124 S 
ATOM     84  O   UNL     1       4.276  -9.902   1.504  1.00  0.00    -0.237 OA
ATOM     85  O   UNL     1       2.955 -11.999   1.588  1.00  0.00    -0.237 OA
ATOM     86  O   UNL     1       5.182 -11.980   0.541  1.00  0.00    -0.744 OA
ENDBRANCH  79  83
ENDBRANCH  62  76
BRANCH  63  87
ATOM     87  C   UNL     1      -5.227  -2.388  -1.798  1.00  0.00     0.023 A 
ATOM     88  C   UNL     1      -4.896  -1.011  -1.931  1.00  0.00     0.031 A 
ATOM     89  C   UNL     1      -5.759  -3.026  -2.925  1.00  0.00     0.131 A 
ATOM     90  C   UNL     1      -4.868  -0.399  -3.200  1.00  0.00     0.055 A 
ATOM     91  C   UNL     1      -5.821  -2.375  -4.169  1.00  0.00     0.041 A 
ATOM     92  F   UNL     1      -6.082  -4.326  -2.886  1.00  0.00    -0.206 F 
ATOM     93  C   UNL     1      -5.318  -1.082  -4.324  1.00  0.00     0.022 A 
BRANCH  90  94
ATOM     94  S   UNL     1      -3.953   1.168  -3.409  1.00  0.00     0.124 S 
ATOM     95  O   UNL     1      -4.880   2.134  -2.837  1.00  0.00    -0.237 OA
ATOM     96  O   UNL     1      -2.726   0.904  -2.667  1.00  0.00    -0.237 OA
ATOM     97  O   UNL     1      -3.743   1.274  -4.853  1.00  0.00    -0.744 OA
ENDBRANCH  90  94
ENDBRANCH  63  87
BRANCH  75  98
ATOM     98  C   UNL     1      -4.498  -8.942   1.490  1.00  0.00     0.023 A 
ATOM     99  C   UNL     1      -5.876  -9.036   1.710  1.00  0.00     0.031 A 
ATOM    100  C   UNL     1      -3.761 -10.123   1.763  1.00  0.00     0.131 A 
ATOM    101  C   UNL     1      -6.450 -10.179   2.280  1.00  0.00     0.055 A 
ATOM    102  C   UNL     1      -4.354 -11.305   2.214  1.00  0.00     0.041 A 
ATOM    103  F   UNL     1      -2.435 -10.199   1.583  1.00  0.00    -0.206 F 
ATOM    104  C   UNL     1      -5.708 -11.332   2.502  1.00  0.00     0.022 A 
BRANCH 101 105
ATOM    105  S   UNL     1      -8.172 -10.061   2.814  1.00  0.00     0.124 S 
ATOM    106  O   UNL     1      -8.093  -9.021   3.837  1.00  0.00    -0.237 OA
ATOM    107  O   UNL     1      -8.859  -9.684   1.583  1.00  0.00    -0.237 OA
ATOM    108  O   UNL     1      -8.470 -11.402   3.311  1.00  0.00    -0.744 OA
ENDBRANCH 101 105
ENDBRANCH  75  98
ENDBRANCH  49  50
ENDBRANCH  41  44
ENDBRANCH  39  40
ENDBRANCH  38  39
ENDBRANCH   1  38
TORSDOF 20
