REMARK SMILES O=C(NCCCCNC(=O)c1c(-c2ccc(Cl)cc2)noc1CO[C@@H]1CCCCO1)c1ccc(-c2c3nc(c(-c4cc(S(=O)(=O)[O-])ccc4F)c4ccc([nH]4)c(-c4cc(S(=O)(=O)[O-])ccc4F)c4nc(c(-c5cc(S(=O)(=O)[O-])ccc5F)c5ccc2[nH]5)C=C4)C=C3)cc1
REMARK SMILES IDX 5 1 4 2 3 3 1 4 2 5 31 7 32 8 93 9 33 10 92 11 34 12 35 13
REMARK SMILES IDX 36 14 86 15 37 16 91 17 85 18 87 19 38 20 90 21 84 22 83 23
REMARK SMILES IDX 39 25 71 26 51 27 70 28 52 29 55 30 69 31 88 32 53 33 54 34
REMARK SMILES IDX 68 36 89 37 56 38 40 39 41 40 49 41 42 42 48 43 50 44 47 45
REMARK SMILES IDX 43 46 44 47 45 48 46 49 72 50 73 51 81 52 74 53 80 54 82 55
REMARK SMILES IDX 79 56 75 57 76 58 77 59 78 60 57 61 58 62 66 63 59 64 65 65
REMARK SMILES IDX 67 66 64 67 60 68 61 69 62 70 63 71 6 72 7 73 8 74 9 75
REMARK SMILES IDX 10 77 11 78 12 79 22 80 20 81 21 82 13 83 14 84 19 85 15 86
REMARK SMILES IDX 18 87 16 88 17 89 23 90 24 91 25 92 26 93 30 94 27 95 29 96
REMARK SMILES IDX 28 97
REMARK H PARENT 3 6 87 24 55 35 8 76
REMARK Flexibility Score: inf
ROOT
ATOM      1  C   UNL     1       4.946   1.367  -2.514  1.00  0.00     0.023 C 
ENDROOT
BRANCH   1   2
ATOM      2  C   UNL     1       4.656   0.877  -1.100  1.00  0.00     0.116 C 
BRANCH   2   3
ATOM      3  N   UNL     1       3.238   0.831  -0.784  1.00  0.00    -0.352 N 
ATOM      4  O   UNL     1       1.301  -0.070  -0.071  1.00  0.00    -0.269 OA
ATOM      5  C   UNL     1       2.521  -0.172  -0.174  1.00  0.00     0.251 C 
ATOM      6  H   UNL     1       2.720   1.627  -1.044  1.00  0.00     0.163 HD
BRANCH   5   7
ATOM      7  C   UNL     1       3.213  -1.381   0.323  1.00  0.00     0.039 A 
ATOM      8  C   UNL     1       4.373  -1.281   1.095  1.00  0.00     0.014 A 
ATOM      9  C   UNL     1       2.690  -2.638   0.002  1.00  0.00     0.014 A 
ATOM     10  C   UNL     1       5.079  -2.433   1.433  1.00  0.00     0.010 A 
ATOM     11  C   UNL     1       3.367  -3.796   0.397  1.00  0.00     0.010 A 
ATOM     12  C   UNL     1       4.585  -3.701   1.086  1.00  0.00    -0.014 A 
BRANCH  12  13
ATOM     13  C   UNL     1       5.348  -4.912   1.482  1.00  0.00     0.031 A 
ATOM     14  C   UNL     1       6.031  -5.768   0.451  1.00  0.00     0.074 A 
ATOM     15  C   UNL     1       5.456  -5.210   2.791  1.00  0.00     0.049 A 
ATOM     16  N   UNL     1       6.771  -6.834   0.623  1.00  0.00    -0.248 NA
ATOM     17  C   UNL     1       5.852  -5.383  -0.957  1.00  0.00     0.031 C 
ATOM     18  C   UNL     1       4.822  -4.461   3.879  1.00  0.00     0.029 A 
ATOM     19  N   UNL     1       6.148  -6.205   3.431  1.00  0.00    -0.354 N 
ATOM     20  C   UNL     1       7.135  -7.257  -0.650  1.00  0.00     0.074 A 
ATOM     21  C   UNL     1       6.512  -6.344  -1.587  1.00  0.00     0.031 C 
ATOM     22  C   UNL     1       5.190  -4.996   5.052  1.00  0.00     0.029 A 
ATOM     23  C   UNL     1       6.048  -6.149   4.800  1.00  0.00     0.049 A 
ATOM     24  H   UNL     1       6.668  -6.892   2.955  1.00  0.00     0.167 HD
ATOM     25  C   UNL     1       7.920  -8.306  -1.004  1.00  0.00     0.034 A 
ATOM     26  C   UNL     1       6.582  -6.941   5.749  1.00  0.00     0.034 A 
ATOM     27  C   UNL     1       8.542  -9.205  -0.062  1.00  0.00     0.049 A 
ATOM     28  C   UNL     1       7.455  -8.089   5.331  1.00  0.00     0.074 A 
ATOM     29  C   UNL     1       9.373 -10.284  -0.314  1.00  0.00     0.029 A 
ATOM     30  N   UNL     1       8.399  -9.132   1.318  1.00  0.00    -0.354 N 
ATOM     31  N   UNL     1       7.790  -8.471   4.121  1.00  0.00    -0.248 NA
ATOM     32  C   UNL     1       8.021  -8.912   6.407  1.00  0.00     0.031 C 
ATOM     33  C   UNL     1       9.696 -10.888   0.909  1.00  0.00     0.029 A 
ATOM     34  C   UNL     1       9.108 -10.156   1.927  1.00  0.00     0.049 A 
ATOM     35  H   UNL     1       7.870  -8.451   1.794  1.00  0.00     0.167 HD
ATOM     36  C   UNL     1       8.607  -9.583   4.291  1.00  0.00     0.074 A 
ATOM     37  C   UNL     1       8.736  -9.791   5.720  1.00  0.00     0.031 C 
ATOM     38  C   UNL     1       9.194 -10.366   3.352  1.00  0.00     0.034 A 
BRANCH  25  39
ATOM     39  C   UNL     1       8.111  -8.559  -2.478  1.00  0.00     0.023 A 
ATOM     40  C   UNL     1       8.849  -7.680  -3.289  1.00  0.00     0.031 A 
ATOM     41  C   UNL     1       7.531  -9.688  -3.083  1.00  0.00     0.131 A 
ATOM     42  C   UNL     1       8.941  -7.914  -4.670  1.00  0.00     0.055 A 
ATOM     43  C   UNL     1       7.678  -9.949  -4.447  1.00  0.00     0.041 A 
ATOM     44  F   UNL     1       6.800 -10.550  -2.359  1.00  0.00    -0.206 F 
ATOM     45  C   UNL     1       8.378  -9.053  -5.251  1.00  0.00     0.022 A 
BRANCH  42  46
ATOM     46  S   UNL     1       9.717  -6.651  -5.716  1.00  0.00     0.124 S 
ATOM     47  O   UNL     1       8.849  -5.500  -5.482  1.00  0.00    -0.237 OA
ATOM     48  O   UNL     1      11.061  -6.561  -5.158  1.00  0.00    -0.237 OA
ATOM     49  O   UNL     1       9.636  -7.221  -7.059  1.00  0.00    -0.744 OA
ENDBRANCH  42  46
ENDBRANCH  25  39
BRANCH  26  50
ATOM     50  C   UNL     1       6.284  -6.687   7.183  1.00  0.00     0.023 A 
ATOM     51  C   UNL     1       7.277  -6.223   8.058  1.00  0.00     0.031 A 
ATOM     52  C   UNL     1       4.996  -6.917   7.698  1.00  0.00     0.131 A 
ATOM     53  C   UNL     1       6.972  -6.025   9.413  1.00  0.00     0.055 A 
ATOM     54  C   UNL     1       4.689  -6.686   9.038  1.00  0.00     0.041 A 
ATOM     55  F   UNL     1       4.012  -7.351   6.894  1.00  0.00    -0.206 F 
ATOM     56  C   UNL     1       5.684  -6.246   9.907  1.00  0.00     0.022 A 
BRANCH  53  57
ATOM     57  S   UNL     1       8.303  -5.522  10.538  1.00  0.00     0.124 S 
ATOM     58  O   UNL     1       9.285  -6.581  10.335  1.00  0.00    -0.237 OA
ATOM     59  O   UNL     1       8.659  -4.208  10.013  1.00  0.00    -0.237 OA
ATOM     60  O   UNL     1       7.655  -5.513  11.848  1.00  0.00    -0.744 OA
ENDBRANCH  53  57
ENDBRANCH  26  50
BRANCH  38  61
ATOM     61  C   UNL     1      10.025 -11.511   3.864  1.00  0.00     0.023 A 
ATOM     62  C   UNL     1       9.426 -12.633   4.461  1.00  0.00     0.031 A 
ATOM     63  C   UNL     1      11.427 -11.458   3.796  1.00  0.00     0.131 A 
ATOM     64  C   UNL     1      10.230 -13.637   5.018  1.00  0.00     0.055 A 
ATOM     65  C   UNL     1      12.222 -12.482   4.314  1.00  0.00     0.041 A 
ATOM     66  F   UNL     1      12.045 -10.405   3.237  1.00  0.00    -0.206 F 
ATOM     67  C   UNL     1      11.625 -13.573   4.940  1.00  0.00     0.022 A 
BRANCH  64  68
ATOM     68  S   UNL     1       9.430 -14.989   5.925  1.00  0.00     0.124 S 
ATOM     69  O   UNL     1       8.697 -14.270   6.961  1.00  0.00    -0.237 OA
ATOM     70  O   UNL     1       8.618 -15.621   4.890  1.00  0.00    -0.237 OA
ATOM     71  O   UNL     1      10.554 -15.792   6.405  1.00  0.00    -0.744 OA
ENDBRANCH  64  68
ENDBRANCH  38  61
ENDBRANCH  12  13
ENDBRANCH   5   7
ENDBRANCH   2   3
ENDBRANCH   1   2
BRANCH   1  72
ATOM     72  C   UNL     1       4.428   2.763  -2.863  1.00  0.00     0.023 C 
BRANCH  72  73
ATOM     73  C   UNL     1       4.740   3.862  -1.852  1.00  0.00     0.116 C 
BRANCH  73  74
ATOM     74  N   UNL     1       6.161   3.996  -1.580  1.00  0.00    -0.352 N 
ATOM     75  C   UNL     1       6.980   5.088  -1.699  1.00  0.00     0.257 C 
ATOM     76  H   UNL     1       6.604   3.176  -1.261  1.00  0.00     0.163 HD
ATOM     77  O   UNL     1       8.186   4.954  -1.499  1.00  0.00    -0.269 OA
BRANCH  75  78
ATOM     78  C   UNL     1       6.405   6.353  -2.067  1.00  0.00     0.113 A 
ATOM     79  C   UNL     1       6.765   7.212  -3.142  1.00  0.00     0.127 A 
ATOM     80  C   UNL     1       5.450   7.061  -1.370  1.00  0.00     0.175 A 
ATOM     81  N   UNL     1       6.007   8.321  -3.135  1.00  0.00    -0.079 NA
ATOM     82  O   UNL     1       5.185   8.220  -2.027  1.00  0.00    -0.357 OA
BRANCH  79  83
ATOM     83  C   UNL     1       7.788   6.997  -4.160  1.00  0.00     0.005 A 
ATOM     84  C   UNL     1       7.874   5.777  -4.849  1.00  0.00     0.012 A 
ATOM     85  C   UNL     1       8.722   8.005  -4.437  1.00  0.00     0.012 A 
ATOM     86  C   UNL     1       8.886   5.567  -5.792  1.00  0.00     0.021 A 
ATOM     87  C   UNL     1       9.735   7.793  -5.377  1.00  0.00     0.021 A 
ATOM     88  C   UNL     1       9.813   6.575  -6.048  1.00  0.00     0.041 A 
ATOM     89  Cl  UNL     1      11.062   6.315  -7.203  1.00  0.00    -0.084 Cl
ENDBRANCH  79  83
BRANCH  80  90
ATOM     90  C   UNL     1       4.713   6.809  -0.111  1.00  0.00     0.242 C 
BRANCH  90  91
ATOM     91  O   UNL     1       4.898   7.869   0.825  1.00  0.00    -0.345 OA
BRANCH  91  92
ATOM     92  C   UNL     1       6.240   8.005   1.293  1.00  0.00     0.250 C 
ATOM     93  C   UNL     1       6.223   8.368   2.778  1.00  0.00     0.062 C 
ATOM     94  O   UNL     1       6.945   9.004   0.556  1.00  0.00    -0.353 OA
ATOM     95  C   UNL     1       5.629   9.755   3.002  1.00  0.00     0.008 C 
ATOM     96  C   UNL     1       6.335  10.291   0.652  1.00  0.00     0.163 C 
ATOM     97  C   UNL     1       6.305  10.776   2.096  1.00  0.00     0.029 C 
ENDBRANCH  91  92
ENDBRANCH  90  91
ENDBRANCH  80  90
ENDBRANCH  75  78
ENDBRANCH  73  74
ENDBRANCH  72  73
ENDBRANCH   1  72
TORSDOF 18
