REMARK SMILES O=C(NCCCCNC(=O)[C@@H]1CCCN1C(=O)OCc1ccc(/N=N/c2ccccc2)cc1)c1ccc(-c2c3nc(c(-c4cc(S(=O)(=O)[O-])ccc4F)c4ccc([nH]4)c(-c4cc(S(=O)(=O)[O-])ccc4F)c4nc(c(-c5cc(S(=O)(=O)[O-])ccc5F)c5ccc2[nH]5)C=C4)C=C3)cc1
REMARK SMILES IDX 7 1 6 2 5 3 4 4 3 5 1 6 2 7 34 9 35 10 96 11 36 12 95 13
REMARK SMILES IDX 37 14 38 15 39 16 89 17 40 18 94 19 88 20 90 21 41 22 93 23
REMARK SMILES IDX 87 24 86 25 42 27 74 28 54 29 73 30 55 31 58 32 72 33 91 34
REMARK SMILES IDX 56 35 57 36 71 38 92 39 59 40 43 41 44 42 52 43 45 44 51 45
REMARK SMILES IDX 53 46 50 47 46 48 47 49 48 50 49 51 75 52 76 53 84 54 77 55
REMARK SMILES IDX 83 56 85 57 82 58 78 59 79 60 80 61 81 62 60 63 61 64 69 65
REMARK SMILES IDX 62 66 68 67 70 68 67 69 63 70 64 71 65 72 66 73 8 74 9 75
REMARK SMILES IDX 10 77 11 78 12 79 15 80 13 81 14 82 16 83 17 84 18 85 19 86
REMARK SMILES IDX 20 87 21 88 33 89 22 90 32 91 23 92 24 93 25 94 26 95 27 96
REMARK SMILES IDX 31 97 28 98 30 99 29 100
REMARK H PARENT 3 8 90 26 58 37 8 76
REMARK Flexibility Score: inf
ROOT
ATOM      1  C   UNL     1       5.065   2.668   3.189  1.00  0.00     0.116 C 
ENDROOT
BRANCH   1   2
ATOM      2  C   UNL     1       4.524   3.224   1.874  1.00  0.00     0.023 C 
BRANCH   2   3
ATOM      3  C   UNL     1       4.961   2.432   0.644  1.00  0.00     0.023 C 
BRANCH   3   4
ATOM      4  C   UNL     1       4.607   0.953   0.693  1.00  0.00     0.116 C 
BRANCH   4   5
ATOM      5  N   UNL     1       3.171   0.725   0.751  1.00  0.00    -0.352 N 
ATOM      6  O   UNL     1       1.191  -0.066   0.004  1.00  0.00    -0.269 OA
ATOM      7  C   UNL     1       2.416  -0.103  -0.045  1.00  0.00     0.251 C 
ATOM      8  H   UNL     1       2.681   1.224   1.444  1.00  0.00     0.163 HD
BRANCH   7   9
ATOM      9  C   UNL     1       3.111  -1.024  -0.967  1.00  0.00     0.039 A 
ATOM     10  C   UNL     1       4.181  -1.794  -0.502  1.00  0.00     0.014 A 
ATOM     11  C   UNL     1       2.710  -1.097  -2.303  1.00  0.00     0.014 A 
ATOM     12  C   UNL     1       4.925  -2.549  -1.397  1.00  0.00     0.010 A 
ATOM     13  C   UNL     1       3.402  -1.933  -3.182  1.00  0.00     0.010 A 
ATOM     14  C   UNL     1       4.516  -2.662  -2.735  1.00  0.00    -0.014 A 
BRANCH  14  15
ATOM     15  C   UNL     1       5.179  -3.664  -3.606  1.00  0.00     0.031 A 
ATOM     16  C   UNL     1       5.956  -3.257  -4.824  1.00  0.00     0.074 A 
ATOM     17  C   UNL     1       5.050  -4.964  -3.271  1.00  0.00     0.049 A 
ATOM     18  N   UNL     1       6.548  -4.018  -5.707  1.00  0.00    -0.248 NA
ATOM     19  C   UNL     1       6.083  -1.816  -5.091  1.00  0.00     0.031 C 
ATOM     20  C   UNL     1       4.310  -5.461  -2.104  1.00  0.00     0.029 A 
ATOM     21  N   UNL     1       5.525  -6.104  -3.865  1.00  0.00    -0.354 N 
ATOM     22  C   UNL     1       7.099  -3.157  -6.649  1.00  0.00     0.074 A 
ATOM     23  C   UNL     1       6.762  -1.812  -6.233  1.00  0.00     0.031 C 
ATOM     24  C   UNL     1       4.404  -6.795  -2.055  1.00  0.00     0.029 A 
ATOM     25  C   UNL     1       5.125  -7.259  -3.232  1.00  0.00     0.049 A 
ATOM     26  H   UNL     1       6.096  -6.098  -4.666  1.00  0.00     0.167 HD
ATOM     27  C   UNL     1       7.812  -3.474  -7.757  1.00  0.00     0.034 A 
ATOM     28  C   UNL     1       5.271  -8.550  -3.585  1.00  0.00     0.034 A 
ATOM     29  C   UNL     1       8.139  -4.827  -8.140  1.00  0.00     0.049 A 
ATOM     30  C   UNL     1       6.013  -8.862  -4.857  1.00  0.00     0.074 A 
ATOM     31  C   UNL     1       8.923  -5.253  -9.199  1.00  0.00     0.029 A 
ATOM     32  N   UNL     1       7.681  -5.973  -7.503  1.00  0.00    -0.354 N 
ATOM     33  N   UNL     1       6.586  -8.033  -5.699  1.00  0.00    -0.248 NA
ATOM     34  C   UNL     1       6.125 -10.276  -5.231  1.00  0.00     0.031 C 
ATOM     35  C   UNL     1       8.860  -6.648  -9.259  1.00  0.00     0.029 A 
ATOM     36  C   UNL     1       8.112  -7.101  -8.184  1.00  0.00     0.049 A 
ATOM     37  H   UNL     1       7.130  -5.983  -6.687  1.00  0.00     0.167 HD
ATOM     38  C   UNL     1       7.138  -8.831  -6.695  1.00  0.00     0.074 A 
ATOM     39  C   UNL     1       6.861 -10.204  -6.329  1.00  0.00     0.031 C 
ATOM     40  C   UNL     1       7.809  -8.463  -7.815  1.00  0.00     0.034 A 
BRANCH  27  41
ATOM     41  C   UNL     1       8.247  -2.358  -8.675  1.00  0.00     0.023 A 
ATOM     42  C   UNL     1       9.205  -1.404  -8.297  1.00  0.00     0.031 A 
ATOM     43  C   UNL     1       7.730  -2.292  -9.983  1.00  0.00     0.131 A 
ATOM     44  C   UNL     1       9.595  -0.407  -9.207  1.00  0.00     0.055 A 
ATOM     45  C   UNL     1       8.169  -1.339 -10.903  1.00  0.00     0.041 A 
ATOM     46  F   UNL     1       6.796  -3.165 -10.392  1.00  0.00    -0.206 F 
ATOM     47  C   UNL     1       9.104  -0.385 -10.515  1.00  0.00     0.022 A 
BRANCH  44  48
ATOM     48  S   UNL     1      10.693   0.918  -8.632  1.00  0.00     0.124 S 
ATOM     49  O   UNL     1       9.911   1.498  -7.543  1.00  0.00    -0.237 OA
ATOM     50  O   UNL     1      11.892   0.188  -8.239  1.00  0.00    -0.237 OA
ATOM     51  O   UNL     1      10.841   1.775  -9.807  1.00  0.00    -0.744 OA
ENDBRANCH  44  48
ENDBRANCH  27  41
BRANCH  28  52
ATOM     52  C   UNL     1       4.640  -9.634  -2.778  1.00  0.00     0.023 A 
ATOM     53  C   UNL     1       5.411 -10.660  -2.216  1.00  0.00     0.031 A 
ATOM     54  C   UNL     1       3.242  -9.699  -2.619  1.00  0.00     0.131 A 
ATOM     55  C   UNL     1       4.779 -11.742  -1.583  1.00  0.00     0.055 A 
ATOM     56  C   UNL     1       2.624 -10.736  -1.920  1.00  0.00     0.041 A 
ATOM     57  F   UNL     1       2.452  -8.746  -3.139  1.00  0.00    -0.206 F 
ATOM     58  C   UNL     1       3.393 -11.778  -1.416  1.00  0.00     0.022 A 
BRANCH  55  59
ATOM     59  S   UNL     1       5.788 -13.173  -1.113  1.00  0.00     0.124 S 
ATOM     60  O   UNL     1       6.443 -13.499  -2.375  1.00  0.00    -0.237 OA
ATOM     61  O   UNL     1       6.642 -12.611  -0.073  1.00  0.00    -0.237 OA
ATOM     62  O   UNL     1       4.801 -14.146  -0.651  1.00  0.00    -0.744 OA
ENDBRANCH  55  59
ENDBRANCH  28  52
BRANCH  40  63
ATOM     63  C   UNL     1       8.302  -9.573  -8.708  1.00  0.00     0.023 A 
ATOM     64  C   UNL     1       7.408 -10.401  -9.409  1.00  0.00     0.031 A 
ATOM     65  C   UNL     1       9.680  -9.809  -8.856  1.00  0.00     0.131 A 
ATOM     66  C   UNL     1       7.900 -11.458 -10.188  1.00  0.00     0.055 A 
ATOM     67  C   UNL     1      10.166 -10.821  -9.684  1.00  0.00     0.041 A 
ATOM     68  F   UNL     1      10.577  -9.053  -8.203  1.00  0.00    -0.206 F 
ATOM     69  C   UNL     1       9.274 -11.659 -10.347  1.00  0.00     0.022 A 
BRANCH  66  70
ATOM     70  S   UNL     1       6.719 -12.618 -10.925  1.00  0.00     0.124 S 
ATOM     71  O   UNL     1       6.058 -13.168  -9.746  1.00  0.00    -0.237 OA
ATOM     72  O   UNL     1       5.904 -11.746 -11.764  1.00  0.00    -0.237 OA
ATOM     73  O   UNL     1       7.570 -13.557 -11.653  1.00  0.00    -0.744 OA
ENDBRANCH  66  70
ENDBRANCH  40  63
ENDBRANCH  14  15
ENDBRANCH   7   9
ENDBRANCH   4   5
ENDBRANCH   3   4
ENDBRANCH   2   3
ENDBRANCH   1   2
BRANCH   1  74
ATOM     74  N   UNL     1       6.509   2.813   3.270  1.00  0.00    -0.354 N 
ATOM     75  C   UNL     1       7.269   3.552   4.138  1.00  0.00     0.242 C 
ATOM     76  H   UNL     1       7.018   2.303   2.600  1.00  0.00     0.163 HD
ATOM     77  O   UNL     1       8.494   3.535   4.015  1.00  0.00    -0.273 OA
BRANCH  75  78
ATOM     78  C   UNL     1       6.563   4.318   5.263  1.00  0.00     0.177 C 
ATOM     79  C   UNL     1       7.011   5.783   5.251  1.00  0.00     0.037 C 
ATOM     80  N   UNL     1       6.845   3.916   6.639  1.00  0.00    -0.296 N 
ATOM     81  C   UNL     1       6.598   6.266   6.634  1.00  0.00     0.024 C 
ATOM     82  C   UNL     1       6.845   5.058   7.530  1.00  0.00     0.124 C 
BRANCH  80  83
ATOM     83  C   UNL     1       6.912   2.634   7.127  1.00  0.00     0.410 C 
ATOM     84  O   UNL     1       6.845   2.361   8.321  1.00  0.00    -0.224 OA
BRANCH  83  85
ATOM     85  O   UNL     1       7.206   1.736   6.155  1.00  0.00    -0.445 OA
BRANCH  85  86
ATOM     86  C   UNL     1       7.763   0.481   6.584  1.00  0.00     0.270 C 
BRANCH  86  87
ATOM     87  C   UNL     1       9.196   0.548   7.088  1.00  0.00    -0.010 A 
ATOM     88  C   UNL     1       9.828  -0.627   7.526  1.00  0.00     0.009 A 
ATOM     89  C   UNL     1       9.922   1.743   7.153  1.00  0.00     0.009 A 
ATOM     90  C   UNL     1      11.125  -0.591   8.062  1.00  0.00     0.031 A 
ATOM     91  C   UNL     1      11.205   1.778   7.706  1.00  0.00     0.031 A 
ATOM     92  C   UNL     1      11.822   0.616   8.186  1.00  0.00     0.086 A 
BRANCH  92  93
ATOM     93  N   UNL     1      13.130   0.600   8.723  1.00  0.00    -0.151 NA
ATOM     94  N   UNL     1      13.423   1.686   9.267  1.00  0.00    -0.151 NA
BRANCH  94  95
ATOM     95  C   UNL     1      14.767   1.776   9.685  1.00  0.00     0.086 A 
ATOM     96  C   UNL     1      15.086   2.775  10.615  1.00  0.00     0.030 A 
ATOM     97  C   UNL     1      15.809   0.983   9.184  1.00  0.00     0.030 A 
ATOM     98  C   UNL     1      16.401   2.972  11.044  1.00  0.00     0.002 A 
ATOM     99  C   UNL     1      17.127   1.174   9.612  1.00  0.00     0.002 A 
ATOM    100  C   UNL     1      17.422   2.168  10.542  1.00  0.00     0.000 A 
ENDBRANCH  94  95
ENDBRANCH  92  93
ENDBRANCH  86  87
ENDBRANCH  85  86
ENDBRANCH  83  85
ENDBRANCH  80  83
ENDBRANCH  75  78
ENDBRANCH   1  74
TORSDOF 20
