REMARK SMILES CC[C@@H]1CCCN1C(=O)N(CC(=O)NCCCCNC(=O)c1ccc(-c2c3nc(c(-c4cc(S(=O)(=O)[O-])ccc4F)c4ccc([nH]4)c(-c4cc(S(=O)(=O)[O-])ccc4F)c4nc(c(-c5cc(S(=O)(=O)[O-])ccc5F)c5ccc2[nH]5)C=C4)C=C3)cc1)CC(F)(F)F
REMARK SMILES IDX 16 1 15 2 14 3 12 4 13 5 11 7 10 8 8 9 9 10 7 11 3 12 4 13
REMARK SMILES IDX 5 14 6 15 2 16 1 17 85 18 86 19 87 20 88 21 89 22 17 23
REMARK SMILES IDX 18 24 19 25 20 26 21 28 22 29 23 30 84 31 24 32 83 33 25 34
REMARK SMILES IDX 26 35 27 36 77 37 28 38 82 39 76 40 78 41 29 42 81 43 75 44
REMARK SMILES IDX 74 45 30 47 62 48 42 49 61 50 43 51 46 52 60 53 79 54 44 55
REMARK SMILES IDX 45 56 59 58 80 59 47 60 31 61 32 62 40 63 33 64 39 65 41 66
REMARK SMILES IDX 38 67 34 68 35 69 36 70 37 71 63 72 64 73 72 74 65 75 71 76
REMARK SMILES IDX 73 77 70 78 66 79 67 80 68 81 69 82 48 83 49 84 57 85 50 86
REMARK SMILES IDX 56 87 58 88 55 89 51 90 52 91 53 92 54 93
REMARK H PARENT 14 6 19 27 78 46 46 57
REMARK Flexibility Score: inf
ROOT
ATOM      1  C   UNL     1       4.285  -0.124   1.593  1.00  0.00     0.023 C 
ENDROOT
BRANCH   1   2
ATOM      2  C   UNL     1       3.086   0.178   0.702  1.00  0.00     0.116 C 
BRANCH   2   3
ATOM      3  N   UNL     1       2.324   1.335   1.133  1.00  0.00    -0.355 N 
ATOM      4  C   UNL     1       1.717   2.337   0.449  1.00  0.00     0.239 C 
ATOM      5  O   UNL     1       0.950   3.062   1.096  1.00  0.00    -0.273 OA
ATOM      6  H   UNL     1       2.229   1.407   2.111  1.00  0.00     0.163 HD
BRANCH   4   7
ATOM      7  C   UNL     1       1.801   2.536  -1.069  1.00  0.00     0.221 C 
BRANCH   7   8
ATOM      8  N   UNL     1       2.912   2.086  -1.872  1.00  0.00    -0.306 N 
BRANCH   8   9
ATOM      9  C   UNL     1       3.055   0.913  -2.562  1.00  0.00     0.321 C 
ATOM     10  O   UNL     1       4.171   0.726  -3.075  1.00  0.00    -0.248 OA
BRANCH   9  11
ATOM     11  N   UNL     1       2.123  -0.109  -2.618  1.00  0.00    -0.322 N 
ATOM     12  C   UNL     1       0.634  -0.306  -2.693  1.00  0.00     0.086 C 
ATOM     13  C   UNL     1       0.507  -1.847  -2.625  1.00  0.00     0.027 C 
ATOM     14  C   UNL     1       1.638  -2.325  -3.492  1.00  0.00     0.024 C 
ATOM     15  C   UNL     1       2.741  -1.343  -3.157  1.00  0.00     0.122 C 
BRANCH  12  16
ATOM     16  C   UNL     1      -0.490   0.262  -1.802  1.00  0.00     0.022 C 
ATOM     17  C   UNL     1      -0.519  -0.167  -0.345  1.00  0.00     0.006 C 
ENDBRANCH  12  16
ENDBRANCH   9  11
ENDBRANCH   8   9
BRANCH   8  18
ATOM     18  C   UNL     1       4.110   2.979  -1.817  1.00  0.00     0.237 C 
BRANCH  18  19
ATOM     19  C   UNL     1       5.139   2.703  -0.712  1.00  0.00     0.406 C 
ATOM     20  F   UNL     1       5.616   1.443  -0.725  1.00  0.00    -0.169 F 
ATOM     21  F   UNL     1       6.199   3.539  -0.839  1.00  0.00    -0.169 F 
ATOM     22  F   UNL     1       4.610   2.937   0.511  1.00  0.00    -0.169 F 
ENDBRANCH  18  19
ENDBRANCH   8  18
ENDBRANCH   7   8
ENDBRANCH   4   7
ENDBRANCH   2   3
ENDBRANCH   1   2
BRANCH   1  23
ATOM     23  C   UNL     1       3.949  -0.380   3.057  1.00  0.00     0.023 C 
BRANCH  23  24
ATOM     24  C   UNL     1       2.863  -1.422   3.287  1.00  0.00     0.116 C 
BRANCH  24  25
ATOM     25  N   UNL     1       3.223  -2.729   2.757  1.00  0.00    -0.352 N 
ATOM     26  C   UNL     1       3.496  -3.897   3.430  1.00  0.00     0.251 C 
ATOM     27  H   UNL     1       3.279  -2.785   1.775  1.00  0.00     0.163 HD
ATOM     28  O   UNL     1       3.974  -4.852   2.834  1.00  0.00    -0.269 OA
BRANCH  26  29
ATOM     29  C   UNL     1       3.232  -3.969   4.883  1.00  0.00     0.039 A 
ATOM     30  C   UNL     1       4.218  -4.476   5.731  1.00  0.00     0.014 A 
ATOM     31  C   UNL     1       2.027  -3.494   5.406  1.00  0.00     0.014 A 
ATOM     32  C   UNL     1       4.023  -4.431   7.113  1.00  0.00     0.010 A 
ATOM     33  C   UNL     1       1.879  -3.358   6.781  1.00  0.00     0.010 A 
ATOM     34  C   UNL     1       2.873  -3.830   7.652  1.00  0.00    -0.014 A 
BRANCH  34  35
ATOM     35  C   UNL     1       2.685  -3.696   9.121  1.00  0.00     0.031 A 
ATOM     36  C   UNL     1       1.515  -4.366   9.791  1.00  0.00     0.074 A 
ATOM     37  C   UNL     1       3.529  -2.927   9.837  1.00  0.00     0.049 A 
ATOM     38  N   UNL     1       1.139  -4.316  11.043  1.00  0.00    -0.248 NA
ATOM     39  C   UNL     1       0.633  -5.171   8.932  1.00  0.00     0.031 C 
ATOM     40  C   UNL     1       4.672  -2.191   9.291  1.00  0.00     0.029 A 
ATOM     41  N   UNL     1       3.557  -2.630  11.177  1.00  0.00    -0.354 N 
ATOM     42  C   UNL     1      -0.027  -5.072  11.118  1.00  0.00     0.074 A 
ATOM     43  C   UNL     1      -0.333  -5.504   9.772  1.00  0.00     0.031 C 
ATOM     44  C   UNL     1       5.308  -1.560  10.291  1.00  0.00     0.029 A 
ATOM     45  C   UNL     1       4.592  -1.799  11.540  1.00  0.00     0.049 A 
ATOM     46  H   UNL     1       2.898  -2.980  11.819  1.00  0.00     0.167 HD
ATOM     47  C   UNL     1      -0.757  -5.401  12.213  1.00  0.00     0.034 A 
ATOM     48  C   UNL     1       4.920  -1.278  12.740  1.00  0.00     0.034 A 
ATOM     49  C   UNL     1      -0.430  -4.968  13.549  1.00  0.00     0.049 A 
ATOM     50  C   UNL     1       4.072  -1.630  13.938  1.00  0.00     0.074 A 
ATOM     51  C   UNL     1      -1.069  -5.281  14.736  1.00  0.00     0.029 A 
ATOM     52  N   UNL     1       0.621  -4.120  13.877  1.00  0.00    -0.354 N 
ATOM     53  N   UNL     1       3.004  -2.391  14.001  1.00  0.00    -0.248 NA
ATOM     54  C   UNL     1       4.482  -1.061  15.228  1.00  0.00     0.031 C 
ATOM     55  C   UNL     1      -0.455  -4.563  15.767  1.00  0.00     0.029 A 
ATOM     56  C   UNL     1       0.626  -3.872  15.242  1.00  0.00     0.049 A 
ATOM     57  H   UNL     1       1.269  -3.749  13.235  1.00  0.00     0.167 HD
ATOM     58  C   UNL     1       2.637  -2.419  15.344  1.00  0.00     0.074 A 
ATOM     59  C   UNL     1       3.607  -1.613  16.055  1.00  0.00     0.031 C 
ATOM     60  C   UNL     1       1.595  -3.057  15.937  1.00  0.00     0.034 A 
BRANCH  47  61
ATOM     61  C   UNL     1      -1.990  -6.247  11.998  1.00  0.00     0.023 A 
ATOM     62  C   UNL     1      -1.913  -7.544  11.458  1.00  0.00     0.031 A 
ATOM     63  C   UNL     1      -3.265  -5.743  12.311  1.00  0.00     0.131 A 
ATOM     64  C   UNL     1      -3.087  -8.257  11.173  1.00  0.00     0.055 A 
ATOM     65  C   UNL     1      -4.425  -6.494  12.109  1.00  0.00     0.041 A 
ATOM     66  F   UNL     1      -3.408  -4.503  12.807  1.00  0.00    -0.206 F 
ATOM     67  C   UNL     1      -4.342  -7.752  11.522  1.00  0.00     0.022 A 
BRANCH  64  68
ATOM     68  S   UNL     1      -2.959  -9.782  10.200  1.00  0.00     0.124 S 
ATOM     69  O   UNL     1      -2.317  -9.298   8.979  1.00  0.00    -0.237 OA
ATOM     70  O   UNL     1      -2.144 -10.635  11.056  1.00  0.00    -0.237 OA
ATOM     71  O   UNL     1      -4.349 -10.203  10.038  1.00  0.00    -0.744 OA
ENDBRANCH  64  68
ENDBRANCH  47  61
BRANCH  48  72
ATOM     72  C   UNL     1       6.093  -0.366  12.878  1.00  0.00     0.023 A 
ATOM     73  C   UNL     1       7.193  -0.716  13.678  1.00  0.00     0.031 A 
ATOM     74  C   UNL     1       6.112   0.892  12.250  1.00  0.00     0.131 A 
ATOM     75  C   UNL     1       8.239   0.200  13.873  1.00  0.00     0.055 A 
ATOM     76  C   UNL     1       7.183   1.776  12.397  1.00  0.00     0.041 A 
ATOM     77  F   UNL     1       5.088   1.279  11.472  1.00  0.00    -0.206 F 
ATOM     78  C   UNL     1       8.248   1.437  13.225  1.00  0.00     0.022 A 
BRANCH  75  79
ATOM     79  S   UNL     1       9.541  -0.209  15.067  1.00  0.00     0.124 S 
ATOM     80  O   UNL     1       8.770  -0.414  16.288  1.00  0.00    -0.237 OA
ATOM     81  O   UNL     1      10.133  -1.402  14.473  1.00  0.00    -0.237 OA
ATOM     82  O   UNL     1      10.394   0.978  15.059  1.00  0.00    -0.744 OA
ENDBRANCH  75  79
ENDBRANCH  48  72
BRANCH  60  83
ATOM     83  C   UNL     1       1.486  -2.947  17.440  1.00  0.00     0.023 A 
ATOM     84  C   UNL     1       1.229  -1.721  18.079  1.00  0.00     0.031 A 
ATOM     85  C   UNL     1       1.652  -4.088  18.245  1.00  0.00     0.131 A 
ATOM     86  C   UNL     1       1.208  -1.654  19.480  1.00  0.00     0.055 A 
ATOM     87  C   UNL     1       1.560  -4.029  19.636  1.00  0.00     0.041 A 
ATOM     88  F   UNL     1       1.903  -5.286  17.690  1.00  0.00    -0.206 F 
ATOM     89  C   UNL     1       1.352  -2.804  20.262  1.00  0.00     0.022 A 
BRANCH  86  90
ATOM     90  S   UNL     1       1.097  -0.027  20.272  1.00  0.00     0.124 S 
ATOM     91  O   UNL     1       2.262   0.658  19.723  1.00  0.00    -0.237 OA
ATOM     92  O   UNL     1      -0.202   0.456  19.814  1.00  0.00    -0.237 OA
ATOM     93  O   UNL     1       1.174  -0.334  21.700  1.00  0.00    -0.744 OA
ENDBRANCH  86  90
ENDBRANCH  60  83
ENDBRANCH  34  35
ENDBRANCH  26  29
ENDBRANCH  24  25
ENDBRANCH  23  24
ENDBRANCH   1  23
TORSDOF 20
