REMARK SMILES C[C@@H]1CCC[C@]1(Sc1ccc(F)cc1)C(=O)NCCCCNC(=O)c1ccc(-c2c3nc(c(-c4cc(S(=O)(=O)[O-])ccc4F)c4ccc([nH]4)c(-c4cc(S(=O)(=O)[O-])ccc4F)c4nc(c(-c5cc(S(=O)(=O)[O-])ccc5F)c5ccc2[nH]5)C=C4)C=C3)cc1
REMARK SMILES IDX 20 1 19 2 18 3 17 4 15 5 16 6 6 8 1 9 2 10 3 11 4 12 5 13
REMARK SMILES IDX 7 14 8 15 9 16 14 17 10 18 13 19 11 20 12 21 21 22 22 23
REMARK SMILES IDX 23 24 24 26 25 27 26 28 87 29 27 30 86 31 28 32 29 33 30 34
REMARK SMILES IDX 80 35 31 36 85 37 79 38 81 39 32 40 84 41 78 42 77 43 33 45
REMARK SMILES IDX 65 46 45 47 64 48 46 49 49 50 63 51 82 52 47 53 48 54 62 56
REMARK SMILES IDX 83 57 50 58 34 59 35 60 43 61 36 62 42 63 44 64 41 65 37 66
REMARK SMILES IDX 38 67 39 68 40 69 66 70 67 71 75 72 68 73 74 74 76 75 73 76
REMARK SMILES IDX 69 77 70 78 71 79 72 80 51 81 52 82 60 83 53 84 59 85 61 86
REMARK SMILES IDX 58 87 54 88 55 89 56 90 57 91
REMARK H PARENT 17 7 22 25 81 44 49 55
REMARK Flexibility Score: inf
ROOT
ATOM      1  C   UNL     1       4.643   2.941   1.573  1.00  0.00     0.023 C 
ENDROOT
BRANCH   1   2
ATOM      2  C   UNL     1       3.700   1.778   1.875  1.00  0.00     0.023 C 
BRANCH   2   3
ATOM      3  C   UNL     1       2.246   2.174   2.116  1.00  0.00     0.116 C 
BRANCH   3   4
ATOM      4  N   UNL     1       1.617   2.760   0.944  1.00  0.00    -0.355 N 
ATOM      5  C   UNL     1       0.507   2.369   0.240  1.00  0.00     0.236 C 
ATOM      6  O   UNL     1       0.130   3.120  -0.665  1.00  0.00    -0.273 OA
ATOM      7  H   UNL     1       2.059   3.569   0.601  1.00  0.00     0.163 HD
BRANCH   5   8
ATOM      8  C   UNL     1      -0.225   1.030   0.561  1.00  0.00     0.102 C 
ATOM      9  C   UNL     1       1.666  -0.050  -0.850  1.00  0.00     0.009 C 
ATOM     10  C   UNL     1       0.688  -0.206   0.334  1.00  0.00     0.012 C 
ATOM     11  C   UNL     1      -0.263  -1.363  -0.011  1.00  0.00     0.005 C 
ATOM     12  C   UNL     1      -1.544  -0.735  -0.541  1.00  0.00     0.002 C 
ATOM     13  C   UNL     1      -1.369   0.778  -0.445  1.00  0.00     0.028 C 
BRANCH   8  14
ATOM     14  S   UNL     1      -0.985   1.351   2.269  1.00  0.00    -0.109 SA
BRANCH  14  15
ATOM     15  C   UNL     1      -1.611  -0.190   2.874  1.00  0.00     0.008 A 
ATOM     16  C   UNL     1      -0.761  -1.191   3.354  1.00  0.00     0.018 A 
ATOM     17  C   UNL     1      -2.995  -0.332   3.036  1.00  0.00     0.018 A 
ATOM     18  C   UNL     1      -1.291  -2.355   3.918  1.00  0.00     0.040 A 
ATOM     19  C   UNL     1      -3.526  -1.484   3.620  1.00  0.00     0.040 A 
ATOM     20  C   UNL     1      -2.668  -2.490   4.045  1.00  0.00     0.123 A 
ATOM     21  F   UNL     1      -3.175  -3.598   4.602  1.00  0.00    -0.207 F 
ENDBRANCH  14  15
ENDBRANCH   8  14
ENDBRANCH   5   8
ENDBRANCH   3   4
ENDBRANCH   2   3
ENDBRANCH   1   2
BRANCH   1  22
ATOM     22  C   UNL     1       4.674   4.040   2.630  1.00  0.00     0.116 C 
BRANCH  22  23
ATOM     23  N   UNL     1       5.051   3.549   3.947  1.00  0.00    -0.352 N 
ATOM     24  C   UNL     1       5.941   4.091   4.845  1.00  0.00     0.251 C 
ATOM     25  H   UNL     1       4.610   2.717   4.235  1.00  0.00     0.163 HD
ATOM     26  O   UNL     1       6.242   3.471   5.861  1.00  0.00    -0.269 OA
BRANCH  24  27
ATOM     27  C   UNL     1       6.553   5.405   4.556  1.00  0.00     0.039 A 
ATOM     28  C   UNL     1       7.939   5.545   4.660  1.00  0.00     0.014 A 
ATOM     29  C   UNL     1       5.761   6.483   4.152  1.00  0.00     0.014 A 
ATOM     30  C   UNL     1       8.540   6.749   4.286  1.00  0.00     0.010 A 
ATOM     31  C   UNL     1       6.367   7.659   3.721  1.00  0.00     0.010 A 
ATOM     32  C   UNL     1       7.763   7.803   3.778  1.00  0.00    -0.014 A 
BRANCH  32  33
ATOM     33  C   UNL     1       8.377   9.070   3.306  1.00  0.00     0.031 A 
ATOM     34  C   UNL     1       8.055  10.359   4.011  1.00  0.00     0.074 A 
ATOM     35  C   UNL     1       9.153   9.075   2.203  1.00  0.00     0.049 A 
ATOM     36  N   UNL     1       8.338  11.586   3.659  1.00  0.00    -0.248 NA
ATOM     37  C   UNL     1       7.286  10.254   5.263  1.00  0.00     0.031 C 
ATOM     38  C   UNL     1       9.521   7.893   1.419  1.00  0.00     0.029 A 
ATOM     39  N   UNL     1       9.759  10.112   1.539  1.00  0.00    -0.354 N 
ATOM     40  C   UNL     1       7.760  12.399   4.626  1.00  0.00     0.074 A 
ATOM     41  C   UNL     1       7.084  11.529   5.564  1.00  0.00     0.031 C 
ATOM     42  C   UNL     1      10.298   8.271   0.391  1.00  0.00     0.029 A 
ATOM     43  C   UNL     1      10.442   9.723   0.409  1.00  0.00     0.049 A 
ATOM     44  H   UNL     1       9.709  11.048   1.842  1.00  0.00     0.167 HD
ATOM     45  C   UNL     1       7.800  13.749   4.728  1.00  0.00     0.034 A 
ATOM     46  C   UNL     1      11.090  10.455  -0.520  1.00  0.00     0.034 A 
ATOM     47  C   UNL     1       8.512  14.605   3.815  1.00  0.00     0.049 A 
ATOM     48  C   UNL     1      11.120  11.955  -0.380  1.00  0.00     0.074 A 
ATOM     49  C   UNL     1       8.662  15.980   3.868  1.00  0.00     0.029 A 
ATOM     50  N   UNL     1       9.199  14.172   2.691  1.00  0.00    -0.354 N 
ATOM     51  N   UNL     1      10.563  12.708   0.540  1.00  0.00    -0.248 NA
ATOM     52  C   UNL     1      11.861  12.703  -1.405  1.00  0.00     0.031 C 
ATOM     53  C   UNL     1       9.399  16.383   2.751  1.00  0.00     0.029 A 
ATOM     54  C   UNL     1       9.758  15.254   2.032  1.00  0.00     0.049 A 
ATOM     55  H   UNL     1       9.278  13.233   2.404  1.00  0.00     0.167 HD
ATOM     56  C   UNL     1      10.898  14.017   0.209  1.00  0.00     0.074 A 
ATOM     57  C   UNL     1      11.717  13.952  -0.983  1.00  0.00     0.031 C 
ATOM     58  C   UNL     1      10.558  15.171   0.836  1.00  0.00     0.034 A 
BRANCH  45  59
ATOM     59  C   UNL     1       7.042  14.390   5.857  1.00  0.00     0.023 A 
ATOM     60  C   UNL     1       7.473  14.278   7.189  1.00  0.00     0.031 A 
ATOM     61  C   UNL     1       5.893  15.156   5.591  1.00  0.00     0.131 A 
ATOM     62  C   UNL     1       6.740  14.896   8.212  1.00  0.00     0.055 A 
ATOM     63  C   UNL     1       5.201  15.816   6.607  1.00  0.00     0.041 A 
ATOM     64  F   UNL     1       5.431  15.280   4.337  1.00  0.00    -0.206 F 
ATOM     65  C   UNL     1       5.621  15.685   7.927  1.00  0.00     0.022 A 
BRANCH  62  66
ATOM     66  S   UNL     1       7.239  14.621   9.933  1.00  0.00     0.124 S 
ATOM     67  O   UNL     1       6.887  13.216  10.117  1.00  0.00    -0.237 OA
ATOM     68  O   UNL     1       8.665  14.923   9.906  1.00  0.00    -0.237 OA
ATOM     69  O   UNL     1       6.417  15.569  10.682  1.00  0.00    -0.744 OA
ENDBRANCH  62  66
ENDBRANCH  45  59
BRANCH  46  70
ATOM     70  C   UNL     1      11.733   9.791  -1.688  1.00  0.00     0.023 A 
ATOM     71  C   UNL     1      13.129   9.777  -1.832  1.00  0.00     0.031 A 
ATOM     72  C   UNL     1      10.956   9.190  -2.693  1.00  0.00     0.131 A 
ATOM     73  C   UNL     1      13.706   9.205  -2.977  1.00  0.00     0.055 A 
ATOM     74  C   UNL     1      11.536   8.586  -3.809  1.00  0.00     0.041 A 
ATOM     75  F   UNL     1       9.617   9.172  -2.596  1.00  0.00    -0.206 F 
ATOM     76  C   UNL     1      12.920   8.600  -3.961  1.00  0.00     0.022 A 
BRANCH  73  77
ATOM     77  S   UNL     1      15.504   9.305  -3.187  1.00  0.00     0.124 S 
ATOM     78  O   UNL     1      15.712  10.746  -3.277  1.00  0.00    -0.237 OA
ATOM     79  O   UNL     1      15.990   8.661  -1.972  1.00  0.00    -0.237 OA
ATOM     80  O   UNL     1      15.744   8.560  -4.421  1.00  0.00    -0.744 OA
ENDBRANCH  73  77
ENDBRANCH  46  70
BRANCH  58  81
ATOM     81  C   UNL     1      11.091  16.453   0.255  1.00  0.00     0.023 A 
ATOM     82  C   UNL     1      10.598  16.967  -0.956  1.00  0.00     0.031 A 
ATOM     83  C   UNL     1      12.083  17.180   0.935  1.00  0.00     0.131 A 
ATOM     84  C   UNL     1      11.126  18.160  -1.471  1.00  0.00     0.055 A 
ATOM     85  C   UNL     1      12.570  18.390   0.442  1.00  0.00     0.041 A 
ATOM     86  F   UNL     1      12.582  16.730   2.097  1.00  0.00    -0.206 F 
ATOM     87  C   UNL     1      12.096  18.883  -0.771  1.00  0.00     0.022 A 
BRANCH  84  88
ATOM     88  S   UNL     1      10.557  18.735  -3.093  1.00  0.00     0.124 S 
ATOM     89  O   UNL     1      11.019  17.666  -3.972  1.00  0.00    -0.237 OA
ATOM     90  O   UNL     1       9.113  18.828  -2.907  1.00  0.00    -0.237 OA
ATOM     91  O   UNL     1      11.242  20.016  -3.262  1.00  0.00    -0.744 OA
ENDBRANCH  84  88
ENDBRANCH  58  81
ENDBRANCH  32  33
ENDBRANCH  24  27
ENDBRANCH  22  23
ENDBRANCH   1  22
TORSDOF 16
