REMARK SMILES O=C(NCCCCNC(=O)[C@]1(Cl)C=CC=C(c2ccccc2)C1)c1ccc(-c2c3nc(c(-c4cc(S(=O)(=O)[O-])ccc4F)c4ccc([nH]4)c(-c4cc(S(=O)(=O)[O-])ccc4F)c4nc(c(-c5cc(S(=O)(=O)[O-])ccc5F)c5ccc2[nH]5)C=C4)C=C3)cc1
REMARK SMILES IDX 4 1 3 2 1 3 2 4 24 6 25 7 86 8 26 9 85 10 27 11 28 12 29 13
REMARK SMILES IDX 79 14 30 15 84 16 78 17 80 18 31 19 83 20 77 21 76 22 32 24
REMARK SMILES IDX 64 25 44 26 63 27 45 28 48 29 62 30 81 31 46 32 47 33 61 35
REMARK SMILES IDX 82 36 49 37 33 38 34 39 42 40 35 41 41 42 43 43 40 44 36 45
REMARK SMILES IDX 37 46 38 47 39 48 65 49 66 50 74 51 67 52 73 53 75 54 72 55
REMARK SMILES IDX 68 56 69 57 70 58 71 59 50 60 51 61 59 62 52 63 58 64 60 65
REMARK SMILES IDX 57 66 53 67 54 68 55 69 56 70 5 71 6 72 7 73 8 74 9 75 10 77
REMARK SMILES IDX 11 78 13 79 23 80 12 81 14 82 16 83 15 84 17 85 18 86 22 87
REMARK SMILES IDX 19 88 21 89 20 90
REMARK H PARENT 3 5 80 23 48 34 8 76
REMARK Flexibility Score: inf
ROOT
ATOM      1  C   UNL     1       5.122  11.461   3.743  1.00  0.00     0.116 C 
ENDROOT
BRANCH   1   2
ATOM      2  N   UNL     1       5.545  12.632   2.986  1.00  0.00    -0.352 N 
ATOM      3  O   UNL     1       5.837  14.821   2.528  1.00  0.00    -0.269 OA
ATOM      4  C   UNL     1       5.554  13.963   3.350  1.00  0.00     0.251 C 
ATOM      5  H   UNL     1       5.874  12.446   2.077  1.00  0.00     0.163 HD
BRANCH   4   6
ATOM      6  C   UNL     1       5.190  14.343   4.734  1.00  0.00     0.039 A 
ATOM      7  C   UNL     1       5.731  13.656   5.821  1.00  0.00     0.014 A 
ATOM      8  C   UNL     1       4.276  15.379   4.943  1.00  0.00     0.014 A 
ATOM      9  C   UNL     1       5.224  13.877   7.095  1.00  0.00     0.010 A 
ATOM     10  C   UNL     1       3.840  15.668   6.241  1.00  0.00     0.010 A 
ATOM     11  C   UNL     1       4.278  14.890   7.323  1.00  0.00    -0.014 A 
BRANCH  11  12
ATOM     12  C   UNL     1       3.800  15.133   8.710  1.00  0.00     0.031 A 
ATOM     13  C   UNL     1       2.358  14.923   9.086  1.00  0.00     0.074 A 
ATOM     14  C   UNL     1       4.699  15.504   9.644  1.00  0.00     0.049 A 
ATOM     15  N   UNL     1       1.778  15.082  10.249  1.00  0.00    -0.248 NA
ATOM     16  C   UNL     1       1.445  14.485   8.020  1.00  0.00     0.031 C 
ATOM     17  C   UNL     1       6.125  15.736   9.390  1.00  0.00     0.029 A 
ATOM     18  N   UNL     1       4.563  15.728  10.989  1.00  0.00    -0.354 N 
ATOM     19  C   UNL     1       0.432  14.789  10.053  1.00  0.00     0.074 A 
ATOM     20  C   UNL     1       0.279  14.463   8.651  1.00  0.00     0.031 C 
ATOM     21  C   UNL     1       6.738  16.018  10.548  1.00  0.00     0.029 A 
ATOM     22  C   UNL     1       5.743  16.065  11.612  1.00  0.00     0.049 A 
ATOM     23  H   UNL     1       3.704  15.656  11.464  1.00  0.00     0.167 HD
ATOM     24  C   UNL     1      -0.576  14.789  10.961  1.00  0.00     0.034 A 
ATOM     25  C   UNL     1       5.995  16.401  12.891  1.00  0.00     0.034 A 
ATOM     26  C   UNL     1      -0.398  15.103  12.361  1.00  0.00     0.049 A 
ATOM     27  C   UNL     1       4.854  16.416  13.870  1.00  0.00     0.074 A 
ATOM     28  C   UNL     1      -1.345  15.102  13.372  1.00  0.00     0.029 A 
ATOM     29  N   UNL     1       0.804  15.479  12.947  1.00  0.00    -0.354 N 
ATOM     30  N   UNL     1       3.589  16.131  13.664  1.00  0.00    -0.248 NA
ATOM     31  C   UNL     1       5.174  16.796  15.250  1.00  0.00     0.031 C 
ATOM     32  C   UNL     1      -0.730  15.535  14.552  1.00  0.00     0.029 A 
ATOM     33  C   UNL     1       0.617  15.740  14.297  1.00  0.00     0.049 A 
ATOM     34  H   UNL     1       1.664  15.549  12.474  1.00  0.00     0.167 HD
ATOM     35  C   UNL     1       2.964  16.287  14.896  1.00  0.00     0.074 A 
ATOM     36  C   UNL     1       3.996  16.664  15.841  1.00  0.00     0.031 C 
ATOM     37  C   UNL     1       1.654  16.135  15.219  1.00  0.00     0.034 A 
BRANCH  24  38
ATOM     38  C   UNL     1      -1.970  14.488  10.464  1.00  0.00     0.023 A 
ATOM     39  C   UNL     1      -2.329  13.222   9.970  1.00  0.00     0.031 A 
ATOM     40  C   UNL     1      -2.959  15.489  10.490  1.00  0.00     0.131 A 
ATOM     41  C   UNL     1      -3.625  13.005   9.474  1.00  0.00     0.055 A 
ATOM     42  C   UNL     1      -4.265  15.248  10.059  1.00  0.00     0.041 A 
ATOM     43  F   UNL     1      -2.669  16.723  10.933  1.00  0.00    -0.206 F 
ATOM     44  C   UNL     1      -4.602  14.003   9.537  1.00  0.00     0.022 A 
BRANCH  41  45
ATOM     45  S   UNL     1      -3.989  11.434   8.643  1.00  0.00     0.124 S 
ATOM     46  O   UNL     1      -3.022  11.448   7.548  1.00  0.00    -0.237 OA
ATOM     47  O   UNL     1      -3.746  10.456   9.697  1.00  0.00    -0.237 OA
ATOM     48  O   UNL     1      -5.384  11.577   8.233  1.00  0.00    -0.744 OA
ENDBRANCH  41  45
ENDBRANCH  24  38
BRANCH  25  49
ATOM     49  C   UNL     1       7.372  16.792  13.305  1.00  0.00     0.023 A 
ATOM     50  C   UNL     1       8.094  16.034  14.238  1.00  0.00     0.031 A 
ATOM     51  C   UNL     1       7.978  17.950  12.783  1.00  0.00     0.131 A 
ATOM     52  C   UNL     1       9.365  16.463  14.650  1.00  0.00     0.055 A 
ATOM     53  C   UNL     1       9.263  18.342  13.155  1.00  0.00     0.041 A 
ATOM     54  F   UNL     1       7.331  18.709  11.883  1.00  0.00    -0.206 F 
ATOM     55  C   UNL     1       9.960  17.603  14.104  1.00  0.00     0.022 A 
BRANCH  52  56
ATOM     56  S   UNL     1      10.200  15.553  15.978  1.00  0.00     0.124 S 
ATOM     57  O   UNL     1       9.207  15.603  17.045  1.00  0.00    -0.237 OA
ATOM     58  O   UNL     1      10.413  14.248  15.361  1.00  0.00    -0.237 OA
ATOM     59  O   UNL     1      11.412  16.334  16.215  1.00  0.00    -0.744 OA
ENDBRANCH  52  56
ENDBRANCH  25  49
BRANCH  37  60
ATOM     60  C   UNL     1       1.288  16.351  16.665  1.00  0.00     0.023 A 
ATOM     61  C   UNL     1       1.356  17.624  17.258  1.00  0.00     0.031 A 
ATOM     62  C   UNL     1       0.903  15.263  17.467  1.00  0.00     0.131 A 
ATOM     63  C   UNL     1       1.101  17.768  18.629  1.00  0.00     0.055 A 
ATOM     64  C   UNL     1       0.596  15.422  18.819  1.00  0.00     0.041 A 
ATOM     65  F   UNL     1       0.826  14.026  16.950  1.00  0.00    -0.206 F 
ATOM     66  C   UNL     1       0.708  16.678  19.410  1.00  0.00     0.022 A 
BRANCH  63  67
ATOM     67  S   UNL     1       1.381  19.385  19.401  1.00  0.00     0.124 S 
ATOM     68  O   UNL     1       2.796  19.614  19.121  1.00  0.00    -0.237 OA
ATOM     69  O   UNL     1       0.443  20.241  18.682  1.00  0.00    -0.237 OA
ATOM     70  O   UNL     1       1.056  19.156  20.807  1.00  0.00    -0.744 OA
ENDBRANCH  63  67
ENDBRANCH  37  60
ENDBRANCH  11  12
ENDBRANCH   4   6
ENDBRANCH   1   2
BRANCH   1  71
ATOM     71  C   UNL     1       3.930  10.740   3.124  1.00  0.00     0.023 C 
BRANCH  71  72
ATOM     72  C   UNL     1       4.154  10.190   1.720  1.00  0.00     0.023 C 
BRANCH  72  73
ATOM     73  C   UNL     1       5.380   9.303   1.541  1.00  0.00     0.116 C 
BRANCH  73  74
ATOM     74  N   UNL     1       5.343   8.073   2.306  1.00  0.00    -0.354 N 
ATOM     75  C   UNL     1       6.011   6.893   2.087  1.00  0.00     0.245 C 
ATOM     76  H   UNL     1       4.754   8.085   3.095  1.00  0.00     0.163 HD
ATOM     77  O   UNL     1       5.849   6.022   2.948  1.00  0.00    -0.273 OA
BRANCH  75  78
ATOM     78  C   UNL     1       6.839   6.644   0.777  1.00  0.00     0.145 C 
ATOM     79  C   UNL     1       7.853   7.734   0.515  1.00  0.00     0.006 C 
ATOM     80  C   UNL     1       5.861   6.354  -0.397  1.00  0.00     0.073 C 
ATOM     81  Cl  UNL     1       7.853   5.147   1.055  1.00  0.00    -0.104 Cl
ATOM     82  C   UNL     1       7.860   8.461  -0.610  1.00  0.00    -0.002 C 
ATOM     83  C   UNL     1       5.928   7.305  -1.586  1.00  0.00    -0.038 C 
ATOM     84  C   UNL     1       6.863   8.275  -1.637  1.00  0.00     0.004 C 
BRANCH  83  85
ATOM     85  C   UNL     1       4.921   7.142  -2.673  1.00  0.00    -0.022 A 
ATOM     86  C   UNL     1       5.241   7.447  -4.007  1.00  0.00     0.008 A 
ATOM     87  C   UNL     1       3.633   6.640  -2.419  1.00  0.00     0.008 A 
ATOM     88  C   UNL     1       4.313   7.271  -5.040  1.00  0.00     0.001 A 
ATOM     89  C   UNL     1       2.706   6.454  -3.451  1.00  0.00     0.001 A 
ATOM     90  C   UNL     1       3.046   6.771  -4.761  1.00  0.00     0.000 A 
ENDBRANCH  83  85
ENDBRANCH  75  78
ENDBRANCH  73  74
ENDBRANCH  72  73
ENDBRANCH  71  72
ENDBRANCH   1  71
TORSDOF 15
