REMARK SMILES O=C(NCCCCNC(=O)[C@@H]1C=C[C@H](NC(=O)[C@@H]2CCSC2)C1)c1ccc(-c2c3nc(c(-c4cc(S(=O)(=O)[O-])ccc4F)c4ccc([nH]4)c(-c4cc(S(=O)(=O)[O-])ccc4F)c4nc(c(-c5cc(S(=O)(=O)[O-])ccc5F)c5ccc2[nH]5)C=C4)C=C3)cc1
REMARK SMILES IDX 5 1 4 2 3 3 1 4 2 5 24 7 25 8 86 9 26 10 85 11 27 12 28 13
REMARK SMILES IDX 29 14 79 15 30 16 84 17 78 18 80 19 31 20 83 21 77 22 76 23
REMARK SMILES IDX 32 25 64 26 44 27 63 28 45 29 48 30 62 31 81 32 46 33 47 34
REMARK SMILES IDX 61 36 82 37 49 38 33 39 34 40 42 41 35 42 41 43 43 44 40 45
REMARK SMILES IDX 36 46 37 47 38 48 39 49 65 50 66 51 74 52 67 53 73 54 75 55
REMARK SMILES IDX 72 56 68 57 69 58 70 59 71 60 50 61 51 62 59 63 52 64 58 65
REMARK SMILES IDX 60 66 57 67 53 68 54 69 55 70 56 71 6 72 7 73 8 74 9 75
REMARK SMILES IDX 10 77 11 78 12 79 23 80 13 81 14 82 15 83 16 84 17 86 18 87
REMARK SMILES IDX 19 88 22 89 20 90 21 91
REMARK H PARENT 3 6 80 24 48 35 8 76 15 85
REMARK Flexibility Score: inf
ROOT
ATOM      1  C   UNL     1       2.575   6.224   2.178  1.00  0.00     0.023 C 
ENDROOT
BRANCH   1   2
ATOM      2  C   UNL     1       1.528   7.097   2.868  1.00  0.00     0.116 C 
BRANCH   2   3
ATOM      3  N   UNL     1       1.835   8.518   2.827  1.00  0.00    -0.352 N 
ATOM      4  O   UNL     1       1.328  10.719   2.694  1.00  0.00    -0.269 OA
ATOM      5  C   UNL     1       0.941   9.563   2.832  1.00  0.00     0.251 C 
ATOM      6  H   UNL     1       2.789   8.759   2.792  1.00  0.00     0.163 HD
BRANCH   5   7
ATOM      7  C   UNL     1      -0.496   9.258   2.971  1.00  0.00     0.039 A 
ATOM      8  C   UNL     1      -0.946   8.472   4.036  1.00  0.00     0.014 A 
ATOM      9  C   UNL     1      -1.388   9.729   2.006  1.00  0.00     0.014 A 
ATOM     10  C   UNL     1      -2.277   8.075   4.083  1.00  0.00     0.010 A 
ATOM     11  C   UNL     1      -2.737   9.380   2.089  1.00  0.00     0.010 A 
ATOM     12  C   UNL     1      -3.188   8.541   3.121  1.00  0.00    -0.014 A 
BRANCH  12  13
ATOM     13  C   UNL     1      -4.631   8.236   3.272  1.00  0.00     0.031 A 
ATOM     14  C   UNL     1      -5.348   7.354   2.290  1.00  0.00     0.074 A 
ATOM     15  C   UNL     1      -5.289   8.795   4.307  1.00  0.00     0.049 A 
ATOM     16  N   UNL     1      -6.616   7.037   2.246  1.00  0.00    -0.248 NA
ATOM     17  C   UNL     1      -4.542   6.755   1.216  1.00  0.00     0.031 C 
ATOM     18  C   UNL     1      -4.680   9.675   5.311  1.00  0.00     0.029 A 
ATOM     19  N   UNL     1      -6.604   8.722   4.686  1.00  0.00    -0.354 N 
ATOM     20  C   UNL     1      -6.769   6.221   1.131  1.00  0.00     0.074 A 
ATOM     21  C   UNL     1      -5.463   6.099   0.519  1.00  0.00     0.031 C 
ATOM     22  C   UNL     1      -5.616  10.050   6.194  1.00  0.00     0.029 A 
ATOM     23  C   UNL     1      -6.901   9.499   5.782  1.00  0.00     0.049 A 
ATOM     24  H   UNL     1      -7.271   8.168   4.220  1.00  0.00     0.167 HD
ATOM     25  C   UNL     1      -7.901   5.636   0.669  1.00  0.00     0.034 A 
ATOM     26  C   UNL     1      -8.083   9.777   6.364  1.00  0.00     0.034 A 
ATOM     27  C   UNL     1      -9.189   5.763   1.310  1.00  0.00     0.049 A 
ATOM     28  C   UNL     1      -9.326   9.151   5.795  1.00  0.00     0.074 A 
ATOM     29  C   UNL     1     -10.378   5.133   0.984  1.00  0.00     0.029 A 
ATOM     30  N   UNL     1      -9.463   6.590   2.390  1.00  0.00    -0.354 N 
ATOM     31  N   UNL     1      -9.442   8.331   4.776  1.00  0.00    -0.248 NA
ATOM     32  C   UNL     1     -10.596   9.491   6.447  1.00  0.00     0.031 C 
ATOM     33  C   UNL     1     -11.383   5.634   1.818  1.00  0.00     0.029 A 
ATOM     34  C   UNL     1     -10.811   6.529   2.708  1.00  0.00     0.049 A 
ATOM     35  H   UNL     1      -8.796   7.141   2.862  1.00  0.00     0.167 HD
ATOM     36  C   UNL     1     -10.799   8.053   4.669  1.00  0.00     0.074 A 
ATOM     37  C   UNL     1     -11.456   8.768   5.745  1.00  0.00     0.031 C 
ATOM     38  C   UNL     1     -11.448   7.278   3.764  1.00  0.00     0.034 A 
BRANCH  25  39
ATOM     39  C   UNL     1      -7.821   4.846  -0.613  1.00  0.00     0.023 A 
ATOM     40  C   UNL     1      -7.144   3.619  -0.695  1.00  0.00     0.031 A 
ATOM     41  C   UNL     1      -8.476   5.319  -1.766  1.00  0.00     0.131 A 
ATOM     42  C   UNL     1      -7.108   2.921  -1.913  1.00  0.00     0.055 A 
ATOM     43  C   UNL     1      -8.483   4.594  -2.958  1.00  0.00     0.041 A 
ATOM     44  F   UNL     1      -9.123   6.495  -1.748  1.00  0.00    -0.206 F 
ATOM     45  C   UNL     1      -7.791   3.390  -3.039  1.00  0.00     0.022 A 
BRANCH  42  46
ATOM     46  S   UNL     1      -6.091   1.423  -2.033  1.00  0.00     0.124 S 
ATOM     47  O   UNL     1      -4.757   1.946  -1.749  1.00  0.00    -0.237 OA
ATOM     48  O   UNL     1      -6.671   0.564  -1.007  1.00  0.00    -0.237 OA
ATOM     49  O   UNL     1      -6.298   0.976  -3.409  1.00  0.00    -0.744 OA
ENDBRANCH  42  46
ENDBRANCH  25  39
BRANCH  26  50
ATOM     50  C   UNL     1      -8.154  10.744   7.495  1.00  0.00     0.023 A 
ATOM     51  C   UNL     1      -8.595  10.345   8.765  1.00  0.00     0.031 A 
ATOM     52  C   UNL     1      -7.816  12.097   7.307  1.00  0.00     0.131 A 
ATOM     53  C   UNL     1      -8.726  11.297   9.788  1.00  0.00     0.055 A 
ATOM     54  C   UNL     1      -7.894  13.028   8.342  1.00  0.00     0.041 A 
ATOM     55  F   UNL     1      -7.389  12.531   6.111  1.00  0.00    -0.206 F 
ATOM     56  C   UNL     1      -8.366  12.633   9.589  1.00  0.00     0.022 A 
BRANCH  53  57
ATOM     57  S   UNL     1      -9.475  10.785  11.358  1.00  0.00     0.124 S 
ATOM     58  O   UNL     1     -10.730  10.190  10.911  1.00  0.00    -0.237 OA
ATOM     59  O   UNL     1      -8.476   9.858  11.879  1.00  0.00    -0.237 OA
ATOM     60  O   UNL     1      -9.608  12.039  12.096  1.00  0.00    -0.744 OA
ENDBRANCH  53  57
ENDBRANCH  26  50
BRANCH  38  61
ATOM     61  C   UNL     1     -12.942   7.174   3.918  1.00  0.00     0.023 A 
ATOM     62  C   UNL     1     -13.778   8.272   3.656  1.00  0.00     0.031 A 
ATOM     63  C   UNL     1     -13.531   5.977   4.360  1.00  0.00     0.131 A 
ATOM     64  C   UNL     1     -15.157   8.168   3.887  1.00  0.00     0.055 A 
ATOM     65  C   UNL     1     -14.910   5.863   4.535  1.00  0.00     0.041 A 
ATOM     66  F   UNL     1     -12.774   4.901   4.628  1.00  0.00    -0.206 F 
ATOM     67  C   UNL     1     -15.730   6.965   4.310  1.00  0.00     0.022 A 
BRANCH  64  68
ATOM     68  S   UNL     1     -16.186   9.649   3.698  1.00  0.00     0.124 S 
ATOM     69  O   UNL     1     -15.636  10.532   4.721  1.00  0.00    -0.237 OA
ATOM     70  O   UNL     1     -15.927  10.037   2.315  1.00  0.00    -0.237 OA
ATOM     71  O   UNL     1     -17.539   9.162   3.960  1.00  0.00    -0.744 OA
ENDBRANCH  64  68
ENDBRANCH  38  61
ENDBRANCH  12  13
ENDBRANCH   5   7
ENDBRANCH   2   3
ENDBRANCH   1   2
BRANCH   1  72
ATOM     72  C   UNL     1       4.001   6.374   2.715  1.00  0.00     0.023 C 
BRANCH  72  73
ATOM     73  C   UNL     1       4.134   6.026   4.193  1.00  0.00     0.116 C 
BRANCH  73  74
ATOM     74  N   UNL     1       4.503   4.641   4.401  1.00  0.00    -0.356 N 
ATOM     75  C   UNL     1       5.665   3.997   4.655  1.00  0.00     0.227 C 
ATOM     76  H   UNL     1       3.733   4.030   4.346  1.00  0.00     0.163 HD
ATOM     77  O   UNL     1       5.559   2.773   4.825  1.00  0.00    -0.274 OA
BRANCH  75  78
ATOM     78  C   UNL     1       7.065   4.635   4.736  1.00  0.00     0.103 C 
ATOM     79  C   UNL     1       7.701   4.241   6.055  1.00  0.00    -0.016 C 
ATOM     80  C   UNL     1       7.316   6.139   4.758  1.00  0.00     0.047 C 
ATOM     81  C   UNL     1       7.852   5.285   6.883  1.00  0.00    -0.006 C 
ATOM     82  C   UNL     1       7.408   6.546   6.239  1.00  0.00     0.106 C 
BRANCH  82  83
ATOM     83  N   UNL     1       6.197   7.127   6.803  1.00  0.00    -0.350 N 
ATOM     84  C   UNL     1       5.026   6.657   7.314  1.00  0.00     0.224 C 
ATOM     85  H   UNL     1       6.236   8.111   6.818  1.00  0.00     0.164 HD
ATOM     86  O   UNL     1       4.085   7.456   7.343  1.00  0.00    -0.275 OA
BRANCH  84  87
ATOM     87  C   UNL     1       4.889   5.251   7.874  1.00  0.00     0.089 C 
ATOM     88  C   UNL     1       3.454   4.722   7.864  1.00  0.00     0.025 C 
ATOM     89  C   UNL     1       5.410   5.198   9.305  1.00  0.00     0.083 C 
ATOM     90  C   UNL     1       2.735   5.231   9.098  1.00  0.00     0.070 C 
ATOM     91  S   UNL     1       3.973   5.136  10.413  1.00  0.00    -0.161 SA
ENDBRANCH  84  87
ENDBRANCH  82  83
ENDBRANCH  75  78
ENDBRANCH  73  74
ENDBRANCH  72  73
ENDBRANCH   1  72
TORSDOF 16
