REMARK SMILES O=C(NCCCCNC(=O)C1(CCc2ccccn2)CCCCC1)c1ccc(-c2c3nc(c(-c4cc(S(=O)(=O)[O-])ccc4F)c4ccc([nH]4)c(-c4cc(S(=O)(=O)[O-])ccc4F)c4nc(c(-c5cc(S(=O)(=O)[O-])ccc5F)c5ccc2[nH]5)C=C4)C=C3)cc1
REMARK SMILES IDX 5 1 4 2 3 3 1 4 2 5 25 7 26 8 87 9 27 10 86 11 28 12 29 13
REMARK SMILES IDX 30 14 80 15 31 16 85 17 79 18 81 19 32 20 84 21 78 22 77 23
REMARK SMILES IDX 33 25 65 26 45 27 64 28 46 29 49 30 63 31 82 32 47 33 48 34
REMARK SMILES IDX 62 36 83 37 50 38 34 39 35 40 43 41 36 42 42 43 44 44 41 45
REMARK SMILES IDX 37 46 38 47 39 48 40 49 66 50 67 51 75 52 68 53 74 54 76 55
REMARK SMILES IDX 73 56 69 57 70 58 71 59 72 60 51 61 52 62 60 63 53 64 59 65
REMARK SMILES IDX 61 66 58 67 54 68 55 69 56 70 57 71 6 72 7 73 8 74 9 75
REMARK SMILES IDX 10 77 11 78 20 79 24 80 21 81 23 82 22 83 12 84 13 85 14 86
REMARK SMILES IDX 15 87 19 88 16 89 18 90 17 91
REMARK H PARENT 3 6 81 24 49 35 8 76
REMARK Flexibility Score: inf
ROOT
ATOM      1  C   UNL     1       4.810  -0.587  -2.642  1.00  0.00     0.023 C 
ENDROOT
BRANCH   1   2
ATOM      2  C   UNL     1       4.468  -0.204  -1.206  1.00  0.00     0.116 C 
BRANCH   2   3
ATOM      3  N   UNL     1       3.055   0.080  -0.983  1.00  0.00    -0.352 N 
ATOM      4  O   UNL     1       1.118   0.069   0.193  1.00  0.00    -0.269 OA
ATOM      5  C   UNL     1       2.318  -0.154   0.160  1.00  0.00     0.251 C 
ATOM      6  H   UNL     1       2.570   0.488  -1.736  1.00  0.00     0.163 HD
BRANCH   5   7
ATOM      7  C   UNL     1       3.018  -0.721   1.331  1.00  0.00     0.039 A 
ATOM      8  C   UNL     1       4.192  -0.120   1.787  1.00  0.00     0.014 A 
ATOM      9  C   UNL     1       2.554  -1.908   1.901  1.00  0.00     0.014 A 
ATOM     10  C   UNL     1       4.987  -0.794   2.701  1.00  0.00     0.010 A 
ATOM     11  C   UNL     1       3.314  -2.537   2.891  1.00  0.00     0.010 A 
ATOM     12  C   UNL     1       4.556  -2.005   3.270  1.00  0.00    -0.014 A 
BRANCH  12  13
ATOM     13  C   UNL     1       5.417  -2.654   4.292  1.00  0.00     0.031 A 
ATOM     14  C   UNL     1       6.059  -3.990   4.042  1.00  0.00     0.074 A 
ATOM     15  C   UNL     1       5.670  -1.974   5.427  1.00  0.00     0.049 A 
ATOM     16  N   UNL     1       6.879  -4.664   4.808  1.00  0.00    -0.248 NA
ATOM     17  C   UNL     1       5.734  -4.663   2.776  1.00  0.00     0.031 C 
ATOM     18  C   UNL     1       5.087  -0.672   5.771  1.00  0.00     0.029 A 
ATOM     19  N   UNL     1       6.499  -2.253   6.481  1.00  0.00    -0.354 N 
ATOM     20  C   UNL     1       7.162  -5.843   4.127  1.00  0.00     0.074 A 
ATOM     21  C   UNL     1       6.396  -5.806   2.898  1.00  0.00     0.031 C 
ATOM     22  C   UNL     1       5.625  -0.239   6.918  1.00  0.00     0.029 A 
ATOM     23  C   UNL     1       6.530  -1.259   7.431  1.00  0.00     0.049 A 
ATOM     24  H   UNL     1       7.022  -3.084   6.551  1.00  0.00     0.167 HD
ATOM     25  C   UNL     1       7.989  -6.855   4.492  1.00  0.00     0.034 A 
ATOM     26  C   UNL     1       7.199  -1.182   8.597  1.00  0.00     0.034 A 
ATOM     27  C   UNL     1       8.742  -6.871   5.726  1.00  0.00     0.049 A 
ATOM     28  C   UNL     1       8.104  -2.320   8.978  1.00  0.00     0.074 A 
ATOM     29  C   UNL     1       9.601  -7.847   6.204  1.00  0.00     0.029 A 
ATOM     30  N   UNL     1       8.726  -5.861   6.682  1.00  0.00    -0.354 N 
ATOM     31  N   UNL     1       8.349  -3.432   8.323  1.00  0.00    -0.248 NA
ATOM     32  C   UNL     1       8.825  -2.190  10.248  1.00  0.00     0.031 C 
ATOM     33  C   UNL     1      10.062  -7.452   7.466  1.00  0.00     0.029 A 
ATOM     34  C   UNL     1       9.545  -6.199   7.750  1.00  0.00     0.049 A 
ATOM     35  H   UNL     1       8.209  -5.027   6.611  1.00  0.00     0.167 HD
ATOM     36  C   UNL     1       9.257  -4.136   9.106  1.00  0.00     0.074 A 
ATOM     37  C   UNL     1       9.545  -3.301  10.256  1.00  0.00     0.031 C 
ATOM     38  C   UNL     1       9.796  -5.365   8.902  1.00  0.00     0.034 A 
BRANCH  25  39
ATOM     39  C   UNL     1       8.090  -8.044   3.565  1.00  0.00     0.023 A 
ATOM     40  C   UNL     1       8.646  -7.934   2.278  1.00  0.00     0.031 A 
ATOM     41  C   UNL     1       7.616  -9.305   3.970  1.00  0.00     0.131 A 
ATOM     42  C   UNL     1       8.663  -9.048   1.424  1.00  0.00     0.055 A 
ATOM     43  C   UNL     1       7.700 -10.426   3.141  1.00  0.00     0.041 A 
ATOM     44  F   UNL     1       7.057  -9.469   5.180  1.00  0.00    -0.206 F 
ATOM     45  C   UNL     1       8.216 -10.299   1.855  1.00  0.00     0.022 A 
BRANCH  42  46
ATOM     46  S   UNL     1       9.171  -8.812  -0.302  1.00  0.00     0.124 S 
ATOM     47  O   UNL     1       8.189  -7.836  -0.768  1.00  0.00    -0.237 OA
ATOM     48  O   UNL     1      10.539  -8.326  -0.165  1.00  0.00    -0.237 OA
ATOM     49  O   UNL     1       9.038 -10.146  -0.885  1.00  0.00    -0.744 OA
ENDBRANCH  42  46
ENDBRANCH  25  39
BRANCH  26  50
ATOM     50  C   UNL     1       7.003  -0.010   9.494  1.00  0.00     0.023 A 
ATOM     51  C   UNL     1       8.059   0.861   9.800  1.00  0.00     0.031 A 
ATOM     52  C   UNL     1       5.747   0.245  10.076  1.00  0.00     0.131 A 
ATOM     53  C   UNL     1       7.851   1.923  10.694  1.00  0.00     0.055 A 
ATOM     54  C   UNL     1       5.530   1.335  10.918  1.00  0.00     0.041 A 
ATOM     55  F   UNL     1       4.701  -0.555   9.811  1.00  0.00    -0.206 F 
ATOM     56  C   UNL     1       6.590   2.174  11.242  1.00  0.00     0.022 A 
BRANCH  53  57
ATOM     57  S   UNL     1       9.275   2.924  11.200  1.00  0.00     0.124 S 
ATOM     58  O   UNL     1      10.193   1.907  11.700  1.00  0.00    -0.237 OA
ATOM     59  O   UNL     1       9.652   3.567   9.946  1.00  0.00    -0.237 OA
ATOM     60  O   UNL     1       8.720   3.816  12.215  1.00  0.00    -0.744 OA
ENDBRANCH  53  57
ENDBRANCH  26  50
BRANCH  38  61
ATOM     61  C   UNL     1      10.758  -5.854   9.954  1.00  0.00     0.023 A 
ATOM     62  C   UNL     1      10.327  -6.145  11.261  1.00  0.00     0.031 A 
ATOM     63  C   UNL     1      12.128  -5.975   9.665  1.00  0.00     0.131 A 
ATOM     64  C   UNL     1      11.267  -6.471  12.249  1.00  0.00     0.055 A 
ATOM     65  C   UNL     1      13.051  -6.360  10.638  1.00  0.00     0.041 A 
ATOM     66  F   UNL     1      12.592  -5.707   8.434  1.00  0.00    -0.206 F 
ATOM     67  C   UNL     1      12.624  -6.594  11.943  1.00  0.00     0.022 A 
BRANCH  64  68
ATOM     68  S   UNL     1      10.704  -6.620  13.967  1.00  0.00     0.124 S 
ATOM     69  O   UNL     1      10.096  -5.314  14.201  1.00  0.00    -0.237 OA
ATOM     70  O   UNL     1       9.781  -7.748  13.896  1.00  0.00    -0.237 OA
ATOM     71  O   UNL     1      11.936  -6.872  14.711  1.00  0.00    -0.744 OA
ENDBRANCH  64  68
ENDBRANCH  38  61
ENDBRANCH  12  13
ENDBRANCH   5   7
ENDBRANCH   2   3
ENDBRANCH   1   2
BRANCH   1  72
ATOM     72  C   UNL     1       4.324   0.388  -3.712  1.00  0.00     0.023 C 
BRANCH  72  73
ATOM     73  C   UNL     1       4.757   1.831  -3.492  1.00  0.00     0.116 C 
BRANCH  73  74
ATOM     74  N   UNL     1       6.116   2.088  -3.933  1.00  0.00    -0.356 N 
ATOM     75  C   UNL     1       6.521   3.294  -4.433  1.00  0.00     0.226 C 
ATOM     76  H   UNL     1       6.776   1.360  -3.868  1.00  0.00     0.163 HD
ATOM     77  O   UNL     1       7.315   3.955  -3.757  1.00  0.00    -0.274 OA
BRANCH  75  78
ATOM     78  C   UNL     1       6.125   3.730  -5.871  1.00  0.00     0.050 C 
ATOM     79  C   UNL     1       4.669   3.346  -6.244  1.00  0.00     0.017 C 
ATOM     80  C   UNL     1       6.227   5.281  -5.904  1.00  0.00     0.017 C 
ATOM     81  C   UNL     1       4.149   3.973  -7.537  1.00  0.00     0.001 C 
ATOM     82  C   UNL     1       5.688   5.926  -7.179  1.00  0.00     0.001 C 
ATOM     83  C   UNL     1       4.258   5.489  -7.473  1.00  0.00     0.000 C 
BRANCH  78  84
ATOM     84  C   UNL     1       7.089   3.033  -6.888  1.00  0.00     0.023 C 
BRANCH  84  85
ATOM     85  C   UNL     1       8.588   3.387  -6.845  1.00  0.00     0.057 C 
BRANCH  85  86
ATOM     86  C   UNL     1       9.378   2.722  -5.749  1.00  0.00     0.040 A 
ATOM     87  C   UNL     1      10.214   3.475  -4.927  1.00  0.00     0.024 A 
ATOM     88  N   UNL     1       9.274   1.375  -5.641  1.00  0.00    -0.261 NA
ATOM     89  C   UNL     1      10.935   2.828  -3.927  1.00  0.00     0.003 A 
ATOM     90  C   UNL     1       9.986   0.775  -4.660  1.00  0.00     0.111 A 
ATOM     91  C   UNL     1      10.816   1.452  -3.785  1.00  0.00     0.020 A 
ENDBRANCH  85  86
ENDBRANCH  84  85
ENDBRANCH  78  84
ENDBRANCH  75  78
ENDBRANCH  73  74
ENDBRANCH  72  73
ENDBRANCH   1  72
TORSDOF 17
