REMARK SMILES Cc1ccc(NC(=O)NC[C@@H]2CC[C@@H](C(=O)NCCCCNC(=O)c3ccc(-c4c5nc(c(-c6cc(S(=O)(=O)[O-])ccc6F)c6ccc([nH]6)c(-c6cc(S(=O)(=O)[O-])ccc6F)c6nc(c(-c7cc(S(=O)(=O)[O-])ccc7F)c7ccc4[nH]7)C=C6)C=C5)cc3)O2)c(F)c1
REMARK SMILES IDX 19 1 18 2 17 3 15 4 16 5 14 7 11 8 12 9 88 10 13 11 10 12
REMARK SMILES IDX 9 13 6 14 7 15 8 17 5 19 1 20 2 21 3 22 91 23 4 24 89 25
REMARK SMILES IDX 90 26 20 27 21 28 22 29 23 30 24 32 25 33 26 34 87 35 27 36
REMARK SMILES IDX 86 37 28 38 29 39 30 40 80 41 31 42 85 43 79 44 81 45 32 46
REMARK SMILES IDX 84 47 78 48 77 49 33 51 65 52 45 53 64 54 46 55 49 56 63 57
REMARK SMILES IDX 82 58 47 59 48 60 62 62 83 63 50 64 34 65 35 66 43 67 36 68
REMARK SMILES IDX 42 69 44 70 41 71 37 72 38 73 39 74 40 75 66 76 67 77 75 78
REMARK SMILES IDX 68 79 74 80 76 81 73 82 69 83 70 84 71 85 72 86 51 87 52 88
REMARK SMILES IDX 60 89 53 90 59 91 61 92 58 93 54 94 55 95 56 96 57 97
REMARK H PARENT 17 6 6 16 9 18 22 31 81 50 49 61
REMARK Flexibility Score: inf
ROOT
ATOM      1  C   UNL     1      -6.487   6.241  -0.328  1.00  0.00     0.023 C 
ENDROOT
BRANCH   1   2
ATOM      2  C   UNL     1      -6.199   4.841  -0.853  1.00  0.00     0.116 C 
BRANCH   2   3
ATOM      3  N   UNL     1      -5.681   4.887  -2.208  1.00  0.00    -0.354 N 
ATOM      4  C   UNL     1      -4.385   4.698  -2.601  1.00  0.00     0.249 C 
ATOM      5  O   UNL     1      -4.077   4.888  -3.777  1.00  0.00    -0.272 OA
ATOM      6  H   UNL     1      -6.333   5.075  -2.921  1.00  0.00     0.163 HD
BRANCH   4   7
ATOM      7  C   UNL     1      -3.377   4.305  -1.517  1.00  0.00     0.207 C 
ATOM      8  C   UNL     1      -2.758   2.114  -0.973  1.00  0.00     0.138 C 
ATOM      9  C   UNL     1      -1.501   2.947  -1.144  1.00  0.00     0.037 C 
ATOM     10  O   UNL     1      -3.796   3.097  -0.846  1.00  0.00    -0.363 OA
ATOM     11  C   UNL     1      -1.982   4.049  -2.051  1.00  0.00     0.045 C 
BRANCH   8  12
ATOM     12  C   UNL     1      -2.775   1.172   0.248  1.00  0.00     0.149 C 
BRANCH  12  13
ATOM     13  N   UNL     1      -3.463  -0.085  -0.051  1.00  0.00    -0.335 N 
ATOM     14  N   UNL     1      -1.886  -1.881   0.075  1.00  0.00    -0.305 N 
ATOM     15  C   UNL     1      -3.130  -1.384  -0.059  1.00  0.00     0.319 C 
ATOM     16  H   UNL     1      -1.886  -2.824   0.358  1.00  0.00     0.171 HD
ATOM     17  O   UNL     1      -4.059  -2.200  -0.090  1.00  0.00    -0.249 OA
ATOM     18  H   UNL     1      -4.401   0.059  -0.312  1.00  0.00     0.165 HD
BRANCH  14  19
ATOM     19  C   UNL     1      -0.592  -1.372  -0.096  1.00  0.00     0.078 A 
ATOM     20  C   UNL     1       3.240   0.565   0.202  1.00  0.00     0.044 C 
ATOM     21  C   UNL     1       1.970  -0.199  -0.020  1.00  0.00    -0.048 A 
ATOM     22  C   UNL     1       1.730  -1.419   0.619  1.00  0.00     0.006 A 
ATOM     23  C   UNL     1       0.967   0.335  -0.825  1.00  0.00     0.045 A 
ATOM     24  C   UNL     1       0.458  -2.006   0.575  1.00  0.00     0.029 A 
ATOM     25  C   UNL     1      -0.275  -0.291  -0.904  1.00  0.00     0.147 A 
ATOM     26  F   UNL     1      -1.156   0.153  -1.806  1.00  0.00    -0.205 F 
ENDBRANCH  14  19
ENDBRANCH  12  13
ENDBRANCH   8  12
ENDBRANCH   4   7
ENDBRANCH   2   3
ENDBRANCH   1   2
BRANCH   1  27
ATOM     27  C   UNL     1      -7.580   6.971  -1.104  1.00  0.00     0.023 C 
BRANCH  27  28
ATOM     28  C   UNL     1      -8.863   6.171  -1.280  1.00  0.00     0.116 C 
BRANCH  28  29
ATOM     29  N   UNL     1      -9.438   5.757  -0.010  1.00  0.00    -0.352 N 
ATOM     30  C   UNL     1     -10.749   5.826   0.398  1.00  0.00     0.251 C 
ATOM     31  H   UNL     1      -8.806   5.379   0.643  1.00  0.00     0.163 HD
ATOM     32  O   UNL     1     -11.042   5.603   1.563  1.00  0.00    -0.269 OA
BRANCH  30  33
ATOM     33  C   UNL     1     -11.782   6.210  -0.588  1.00  0.00     0.039 A 
ATOM     34  C   UNL     1     -12.721   7.179  -0.233  1.00  0.00     0.014 A 
ATOM     35  C   UNL     1     -11.791   5.648  -1.868  1.00  0.00     0.014 A 
ATOM     36  C   UNL     1     -13.639   7.622  -1.186  1.00  0.00     0.010 A 
ATOM     37  C   UNL     1     -12.644   6.160  -2.840  1.00  0.00     0.010 A 
ATOM     38  C   UNL     1     -13.586   7.143  -2.507  1.00  0.00    -0.014 A 
BRANCH  38  39
ATOM     39  C   UNL     1     -14.523   7.660  -3.538  1.00  0.00     0.031 A 
ATOM     40  C   UNL     1     -15.502   6.732  -4.205  1.00  0.00     0.074 A 
ATOM     41  C   UNL     1     -14.466   8.959  -3.896  1.00  0.00     0.049 A 
ATOM     42  N   UNL     1     -16.400   6.997  -5.119  1.00  0.00    -0.248 NA
ATOM     43  C   UNL     1     -15.441   5.314  -3.819  1.00  0.00     0.031 C 
ATOM     44  C   UNL     1     -13.515   9.939  -3.365  1.00  0.00     0.029 A 
ATOM     45  N   UNL     1     -15.221   9.680  -4.786  1.00  0.00    -0.354 N 
ATOM     46  C   UNL     1     -17.002   5.780  -5.424  1.00  0.00     0.074 A 
ATOM     47  C   UNL     1     -16.315   4.769  -4.650  1.00  0.00     0.031 C 
ATOM     48  C   UNL     1     -13.771  11.139  -3.909  1.00  0.00     0.029 A 
ATOM     49  C   UNL     1     -14.870  11.009  -4.861  1.00  0.00     0.049 A 
ATOM     50  H   UNL     1     -15.947   9.284  -5.321  1.00  0.00     0.167 HD
ATOM     51  C   UNL     1     -18.048   5.534  -6.251  1.00  0.00     0.034 A 
ATOM     52  C   UNL     1     -15.372  12.008  -5.613  1.00  0.00     0.034 A 
ATOM     53  C   UNL     1     -18.724   6.561  -7.006  1.00  0.00     0.049 A 
ATOM     54  C   UNL     1     -16.533  11.713  -6.529  1.00  0.00     0.074 A 
ATOM     55  C   UNL     1     -19.837   6.438  -7.820  1.00  0.00     0.029 A 
ATOM     56  N   UNL     1     -18.343   7.897  -7.056  1.00  0.00    -0.354 N 
ATOM     57  N   UNL     1     -17.144  10.570  -6.746  1.00  0.00    -0.248 NA
ATOM     58  C   UNL     1     -17.083  12.844  -7.286  1.00  0.00     0.031 C 
ATOM     59  C   UNL     1     -20.076   7.676  -8.425  1.00  0.00     0.029 A 
ATOM     60  C   UNL     1     -19.175   8.598  -7.916  1.00  0.00     0.049 A 
ATOM     61  H   UNL     1     -17.593   8.288  -6.553  1.00  0.00     0.167 HD
ATOM     62  C   UNL     1     -18.172  10.854  -7.641  1.00  0.00     0.074 A 
ATOM     63  C   UNL     1     -18.106  12.277  -7.909  1.00  0.00     0.031 C 
ATOM     64  C   UNL     1     -19.092  10.016  -8.186  1.00  0.00     0.034 A 
BRANCH  51  65
ATOM     65  C   UNL     1     -18.497   4.098  -6.400  1.00  0.00     0.023 A 
ATOM     66  C   UNL     1     -18.966   3.348  -5.306  1.00  0.00     0.031 A 
ATOM     67  C   UNL     1     -18.428   3.458  -7.650  1.00  0.00     0.131 A 
ATOM     68  C   UNL     1     -19.264   1.986  -5.464  1.00  0.00     0.055 A 
ATOM     69  C   UNL     1     -18.814   2.126  -7.819  1.00  0.00     0.041 A 
ATOM     70  F   UNL     1     -17.968   4.111  -8.729  1.00  0.00    -0.206 F 
ATOM     71  C   UNL     1     -19.219   1.377  -6.719  1.00  0.00     0.022 A 
BRANCH  68  72
ATOM     72  S   UNL     1     -19.554   0.985  -3.979  1.00  0.00     0.124 S 
ATOM     73  O   UNL     1     -18.316   1.200  -3.232  1.00  0.00    -0.237 OA
ATOM     74  O   UNL     1     -20.753   1.595  -3.416  1.00  0.00    -0.237 OA
ATOM     75  O   UNL     1     -19.728  -0.367  -4.505  1.00  0.00    -0.744 OA
ENDBRANCH  68  72
ENDBRANCH  51  65
BRANCH  52  76
ATOM     76  C   UNL     1     -14.780  13.376  -5.538  1.00  0.00     0.023 A 
ATOM     77  C   UNL     1     -15.522  14.470  -5.064  1.00  0.00     0.031 A 
ATOM     78  C   UNL     1     -13.461  13.612  -5.968  1.00  0.00     0.131 A 
ATOM     79  C   UNL     1     -14.957  15.755  -5.073  1.00  0.00     0.055 A 
ATOM     80  C   UNL     1     -12.885  14.882  -5.921  1.00  0.00     0.041 A 
ATOM     81  F   UNL     1     -12.705  12.601  -6.427  1.00  0.00    -0.206 F 
ATOM     82  C   UNL     1     -13.638  15.966  -5.483  1.00  0.00     0.022 A 
BRANCH  79  83
ATOM     83  S   UNL     1     -15.999  17.168  -4.618  1.00  0.00     0.124 S 
ATOM     84  O   UNL     1     -17.084  17.062  -5.587  1.00  0.00    -0.237 OA
ATOM     85  O   UNL     1     -16.342  16.859  -3.234  1.00  0.00    -0.237 OA
ATOM     86  O   UNL     1     -15.113  18.316  -4.796  1.00  0.00    -0.744 OA
ENDBRANCH  79  83
ENDBRANCH  52  76
BRANCH  64  87
ATOM     87  C   UNL     1     -20.136  10.631  -9.088  1.00  0.00     0.023 A 
ATOM     88  C   UNL     1     -19.802  11.230 -10.316  1.00  0.00     0.031 A 
ATOM     89  C   UNL     1     -21.490  10.624  -8.705  1.00  0.00     0.131 A 
ATOM     90  C   UNL     1     -20.799  11.851 -11.084  1.00  0.00     0.055 A 
ATOM     91  C   UNL     1     -22.486  11.179  -9.508  1.00  0.00     0.041 A 
ATOM     92  F   UNL     1     -21.868  10.071  -7.541  1.00  0.00    -0.206 F 
ATOM     93  C   UNL     1     -22.141  11.811 -10.698  1.00  0.00     0.022 A 
BRANCH  90  94
ATOM     94  S   UNL     1     -20.305  12.810 -12.543  1.00  0.00     0.124 S 
ATOM     95  O   UNL     1     -19.376  13.778 -11.968  1.00  0.00    -0.237 OA
ATOM     96  O   UNL     1     -19.712  11.789 -13.401  1.00  0.00    -0.237 OA
ATOM     97  O   UNL     1     -21.564  13.371 -13.027  1.00  0.00    -0.744 OA
ENDBRANCH  90  94
ENDBRANCH  64  87
ENDBRANCH  38  39
ENDBRANCH  30  33
ENDBRANCH  28  29
ENDBRANCH  27  28
ENDBRANCH   1  27
TORSDOF 17
