REMARK SMILES CC(=O)N[C@@H](C)C(=O)N1CCC[C@H]1C(=O)NCCCCNC(=O)c1ccc(-c2c3nc(c(-c4cc(S(=O)(=O)[O-])ccc4F)c4ccc([nH]4)c(-c4cc(S(=O)(=O)[O-])ccc4F)c4nc(c(-c5cc(S(=O)(=O)[O-])ccc5F)c5ccc2[nH]5)C=C4)C=C3)cc1
REMARK SMILES IDX 18 1 17 2 16 3 14 4 15 5 13 7 9 8 10 9 11 10 12 11 7 12 8 13
REMARK SMILES IDX 5 14 6 15 4 16 1 17 2 18 3 19 19 21 20 22 21 23 22 24 23 26
REMARK SMILES IDX 24 27 25 28 86 29 26 30 85 31 27 32 28 33 29 34 79 35 30 36
REMARK SMILES IDX 84 37 78 38 80 39 31 40 83 41 77 42 76 43 32 45 64 46 44 47
REMARK SMILES IDX 63 48 45 49 48 50 62 51 81 52 46 53 47 54 61 56 82 57 49 58
REMARK SMILES IDX 33 59 34 60 42 61 35 62 41 63 43 64 40 65 36 66 37 67 38 68
REMARK SMILES IDX 39 69 65 70 66 71 74 72 67 73 73 74 75 75 72 76 68 77 69 78
REMARK SMILES IDX 70 79 71 80 50 81 51 82 59 83 52 84 58 85 60 86 57 87 53 88
REMARK SMILES IDX 54 89 55 90 56 91
REMARK H PARENT 16 6 4 20 21 25 80 44 48 55
REMARK Flexibility Score: inf
ROOT
ATOM      1  C   UNL     1      -0.088  -0.512   5.095  1.00  0.00     0.023 C 
ENDROOT
BRANCH   1   2
ATOM      2  C   UNL     1      -1.030   0.681   4.938  1.00  0.00     0.116 C 
BRANCH   2   3
ATOM      3  N   UNL     1      -1.040   1.496   6.131  1.00  0.00    -0.354 N 
ATOM      4  C   UNL     1      -0.278   2.549   6.512  1.00  0.00     0.242 C 
ATOM      5  O   UNL     1      -0.419   2.917   7.688  1.00  0.00    -0.273 OA
ATOM      6  H   UNL     1      -1.727   1.238   6.788  1.00  0.00     0.163 HD
BRANCH   4   7
ATOM      7  C   UNL     1       0.727   3.310   5.602  1.00  0.00     0.174 C 
ATOM      8  N   UNL     1       0.863   3.069   4.155  1.00  0.00    -0.329 N 
ATOM      9  C   UNL     1       0.268   4.159   3.410  1.00  0.00     0.120 C 
ATOM     10  C   UNL     1       0.481   5.365   4.299  1.00  0.00     0.024 C 
ATOM     11  C   UNL     1       0.358   4.809   5.707  1.00  0.00     0.037 C 
BRANCH   8  12
ATOM     12  C   UNL     1       1.695   2.070   3.696  1.00  0.00     0.245 C 
ATOM     13  O   UNL     1       2.346   1.397   4.506  1.00  0.00    -0.272 OA
BRANCH  12  14
ATOM     14  C   UNL     1       1.998   1.866   2.186  1.00  0.00     0.168 C 
ATOM     15  C   UNL     1       3.244   2.680   1.837  1.00  0.00     0.041 C 
BRANCH  14  16
ATOM     16  N   UNL     1       0.947   2.120   1.201  1.00  0.00    -0.345 N 
ATOM     17  C   UNL     1       1.002  -0.096   0.108  1.00  0.00     0.114 C 
ATOM     18  C   UNL     1       0.509   1.319   0.191  1.00  0.00     0.217 C 
ATOM     19  O   UNL     1      -0.281   1.787  -0.627  1.00  0.00    -0.275 OA
ATOM     20  H   UNL     1       0.493   2.990   1.279  1.00  0.00     0.164 HD
ENDBRANCH  14  16
ENDBRANCH  12  14
ENDBRANCH   8  12
ENDBRANCH   4   7
ENDBRANCH   2   3
ENDBRANCH   1   2
BRANCH   1  21
ATOM     21  C   UNL     1      -0.664  -1.686   5.893  1.00  0.00     0.023 C 
BRANCH  21  22
ATOM     22  C   UNL     1      -1.927  -2.314   5.312  1.00  0.00     0.116 C 
BRANCH  22  23
ATOM     23  N   UNL     1      -1.778  -2.749   3.933  1.00  0.00    -0.352 N 
ATOM     24  C   UNL     1      -2.432  -3.774   3.287  1.00  0.00     0.251 C 
ATOM     25  H   UNL     1      -1.127  -2.247   3.392  1.00  0.00     0.163 HD
ATOM     26  O   UNL     1      -2.120  -4.076   2.143  1.00  0.00    -0.269 OA
BRANCH  24  27
ATOM     27  C   UNL     1      -3.473  -4.532   4.016  1.00  0.00     0.039 A 
ATOM     28  C   UNL     1      -3.389  -5.926   4.047  1.00  0.00     0.014 A 
ATOM     29  C   UNL     1      -4.487  -3.868   4.710  1.00  0.00     0.014 A 
ATOM     30  C   UNL     1      -4.280  -6.651   4.841  1.00  0.00     0.010 A 
ATOM     31  C   UNL     1      -5.332  -4.588   5.551  1.00  0.00     0.010 A 
ATOM     32  C   UNL     1      -5.231  -5.985   5.631  1.00  0.00    -0.014 A 
BRANCH  32  33
ATOM     33  C   UNL     1      -6.127  -6.731   6.553  1.00  0.00     0.031 A 
ATOM     34  C   UNL     1      -7.613  -6.727   6.321  1.00  0.00     0.074 A 
ATOM     35  C   UNL     1      -5.609  -7.351   7.631  1.00  0.00     0.049 A 
ATOM     36  N   UNL     1      -8.568  -7.228   7.061  1.00  0.00    -0.248 NA
ATOM     37  C   UNL     1      -8.086  -6.038   5.111  1.00  0.00     0.031 C 
ATOM     38  C   UNL     1      -4.187  -7.384   7.987  1.00  0.00     0.029 A 
ATOM     39  N   UNL     1      -6.216  -8.061   8.637  1.00  0.00    -0.354 N 
ATOM     40  C   UNL     1      -9.756  -6.912   6.411  1.00  0.00     0.074 A 
ATOM     41  C   UNL     1      -9.401  -6.118   5.253  1.00  0.00     0.031 C 
ATOM     42  C   UNL     1      -4.033  -8.086   9.121  1.00  0.00     0.029 A 
ATOM     43  C   UNL     1      -5.343  -8.521   9.597  1.00  0.00     0.049 A 
ATOM     44  H   UNL     1      -7.186  -8.225   8.670  1.00  0.00     0.167 HD
ATOM     45  C   UNL     1     -11.023  -7.271   6.735  1.00  0.00     0.034 A 
ATOM     46  C   UNL     1      -5.574  -9.204  10.736  1.00  0.00     0.034 A 
ATOM     47  C   UNL     1     -11.360  -8.070   7.887  1.00  0.00     0.049 A 
ATOM     48  C   UNL     1      -6.992  -9.589  11.077  1.00  0.00     0.074 A 
ATOM     49  C   UNL     1     -12.606  -8.512   8.297  1.00  0.00     0.029 A 
ATOM     50  N   UNL     1     -10.445  -8.549   8.816  1.00  0.00    -0.354 N 
ATOM     51  N   UNL     1      -8.101  -9.310  10.431  1.00  0.00    -0.248 NA
ATOM     52  C   UNL     1      -7.187 -10.393  12.290  1.00  0.00     0.031 C 
ATOM     53  C   UNL     1     -12.450  -9.217   9.496  1.00  0.00     0.029 A 
ATOM     54  C   UNL     1     -11.100  -9.270   9.802  1.00  0.00     0.049 A 
ATOM     55  H   UNL     1      -9.473  -8.398   8.779  1.00  0.00     0.167 HD
ATOM     56  C   UNL     1      -9.121  -9.932  11.145  1.00  0.00     0.074 A 
ATOM     57  C   UNL     1      -8.493 -10.614  12.258  1.00  0.00     0.031 C 
ATOM     58  C   UNL     1     -10.456  -9.941  10.905  1.00  0.00     0.034 A 
BRANCH  45  59
ATOM     59  C   UNL     1     -12.129  -6.789   5.829  1.00  0.00     0.023 A 
ATOM     60  C   UNL     1     -12.210  -7.205   4.489  1.00  0.00     0.031 A 
ATOM     61  C   UNL     1     -13.098  -5.886   6.298  1.00  0.00     0.131 A 
ATOM     62  C   UNL     1     -13.191  -6.664   3.645  1.00  0.00     0.055 A 
ATOM     63  C   UNL     1     -14.121  -5.411   5.474  1.00  0.00     0.041 A 
ATOM     64  F   UNL     1     -13.060  -5.438   7.563  1.00  0.00    -0.206 F 
ATOM     65  C   UNL     1     -14.163  -5.789   4.134  1.00  0.00     0.022 A 
BRANCH  62  66
ATOM     66  S   UNL     1     -13.097  -7.020   1.869  1.00  0.00     0.124 S 
ATOM     67  O   UNL     1     -11.805  -6.433   1.521  1.00  0.00    -0.237 OA
ATOM     68  O   UNL     1     -13.168  -8.476   1.834  1.00  0.00    -0.237 OA
ATOM     69  O   UNL     1     -14.259  -6.325   1.319  1.00  0.00    -0.744 OA
ENDBRANCH  62  66
ENDBRANCH  45  59
BRANCH  46  70
ATOM     70  C   UNL     1      -4.450  -9.558  11.650  1.00  0.00     0.023 A 
ATOM     71  C   UNL     1      -4.107 -10.898  11.892  1.00  0.00     0.031 A 
ATOM     72  C   UNL     1      -3.740  -8.561  12.343  1.00  0.00     0.131 A 
ATOM     73  C   UNL     1      -3.125 -11.208  12.845  1.00  0.00     0.055 A 
ATOM     74  C   UNL     1      -2.726  -8.873  13.250  1.00  0.00     0.041 A 
ATOM     75  F   UNL     1      -4.023  -7.264  12.144  1.00  0.00    -0.206 F 
ATOM     76  C   UNL     1      -2.424 -10.204  13.518  1.00  0.00     0.022 A 
BRANCH  73  77
ATOM     77  S   UNL     1      -2.849 -12.950  13.271  1.00  0.00     0.124 S 
ATOM     78  O   UNL     1      -4.189 -13.380  13.650  1.00  0.00    -0.237 OA
ATOM     79  O   UNL     1      -2.333 -13.488  12.016  1.00  0.00    -0.237 OA
ATOM     80  O   UNL     1      -1.881 -12.883  14.364  1.00  0.00    -0.744 OA
ENDBRANCH  73  77
ENDBRANCH  46  70
BRANCH  58  81
ATOM     81  C   UNL     1     -11.312 -10.757  11.841  1.00  0.00     0.023 A 
ATOM     82  C   UNL     1     -11.500 -10.387  13.183  1.00  0.00     0.031 A 
ATOM     83  C   UNL     1     -11.937 -11.930  11.381  1.00  0.00     0.131 A 
ATOM     84  C   UNL     1     -12.248 -11.212  14.036  1.00  0.00     0.055 A 
ATOM     85  C   UNL     1     -12.726 -12.718  12.220  1.00  0.00     0.041 A 
ATOM     86  F   UNL     1     -11.791 -12.328  10.107  1.00  0.00    -0.206 F 
ATOM     87  C   UNL     1     -12.874 -12.367  13.559  1.00  0.00     0.022 A 
BRANCH  84  88
ATOM     88  S   UNL     1     -12.325 -10.799  15.800  1.00  0.00     0.124 S 
ATOM     89  O   UNL     1     -10.916 -10.820  16.180  1.00  0.00    -0.237 OA
ATOM     90  O   UNL     1     -12.962  -9.486  15.786  1.00  0.00    -0.237 OA
ATOM     91  O   UNL     1     -13.136 -11.874  16.369  1.00  0.00    -0.744 OA
ENDBRANCH  84  88
ENDBRANCH  58  81
ENDBRANCH  32  33
ENDBRANCH  24  27
ENDBRANCH  22  23
ENDBRANCH  21  22
ENDBRANCH   1  21
TORSDOF 17
