REMARK SMILES Cc1ccc2[nH]cc([C@@H](C(=O)NCCCCNC(=O)c3ccc(-c4c5nc(c(-c6cc(S(=O)(=O)[O-])ccc6F)c6ccc([nH]6)c(-c6cc(S(=O)(=O)[O-])ccc6F)c6nc(c(-c7cc(S(=O)(=O)[O-])ccc7F)c7ccc4[nH]7)C=C6)C=C5)cc3)[NH+]3CCN(c4ccc(F)cc4)CC3)c2c1
REMARK SMILES IDX 15 1 14 2 13 3 12 4 10 5 11 6 9 8 8 9 1 10 2 11 3 12 97 13
REMARK SMILES IDX 4 14 96 15 5 16 6 17 7 18 83 20 84 21 95 22 85 24 94 25
REMARK SMILES IDX 86 26 87 27 88 28 93 29 89 30 92 31 90 32 91 33 16 34 17 35
REMARK SMILES IDX 18 36 19 38 20 39 21 40 82 41 22 42 81 43 23 44 24 45 25 46
REMARK SMILES IDX 75 47 26 48 80 49 74 50 76 51 27 52 79 53 73 54 72 55 28 57
REMARK SMILES IDX 60 58 40 59 59 60 41 61 44 62 58 63 77 64 42 65 43 66 57 68
REMARK SMILES IDX 78 69 45 70 29 71 30 72 38 73 31 74 37 75 39 76 36 77 32 78
REMARK SMILES IDX 33 79 34 80 35 81 61 82 62 83 70 84 63 85 69 86 71 87 68 88
REMARK SMILES IDX 64 89 65 90 66 91 67 92 46 93 47 94 55 95 48 96 54 97 56 98
REMARK SMILES IDX 53 99 49 100 50 101 51 102 52 103
REMARK H PARENT 12 7 6 19 83 23 17 37 76 56 44 67
REMARK Flexibility Score: inf
ROOT
ATOM      1  C   UNL     1      -1.482  -1.123   4.868  1.00  0.00     0.023 C 
ENDROOT
BRANCH   1   2
ATOM      2  C   UNL     1      -0.857  -1.186   3.478  1.00  0.00     0.023 C 
BRANCH   2   3
ATOM      3  C   UNL     1      -0.713  -2.593   2.900  1.00  0.00     0.116 C 
BRANCH   3   4
ATOM      4  N   UNL     1      -1.997  -3.180   2.577  1.00  0.00    -0.351 N 
ATOM      5  C   UNL     1      -2.667  -3.198   1.378  1.00  0.00     0.283 C 
ATOM      6  O   UNL     1      -3.776  -3.741   1.393  1.00  0.00    -0.268 OA
ATOM      7  H   UNL     1      -2.455  -3.630   3.323  1.00  0.00     0.163 HD
BRANCH   5   8
ATOM      8  C   UNL     1      -1.985  -2.617   0.091  1.00  0.00     0.307 C 
BRANCH   8   9
ATOM      9  C   UNL     1      -1.711  -1.135   0.182  1.00  0.00     0.044 A 
ATOM     10  C   UNL     1       3.381  -0.635  -0.233  1.00  0.00     0.044 C 
ATOM     11  C   UNL     1       1.982  -0.096  -0.148  1.00  0.00    -0.050 A 
ATOM     12  C   UNL     1       1.752   1.274  -0.002  1.00  0.00     0.005 A 
ATOM     13  C   UNL     1       0.895  -0.986  -0.156  1.00  0.00     0.014 A 
ATOM     14  C   UNL     1       0.461   1.781   0.173  1.00  0.00     0.027 A 
ATOM     15  C   UNL     1      -0.419  -0.505   0.050  1.00  0.00     0.009 A 
ATOM     16  C   UNL     1      -0.596   0.867   0.224  1.00  0.00     0.046 A 
ATOM     17  N   UNL     1      -1.931   1.074   0.470  1.00  0.00    -0.361 N 
ATOM     18  C   UNL     1      -2.594  -0.121   0.515  1.00  0.00     0.094 A 
ATOM     19  H   UNL     1      -2.351   1.956   0.595  1.00  0.00     0.166 HD
ENDBRANCH   8   9
BRANCH   8  20
ATOM     20  N   UNL     1      -2.677  -3.016  -1.160  1.00  0.00    -0.318 N 
ATOM     21  C   UNL     1      -4.077  -2.607  -1.351  1.00  0.00     0.284 C 
ATOM     22  C   UNL     1      -1.907  -2.797  -2.395  1.00  0.00     0.284 C 
ATOM     23  H   UNL     1      -2.731  -4.018  -0.978  1.00  0.00     0.349 HD
ATOM     24  C   UNL     1      -4.346  -1.263  -2.060  1.00  0.00     0.178 C 
ATOM     25  C   UNL     1      -2.065  -1.416  -3.074  1.00  0.00     0.178 C 
ATOM     26  N   UNL     1      -3.481  -1.050  -3.227  1.00  0.00    -0.360 N 
BRANCH  26  27
ATOM     27  C   UNL     1      -3.707   0.113  -3.965  1.00  0.00     0.037 A 
ATOM     28  C   UNL     1      -3.850   1.375  -3.366  1.00  0.00     0.029 A 
ATOM     29  C   UNL     1      -3.797   0.024  -5.360  1.00  0.00     0.029 A 
ATOM     30  C   UNL     1      -4.117   2.510  -4.137  1.00  0.00     0.041 A 
ATOM     31  C   UNL     1      -4.067   1.154  -6.134  1.00  0.00     0.041 A 
ATOM     32  C   UNL     1      -4.231   2.385  -5.514  1.00  0.00     0.123 A 
ATOM     33  F   UNL     1      -4.503   3.468  -6.254  1.00  0.00    -0.207 F 
ENDBRANCH  26  27
ENDBRANCH   8  20
ENDBRANCH   5   8
ENDBRANCH   3   4
ENDBRANCH   2   3
ENDBRANCH   1   2
BRANCH   1  34
ATOM     34  C   UNL     1      -0.732  -1.906   5.930  1.00  0.00     0.116 C 
BRANCH  34  35
ATOM     35  N   UNL     1       0.663  -1.513   6.042  1.00  0.00    -0.352 N 
ATOM     36  C   UNL     1       1.432  -1.403   7.177  1.00  0.00     0.251 C 
ATOM     37  H   UNL     1       1.117  -1.297   5.195  1.00  0.00     0.163 HD
ATOM     38  O   UNL     1       2.555  -0.927   7.116  1.00  0.00    -0.269 OA
BRANCH  36  39
ATOM     39  C   UNL     1       0.854  -1.830   8.469  1.00  0.00     0.039 A 
ATOM     40  C   UNL     1       0.958  -0.977   9.568  1.00  0.00     0.014 A 
ATOM     41  C   UNL     1       0.169  -3.044   8.575  1.00  0.00     0.014 A 
ATOM     42  C   UNL     1       0.325  -1.319  10.763  1.00  0.00     0.010 A 
ATOM     43  C   UNL     1      -0.533  -3.340   9.737  1.00  0.00     0.010 A 
ATOM     44  C   UNL     1      -0.452  -2.486  10.847  1.00  0.00    -0.014 A 
BRANCH  44  45
ATOM     45  C   UNL     1      -1.160  -2.848  12.100  1.00  0.00     0.031 A 
ATOM     46  C   UNL     1      -0.781  -4.106  12.833  1.00  0.00     0.074 A 
ATOM     47  C   UNL     1      -2.171  -2.076  12.543  1.00  0.00     0.049 A 
ATOM     48  N   UNL     1      -1.309  -4.627  13.910  1.00  0.00    -0.248 NA
ATOM     49  C   UNL     1       0.313  -4.901  12.256  1.00  0.00     0.031 C 
ATOM     50  C   UNL     1      -2.661  -0.862  11.884  1.00  0.00     0.029 A 
ATOM     51  N   UNL     1      -2.974  -2.198  13.648  1.00  0.00    -0.354 N 
ATOM     52  C   UNL     1      -0.622  -5.816  14.130  1.00  0.00     0.074 A 
ATOM     53  C   UNL     1       0.309  -5.972  13.033  1.00  0.00     0.031 C 
ATOM     54  C   UNL     1      -3.657  -0.337  12.615  1.00  0.00     0.029 A 
ATOM     55  C   UNL     1      -3.905  -1.193  13.770  1.00  0.00     0.049 A 
ATOM     56  H   UNL     1      -2.890  -2.936  14.295  1.00  0.00     0.167 HD
ATOM     57  C   UNL     1      -0.735  -6.683  15.167  1.00  0.00     0.034 A 
ATOM     58  C   UNL     1      -4.854  -0.990  14.705  1.00  0.00     0.034 A 
ATOM     59  C   UNL     1      -1.657  -6.500  16.261  1.00  0.00     0.049 A 
ATOM     60  C   UNL     1      -4.961  -1.965  15.851  1.00  0.00     0.074 A 
ATOM     61  C   UNL     1      -1.824  -7.282  17.390  1.00  0.00     0.029 A 
ATOM     62  N   UNL     1      -2.574  -5.460  16.360  1.00  0.00    -0.354 N 
ATOM     63  N   UNL     1      -4.265  -3.056  16.076  1.00  0.00    -0.248 NA
ATOM     64  C   UNL     1      -5.969  -1.671  16.876  1.00  0.00     0.031 C 
ATOM     65  C   UNL     1      -2.881  -6.753  18.138  1.00  0.00     0.029 A 
ATOM     66  C   UNL     1      -3.325  -5.595  17.519  1.00  0.00     0.049 A 
ATOM     67  H   UNL     1      -2.676  -4.733  15.704  1.00  0.00     0.167 HD
ATOM     68  C   UNL     1      -4.730  -3.559  17.288  1.00  0.00     0.074 A 
ATOM     69  C   UNL     1      -5.752  -2.642  17.750  1.00  0.00     0.031 C 
ATOM     70  C   UNL     1      -4.347  -4.675  17.960  1.00  0.00     0.034 A 
BRANCH  57  71
ATOM     71  C   UNL     1       0.147  -7.910  15.144  1.00  0.00     0.023 A 
ATOM     72  C   UNL     1       1.550  -7.812  15.169  1.00  0.00     0.031 A 
ATOM     73  C   UNL     1      -0.419  -9.194  15.058  1.00  0.00     0.131 A 
ATOM     74  C   UNL     1       2.337  -8.963  15.021  1.00  0.00     0.055 A 
ATOM     75  C   UNL     1       0.370 -10.344  15.000  1.00  0.00     0.041 A 
ATOM     76  F   UNL     1      -1.751  -9.352  15.008  1.00  0.00    -0.206 F 
ATOM     77  C   UNL     1       1.757 -10.232  14.964  1.00  0.00     0.022 A 
BRANCH  74  78
ATOM     78  S   UNL     1       4.119  -8.765  14.750  1.00  0.00     0.124 S 
ATOM     79  O   UNL     1       4.143  -7.961  13.530  1.00  0.00    -0.237 OA
ATOM     80  O   UNL     1       4.551  -8.089  15.969  1.00  0.00    -0.237 OA
ATOM     81  O   UNL     1       4.598 -10.137  14.593  1.00  0.00    -0.744 OA
ENDBRANCH  74  78
ENDBRANCH  57  71
BRANCH  58  82
ATOM     82  C   UNL     1      -5.774   0.180  14.610  1.00  0.00     0.023 A 
ATOM     83  C   UNL     1      -5.753   1.198  15.576  1.00  0.00     0.031 A 
ATOM     84  C   UNL     1      -6.717   0.276  13.571  1.00  0.00     0.131 A 
ATOM     85  C   UNL     1      -6.689   2.242  15.514  1.00  0.00     0.055 A 
ATOM     86  C   UNL     1      -7.612   1.344  13.484  1.00  0.00     0.041 A 
ATOM     87  F   UNL     1      -6.774  -0.665  12.616  1.00  0.00    -0.206 F 
ATOM     88  C   UNL     1      -7.611   2.328  14.468  1.00  0.00     0.022 A 
BRANCH  85  89
ATOM     89  S   UNL     1      -6.741   3.444  16.872  1.00  0.00     0.124 S 
ATOM     90  O   UNL     1      -6.977   2.581  18.024  1.00  0.00    -0.237 OA
ATOM     91  O   UNL     1      -5.418   4.053  16.786  1.00  0.00    -0.237 OA
ATOM     92  O   UNL     1      -7.853   4.319  16.508  1.00  0.00    -0.744 OA
ENDBRANCH  85  89
ENDBRANCH  58  82
BRANCH  70  93
ATOM     93  C   UNL     1      -5.007  -4.928  19.294  1.00  0.00     0.023 A 
ATOM     94  C   UNL     1      -6.378  -5.222  19.398  1.00  0.00     0.031 A 
ATOM     95  C   UNL     1      -4.254  -4.853  20.479  1.00  0.00     0.131 A 
ATOM     96  C   UNL     1      -6.967  -5.364  20.663  1.00  0.00     0.055 A 
ATOM     97  C   UNL     1      -4.833  -5.061  21.732  1.00  0.00     0.041 A 
ATOM     98  F   UNL     1      -2.942  -4.575  20.439  1.00  0.00    -0.206 F 
ATOM     99  C   UNL     1      -6.200  -5.303  21.830  1.00  0.00     0.022 A 
BRANCH  96 100
ATOM    100  S   UNL     1      -8.771  -5.524  20.770  1.00  0.00     0.124 S 
ATOM    101  O   UNL     1      -9.223  -4.317  20.086  1.00  0.00    -0.237 OA
ATOM    102  O   UNL     1      -9.014  -6.782  20.071  1.00  0.00    -0.237 OA
ATOM    103  O   UNL     1      -9.028  -5.555  22.209  1.00  0.00    -0.744 OA
ENDBRANCH  96 100
ENDBRANCH  70  93
ENDBRANCH  44  45
ENDBRANCH  36  39
ENDBRANCH  34  35
ENDBRANCH   1  34
TORSDOF 17
