REMARK SMILES O=Cc1ccc2c(c1)C=C(C(=O)NCCCCNC(=O)c1ccc(-c3c4nc(c(-c5cc(S(=O)(=O)[O-])ccc5F)c5ccc([nH]5)c(-c5cc(S(=O)(=O)[O-])ccc5F)c5nc(c(-c6cc(S(=O)(=O)[O-])ccc6F)c6ccc3[nH]6)C=C5)C=C4)cc1)[C@H](C(F)(F)F)O2
REMARK SMILES IDX 16 1 15 2 14 3 13 4 11 5 12 6 10 8 3 9 4 10 8 11 5 12 7 13
REMARK SMILES IDX 6 14 9 15 89 16 84 17 2 18 1 19 85 20 86 21 87 22 88 23
REMARK SMILES IDX 17 24 18 25 19 26 20 28 21 29 22 30 83 31 23 32 82 33 24 34
REMARK SMILES IDX 25 35 26 36 76 37 27 38 81 39 75 40 77 41 28 42 80 43 74 44
REMARK SMILES IDX 73 45 29 47 61 48 41 49 60 50 42 51 45 52 59 53 78 54 43 55
REMARK SMILES IDX 44 56 58 58 79 59 46 60 30 61 31 62 39 63 32 64 38 65 40 66
REMARK SMILES IDX 37 67 33 68 34 69 35 70 36 71 62 72 63 73 71 74 64 75 70 76
REMARK SMILES IDX 72 77 69 78 65 79 66 80 67 81 68 82 47 83 48 84 56 85 49 86
REMARK SMILES IDX 55 87 57 88 54 89 50 90 51 91 52 92 53 93
REMARK H PARENT 13 7 18 27 77 46 45 57
REMARK Flexibility Score: inf
ROOT
ATOM      1  C   UNL     1       8.251  -2.708   4.989  1.00  0.00     0.023 C 
ENDROOT
BRANCH   1   2
ATOM      2  C   UNL     1       7.399  -2.454   3.741  1.00  0.00     0.023 C 
BRANCH   2   3
ATOM      3  C   UNL     1       8.111  -2.760   2.417  1.00  0.00     0.116 C 
BRANCH   3   4
ATOM      4  N   UNL     1       8.105  -4.191   2.165  1.00  0.00    -0.352 N 
ATOM      5  C   UNL     1       7.230  -5.008   1.524  1.00  0.00     0.251 C 
ATOM      6  O   UNL     1       7.408  -6.222   1.601  1.00  0.00    -0.270 OA
ATOM      7  H   UNL     1       8.889  -4.660   2.531  1.00  0.00     0.163 HD
BRANCH   5   8
ATOM      8  C   UNL     1       6.110  -4.505   0.680  1.00  0.00     0.067 C 
ATOM      9  C   UNL     1       2.639  -1.366  -0.519  1.00  0.00     0.015 A 
ATOM     10  C   UNL     1       2.383  -2.082  -1.691  1.00  0.00     0.015 A 
ATOM     11  C   UNL     1       3.613  -1.807   0.380  1.00  0.00     0.023 A 
ATOM     12  C   UNL     1       3.117  -3.236  -1.969  1.00  0.00     0.048 A 
ATOM     13  C   UNL     1       4.343  -2.969   0.098  1.00  0.00     0.018 A 
ATOM     14  C   UNL     1       4.095  -3.676  -1.076  1.00  0.00     0.128 A 
ATOM     15  C   UNL     1       5.408  -3.404   0.984  1.00  0.00     0.025 C 
ATOM     16  O   UNL     1       4.807  -4.775  -1.450  1.00  0.00    -0.475 OA
ATOM     17  C   UNL     1       5.684  -5.413  -0.472  1.00  0.00     0.314 C 
BRANCH   9  18
ATOM     18  C   UNL     1       1.900  -0.121  -0.230  1.00  0.00     0.260 C 
ATOM     19  O   UNL     1       0.993   0.279  -0.950  1.00  0.00    -0.298 OA
ENDBRANCH   9  18
BRANCH  17  20
ATOM     20  C   UNL     1       6.824  -6.094  -1.266  1.00  0.00     0.429 C 
ATOM     21  F   UNL     1       7.249  -7.244  -0.699  1.00  0.00    -0.167 F 
ATOM     22  F   UNL     1       6.402  -6.442  -2.513  1.00  0.00    -0.167 F 
ATOM     23  F   UNL     1       7.893  -5.281  -1.432  1.00  0.00    -0.167 F 
ENDBRANCH  17  20
ENDBRANCH   5   8
ENDBRANCH   3   4
ENDBRANCH   2   3
ENDBRANCH   1   2
BRANCH   1  24
ATOM     24  C   UNL     1       9.457  -1.786   5.139  1.00  0.00     0.116 C 
BRANCH  24  25
ATOM     25  N   UNL     1       9.095  -0.379   5.179  1.00  0.00    -0.352 N 
ATOM     26  C   UNL     1       9.718   0.650   5.845  1.00  0.00     0.251 C 
ATOM     27  H   UNL     1       8.296  -0.129   4.660  1.00  0.00     0.163 HD
ATOM     28  O   UNL     1       9.205   1.762   5.860  1.00  0.00    -0.269 OA
BRANCH  26  29
ATOM     29  C   UNL     1      10.978   0.388   6.574  1.00  0.00     0.039 A 
ATOM     30  C   UNL     1      11.098   0.846   7.888  1.00  0.00     0.014 A 
ATOM     31  C   UNL     1      12.021  -0.326   5.977  1.00  0.00     0.014 A 
ATOM     32  C   UNL     1      12.239   0.529   8.628  1.00  0.00     0.010 A 
ATOM     33  C   UNL     1      13.129  -0.694   6.736  1.00  0.00     0.010 A 
ATOM     34  C   UNL     1      13.248  -0.273   8.069  1.00  0.00    -0.014 A 
BRANCH  34  35
ATOM     35  C   UNL     1      14.428  -0.688   8.869  1.00  0.00     0.031 A 
ATOM     36  C   UNL     1      15.804  -0.216   8.484  1.00  0.00     0.074 A 
ATOM     37  C   UNL     1      14.265  -1.547   9.895  1.00  0.00     0.049 A 
ATOM     38  N   UNL     1      16.961  -0.525   9.009  1.00  0.00    -0.248 NA
ATOM     39  C   UNL     1      15.890   0.701   7.336  1.00  0.00     0.031 C 
ATOM     40  C   UNL     1      12.985  -2.117  10.325  1.00  0.00     0.029 A 
ATOM     41  N   UNL     1      15.179  -2.105  10.754  1.00  0.00    -0.354 N 
ATOM     42  C   UNL     1      17.914   0.141   8.246  1.00  0.00     0.074 A 
ATOM     43  C   UNL     1      17.201   0.832   7.193  1.00  0.00     0.031 C 
ATOM     44  C   UNL     1      13.195  -2.932  11.371  1.00  0.00     0.029 A 
ATOM     45  C   UNL     1      14.624  -2.975  11.664  1.00  0.00     0.049 A 
ATOM     46  H   UNL     1      16.142  -1.902  10.721  1.00  0.00     0.167 HD
ATOM     47  C   UNL     1      19.258   0.184   8.420  1.00  0.00     0.034 A 
ATOM     48  C   UNL     1      15.202  -3.732  12.618  1.00  0.00     0.034 A 
ATOM     49  C   UNL     1      19.949  -0.488   9.493  1.00  0.00     0.049 A 
ATOM     50  C   UNL     1      16.697  -3.649  12.803  1.00  0.00     0.074 A 
ATOM     51  C   UNL     1      21.296  -0.443   9.811  1.00  0.00     0.029 A 
ATOM     52  N   UNL     1      19.351  -1.333  10.419  1.00  0.00    -0.354 N 
ATOM     53  N   UNL     1      17.576  -2.953  12.119  1.00  0.00    -0.248 NA
ATOM     54  C   UNL     1      17.275  -4.439  13.898  1.00  0.00     0.031 C 
ATOM     55  C   UNL     1      21.522  -1.308  10.888  1.00  0.00     0.029 A 
ATOM     56  C   UNL     1      20.306  -1.838  11.289  1.00  0.00     0.049 A 
ATOM     57  H   UNL     1      18.390  -1.542  10.453  1.00  0.00     0.167 HD
ATOM     58  C   UNL     1      18.806  -3.200  12.722  1.00  0.00     0.074 A 
ATOM     59  C   UNL     1      18.551  -4.092  13.834  1.00  0.00     0.031 C 
ATOM     60  C   UNL     1      20.035  -2.732  12.389  1.00  0.00     0.034 A 
BRANCH  47  61
ATOM     61  C   UNL     1      20.070   0.965   7.416  1.00  0.00     0.023 A 
ATOM     62  C   UNL     1      19.938   2.357   7.277  1.00  0.00     0.031 A 
ATOM     63  C   UNL     1      20.989   0.304   6.581  1.00  0.00     0.131 A 
ATOM     64  C   UNL     1      20.665   3.034   6.287  1.00  0.00     0.055 A 
ATOM     65  C   UNL     1      21.764   0.994   5.647  1.00  0.00     0.041 A 
ATOM     66  F   UNL     1      21.143  -1.028   6.654  1.00  0.00    -0.206 F 
ATOM     67  C   UNL     1      21.596   2.366   5.487  1.00  0.00     0.022 A 
BRANCH  64  68
ATOM     68  S   UNL     1      20.292   4.782   5.978  1.00  0.00     0.124 S 
ATOM     69  O   UNL     1      18.887   4.717   5.582  1.00  0.00    -0.237 OA
ATOM     70  O   UNL     1      20.562   5.396   7.273  1.00  0.00    -0.237 OA
ATOM     71  O   UNL     1      21.218   5.147   4.909  1.00  0.00    -0.744 OA
ENDBRANCH  64  68
ENDBRANCH  47  61
BRANCH  48  72
ATOM     72  C   UNL     1      14.382  -4.646  13.464  1.00  0.00     0.023 A 
ATOM     73  C   UNL     1      14.277  -4.453  14.851  1.00  0.00     0.031 A 
ATOM     74  C   UNL     1      13.736  -5.763  12.905  1.00  0.00     0.131 A 
ATOM     75  C   UNL     1      13.593  -5.391  15.639  1.00  0.00     0.055 A 
ATOM     76  C   UNL     1      13.011  -6.665  13.686  1.00  0.00     0.041 A 
ATOM     77  F   UNL     1      13.797  -5.992  11.583  1.00  0.00    -0.206 F 
ATOM     78  C   UNL     1      12.950  -6.490  15.065  1.00  0.00     0.022 A 
BRANCH  75  79
ATOM     79  S   UNL     1      13.644  -5.210  17.443  1.00  0.00     0.124 S 
ATOM     80  O   UNL     1      15.079  -5.175  17.699  1.00  0.00    -0.237 OA
ATOM     81  O   UNL     1      12.927  -3.954  17.639  1.00  0.00    -0.237 OA
ATOM     82  O   UNL     1      12.951  -6.403  17.925  1.00  0.00    -0.744 OA
ENDBRANCH  75  79
ENDBRANCH  48  72
BRANCH  60  83
ATOM     83  C   UNL     1      21.186  -3.146  13.272  1.00  0.00     0.023 A 
ATOM     84  C   UNL     1      21.629  -4.478  13.334  1.00  0.00     0.031 A 
ATOM     85  C   UNL     1      21.837  -2.193  14.076  1.00  0.00     0.131 A 
ATOM     86  C   UNL     1      22.653  -4.833  14.223  1.00  0.00     0.055 A 
ATOM     87  C   UNL     1      22.896  -2.541  14.915  1.00  0.00     0.041 A 
ATOM     88  F   UNL     1      21.454  -0.906  14.057  1.00  0.00    -0.206 F 
ATOM     89  C   UNL     1      23.300  -3.870  15.003  1.00  0.00     0.022 A 
BRANCH  86  90
ATOM     90  S   UNL     1      23.068  -6.588  14.418  1.00  0.00     0.124 S 
ATOM     91  O   UNL     1      21.792  -7.157  14.837  1.00  0.00    -0.237 OA
ATOM     92  O   UNL     1      23.519  -6.952  13.079  1.00  0.00    -0.237 OA
ATOM     93  O   UNL     1      24.111  -6.582  15.442  1.00  0.00    -0.744 OA
ENDBRANCH  86  90
ENDBRANCH  60  83
ENDBRANCH  34  35
ENDBRANCH  26  29
ENDBRANCH  24  25
ENDBRANCH   1  24
TORSDOF 16
