REMARK SMILES N#Cc1ccc(Sc2csc(C(=O)NCCCCNC(=O)c3ccc(-c4c5nc(c(-c6cc(S(=O)(=O)[O-])ccc6F)c6ccc([nH]6)c(-c6cc(S(=O)(=O)[O-])ccc6F)c6nc(c(-c7cc(S(=O)(=O)[O-])ccc7F)c7ccc4[nH]7)C=C6)C=C5)cc3)c2)c(F)c1
REMARK SMILES IDX 16 1 15 2 14 3 12 4 13 5 11 7 8 8 9 9 85 10 10 11 7 12 6 13
REMARK SMILES IDX 3 14 4 15 88 16 5 17 86 18 87 19 2 20 1 21 17 22 18 23 19 24
REMARK SMILES IDX 20 25 21 27 22 28 23 29 84 30 24 31 83 32 25 33 26 34 27 35
REMARK SMILES IDX 77 36 28 37 82 38 76 39 78 40 29 41 81 42 75 43 74 44 30 46
REMARK SMILES IDX 62 47 42 48 61 49 43 50 46 51 60 52 79 53 44 54 45 55 59 57
REMARK SMILES IDX 80 58 47 59 31 60 32 61 40 62 33 63 39 64 41 65 38 66 34 67
REMARK SMILES IDX 35 68 36 69 37 70 63 71 64 72 72 73 65 74 71 75 73 76 70 77
REMARK SMILES IDX 66 78 67 79 68 80 69 81 48 82 49 83 57 84 50 85 56 86 58 87
REMARK SMILES IDX 55 88 51 89 52 90 53 91 54 92
REMARK H PARENT 14 6 19 26 78 45 46 56
REMARK Flexibility Score: inf
ROOT
ATOM      1  C   UNL     1       4.796   4.572  -4.216  1.00  0.00     0.023 C 
ENDROOT
BRANCH   1   2
ATOM      2  C   UNL     1       5.645   4.878  -2.982  1.00  0.00     0.116 C 
BRANCH   2   3
ATOM      3  N   UNL     1       5.192   6.095  -2.341  1.00  0.00    -0.351 N 
ATOM      4  C   UNL     1       4.426   6.332  -1.226  1.00  0.00     0.261 C 
ATOM      5  O   UNL     1       4.245   7.524  -0.964  1.00  0.00    -0.268 OA
ATOM      6  H   UNL     1       5.493   6.915  -2.795  1.00  0.00     0.163 HD
BRANCH   4   7
ATOM      7  C   UNL     1       3.902   5.248  -0.402  1.00  0.00     0.093 A 
ATOM      8  C   UNL     1       3.343   3.188   0.552  1.00  0.00     0.024 A 
ATOM      9  C   UNL     1       3.055   4.029   1.597  1.00  0.00     0.081 A 
ATOM     10  C   UNL     1       3.739   3.891  -0.618  1.00  0.00     0.041 A 
ATOM     11  S   UNL     1       3.325   5.661   1.177  1.00  0.00    -0.137 S 
BRANCH   8  12
ATOM     12  S   UNL     1       3.307   1.441   0.622  1.00  0.00    -0.086 SA
BRANCH  12  13
ATOM     13  C   UNL     1       1.625   0.975   0.265  1.00  0.00     0.048 A 
ATOM     14  C   UNL     1      -1.019   0.063  -0.097  1.00  0.00     0.055 A 
ATOM     15  C   UNL     1      -0.747   1.432  -0.026  1.00  0.00     0.021 A 
ATOM     16  C   UNL     1       0.032  -0.852  -0.035  1.00  0.00     0.060 A 
ATOM     17  C   UNL     1       0.567   1.885   0.150  1.00  0.00     0.020 A 
ATOM     18  C   UNL     1       1.334  -0.391   0.144  1.00  0.00     0.138 A 
ATOM     19  F   UNL     1       2.314  -1.306   0.220  1.00  0.00    -0.206 F 
BRANCH  14  20
ATOM     20  C   UNL     1      -2.370  -0.401  -0.192  1.00  0.00     0.099 C 
ATOM     21  N   UNL     1      -3.468  -0.779  -0.240  1.00  0.00    -0.192 NA
ENDBRANCH  14  20
ENDBRANCH  12  13
ENDBRANCH   8  12
ENDBRANCH   4   7
ENDBRANCH   2   3
ENDBRANCH   1   2
BRANCH   1  22
ATOM     22  C   UNL     1       5.192   5.401  -5.441  1.00  0.00     0.023 C 
BRANCH  22  23
ATOM     23  C   UNL     1       6.633   5.208  -5.895  1.00  0.00     0.116 C 
BRANCH  23  24
ATOM     24  N   UNL     1       6.945   3.827  -6.240  1.00  0.00    -0.352 N 
ATOM     25  C   UNL     1       7.718   3.381  -7.289  1.00  0.00     0.251 C 
ATOM     26  H   UNL     1       6.559   3.134  -5.657  1.00  0.00     0.163 HD
ATOM     27  O   UNL     1       7.787   2.188  -7.557  1.00  0.00    -0.269 OA
BRANCH  25  28
ATOM     28  C   UNL     1       8.423   4.393  -8.100  1.00  0.00     0.039 A 
ATOM     29  C   UNL     1       8.201   4.446  -9.477  1.00  0.00     0.014 A 
ATOM     30  C   UNL     1       9.196   5.364  -7.459  1.00  0.00     0.014 A 
ATOM     31  C   UNL     1       8.696   5.530 -10.205  1.00  0.00     0.010 A 
ATOM     32  C   UNL     1       9.605   6.483  -8.169  1.00  0.00     0.010 A 
ATOM     33  C   UNL     1       9.362   6.579  -9.550  1.00  0.00    -0.014 A 
BRANCH  33  34
ATOM     34  C   UNL     1       9.853   7.780 -10.273  1.00  0.00     0.031 A 
ATOM     35  C   UNL     1      11.326   8.087 -10.260  1.00  0.00     0.074 A 
ATOM     36  C   UNL     1       8.987   8.635 -10.854  1.00  0.00     0.049 A 
ATOM     37  N   UNL     1      11.953   9.159 -10.665  1.00  0.00    -0.248 NA
ATOM     38  C   UNL     1      12.203   7.060  -9.675  1.00  0.00     0.031 C 
ATOM     39  C   UNL     1       7.536   8.453 -10.927  1.00  0.00     0.029 A 
ATOM     40  N   UNL     1       9.200   9.840 -11.478  1.00  0.00    -0.354 N 
ATOM     41  C   UNL     1      13.294   8.945 -10.365  1.00  0.00     0.074 A 
ATOM     42  C   UNL     1      13.375   7.672  -9.683  1.00  0.00     0.031 C 
ATOM     43  C   UNL     1       6.995   9.496 -11.576  1.00  0.00     0.029 A 
ATOM     44  C   UNL     1       8.045  10.455 -11.906  1.00  0.00     0.049 A 
ATOM     45  H   UNL     1      10.095  10.227 -11.608  1.00  0.00     0.167 HD
ATOM     46  C   UNL     1      14.361   9.729 -10.653  1.00  0.00     0.034 A 
ATOM     47  C   UNL     1       7.851  11.665 -12.472  1.00  0.00     0.034 A 
ATOM     48  C   UNL     1      14.260  10.992 -11.338  1.00  0.00     0.049 A 
ATOM     49  C   UNL     1       9.048  12.555 -12.718  1.00  0.00     0.074 A 
ATOM     50  C   UNL     1      15.279  11.850 -11.712  1.00  0.00     0.029 A 
ATOM     51  N   UNL     1      13.071  11.587 -11.742  1.00  0.00    -0.354 N 
ATOM     52  N   UNL     1      10.313  12.334 -12.444  1.00  0.00    -0.248 NA
ATOM     53  C   UNL     1       8.793  13.856 -13.353  1.00  0.00     0.031 C 
ATOM     54  C   UNL     1      14.703  13.002 -12.254  1.00  0.00     0.029 A 
ATOM     55  C   UNL     1      13.332  12.815 -12.327  1.00  0.00     0.049 A 
ATOM     56  H   UNL     1      12.176  11.193 -11.630  1.00  0.00     0.167 HD
ATOM     57  C   UNL     1      11.006  13.444 -12.922  1.00  0.00     0.074 A 
ATOM     58  C   UNL     1      10.020  14.335 -13.495  1.00  0.00     0.031 C 
ATOM     59  C   UNL     1      12.340  13.693 -12.905  1.00  0.00     0.034 A 
BRANCH  46  60
ATOM     60  C   UNL     1      15.718   9.254 -10.192  1.00  0.00     0.023 A 
ATOM     61  C   UNL     1      16.271   8.043 -10.644  1.00  0.00     0.031 A 
ATOM     62  C   UNL     1      16.458  10.009  -9.265  1.00  0.00     0.131 A 
ATOM     63  C   UNL     1      17.482   7.584 -10.106  1.00  0.00     0.055 A 
ATOM     64  C   UNL     1      17.710   9.594  -8.809  1.00  0.00     0.041 A 
ATOM     65  F   UNL     1      15.971  11.160  -8.775  1.00  0.00    -0.206 F 
ATOM     66  C   UNL     1      18.221   8.365  -9.216  1.00  0.00     0.022 A 
BRANCH  63  67
ATOM     67  S   UNL     1      17.986   5.877 -10.454  1.00  0.00     0.124 S 
ATOM     68  O   UNL     1      16.840   5.123  -9.951  1.00  0.00    -0.237 OA
ATOM     69  O   UNL     1      18.159   5.888 -11.902  1.00  0.00    -0.237 OA
ATOM     70  O   UNL     1      19.215   5.718  -9.678  1.00  0.00    -0.744 OA
ENDBRANCH  63  67
ENDBRANCH  46  60
BRANCH  47  71
ATOM     71  C   UNL     1       6.476  12.127 -12.826  1.00  0.00     0.023 A 
ATOM     72  C   UNL     1       6.130  12.415 -14.156  1.00  0.00     0.031 A 
ATOM     73  C   UNL     1       5.504  12.346 -11.834  1.00  0.00     0.131 A 
ATOM     74  C   UNL     1       4.870  12.959 -14.451  1.00  0.00     0.055 A 
ATOM     75  C   UNL     1       4.227  12.821 -12.141  1.00  0.00     0.041 A 
ATOM     76  F   UNL     1       5.779  12.093 -10.544  1.00  0.00    -0.206 F 
ATOM     77  C   UNL     1       3.909  13.146 -13.455  1.00  0.00     0.022 A 
BRANCH  74  78
ATOM     78  S   UNL     1       4.546  13.530 -16.142  1.00  0.00     0.124 S 
ATOM     79  O   UNL     1       5.613  14.507 -16.331  1.00  0.00    -0.237 OA
ATOM     80  O   UNL     1       4.662  12.294 -16.908  1.00  0.00    -0.237 OA
ATOM     81  O   UNL     1       3.197  14.087 -16.059  1.00  0.00    -0.744 OA
ENDBRANCH  74  78
ENDBRANCH  47  71
BRANCH  59  82
ATOM     82  C   UNL     1      12.835  14.936 -13.606  1.00  0.00     0.023 A 
ATOM     83  C   UNL     1      12.538  16.231 -13.149  1.00  0.00     0.031 A 
ATOM     84  C   UNL     1      13.659  14.808 -14.741  1.00  0.00     0.131 A 
ATOM     85  C   UNL     1      13.033  17.346 -13.846  1.00  0.00     0.055 A 
ATOM     86  C   UNL     1      14.204  15.918 -15.386  1.00  0.00     0.041 A 
ATOM     87  F   UNL     1      13.967  13.595 -15.227  1.00  0.00    -0.206 F 
ATOM     88  C   UNL     1      13.883  17.197 -14.944  1.00  0.00     0.022 A 
BRANCH  85  89
ATOM     89  S   UNL     1      12.483  19.002 -13.350  1.00  0.00     0.124 S 
ATOM     90  O   UNL     1      11.035  18.897 -13.497  1.00  0.00    -0.237 OA
ATOM     91  O   UNL     1      12.979  19.101 -11.981  1.00  0.00    -0.237 OA
ATOM     92  O   UNL     1      13.141  19.884 -14.312  1.00  0.00    -0.744 OA
ENDBRANCH  85  89
ENDBRANCH  59  82
ENDBRANCH  33  34
ENDBRANCH  25  28
ENDBRANCH  23  24
ENDBRANCH  22  23
ENDBRANCH   1  22
TORSDOF 17
