REMARK SMILES C[C@@H]1C[N@@H+]([C@@H](C)CC(=O)NCCCCNC(=O)c2ccc(-c3c4nc(c(-c5cc(S(=O)(=O)[O-])ccc5F)c5ccc([nH]5)c(-c5cc(S(=O)(=O)[O-])ccc5F)c5nc(c(-c6cc(S(=O)(=O)[O-])ccc6F)c6ccc3[nH]6)C=C5)C=C4)cc2)C[C@H](C)O1
REMARK SMILES IDX 13 1 12 2 11 3 10 4 8 5 9 6 7 8 5 9 6 10 4 11 1 12 2 13 3 14
REMARK SMILES IDX 84 15 82 16 81 17 83 19 14 20 15 21 16 22 17 24 18 25 19 26
REMARK SMILES IDX 80 27 20 28 79 29 21 30 22 31 23 32 73 33 24 34 78 35 72 36
REMARK SMILES IDX 74 37 25 38 77 39 71 40 70 41 26 43 58 44 38 45 57 46 39 47
REMARK SMILES IDX 42 48 56 49 75 50 40 51 41 52 55 54 76 55 43 56 27 57 28 58
REMARK SMILES IDX 36 59 29 60 35 61 37 62 34 63 30 64 31 65 32 66 33 67 59 68
REMARK SMILES IDX 60 69 68 70 61 71 67 72 69 73 66 74 62 75 63 76 64 77 65 78
REMARK SMILES IDX 44 79 45 80 53 81 46 82 52 83 54 84 51 85 47 86 48 87 49 88
REMARK SMILES IDX 50 89
REMARK H PARENT 10 7 4 18 15 23 74 42 42 53
REMARK Flexibility Score: inf
ROOT
ATOM      1  C   UNL     1       2.819   1.227  -2.224  1.00  0.00     0.023 C 
ENDROOT
BRANCH   1   2
ATOM      2  C   UNL     1       2.050  -0.062  -2.497  1.00  0.00     0.023 C 
BRANCH   2   3
ATOM      3  C   UNL     1       1.297  -0.098  -3.827  1.00  0.00     0.116 C 
BRANCH   3   4
ATOM      4  N   UNL     1       1.713  -1.233  -4.631  1.00  0.00    -0.356 N 
ATOM      5  C   UNL     1       1.171  -2.479  -4.709  1.00  0.00     0.225 C 
ATOM      6  O   UNL     1       1.752  -3.343  -5.368  1.00  0.00    -0.275 OA
ATOM      7  H   UNL     1       2.501  -1.080  -5.201  1.00  0.00     0.163 HD
BRANCH   5   8
ATOM      8  C   UNL     1      -0.132  -2.784  -4.002  1.00  0.00     0.164 C 
BRANCH   8   9
ATOM      9  C   UNL     1       0.093  -3.283  -2.555  1.00  0.00     0.190 C 
ATOM     10  C   UNL     1      -0.571  -4.662  -2.386  1.00  0.00     0.076 C 
BRANCH   9  11
ATOM     11  N   UNL     1      -0.324  -2.275  -1.546  1.00  0.00    -0.328 N 
ATOM     12  C   UNL     1       0.749  -0.415   1.081  1.00  0.00     0.045 C 
ATOM     13  C   UNL     1      -0.215  -1.581   0.912  1.00  0.00     0.170 C 
ATOM     14  C   UNL     1       0.185  -2.592  -0.194  1.00  0.00     0.294 C 
ATOM     15  O   UNL     1      -1.576  -1.133   0.838  1.00  0.00    -0.364 OA
ATOM     16  C   UNL     1      -2.108  -0.910  -0.476  1.00  0.00     0.170 C 
ATOM     17  C   UNL     1      -1.779  -2.066  -1.441  1.00  0.00     0.294 C 
ATOM     18  H   UNL     1       0.092  -1.413  -1.897  1.00  0.00     0.348 HD
ATOM     19  C   UNL     1      -1.739   0.457  -1.043  1.00  0.00     0.045 C 
ENDBRANCH   9  11
ENDBRANCH   8   9
ENDBRANCH   5   8
ENDBRANCH   3   4
ENDBRANCH   2   3
ENDBRANCH   1   2
BRANCH   1  20
ATOM     20  C   UNL     1       2.014   2.521  -2.274  1.00  0.00     0.116 C 
BRANCH  20  21
ATOM     21  N   UNL     1       1.155   2.757  -1.124  1.00  0.00    -0.352 N 
ATOM     22  C   UNL     1       0.938   3.930  -0.431  1.00  0.00     0.251 C 
ATOM     23  H   UNL     1       0.659   1.972  -0.795  1.00  0.00     0.163 HD
ATOM     24  O   UNL     1       0.210   3.944   0.556  1.00  0.00    -0.269 OA
BRANCH  22  25
ATOM     25  C   UNL     1       1.647   5.155  -0.859  1.00  0.00     0.039 A 
ATOM     26  C   UNL     1       2.378   5.881   0.085  1.00  0.00     0.014 A 
ATOM     27  C   UNL     1       1.684   5.510  -2.208  1.00  0.00     0.014 A 
ATOM     28  C   UNL     1       3.246   6.887  -0.346  1.00  0.00     0.010 A 
ATOM     29  C   UNL     1       2.620   6.439  -2.642  1.00  0.00     0.010 A 
ATOM     30  C   UNL     1       3.423   7.126  -1.718  1.00  0.00    -0.014 A 
BRANCH  30  31
ATOM     31  C   UNL     1       4.444   8.079  -2.226  1.00  0.00     0.031 A 
ATOM     32  C   UNL     1       4.006   9.255  -3.054  1.00  0.00     0.074 A 
ATOM     33  C   UNL     1       5.755   7.829  -2.033  1.00  0.00     0.049 A 
ATOM     34  N   UNL     1       4.728  10.107  -3.735  1.00  0.00    -0.248 NA
ATOM     35  C   UNL     1       2.555   9.470  -3.166  1.00  0.00     0.031 C 
ATOM     36  C   UNL     1       6.302   6.694  -1.284  1.00  0.00     0.029 A 
ATOM     37  N   UNL     1       6.870   8.504  -2.464  1.00  0.00    -0.354 N 
ATOM     38  C   UNL     1       3.819  10.941  -4.377  1.00  0.00     0.074 A 
ATOM     39  C   UNL     1       2.497  10.447  -4.057  1.00  0.00     0.031 C 
ATOM     40  C   UNL     1       7.643   6.768  -1.286  1.00  0.00     0.029 A 
ATOM     41  C   UNL     1       8.056   7.921  -2.078  1.00  0.00     0.049 A 
ATOM     42  H   UNL     1       6.826   9.328  -3.001  1.00  0.00     0.167 HD
ATOM     43  C   UNL     1       4.064  12.034  -5.140  1.00  0.00     0.034 A 
ATOM     44  C   UNL     1       9.331   8.272  -2.344  1.00  0.00     0.034 A 
ATOM     45  C   UNL     1       5.390  12.524  -5.425  1.00  0.00     0.049 A 
ATOM     46  C   UNL     1       9.581   9.491  -3.196  1.00  0.00     0.074 A 
ATOM     47  C   UNL     1       5.762  13.638  -6.157  1.00  0.00     0.029 A 
ATOM     48  N   UNL     1       6.565  11.930  -4.982  1.00  0.00    -0.354 N 
ATOM     49  N   UNL     1       8.710  10.285  -3.777  1.00  0.00    -0.248 NA
ATOM     50  C   UNL     1      10.982   9.869  -3.421  1.00  0.00     0.031 C 
ATOM     51  C   UNL     1       7.160  13.690  -6.196  1.00  0.00     0.029 A 
ATOM     52  C   UNL     1       7.661  12.647  -5.434  1.00  0.00     0.049 A 
ATOM     53  H   UNL     1       6.612  11.117  -4.428  1.00  0.00     0.167 HD
ATOM     54  C   UNL     1       9.459  11.278  -4.401  1.00  0.00     0.074 A 
ATOM     55  C   UNL     1      10.850  10.985  -4.122  1.00  0.00     0.031 C 
ATOM     56  C   UNL     1       9.038  12.340  -5.133  1.00  0.00     0.034 A 
BRANCH  43  57
ATOM     57  C   UNL     1       2.870  12.749  -5.725  1.00  0.00     0.023 A 
ATOM     58  C   UNL     1       1.893  13.339  -4.904  1.00  0.00     0.031 A 
ATOM     59  C   UNL     1       2.675  12.797  -7.117  1.00  0.00     0.131 A 
ATOM     60  C   UNL     1       0.724  13.866  -5.472  1.00  0.00     0.055 A 
ATOM     61  C   UNL     1       1.551  13.405  -7.681  1.00  0.00     0.041 A 
ATOM     62  F   UNL     1       3.561  12.234  -7.952  1.00  0.00    -0.206 F 
ATOM     63  C   UNL     1       0.558  13.928  -6.857  1.00  0.00     0.022 A 
BRANCH  60  64
ATOM     64  S   UNL     1      -0.641  14.324  -4.370  1.00  0.00     0.124 S 
ATOM     65  O   UNL     1      -0.941  13.045  -3.729  1.00  0.00    -0.237 OA
ATOM     66  O   UNL     1      -0.033  15.338  -3.517  1.00  0.00    -0.237 OA
ATOM     67  O   UNL     1      -1.671  14.812  -5.284  1.00  0.00    -0.744 OA
ENDBRANCH  60  64
ENDBRANCH  43  57
BRANCH  44  68
ATOM     68  C   UNL     1      10.470   7.472  -1.808  1.00  0.00     0.023 A 
ATOM     69  C   UNL     1      11.366   8.030  -0.881  1.00  0.00     0.031 A 
ATOM     70  C   UNL     1      10.709   6.158  -2.245  1.00  0.00     0.131 A 
ATOM     71  C   UNL     1      12.488   7.297  -0.462  1.00  0.00     0.055 A 
ATOM     72  C   UNL     1      11.798   5.413  -1.785  1.00  0.00     0.041 A 
ATOM     73  F   UNL     1       9.880   5.573  -3.125  1.00  0.00    -0.206 F 
ATOM     74  C   UNL     1      12.703   5.988  -0.898  1.00  0.00     0.022 A 
BRANCH  71  75
ATOM     75  S   UNL     1      13.713   8.116   0.597  1.00  0.00     0.124 S 
ATOM     76  O   UNL     1      14.077   9.273  -0.212  1.00  0.00    -0.237 OA
ATOM     77  O   UNL     1      12.935   8.392   1.800  1.00  0.00    -0.237 OA
ATOM     78  O   UNL     1      14.758   7.106   0.750  1.00  0.00    -0.744 OA
ENDBRANCH  71  75
ENDBRANCH  44  68
BRANCH  56  79
ATOM     79  C   UNL     1      10.095  13.298  -5.619  1.00  0.00     0.023 A 
ATOM     80  C   UNL     1      11.013  12.944  -6.621  1.00  0.00     0.031 A 
ATOM     81  C   UNL     1      10.173  14.589  -5.068  1.00  0.00     0.131 A 
ATOM     82  C   UNL     1      12.003  13.858  -7.011  1.00  0.00     0.055 A 
ATOM     83  C   UNL     1      11.127  15.512  -5.497  1.00  0.00     0.041 A 
ATOM     84  F   UNL     1       9.318  14.976  -4.108  1.00  0.00    -0.206 F 
ATOM     85  C   UNL     1      12.056  15.145  -6.467  1.00  0.00     0.022 A 
BRANCH  82  86
ATOM     86  S   UNL     1      13.266  13.322  -8.197  1.00  0.00     0.124 S 
ATOM     87  O   UNL     1      13.892  12.209  -7.491  1.00  0.00    -0.237 OA
ATOM     88  O   UNL     1      12.467  12.967  -9.365  1.00  0.00    -0.237 OA
ATOM     89  O   UNL     1      14.108  14.506  -8.360  1.00  0.00    -0.744 OA
ENDBRANCH  82  86
ENDBRANCH  56  79
ENDBRANCH  30  31
ENDBRANCH  22  25
ENDBRANCH  20  21
ENDBRANCH   1  20
TORSDOF 16
