REMARK SMILES CC[C@H](C(=O)NCCCCNC(=O)c1ccc(-c2c3nc(c(-c4cc(S(=O)(=O)[O-])ccc4F)c4ccc([nH]4)c(-c4cc(S(=O)(=O)[O-])ccc4F)c4nc(c(-c5cc(S(=O)(=O)[O-])ccc5F)c5ccc2[nH]5)C=C4)C=C3)cc1)N1C(=O)/C(=C\c2cccs2)SC1=S
REMARK SMILES IDX 9 1 8 2 7 3 6 4 4 5 5 6 3 8 2 9 1 10 77 11 78 12 88 13 79 14
REMARK SMILES IDX 80 15 87 16 89 17 81 18 82 19 83 20 86 21 84 22 85 23 10 24
REMARK SMILES IDX 11 25 12 26 13 28 14 29 15 30 76 31 16 32 75 33 17 34 18 35
REMARK SMILES IDX 19 36 69 37 20 38 74 39 68 40 70 41 21 42 73 43 67 44 66 45
REMARK SMILES IDX 22 47 54 48 34 49 53 50 35 51 38 52 52 53 71 54 36 55 37 56
REMARK SMILES IDX 51 58 72 59 39 60 23 61 24 62 32 63 25 64 31 65 33 66 30 67
REMARK SMILES IDX 26 68 27 69 28 70 29 71 55 72 56 73 64 74 57 75 63 76 65 77
REMARK SMILES IDX 62 78 58 79 59 80 60 81 61 82 40 83 41 84 49 85 42 86 48 87
REMARK SMILES IDX 50 88 47 89 43 90 44 91 45 92 46 93
REMARK H PARENT 6 7 11 27 70 46 38 57
REMARK Flexibility Score: inf
ROOT
ATOM      1  C   UNL     1      -1.933   1.951   1.429  1.00  0.00     0.023 C 
ENDROOT
BRANCH   1   2
ATOM      2  C   UNL     1      -1.188   0.746   1.995  1.00  0.00     0.023 C 
BRANCH   2   3
ATOM      3  C   UNL     1      -1.362  -0.516   1.157  1.00  0.00     0.116 C 
BRANCH   3   4
ATOM      4  N   UNL     1      -0.477  -0.518   0.008  1.00  0.00    -0.354 N 
ATOM      5  C   UNL     1       0.511  -1.372  -0.375  1.00  0.00     0.243 C 
ATOM      6  O   UNL     1       0.983  -1.205  -1.506  1.00  0.00    -0.273 OA
ATOM      7  H   UNL     1      -0.617   0.237  -0.608  1.00  0.00     0.163 HD
BRANCH   5   8
ATOM      8  C   UNL     1       0.979  -2.576   0.475  1.00  0.00     0.181 C 
BRANCH   8   9
ATOM      9  C   UNL     1       1.006  -2.487   2.016  1.00  0.00     0.032 C 
ATOM     10  C   UNL     1       1.660  -1.221   2.557  1.00  0.00     0.006 C 
ENDBRANCH   8   9
BRANCH   8  11
ATOM     11  N   UNL     1       0.523  -3.909  -0.011  1.00  0.00    -0.280 N 
ATOM     12  C   UNL     1       1.376  -4.970   0.263  1.00  0.00     0.266 C 
ATOM     13  C   UNL     1      -0.688  -4.259  -0.577  1.00  0.00     0.149 C 
ATOM     14  O   UNL     1       2.515  -4.865   0.700  1.00  0.00    -0.268 OA
ATOM     15  C   UNL     1       0.705  -6.271  -0.003  1.00  0.00     0.081 C 
ATOM     16  S   UNL     1      -0.709  -5.993  -0.931  1.00  0.00    -0.054 SA
ATOM     17  S   UNL     1      -2.030  -3.348  -0.941  1.00  0.00    -0.052 S 
ATOM     18  C   UNL     1       1.039  -7.475   0.480  1.00  0.00     0.040 C 
BRANCH  18  19
ATOM     19  C   UNL     1       2.067  -7.631   1.445  1.00  0.00     0.028 A 
ATOM     20  C   UNL     1       2.065  -7.237   2.773  1.00  0.00     0.020 A 
ATOM     21  S   UNL     1       3.551  -8.381   1.027  1.00  0.00    -0.144 S 
ATOM     22  C   UNL     1       3.314  -7.466   3.414  1.00  0.00     0.012 A 
ATOM     23  C   UNL     1       4.220  -8.063   2.569  1.00  0.00     0.065 A 
ENDBRANCH  18  19
ENDBRANCH   8  11
ENDBRANCH   5   8
ENDBRANCH   3   4
ENDBRANCH   2   3
ENDBRANCH   1   2
BRANCH   1  24
ATOM     24  C   UNL     1      -3.438   1.755   1.304  1.00  0.00     0.116 C 
BRANCH  24  25
ATOM     25  N   UNL     1      -4.064   1.365   2.560  1.00  0.00    -0.352 N 
ATOM     26  C   UNL     1      -5.236   1.833   3.103  1.00  0.00     0.251 C 
ATOM     27  H   UNL     1      -3.589   0.681   3.085  1.00  0.00     0.163 HD
ATOM     28  O   UNL     1      -5.555   1.530   4.247  1.00  0.00    -0.269 OA
BRANCH  26  29
ATOM     29  C   UNL     1      -6.073   2.736   2.290  1.00  0.00     0.039 A 
ATOM     30  C   UNL     1      -6.502   3.944   2.839  1.00  0.00     0.014 A 
ATOM     31  C   UNL     1      -6.349   2.418   0.957  1.00  0.00     0.014 A 
ATOM     32  C   UNL     1      -7.159   4.864   2.024  1.00  0.00     0.010 A 
ATOM     33  C   UNL     1      -6.910   3.377   0.126  1.00  0.00     0.010 A 
ATOM     34  C   UNL     1      -7.333   4.606   0.653  1.00  0.00    -0.014 A 
BRANCH  34  35
ATOM     35  C   UNL     1      -7.974   5.606  -0.237  1.00  0.00     0.031 A 
ATOM     36  C   UNL     1      -9.257   5.265  -0.946  1.00  0.00     0.074 A 
ATOM     37  C   UNL     1      -7.380   6.800  -0.435  1.00  0.00     0.049 A 
ATOM     38  N   UNL     1      -9.962   5.990  -1.776  1.00  0.00    -0.248 NA
ATOM     39  C   UNL     1      -9.800   3.917  -0.718  1.00  0.00     0.031 C 
ATOM     40  C   UNL     1      -6.106   7.218   0.155  1.00  0.00     0.029 A 
ATOM     41  N   UNL     1      -7.770   7.883  -1.180  1.00  0.00    -0.354 N 
ATOM     42  C   UNL     1     -11.024   5.184  -2.172  1.00  0.00     0.074 A 
ATOM     43  C   UNL     1     -10.822   3.890  -1.558  1.00  0.00     0.031 C 
ATOM     44  C   UNL     1      -5.845   8.483  -0.213  1.00  0.00     0.029 A 
ATOM     45  C   UNL     1      -6.904   8.950  -1.101  1.00  0.00     0.049 A 
ATOM     46  H   UNL     1      -8.592   7.897  -1.721  1.00  0.00     0.167 HD
ATOM     47  C   UNL     1     -12.089   5.505  -2.947  1.00  0.00     0.034 A 
ATOM     48  C   UNL     1      -6.959  10.166  -1.680  1.00  0.00     0.034 A 
ATOM     49  C   UNL     1     -12.275   6.804  -3.545  1.00  0.00     0.049 A 
ATOM     50  C   UNL     1      -8.142  10.493  -2.556  1.00  0.00     0.074 A 
ATOM     51  C   UNL     1     -13.333   7.258  -4.312  1.00  0.00     0.029 A 
ATOM     52  N   UNL     1     -11.374   7.859  -3.450  1.00  0.00    -0.354 N 
ATOM     53  N   UNL     1      -9.172   9.740  -2.873  1.00  0.00    -0.248 NA
ATOM     54  C   UNL     1      -8.179  11.840  -3.136  1.00  0.00     0.031 C 
ATOM     55  C   UNL     1     -13.037   8.556  -4.743  1.00  0.00     0.029 A 
ATOM     56  C   UNL     1     -11.838   8.949  -4.170  1.00  0.00     0.049 A 
ATOM     57  H   UNL     1     -10.529   7.835  -2.944  1.00  0.00     0.167 HD
ATOM     58  C   UNL     1      -9.995  10.538  -3.664  1.00  0.00     0.074 A 
ATOM     59  C   UNL     1      -9.351  11.833  -3.752  1.00  0.00     0.031 C 
ATOM     60  C   UNL     1     -11.176  10.231  -4.262  1.00  0.00     0.034 A 
BRANCH  47  61
ATOM     61  C   UNL     1     -13.111   4.421  -3.204  1.00  0.00     0.023 A 
ATOM     62  C   UNL     1     -13.832   3.820  -2.155  1.00  0.00     0.031 A 
ATOM     63  C   UNL     1     -13.343   3.953  -4.509  1.00  0.00     0.131 A 
ATOM     64  C   UNL     1     -14.680   2.734  -2.417  1.00  0.00     0.055 A 
ATOM     65  C   UNL     1     -14.259   2.932  -4.774  1.00  0.00     0.041 A 
ATOM     66  F   UNL     1     -12.670   4.466  -5.550  1.00  0.00    -0.206 F 
ATOM     67  C   UNL     1     -14.921   2.304  -3.723  1.00  0.00     0.022 A 
BRANCH  64  68
ATOM     68  S   UNL     1     -15.336   1.790  -1.013  1.00  0.00     0.124 S 
ATOM     69  O   UNL     1     -14.108   1.361  -0.347  1.00  0.00    -0.237 OA
ATOM     70  O   UNL     1     -16.132   2.786  -0.306  1.00  0.00    -0.237 OA
ATOM     71  O   UNL     1     -16.098   0.717  -1.648  1.00  0.00    -0.744 OA
ENDBRANCH  64  68
ENDBRANCH  47  61
BRANCH  48  72
ATOM     72  C   UNL     1      -5.875  11.166  -1.453  1.00  0.00     0.023 A 
ATOM     73  C   UNL     1      -6.138  12.389  -0.816  1.00  0.00     0.031 A 
ATOM     74  C   UNL     1      -4.566  10.933  -1.913  1.00  0.00     0.131 A 
ATOM     75  C   UNL     1      -5.124  13.353  -0.703  1.00  0.00     0.055 A 
ATOM     76  C   UNL     1      -3.546  11.871  -1.745  1.00  0.00     0.041 A 
ATOM     77  F   UNL     1      -4.257   9.779  -2.526  1.00  0.00    -0.206 F 
ATOM     78  C   UNL     1      -3.826  13.097  -1.150  1.00  0.00     0.022 A 
BRANCH  75  79
ATOM     79  S   UNL     1      -5.550  14.990  -0.047  1.00  0.00     0.124 S 
ATOM     80  O   UNL     1      -6.595  15.417  -0.971  1.00  0.00    -0.237 OA
ATOM     81  O   UNL     1      -5.983  14.670   1.309  1.00  0.00    -0.237 OA
ATOM     82  O   UNL     1      -4.294  15.731  -0.140  1.00  0.00    -0.744 OA
ENDBRANCH  75  79
ENDBRANCH  48  72
BRANCH  60  83
ATOM     83  C   UNL     1     -11.862  11.340  -5.025  1.00  0.00     0.023 A 
ATOM     84  C   UNL     1     -11.280  11.927  -6.162  1.00  0.00     0.031 A 
ATOM     85  C   UNL     1     -13.100  11.841  -4.585  1.00  0.00     0.131 A 
ATOM     86  C   UNL     1     -11.894  13.033  -6.769  1.00  0.00     0.055 A 
ATOM     87  C   UNL     1     -13.745  12.889  -5.241  1.00  0.00     0.041 A 
ATOM     88  F   UNL     1     -13.703  11.322  -3.503  1.00  0.00    -0.206 F 
ATOM     89  C   UNL     1     -13.132  13.505  -6.328  1.00  0.00     0.022 A 
BRANCH  86  90
ATOM     90  S   UNL     1     -10.984  13.933  -8.054  1.00  0.00     0.124 S 
ATOM     91  O   UNL     1      -9.743  14.273  -7.364  1.00  0.00    -0.237 OA
ATOM     92  O   UNL     1     -10.871  12.934  -9.113  1.00  0.00    -0.237 OA
ATOM     93  O   UNL     1     -11.854  15.066  -8.361  1.00  0.00    -0.744 OA
ENDBRANCH  86  90
ENDBRANCH  60  83
ENDBRANCH  34  35
ENDBRANCH  26  29
ENDBRANCH  24  25
ENDBRANCH   1  24
TORSDOF 17
