REMARK SMILES C[C@@H](C(=O)NCCCCNC(=O)c1ccc(-c2c3nc(c(-c4cc(S(=O)(=O)[O-])ccc4F)c4ccc([nH]4)c(-c4cc(S(=O)(=O)[O-])ccc4F)c4nc(c(-c5cc(S(=O)(=O)[O-])ccc5F)c5ccc2[nH]5)C=C4)C=C3)cc1)[C@H](C)[N@@H+]1C[C@H]2C[NH2+]C[C@@H]2[C@@H]1C
REMARK SMILES IDX 8 1 7 2 6 3 5 4 3 5 4 6 2 8 1 9 76 10 77 11 78 12 79 13
REMARK SMILES IDX 85 14 80 16 84 17 86 18 81 19 83 20 82 21 9 24 10 25 11 26
REMARK SMILES IDX 12 28 13 29 14 30 75 31 15 32 74 33 16 34 17 35 18 36 68 37
REMARK SMILES IDX 19 38 73 39 67 40 69 41 20 42 72 43 66 44 65 45 21 47 53 48
REMARK SMILES IDX 33 49 52 50 34 51 37 52 51 53 70 54 35 55 36 56 50 58 71 59
REMARK SMILES IDX 38 60 22 61 23 62 31 63 24 64 30 65 32 66 29 67 25 68 26 69
REMARK SMILES IDX 27 70 28 71 54 72 55 73 63 74 56 75 62 76 64 77 61 78 57 79
REMARK SMILES IDX 58 80 59 81 60 82 39 83 40 84 48 85 41 86 47 87 49 88 46 89
REMARK SMILES IDX 42 90 43 91 44 92 45 93
REMARK H PARENT 5 7 78 15 82 22 82 23 10 27 69 46 37 57
REMARK Flexibility Score: inf
ROOT
ATOM      1  C   UNL     1      -1.357   6.306   0.759  1.00  0.00     0.023 C 
ENDROOT
BRANCH   1   2
ATOM      2  C   UNL     1      -1.277   4.917   1.411  1.00  0.00     0.023 C 
BRANCH   2   3
ATOM      3  C   UNL     1      -2.345   3.930   0.919  1.00  0.00     0.116 C 
BRANCH   3   4
ATOM      4  N   UNL     1      -2.180   3.703  -0.503  1.00  0.00    -0.356 N 
ATOM      5  C   UNL     1      -1.200   2.895  -1.022  1.00  0.00     0.228 C 
ATOM      6  O   UNL     1      -0.376   3.397  -1.782  1.00  0.00    -0.275 OA
ATOM      7  H   UNL     1      -2.800   4.149  -1.125  1.00  0.00     0.163 HD
BRANCH   5   8
ATOM      8  C   UNL     1      -1.184   1.434  -0.583  1.00  0.00     0.133 C 
ATOM      9  C   UNL     1      -0.120   1.315   0.521  1.00  0.00     0.024 C 
BRANCH   8  10
ATOM     10  C   UNL     1      -0.957   0.371  -1.728  1.00  0.00     0.193 C 
ATOM     11  C   UNL     1       0.511   0.296  -2.189  1.00  0.00     0.076 C 
BRANCH  10  12
ATOM     12  N   UNL     1      -1.794   0.335  -2.946  1.00  0.00    -0.329 N 
ATOM     13  C   UNL     1      -1.891   1.581  -3.740  1.00  0.00     0.272 C 
ATOM     14  C   UNL     1      -3.144  -0.312  -2.942  1.00  0.00     0.190 C 
ATOM     15  H   UNL     1      -1.172  -0.338  -3.395  1.00  0.00     0.348 HD
ATOM     16  C   UNL     1      -3.302   1.983  -3.419  1.00  0.00     0.114 C 
ATOM     17  C   UNL     1      -4.001   0.685  -3.724  1.00  0.00     0.116 C 
ATOM     18  C   UNL     1      -3.753  -0.753  -1.620  1.00  0.00     0.076 C 
ATOM     19  C   UNL     1      -4.123   2.973  -4.186  1.00  0.00     0.270 C 
ATOM     20  C   UNL     1      -5.436   1.073  -3.481  1.00  0.00     0.271 C 
ATOM     21  N   UNL     1      -5.508   2.481  -3.958  1.00  0.00    -0.345 N 
ATOM     22  H   UNL     1      -6.036   2.522  -4.830  1.00  0.00     0.346 HD
ATOM     23  H   UNL     1      -5.976   3.062  -3.263  1.00  0.00     0.346 HD
ENDBRANCH  10  12
ENDBRANCH   8  10
ENDBRANCH   5   8
ENDBRANCH   3   4
ENDBRANCH   2   3
ENDBRANCH   1   2
BRANCH   1  24
ATOM     24  C   UNL     1      -2.705   7.006   0.902  1.00  0.00     0.116 C 
BRANCH  24  25
ATOM     25  N   UNL     1      -3.096   7.161   2.294  1.00  0.00    -0.352 N 
ATOM     26  C   UNL     1      -3.503   8.290   2.964  1.00  0.00     0.251 C 
ATOM     27  H   UNL     1      -3.066   6.338   2.835  1.00  0.00     0.163 HD
ATOM     28  O   UNL     1      -3.619   8.268   4.182  1.00  0.00    -0.269 OA
BRANCH  26  29
ATOM     29  C   UNL     1      -3.765   9.531   2.204  1.00  0.00     0.039 A 
ATOM     30  C   UNL     1      -3.182  10.722   2.641  1.00  0.00     0.014 A 
ATOM     31  C   UNL     1      -4.552   9.510   1.049  1.00  0.00     0.014 A 
ATOM     32  C   UNL     1      -3.318  11.878   1.870  1.00  0.00     0.010 A 
ATOM     33  C   UNL     1      -4.636  10.649   0.252  1.00  0.00     0.010 A 
ATOM     34  C   UNL     1      -4.002  11.838   0.644  1.00  0.00    -0.014 A 
BRANCH  34  35
ATOM     35  C   UNL     1      -4.003  13.008  -0.273  1.00  0.00     0.031 A 
ATOM     36  C   UNL     1      -5.289  13.713  -0.607  1.00  0.00     0.074 A 
ATOM     37  C   UNL     1      -2.848  13.379  -0.864  1.00  0.00     0.049 A 
ATOM     38  N   UNL     1      -5.498  14.686  -1.455  1.00  0.00    -0.248 NA
ATOM     39  C   UNL     1      -6.500  13.251   0.088  1.00  0.00     0.031 C 
ATOM     40  C   UNL     1      -1.546  12.745  -0.641  1.00  0.00     0.029 A 
ATOM     41  N   UNL     1      -2.580  14.362  -1.784  1.00  0.00    -0.354 N 
ATOM     42  C   UNL     1      -6.863  14.946  -1.408  1.00  0.00     0.074 A 
ATOM     43  C   UNL     1      -7.438  14.002  -0.473  1.00  0.00     0.031 C 
ATOM     44  C   UNL     1      -0.620  13.360  -1.394  1.00  0.00     0.029 A 
ATOM     45  C   UNL     1      -1.267  14.392  -2.197  1.00  0.00     0.049 A 
ATOM     46  H   UNL     1      -3.264  14.988  -2.118  1.00  0.00     0.167 HD
ATOM     47  C   UNL     1      -7.564  15.893  -2.077  1.00  0.00     0.034 A 
ATOM     48  C   UNL     1      -0.657  15.142  -3.138  1.00  0.00     0.034 A 
ATOM     49  C   UNL     1      -6.970  16.835  -2.995  1.00  0.00     0.049 A 
ATOM     50  C   UNL     1      -1.477  16.156  -3.898  1.00  0.00     0.074 A 
ATOM     51  C   UNL     1      -7.579  17.887  -3.656  1.00  0.00     0.029 A 
ATOM     52  N   UNL     1      -5.642  16.828  -3.398  1.00  0.00    -0.354 N 
ATOM     53  N   UNL     1      -2.753  16.443  -3.778  1.00  0.00    -0.248 NA
ATOM     54  C   UNL     1      -0.776  16.949  -4.917  1.00  0.00     0.031 C 
ATOM     55  C   UNL     1      -6.642  18.462  -4.521  1.00  0.00     0.029 A 
ATOM     56  C   UNL     1      -5.426  17.823  -4.339  1.00  0.00     0.049 A 
ATOM     57  H   UNL     1      -4.954  16.207  -3.065  1.00  0.00     0.167 HD
ATOM     58  C   UNL     1      -2.998  17.465  -4.691  1.00  0.00     0.074 A 
ATOM     59  C   UNL     1      -1.735  17.763  -5.331  1.00  0.00     0.031 C 
ATOM     60  C   UNL     1      -4.163  18.098  -4.980  1.00  0.00     0.034 A 
BRANCH  47  61
ATOM     61  C   UNL     1      -9.057  15.947  -1.872  1.00  0.00     0.023 A 
ATOM     62  C   UNL     1      -9.627  16.306  -0.639  1.00  0.00     0.031 A 
ATOM     63  C   UNL     1      -9.925  15.675  -2.946  1.00  0.00     0.131 A 
ATOM     64  C   UNL     1     -11.023  16.345  -0.499  1.00  0.00     0.055 A 
ATOM     65  C   UNL     1     -11.311  15.781  -2.818  1.00  0.00     0.041 A 
ATOM     66  F   UNL     1      -9.437  15.308  -4.141  1.00  0.00    -0.206 F 
ATOM     67  C   UNL     1     -11.868  16.111  -1.587  1.00  0.00     0.022 A 
BRANCH  64  68
ATOM     68  S   UNL     1     -11.725  16.618   1.151  1.00  0.00     0.124 S 
ATOM     69  O   UNL     1     -11.190  15.478   1.892  1.00  0.00    -0.237 OA
ATOM     70  O   UNL     1     -11.186  17.924   1.512  1.00  0.00    -0.237 OA
ATOM     71  O   UNL     1     -13.167  16.581   0.921  1.00  0.00    -0.744 OA
ENDBRANCH  64  68
ENDBRANCH  47  61
BRANCH  48  72
ATOM     72  C   UNL     1       0.787  14.940  -3.463  1.00  0.00     0.023 A 
ATOM     73  C   UNL     1       1.714  15.983  -3.318  1.00  0.00     0.031 A 
ATOM     74  C   UNL     1       1.245  13.725  -4.005  1.00  0.00     0.131 A 
ATOM     75  C   UNL     1       3.032  15.819  -3.774  1.00  0.00     0.055 A 
ATOM     76  C   UNL     1       2.574  13.543  -4.392  1.00  0.00     0.041 A 
ATOM     77  F   UNL     1       0.403  12.693  -4.171  1.00  0.00    -0.206 F 
ATOM     78  C   UNL     1       3.472  14.601  -4.296  1.00  0.00     0.022 A 
BRANCH  75  79
ATOM     79  S   UNL     1       4.126  17.266  -3.801  1.00  0.00     0.124 S 
ATOM     80  O   UNL     1       3.341  18.215  -4.582  1.00  0.00    -0.237 OA
ATOM     81  O   UNL     1       4.266  17.564  -2.380  1.00  0.00    -0.237 OA
ATOM     82  O   UNL     1       5.333  16.767  -4.455  1.00  0.00    -0.744 OA
ENDBRANCH  75  79
ENDBRANCH  48  72
BRANCH  60  83
ATOM     83  C   UNL     1      -4.110  19.194  -6.016  1.00  0.00     0.023 A 
ATOM     84  C   UNL     1      -3.828  18.916  -7.365  1.00  0.00     0.031 A 
ATOM     85  C   UNL     1      -4.339  20.532  -5.650  1.00  0.00     0.131 A 
ATOM     86  C   UNL     1      -3.730  19.967  -8.289  1.00  0.00     0.055 A 
ATOM     87  C   UNL     1      -4.303  21.566  -6.586  1.00  0.00     0.041 A 
ATOM     88  F   UNL     1      -4.608  20.855  -4.375  1.00  0.00    -0.206 F 
ATOM     89  C   UNL     1      -3.985  21.288  -7.912  1.00  0.00     0.022 A 
BRANCH  86  90
ATOM     90  S   UNL     1      -3.181  19.594  -9.977  1.00  0.00     0.124 S 
ATOM     91  O   UNL     1      -1.857  19.026  -9.747  1.00  0.00    -0.237 OA
ATOM     92  O   UNL     1      -4.203  18.660 -10.440  1.00  0.00    -0.237 OA
ATOM     93  O   UNL     1      -3.191  20.898 -10.637  1.00  0.00    -0.744 OA
ENDBRANCH  86  90
ENDBRANCH  60  83
ENDBRANCH  34  35
ENDBRANCH  26  29
ENDBRANCH  24  25
ENDBRANCH   1  24
TORSDOF 16
