REMARK SMILES O=C(NCCCCNC(=O)c1conc1-c1ccc(Cl)cc1)c1ccc(-c2c3nc(c(-c4cc(S(=O)(=O)[O-])ccc4F)c4ccc([nH]4)c(-c4cc(S(=O)(=O)[O-])ccc4F)c4nc(c(-c5cc(S(=O)(=O)[O-])ccc5F)c5ccc2[nH]5)C=C4)C=C3)cc1
REMARK SMILES IDX 4 1 3 2 1 3 2 4 23 6 24 7 85 8 25 9 84 10 26 11 27 12 28 13
REMARK SMILES IDX 78 14 29 15 83 16 77 17 79 18 30 19 82 20 76 21 75 22 31 24
REMARK SMILES IDX 63 25 43 26 62 27 44 28 47 29 61 30 80 31 45 32 46 33 60 35
REMARK SMILES IDX 81 36 48 37 32 38 33 39 41 40 34 41 40 42 42 43 39 44 35 45
REMARK SMILES IDX 36 46 37 47 38 48 64 49 65 50 73 51 66 52 72 53 74 54 71 55
REMARK SMILES IDX 67 56 68 57 69 58 70 59 49 60 50 61 58 62 51 63 57 64 59 65
REMARK SMILES IDX 56 66 52 67 53 68 54 69 55 70 5 71 6 72 7 73 8 74 9 75 10 77
REMARK SMILES IDX 11 78 12 79 15 80 13 81 14 82 16 83 17 84 22 85 18 86 21 87
REMARK SMILES IDX 19 88 20 89
REMARK H PARENT 3 5 79 23 47 34 8 76
REMARK Flexibility Score: inf
ROOT
ATOM      1  C   UNL     1       4.533  -0.292  -1.770  1.00  0.00     0.116 C 
ENDROOT
BRANCH   1   2
ATOM      2  N   UNL     1       3.164   0.017  -1.396  1.00  0.00    -0.352 N 
ATOM      3  O   UNL     1       1.348   0.144  -0.084  1.00  0.00    -0.269 OA
ATOM      4  C   UNL     1       2.552  -0.090  -0.170  1.00  0.00     0.251 C 
ATOM      5  H   UNL     1       2.593   0.349  -2.125  1.00  0.00     0.163 HD
BRANCH   4   6
ATOM      6  C   UNL     1       3.308  -0.522   1.031  1.00  0.00     0.039 A 
ATOM      7  C   UNL     1       4.571  -0.011   1.339  1.00  0.00     0.014 A 
ATOM      8  C   UNL     1       2.704  -1.446   1.895  1.00  0.00     0.014 A 
ATOM      9  C   UNL     1       5.269  -0.496   2.447  1.00  0.00     0.010 A 
ATOM     10  C   UNL     1       3.389  -1.905   3.025  1.00  0.00     0.010 A 
ATOM     11  C   UNL     1       4.690  -1.457   3.290  1.00  0.00    -0.014 A 
BRANCH  11  12
ATOM     12  C   UNL     1       5.468  -1.990   4.434  1.00  0.00     0.031 A 
ATOM     13  C   UNL     1       6.085  -3.359   4.360  1.00  0.00     0.074 A 
ATOM     14  C   UNL     1       5.647  -1.230   5.529  1.00  0.00     0.049 A 
ATOM     15  N   UNL     1       6.857  -3.966   5.225  1.00  0.00    -0.248 NA
ATOM     16  C   UNL     1       5.783  -4.152   3.160  1.00  0.00     0.031 C 
ATOM     17  C   UNL     1       5.072   0.100   5.739  1.00  0.00     0.029 A 
ATOM     18  N   UNL     1       6.377  -1.465   6.665  1.00  0.00    -0.354 N 
ATOM     19  C   UNL     1       7.130  -5.215   4.681  1.00  0.00     0.074 A 
ATOM     20  C   UNL     1       6.420  -5.285   3.420  1.00  0.00     0.031 C 
ATOM     21  C   UNL     1       5.491   0.573   6.925  1.00  0.00     0.029 A 
ATOM     22  C   UNL     1       6.357  -0.420   7.555  1.00  0.00     0.049 A 
ATOM     23  H   UNL     1       6.868  -2.303   6.827  1.00  0.00     0.167 HD
ATOM     24  C   UNL     1       7.903  -6.211   5.181  1.00  0.00     0.034 A 
ATOM     25  C   UNL     1       6.978  -0.273   8.739  1.00  0.00     0.034 A 
ATOM     26  C   UNL     1       8.609  -6.143   6.436  1.00  0.00     0.049 A 
ATOM     27  C   UNL     1       7.878  -1.362   9.246  1.00  0.00     0.074 A 
ATOM     28  C   UNL     1       9.420  -7.097   7.028  1.00  0.00     0.029 A 
ATOM     29  N   UNL     1       8.588  -5.053   7.295  1.00  0.00    -0.354 N 
ATOM     30  N   UNL     1       8.130  -2.534   8.717  1.00  0.00    -0.248 NA
ATOM     31  C   UNL     1       8.589  -1.096  10.504  1.00  0.00     0.031 C 
ATOM     32  C   UNL     1       9.869  -6.593   8.257  1.00  0.00     0.029 A 
ATOM     33  C   UNL     1       9.366  -5.312   8.412  1.00  0.00     0.049 A 
ATOM     34  H   UNL     1       8.092  -4.218   7.133  1.00  0.00     0.167 HD
ATOM     35  C   UNL     1       9.027  -3.151   9.581  1.00  0.00     0.074 A 
ATOM     36  C   UNL     1       9.282  -2.216  10.660  1.00  0.00     0.031 C 
ATOM     37  C   UNL     1       9.590  -4.381   9.489  1.00  0.00     0.034 A 
BRANCH  24  38
ATOM     38  C   UNL     1       7.983  -7.474   4.370  1.00  0.00     0.023 A 
ATOM     39  C   UNL     1       8.688  -7.519   3.155  1.00  0.00     0.031 A 
ATOM     40  C   UNL     1       7.302  -8.629   4.789  1.00  0.00     0.131 A 
ATOM     41  C   UNL     1       8.649  -8.680   2.370  1.00  0.00     0.055 A 
ATOM     42  C   UNL     1       7.312  -9.800   4.029  1.00  0.00     0.041 A 
ATOM     43  F   UNL     1       6.595  -8.628   5.930  1.00  0.00    -0.206 F 
ATOM     44  C   UNL     1       7.979  -9.827   2.807  1.00  0.00     0.022 A 
BRANCH  41  45
ATOM     45  S   UNL     1       9.389  -8.634   0.715  1.00  0.00     0.124 S 
ATOM     46  O   UNL     1       8.611  -7.578   0.071  1.00  0.00    -0.237 OA
ATOM     47  O   UNL     1      10.783  -8.318   1.001  1.00  0.00    -0.237 OA
ATOM     48  O   UNL     1       9.148  -9.979   0.194  1.00  0.00    -0.744 OA
ENDBRANCH  41  45
ENDBRANCH  24  38
BRANCH  25  49
ATOM     49  C   UNL     1       6.767   0.962   9.530  1.00  0.00     0.023 A 
ATOM     50  C   UNL     1       7.693   2.015   9.483  1.00  0.00     0.031 A 
ATOM     51  C   UNL     1       5.626   1.100  10.336  1.00  0.00     0.131 A 
ATOM     52  C   UNL     1       7.467   3.170  10.246  1.00  0.00     0.055 A 
ATOM     53  C   UNL     1       5.402   2.253  11.086  1.00  0.00     0.041 A 
ATOM     54  F   UNL     1       4.713   0.118  10.392  1.00  0.00    -0.206 F 
ATOM     55  C   UNL     1       6.327   3.295  11.047  1.00  0.00     0.022 A 
BRANCH  52  56
ATOM     56  S   UNL     1       8.694   4.509  10.183  1.00  0.00     0.124 S 
ATOM     57  O   UNL     1       9.904   3.835  10.642  1.00  0.00    -0.237 OA
ATOM     58  O   UNL     1       8.666   4.881   8.772  1.00  0.00    -0.237 OA
ATOM     59  O   UNL     1       8.153   5.511  11.099  1.00  0.00    -0.744 OA
ENDBRANCH  52  56
ENDBRANCH  25  49
BRANCH  37  60
ATOM     60  C   UNL     1      10.539  -4.768  10.585  1.00  0.00     0.023 A 
ATOM     61  C   UNL     1      10.066  -5.195  11.838  1.00  0.00     0.031 A 
ATOM     62  C   UNL     1      11.926  -4.686  10.382  1.00  0.00     0.131 A 
ATOM     63  C   UNL     1      10.979  -5.500  12.858  1.00  0.00     0.055 A 
ATOM     64  C   UNL     1      12.830  -5.011  11.393  1.00  0.00     0.041 A 
ATOM     65  F   UNL     1      12.419  -4.277   9.202  1.00  0.00    -0.206 F 
ATOM     66  C   UNL     1      12.358  -5.413  12.642  1.00  0.00     0.022 A 
BRANCH  63  67
ATOM     67  S   UNL     1      10.340  -5.955  14.496  1.00  0.00     0.124 S 
ATOM     68  O   UNL     1       9.498  -4.809  14.828  1.00  0.00    -0.237 OA
ATOM     69  O   UNL     1       9.638  -7.204  14.220  1.00  0.00    -0.237 OA
ATOM     70  O   UNL     1      11.547  -6.090  15.309  1.00  0.00    -0.744 OA
ENDBRANCH  63  67
ENDBRANCH  37  60
ENDBRANCH  11  12
ENDBRANCH   4   6
ENDBRANCH   1   2
BRANCH   1  71
ATOM     71  C   UNL     1       4.702  -0.600  -3.258  1.00  0.00     0.023 C 
BRANCH  71  72
ATOM     72  C   UNL     1       4.205   0.475  -4.235  1.00  0.00     0.023 C 
BRANCH  72  73
ATOM     73  C   UNL     1       4.690   1.897  -3.957  1.00  0.00     0.116 C 
BRANCH  73  74
ATOM     74  N   UNL     1       6.134   2.019  -4.043  1.00  0.00    -0.352 N 
ATOM     75  C   UNL     1       6.950   2.295  -5.111  1.00  0.00     0.256 C 
ATOM     76  H   UNL     1       6.607   1.880  -3.191  1.00  0.00     0.163 HD
ATOM     77  O   UNL     1       8.160   2.145  -4.970  1.00  0.00    -0.269 OA
BRANCH  75  78
ATOM     78  C   UNL     1       6.387   2.740  -6.362  1.00  0.00     0.107 A 
ATOM     79  C   UNL     1       5.464   3.741  -6.545  1.00  0.00     0.245 A 
ATOM     80  C   UNL     1       6.762   2.378  -7.694  1.00  0.00     0.126 A 
ATOM     81  O   UNL     1       5.247   3.937  -7.864  1.00  0.00    -0.363 OA
ATOM     82  N   UNL     1       6.054   3.089  -8.590  1.00  0.00    -0.079 NA
BRANCH  80  83
ATOM     83  C   UNL     1       7.752   1.401  -8.143  1.00  0.00     0.005 A 
ATOM     84  C   UNL     1       7.867   0.146  -7.529  1.00  0.00     0.012 A 
ATOM     85  C   UNL     1       8.603   1.711  -9.216  1.00  0.00     0.012 A 
ATOM     86  C   UNL     1       8.821  -0.777  -7.973  1.00  0.00     0.021 A 
ATOM     87  C   UNL     1       9.557   0.791  -9.658  1.00  0.00     0.021 A 
ATOM     88  C   UNL     1       9.662  -0.450  -9.034  1.00  0.00     0.041 A 
ATOM     89  Cl  UNL     1      10.833  -1.584  -9.583  1.00  0.00    -0.084 Cl
ENDBRANCH  80  83
ENDBRANCH  75  78
ENDBRANCH  73  74
ENDBRANCH  72  73
ENDBRANCH  71  72
ENDBRANCH   1  71
TORSDOF 15
