REMARK SMILES CC(=O)/C=C(/C)NCC(=O)NCCCCNC(=O)c1ccc(-c2c3nc(c(-c4cc(S(=O)(=O)[O-])ccc4F)c4ccc([nH]4)c(-c4cc(S(=O)(=O)[O-])ccc4F)c4nc(c(-c5cc(S(=O)(=O)[O-])ccc5F)c5ccc2[nH]5)C=C4)C=C3)cc1
REMARK SMILES IDX 13 1 12 2 11 3 9 4 10 5 8 7 7 8 5 10 4 11 6 12 2 13 1 14
REMARK SMILES IDX 3 15 14 16 15 17 16 18 17 19 18 21 19 22 20 23 81 24 21 25
REMARK SMILES IDX 80 26 22 27 23 28 24 29 74 30 25 31 79 32 73 33 75 34 26 35
REMARK SMILES IDX 78 36 72 37 71 38 27 40 59 41 39 42 58 43 40 44 43 45 57 46
REMARK SMILES IDX 76 47 41 48 42 49 56 51 77 52 44 53 28 54 29 55 37 56 30 57
REMARK SMILES IDX 36 58 38 59 35 60 31 61 32 62 33 63 34 64 60 65 61 66 69 67
REMARK SMILES IDX 62 68 68 69 70 70 67 71 63 72 64 73 65 74 66 75 45 76 46 77
REMARK SMILES IDX 54 78 47 79 53 80 55 81 52 82 48 83 49 84 50 85 51 86
REMARK H PARENT 11 6 7 9 16 20 75 39 43 50
REMARK Flexibility Score: inf
ROOT
ATOM      1  C   UNL     1       4.650   2.114  -0.387  1.00  0.00     0.023 C 
ENDROOT
BRANCH   1   2
ATOM      2  C   UNL     1       3.739   0.950  -0.771  1.00  0.00     0.116 C 
BRANCH   2   3
ATOM      3  N   UNL     1       3.998  -0.235   0.022  1.00  0.00    -0.355 N 
ATOM      4  C   UNL     1       3.389  -0.696   1.150  1.00  0.00     0.239 C 
ATOM      5  O   UNL     1       3.812  -1.758   1.623  1.00  0.00    -0.273 OA
ATOM      6  H   UNL     1       4.734  -0.799  -0.309  1.00  0.00     0.163 HD
BRANCH   4   7
ATOM      7  C   UNL     1       2.174  -0.008   1.794  1.00  0.00     0.213 C 
BRANCH   7   8
ATOM      8  N   UNL     1       2.212   1.442   1.788  1.00  0.00    -0.380 N 
ATOM      9  H   UNL     1       3.014   1.810   2.225  1.00  0.00     0.160 HD
BRANCH   8  10
ATOM     10  C   UNL     1       1.362   2.417   1.302  1.00  0.00     0.011 C 
ATOM     11  C   UNL     1       0.402   2.427   0.355  1.00  0.00     0.067 C 
ATOM     12  C   UNL     1       1.659   3.779   1.937  1.00  0.00     0.064 C 
BRANCH  11  13
ATOM     13  C   UNL     1      -0.238   1.510  -0.636  1.00  0.00     0.154 C 
ATOM     14  C   UNL     1      -0.022   0.030  -0.647  1.00  0.00     0.093 C 
ATOM     15  O   UNL     1      -1.001   2.021  -1.463  1.00  0.00    -0.295 OA
ENDBRANCH  11  13
ENDBRANCH   8  10
ENDBRANCH   7   8
ENDBRANCH   4   7
ENDBRANCH   2   3
ENDBRANCH   1   2
BRANCH   1  16
ATOM     16  C   UNL     1       6.107   1.934  -0.820  1.00  0.00     0.023 C 
BRANCH  16  17
ATOM     17  C   UNL     1       6.324   1.799  -2.324  1.00  0.00     0.116 C 
BRANCH  17  18
ATOM     18  N   UNL     1       5.888   2.967  -3.071  1.00  0.00    -0.352 N 
ATOM     19  C   UNL     1       6.503   3.583  -4.140  1.00  0.00     0.251 C 
ATOM     20  H   UNL     1       5.041   3.372  -2.774  1.00  0.00     0.163 HD
ATOM     21  O   UNL     1       6.070   4.641  -4.569  1.00  0.00    -0.269 OA
BRANCH  19  22
ATOM     22  C   UNL     1       7.716   2.969  -4.728  1.00  0.00     0.039 A 
ATOM     23  C   UNL     1       8.844   3.767  -4.931  1.00  0.00     0.014 A 
ATOM     24  C   UNL     1       7.750   1.607  -5.039  1.00  0.00     0.014 A 
ATOM     25  C   UNL     1      10.033   3.182  -5.373  1.00  0.00     0.010 A 
ATOM     26  C   UNL     1       8.954   1.015  -5.416  1.00  0.00     0.010 A 
ATOM     27  C   UNL     1      10.110   1.794  -5.577  1.00  0.00    -0.014 A 
BRANCH  27  28
ATOM     28  C   UNL     1      11.394   1.138  -5.941  1.00  0.00     0.031 A 
ATOM     29  C   UNL     1      11.538   0.441  -7.266  1.00  0.00     0.074 A 
ATOM     30  C   UNL     1      12.403   1.107  -5.046  1.00  0.00     0.049 A 
ATOM     31  N   UNL     1      12.540  -0.262  -7.727  1.00  0.00    -0.248 NA
ATOM     32  C   UNL     1      10.389   0.521  -8.181  1.00  0.00     0.031 C 
ATOM     33  C   UNL     1      12.367   1.710  -3.711  1.00  0.00     0.029 A 
ATOM     34  N   UNL     1      13.649   0.537  -5.116  1.00  0.00    -0.354 N 
ATOM     35  C   UNL     1      12.141  -0.719  -8.978  1.00  0.00     0.074 A 
ATOM     36  C   UNL     1      10.783  -0.257  -9.178  1.00  0.00     0.031 C 
ATOM     37  C   UNL     1      13.541   1.491  -3.097  1.00  0.00     0.029 A 
ATOM     38  C   UNL     1      14.397   0.696  -3.971  1.00  0.00     0.049 A 
ATOM     39  H   UNL     1      13.978   0.058  -5.911  1.00  0.00     0.167 HD
ATOM     40  C   UNL     1      12.848  -1.441  -9.883  1.00  0.00     0.034 A 
ATOM     41  C   UNL     1      15.626   0.241  -3.655  1.00  0.00     0.034 A 
ATOM     42  C   UNL     1      14.207  -1.879  -9.676  1.00  0.00     0.049 A 
ATOM     43  C   UNL     1      16.387  -0.571  -4.675  1.00  0.00     0.074 A 
ATOM     44  C   UNL     1      15.036  -2.557 -10.553  1.00  0.00     0.029 A 
ATOM     45  N   UNL     1      14.937  -1.688  -8.510  1.00  0.00    -0.354 N 
ATOM     46  N   UNL     1      16.014  -0.945  -5.877  1.00  0.00    -0.248 NA
ATOM     47  C   UNL     1      17.736  -1.011  -4.299  1.00  0.00     0.031 C 
ATOM     48  C   UNL     1      16.240  -2.832  -9.896  1.00  0.00     0.029 A 
ATOM     49  C   UNL     1      16.193  -2.263  -8.634  1.00  0.00     0.049 A 
ATOM     50  H   UNL     1      14.610  -1.214  -7.711  1.00  0.00     0.167 HD
ATOM     51  C   UNL     1      17.097  -1.639  -6.410  1.00  0.00     0.074 A 
ATOM     52  C   UNL     1      18.140  -1.615  -5.406  1.00  0.00     0.031 C 
ATOM     53  C   UNL     1      17.221  -2.238  -7.621  1.00  0.00     0.034 A 
BRANCH  40  54
ATOM     54  C   UNL     1      12.153  -1.820 -11.168  1.00  0.00     0.023 A 
ATOM     55  C   UNL     1      11.734  -0.850 -12.095  1.00  0.00     0.031 A 
ATOM     56  C   UNL     1      11.899  -3.170 -11.467  1.00  0.00     0.131 A 
ATOM     57  C   UNL     1      11.026  -1.238 -13.243  1.00  0.00     0.055 A 
ATOM     58  C   UNL     1      11.262  -3.555 -12.648  1.00  0.00     0.041 A 
ATOM     59  F   UNL     1      12.258  -4.139 -10.611  1.00  0.00    -0.206 F 
ATOM     60  C   UNL     1      10.809  -2.586 -13.538  1.00  0.00     0.022 A 
BRANCH  57  61
ATOM     61  S   UNL     1      10.285   0.051 -14.281  1.00  0.00     0.124 S 
ATOM     62  O   UNL     1       9.380   0.703 -13.338  1.00  0.00    -0.237 OA
ATOM     63  O   UNL     1      11.446   0.830 -14.694  1.00  0.00    -0.237 OA
ATOM     64  O   UNL     1       9.627  -0.703 -15.346  1.00  0.00    -0.744 OA
ENDBRANCH  57  61
ENDBRANCH  40  54
BRANCH  41  65
ATOM     65  C   UNL     1      16.218   0.518  -2.314  1.00  0.00     0.023 A 
ATOM     66  C   UNL     1      17.382   1.292  -2.183  1.00  0.00     0.031 A 
ATOM     67  C   UNL     1      15.661  -0.037  -1.148  1.00  0.00     0.131 A 
ATOM     68  C   UNL     1      17.983   1.445  -0.924  1.00  0.00     0.055 A 
ATOM     69  C   UNL     1      16.232   0.164   0.110  1.00  0.00     0.041 A 
ATOM     70  F   UNL     1      14.545  -0.781  -1.216  1.00  0.00    -0.206 F 
ATOM     71  C   UNL     1      17.409   0.896   0.225  1.00  0.00     0.022 A 
BRANCH  68  72
ATOM     72  S   UNL     1      19.585   2.290  -0.824  1.00  0.00     0.124 S 
ATOM     73  O   UNL     1      20.396   1.498  -1.741  1.00  0.00    -0.237 OA
ATOM     74  O   UNL     1      19.243   3.637  -1.269  1.00  0.00    -0.237 OA
ATOM     75  O   UNL     1      19.943   2.173   0.588  1.00  0.00    -0.744 OA
ENDBRANCH  68  72
ENDBRANCH  41  65
BRANCH  53  76
ATOM     76  C   UNL     1      18.551  -2.876  -7.937  1.00  0.00     0.023 A 
ATOM     77  C   UNL     1      19.007  -4.015  -7.251  1.00  0.00     0.031 A 
ATOM     78  C   UNL     1      19.380  -2.325  -8.930  1.00  0.00     0.131 A 
ATOM     79  C   UNL     1      20.281  -4.534  -7.529  1.00  0.00     0.055 A 
ATOM     80  C   UNL     1      20.620  -2.881  -9.243  1.00  0.00     0.041 A 
ATOM     81  F   UNL     1      18.994  -1.236  -9.615  1.00  0.00    -0.206 F 
ATOM     82  C   UNL     1      21.083  -3.984  -8.532  1.00  0.00     0.022 A 
BRANCH  79  83
ATOM     83  S   UNL     1      20.913  -5.888  -6.501  1.00  0.00     0.124 S 
ATOM     84  O   UNL     1      20.886  -5.296  -5.168  1.00  0.00    -0.237 OA
ATOM     85  O   UNL     1      19.940  -6.948  -6.748  1.00  0.00    -0.237 OA
ATOM     86  O   UNL     1      22.248  -6.136  -7.043  1.00  0.00    -0.744 OA
ENDBRANCH  79  83
ENDBRANCH  53  76
ENDBRANCH  27  28
ENDBRANCH  19  22
ENDBRANCH  17  18
ENDBRANCH  16  17
ENDBRANCH   1  16
TORSDOF 17
