REMARK SMILES O=C(C[C@H]1CN(S(=O)(=O)c2ccc(F)c(F)c2)CCO1)NCCCCNC(=O)c1ccc(-c2c3nc(c(-c4cc(S(=O)(=O)[O-])ccc4F)c4ccc([nH]4)c(-c4cc(S(=O)(=O)[O-])ccc4F)c4nc(c(-c5cc(S(=O)(=O)[O-])ccc5F)c5ccc2[nH]5)C=C4)C=C3)cc1
REMARK SMILES IDX 23 1 22 2 21 3 1 4 2 5 3 7 4 8 5 9 20 10 6 11 19 12 18 13
REMARK SMILES IDX 7 14 8 15 9 16 10 17 11 18 17 19 12 20 15 21 13 22 16 23
REMARK SMILES IDX 14 24 24 25 25 26 26 27 27 28 28 30 29 31 30 32 91 33 31 34
REMARK SMILES IDX 90 35 32 36 33 37 34 38 84 39 35 40 89 41 83 42 85 43 36 44
REMARK SMILES IDX 88 45 82 46 81 47 37 49 69 50 49 51 68 52 50 53 53 54 67 55
REMARK SMILES IDX 86 56 51 57 52 58 66 60 87 61 54 62 38 63 39 64 47 65 40 66
REMARK SMILES IDX 46 67 48 68 45 69 41 70 42 71 43 72 44 73 70 74 71 75 79 76
REMARK SMILES IDX 72 77 78 78 80 79 77 80 73 81 74 82 75 83 76 84 55 85 56 86
REMARK SMILES IDX 64 87 57 88 63 89 65 90 62 91 58 92 59 93 60 94 61 95
REMARK H PARENT 21 6 26 29 85 48 53 59
REMARK Flexibility Score: inf
ROOT
ATOM      1  C   UNL     1       7.853   5.720   1.963  1.00  0.00     0.023 C 
ENDROOT
BRANCH   1   2
ATOM      2  C   UNL     1       7.373   4.268   1.937  1.00  0.00     0.116 C 
BRANCH   2   3
ATOM      3  N   UNL     1       6.449   3.955   0.858  1.00  0.00    -0.356 N 
ATOM      4  O   UNL     1       7.038   1.748   0.669  1.00  0.00    -0.275 OA
ATOM      5  C   UNL     1       6.245   2.659   0.442  1.00  0.00     0.222 C 
ATOM      6  H   UNL     1       5.959   4.686   0.416  1.00  0.00     0.163 HD
BRANCH   5   7
ATOM      7  C   UNL     1       4.949   2.410  -0.319  1.00  0.00     0.133 C 
BRANCH   7   8
ATOM      8  C   UNL     1       3.702   2.020   0.512  1.00  0.00     0.142 C 
ATOM      9  C   UNL     1       3.889   0.982   1.632  1.00  0.00     0.135 C 
ATOM     10  O   UNL     1       2.987   3.154   1.035  1.00  0.00    -0.375 OA
ATOM     11  N   UNL     1       4.825   1.574   2.610  1.00  0.00    -0.193 NA
ATOM     12  C   UNL     1       3.543   3.714   2.230  1.00  0.00     0.177 C 
ATOM     13  C   UNL     1       4.090   2.714   3.272  1.00  0.00     0.131 C 
BRANCH  11  14
ATOM     14  S   UNL     1       5.640   0.579   3.715  1.00  0.00     0.243 S 
ATOM     15  O   UNL     1       6.518   1.451   4.467  1.00  0.00    -0.207 OA
ATOM     16  O   UNL     1       4.625  -0.205   4.394  1.00  0.00    -0.207 OA
BRANCH  14  17
ATOM     17  C   UNL     1       6.707  -0.610   2.908  1.00  0.00     0.085 A 
ATOM     18  C   UNL     1       6.572  -1.046   1.587  1.00  0.00     0.025 A 
ATOM     19  C   UNL     1       7.692  -1.200   3.718  1.00  0.00     0.064 A 
ATOM     20  C   UNL     1       7.334  -2.117   1.105  1.00  0.00     0.044 A 
ATOM     21  C   UNL     1       8.464  -2.247   3.222  1.00  0.00     0.160 A 
ATOM     22  C   UNL     1       8.269  -2.721   1.932  1.00  0.00     0.158 A 
ATOM     23  F   UNL     1       9.387  -2.815   4.011  1.00  0.00    -0.204 F 
ATOM     24  F   UNL     1       8.978  -3.761   1.473  1.00  0.00    -0.204 F 
ENDBRANCH  14  17
ENDBRANCH  11  14
ENDBRANCH   7   8
ENDBRANCH   5   7
ENDBRANCH   2   3
ENDBRANCH   1   2
BRANCH   1  25
ATOM     25  C   UNL     1       6.764   6.800   1.960  1.00  0.00     0.023 C 
BRANCH  25  26
ATOM     26  C   UNL     1       5.778   6.757   3.124  1.00  0.00     0.116 C 
BRANCH  26  27
ATOM     27  N   UNL     1       6.330   7.264   4.367  1.00  0.00    -0.352 N 
ATOM     28  C   UNL     1       6.046   8.414   5.068  1.00  0.00     0.251 C 
ATOM     29  H   UNL     1       7.021   6.692   4.775  1.00  0.00     0.163 HD
ATOM     30  O   UNL     1       6.745   8.712   6.033  1.00  0.00    -0.269 OA
BRANCH  28  31
ATOM     31  C   UNL     1       4.942   9.316   4.654  1.00  0.00     0.039 A 
ATOM     32  C   UNL     1       5.175  10.695   4.639  1.00  0.00     0.014 A 
ATOM     33  C   UNL     1       3.678   8.828   4.313  1.00  0.00     0.014 A 
ATOM     34  C   UNL     1       4.176  11.571   4.200  1.00  0.00     0.010 A 
ATOM     35  C   UNL     1       2.706   9.696   3.808  1.00  0.00     0.010 A 
ATOM     36  C   UNL     1       2.947  11.077   3.736  1.00  0.00    -0.014 A 
BRANCH  36  37
ATOM     37  C   UNL     1       1.915  11.985   3.158  1.00  0.00     0.031 A 
ATOM     38  C   UNL     1       0.569  12.131   3.815  1.00  0.00     0.074 A 
ATOM     39  C   UNL     1       2.165  12.627   1.998  1.00  0.00     0.049 A 
ATOM     40  N   UNL     1      -0.486  12.793   3.409  1.00  0.00    -0.248 NA
ATOM     41  C   UNL     1       0.376  11.413   5.082  1.00  0.00     0.031 C 
ATOM     42  C   UNL     1       3.413  12.543   1.237  1.00  0.00     0.029 A 
ATOM     43  N   UNL     1       1.378  13.467   1.247  1.00  0.00    -0.354 N 
ATOM     44  C   UNL     1      -1.473  12.561   4.362  1.00  0.00     0.074 A 
ATOM     45  C   UNL     1      -0.903  11.649   5.334  1.00  0.00     0.031 C 
ATOM     46  C   UNL     1       3.314  13.310   0.140  1.00  0.00     0.029 A 
ATOM     47  C   UNL     1       1.982  13.905   0.090  1.00  0.00     0.049 A 
ATOM     48  H   UNL     1       0.467  13.730   1.511  1.00  0.00     0.167 HD
ATOM     49  C   UNL     1      -2.727  13.075   4.434  1.00  0.00     0.034 A 
ATOM     50  C   UNL     1       1.515  14.683  -0.907  1.00  0.00     0.034 A 
ATOM     51  C   UNL     1      -3.280  13.992   3.465  1.00  0.00     0.049 A 
ATOM     52  C   UNL     1       0.113  15.228  -0.818  1.00  0.00     0.074 A 
ATOM     53  C   UNL     1      -4.520  14.611   3.472  1.00  0.00     0.029 A 
ATOM     54  N   UNL     1      -2.634  14.421   2.313  1.00  0.00    -0.354 N 
ATOM     55  N   UNL     1      -0.793  15.030   0.112  1.00  0.00    -0.248 NA
ATOM     56  C   UNL     1      -0.325  16.111  -1.907  1.00  0.00     0.031 C 
ATOM     57  C   UNL     1      -4.646  15.361   2.296  1.00  0.00     0.029 A 
ATOM     58  C   UNL     1      -3.458  15.271   1.589  1.00  0.00     0.049 A 
ATOM     59  H   UNL     1      -1.722  14.159   2.048  1.00  0.00     0.167 HD
ATOM     60  C   UNL     1      -1.898  15.786  -0.269  1.00  0.00     0.074 A 
ATOM     61  C   UNL     1      -1.540  16.454  -1.503  1.00  0.00     0.031 C 
ATOM     62  C   UNL     1      -3.098  15.921   0.351  1.00  0.00     0.034 A 
BRANCH  49  63
ATOM     63  C   UNL     1      -3.592  12.630   5.590  1.00  0.00     0.023 A 
ATOM     64  C   UNL     1      -3.241  12.909   6.923  1.00  0.00     0.031 A 
ATOM     65  C   UNL     1      -4.766  11.891   5.363  1.00  0.00     0.131 A 
ATOM     66  C   UNL     1      -4.004  12.381   7.975  1.00  0.00     0.055 A 
ATOM     67  C   UNL     1      -5.569  11.441   6.414  1.00  0.00     0.041 A 
ATOM     68  F   UNL     1      -5.146  11.577   4.114  1.00  0.00    -0.206 F 
ATOM     69  C   UNL     1      -5.180  11.670   7.730  1.00  0.00     0.022 A 
BRANCH  66  70
ATOM     70  S   UNL     1      -3.350  12.505   9.662  1.00  0.00     0.124 S 
ATOM     71  O   UNL     1      -2.069  11.815   9.533  1.00  0.00    -0.237 OA
ATOM     72  O   UNL     1      -3.282  13.947   9.869  1.00  0.00    -0.237 OA
ATOM     73  O   UNL     1      -4.348  11.805  10.469  1.00  0.00    -0.744 OA
ENDBRANCH  66  70
ENDBRANCH  49  63
BRANCH  50  74
ATOM     74  C   UNL     1       2.372  14.984  -2.089  1.00  0.00     0.023 A 
ATOM     75  C   UNL     1       2.817  16.289  -2.348  1.00  0.00     0.031 A 
ATOM     76  C   UNL     1       2.728  13.972  -2.998  1.00  0.00     0.131 A 
ATOM     77  C   UNL     1       3.557  16.558  -3.510  1.00  0.00     0.055 A 
ATOM     78  C   UNL     1       3.506  14.235  -4.127  1.00  0.00     0.041 A 
ATOM     79  F   UNL     1       2.334  12.704  -2.793  1.00  0.00    -0.206 F 
ATOM     80  C   UNL     1       3.915  15.538  -4.394  1.00  0.00     0.022 A 
BRANCH  77  81
ATOM     81  S   UNL     1       3.984  18.279  -3.889  1.00  0.00     0.124 S 
ATOM     82  O   UNL     1       2.668  18.904  -3.960  1.00  0.00    -0.237 OA
ATOM     83  O   UNL     1       4.808  18.646  -2.741  1.00  0.00    -0.237 OA
ATOM     84  O   UNL     1       4.699  18.180  -5.159  1.00  0.00    -0.744 OA
ENDBRANCH  77  81
ENDBRANCH  50  74
BRANCH  62  85
ATOM     85  C   UNL     1      -4.094  16.862  -0.282  1.00  0.00     0.023 A 
ATOM     86  C   UNL     1      -4.695  16.581  -1.522  1.00  0.00     0.031 A 
ATOM     87  C   UNL     1      -4.433  18.066   0.360  1.00  0.00     0.131 A 
ATOM     88  C   UNL     1      -5.564  17.516  -2.105  1.00  0.00     0.055 A 
ATOM     89  C   UNL     1      -5.341  18.967  -0.199  1.00  0.00     0.041 A 
ATOM     90  F   UNL     1      -3.887  18.387   1.544  1.00  0.00    -0.206 F 
ATOM     91  C   UNL     1      -5.902  18.700  -1.445  1.00  0.00     0.022 A 
BRANCH  88  92
ATOM     92  S   UNL     1      -6.183  17.204  -3.782  1.00  0.00     0.124 S 
ATOM     93  O   UNL     1      -4.945  17.108  -4.549  1.00  0.00    -0.237 OA
ATOM     94  O   UNL     1      -6.926  15.959  -3.614  1.00  0.00    -0.237 OA
ATOM     95  O   UNL     1      -7.002  18.380  -4.070  1.00  0.00    -0.744 OA
ENDBRANCH  88  92
ENDBRANCH  62  85
ENDBRANCH  36  37
ENDBRANCH  28  31
ENDBRANCH  26  27
ENDBRANCH  25  26
ENDBRANCH   1  25
TORSDOF 17
