REMARK SMILES CCOC(=O)c1cc(C[NH2+]CC(=O)NCCCCNC(=O)c2ccc(-c3c4nc(c(-c5cc(S(=O)(=O)[O-])ccc5F)c5ccc([nH]5)c(-c5cc(S(=O)(=O)[O-])ccc5F)c5nc(c(-c6cc(S(=O)(=O)[O-])ccc6F)c6ccc3[nH]6)C=C5)C=C4)cc2)c(C)o1
REMARK SMILES IDX 15 1 14 2 12 3 13 4 11 6 10 7 9 10 8 11 6 12 7 13 87 14
REMARK SMILES IDX 85 15 86 16 4 17 5 18 3 19 2 20 1 21 16 22 17 23 18 24 19 25
REMARK SMILES IDX 20 26 21 28 22 29 23 30 84 31 24 32 83 33 25 34 26 35 27 36
REMARK SMILES IDX 77 37 28 38 82 39 76 40 78 41 29 42 81 43 75 44 74 45 30 47
REMARK SMILES IDX 62 48 42 49 61 50 43 51 46 52 60 53 79 54 44 55 45 56 59 58
REMARK SMILES IDX 80 59 47 60 31 61 32 62 40 63 33 64 39 65 41 66 38 67 34 68
REMARK SMILES IDX 35 69 36 70 37 71 63 72 64 73 72 74 65 75 71 76 73 77 70 78
REMARK SMILES IDX 66 79 67 80 68 81 69 82 48 83 49 84 57 85 50 86 56 87 58 88
REMARK SMILES IDX 55 89 51 90 52 91 53 92 54 93
REMARK H PARENT 14 5 10 8 10 9 19 27 78 46 46 57
REMARK Flexibility Score: inf
ROOT
ATOM      1  C   UNL     1       3.854   4.130   0.578  1.00  0.00     0.116 C 
ENDROOT
BRANCH   1   2
ATOM      2  N   UNL     1       3.617   4.423   1.986  1.00  0.00    -0.351 N 
ATOM      3  C   UNL     1       4.333   4.101   3.109  1.00  0.00     0.275 C 
ATOM      4  O   UNL     1       3.835   4.373   4.205  1.00  0.00    -0.269 OA
ATOM      5  H   UNL     1       2.801   4.944   2.160  1.00  0.00     0.163 HD
BRANCH   3   6
ATOM      6  C   UNL     1       5.699   3.382   3.026  1.00  0.00     0.362 C 
BRANCH   6   7
ATOM      7  N   UNL     1       5.600   1.897   3.176  1.00  0.00    -0.335 N 
ATOM      8  H   UNL     1       6.532   1.483   3.160  1.00  0.00     0.347 HD
ATOM      9  H   UNL     1       5.159   1.654   4.063  1.00  0.00     0.347 HD
BRANCH   7  10
ATOM     10  C   UNL     1       4.818   1.398   2.065  1.00  0.00     0.301 C 
BRANCH  10  11
ATOM     11  C   UNL     1       4.624  -0.064   1.955  1.00  0.00     0.048 A 
ATOM     12  C   UNL     1       3.470  -1.860   1.250  1.00  0.00     0.212 A 
ATOM     13  C   UNL     1       3.336  -0.671   1.939  1.00  0.00     0.068 A 
ATOM     14  O   UNL     1       4.801  -2.138   1.093  1.00  0.00    -0.454 OA
ATOM     15  C   UNL     1       5.498  -1.038   1.514  1.00  0.00     0.110 A 
ATOM     16  C   UNL     1       6.952  -1.056   1.256  1.00  0.00     0.088 C 
BRANCH  12  17
ATOM     17  C   UNL     1       2.471  -2.644   0.558  1.00  0.00     0.374 C 
ATOM     18  O   UNL     1       2.664  -3.580  -0.206  1.00  0.00    -0.242 OA
BRANCH  17  19
ATOM     19  O   UNL     1       1.257  -2.048   0.753  1.00  0.00    -0.460 OA
BRANCH  19  20
ATOM     20  C   UNL     1       0.503  -1.768  -0.435  1.00  0.00     0.230 C 
ATOM     21  C   UNL     1       0.443  -0.253  -0.571  1.00  0.00     0.049 C 
ENDBRANCH  19  20
ENDBRANCH  17  19
ENDBRANCH  12  17
ENDBRANCH  10  11
ENDBRANCH   7  10
ENDBRANCH   6   7
ENDBRANCH   3   6
ENDBRANCH   1   2
BRANCH   1  22
ATOM     22  C   UNL     1       2.876   3.075   0.034  1.00  0.00     0.023 C 
BRANCH  22  23
ATOM     23  C   UNL     1       1.493   3.598  -0.328  1.00  0.00     0.023 C 
BRANCH  23  24
ATOM     24  C   UNL     1       1.462   4.454  -1.579  1.00  0.00     0.116 C 
BRANCH  24  25
ATOM     25  N   UNL     1       1.914   3.744  -2.769  1.00  0.00    -0.352 N 
ATOM     26  C   UNL     1       1.325   3.669  -4.010  1.00  0.00     0.251 C 
ATOM     27  H   UNL     1       2.759   3.248  -2.671  1.00  0.00     0.163 HD
ATOM     28  O   UNL     1       1.785   2.915  -4.861  1.00  0.00    -0.269 OA
BRANCH  26  29
ATOM     29  C   UNL     1       0.113   4.469  -4.281  1.00  0.00     0.039 A 
ATOM     30  C   UNL     1      -0.977   3.864  -4.909  1.00  0.00     0.014 A 
ATOM     31  C   UNL     1       0.032   5.794  -3.848  1.00  0.00     0.014 A 
ATOM     32  C   UNL     1      -2.180   4.564  -5.021  1.00  0.00     0.010 A 
ATOM     33  C   UNL     1      -1.194   6.444  -3.857  1.00  0.00     0.010 A 
ATOM     34  C   UNL     1      -2.313   5.841  -4.450  1.00  0.00    -0.014 A 
BRANCH  34  35
ATOM     35  C   UNL     1      -3.602   6.580  -4.475  1.00  0.00     0.031 A 
ATOM     36  C   UNL     1      -3.670   7.926  -5.149  1.00  0.00     0.074 A 
ATOM     37  C   UNL     1      -4.672   6.087  -3.818  1.00  0.00     0.049 A 
ATOM     38  N   UNL     1      -4.654   8.786  -5.180  1.00  0.00    -0.248 NA
ATOM     39  C   UNL     1      -2.453   8.386  -5.838  1.00  0.00     0.031 C 
ATOM     40  C   UNL     1      -4.703   4.825  -3.073  1.00  0.00     0.029 A 
ATOM     41  N   UNL     1      -5.937   6.595  -3.654  1.00  0.00    -0.354 N 
ATOM     42  C   UNL     1      -4.163   9.898  -5.856  1.00  0.00     0.074 A 
ATOM     43  C   UNL     1      -2.778   9.626  -6.167  1.00  0.00     0.031 C 
ATOM     44  C   UNL     1      -5.929   4.650  -2.552  1.00  0.00     0.029 A 
ATOM     45  C   UNL     1      -6.758   5.803  -2.882  1.00  0.00     0.049 A 
ATOM     46  H   UNL     1      -6.230   7.447  -4.051  1.00  0.00     0.167 HD
ATOM     47  C   UNL     1      -4.817  11.032  -6.206  1.00  0.00     0.034 A 
ATOM     48  C   UNL     1      -8.030   5.995  -2.476  1.00  0.00     0.034 A 
ATOM     49  C   UNL     1      -6.213  11.259  -5.936  1.00  0.00     0.049 A 
ATOM     50  C   UNL     1      -8.746   7.248  -2.916  1.00  0.00     0.074 A 
ATOM     51  C   UNL     1      -7.004  12.322  -6.336  1.00  0.00     0.029 A 
ATOM     52  N   UNL     1      -7.028  10.411  -5.199  1.00  0.00    -0.354 N 
ATOM     53  N   UNL     1      -8.289   8.253  -3.629  1.00  0.00    -0.248 NA
ATOM     54  C   UNL     1     -10.152   7.388  -2.513  1.00  0.00     0.031 C 
ATOM     55  C   UNL     1      -8.277  12.150  -5.785  1.00  0.00     0.029 A 
ATOM     56  C   UNL     1      -8.304  10.943  -5.105  1.00  0.00     0.049 A 
ATOM     57  H   UNL     1      -6.742   9.558  -4.800  1.00  0.00     0.167 HD
ATOM     58  C   UNL     1      -9.363   9.125  -3.786  1.00  0.00     0.074 A 
ATOM     59  C   UNL     1     -10.492   8.519  -3.111  1.00  0.00     0.031 C 
ATOM     60  C   UNL     1      -9.416  10.319  -4.429  1.00  0.00     0.034 A 
BRANCH  47  61
ATOM     61  C   UNL     1      -4.028  12.114  -6.902  1.00  0.00     0.023 A 
ATOM     62  C   UNL     1      -3.456  11.921  -8.170  1.00  0.00     0.031 A 
ATOM     63  C   UNL     1      -3.848  13.364  -6.282  1.00  0.00     0.131 A 
ATOM     64  C   UNL     1      -2.679  12.935  -8.750  1.00  0.00     0.055 A 
ATOM     65  C   UNL     1      -3.139  14.396  -6.898  1.00  0.00     0.041 A 
ATOM     66  F   UNL     1      -4.352  13.599  -5.060  1.00  0.00    -0.206 F 
ATOM     67  C   UNL     1      -2.540  14.181  -8.135  1.00  0.00     0.022 A 
BRANCH  64  68
ATOM     68  S   UNL     1      -1.756  12.561 -10.265  1.00  0.00     0.124 S 
ATOM     69  O   UNL     1      -0.873  11.488  -9.814  1.00  0.00    -0.237 OA
ATOM     70  O   UNL     1      -2.812  12.172 -11.192  1.00  0.00    -0.237 OA
ATOM     71  O   UNL     1      -1.085  13.821 -10.578  1.00  0.00    -0.744 OA
ENDBRANCH  64  68
ENDBRANCH  47  61
BRANCH  48  72
ATOM     72  C   UNL     1      -8.711   4.998  -1.597  1.00  0.00     0.023 A 
ATOM     73  C   UNL     1      -9.856   4.311  -2.032  1.00  0.00     0.031 A 
ATOM     74  C   UNL     1      -8.266   4.767  -0.283  1.00  0.00     0.131 A 
ATOM     75  C   UNL     1     -10.554   3.478  -1.143  1.00  0.00     0.055 A 
ATOM     76  C   UNL     1      -8.930   3.891   0.578  1.00  0.00     0.041 A 
ATOM     77  F   UNL     1      -7.173   5.391   0.184  1.00  0.00    -0.206 F 
ATOM     78  C   UNL     1     -10.092   3.254   0.155  1.00  0.00     0.022 A 
BRANCH  75  79
ATOM     79  S   UNL     1     -12.144   2.783  -1.673  1.00  0.00     0.124 S 
ATOM     80  O   UNL     1     -12.877   3.982  -2.063  1.00  0.00    -0.237 OA
ATOM     81  O   UNL     1     -11.737   1.897  -2.759  1.00  0.00    -0.237 OA
ATOM     82  O   UNL     1     -12.637   2.111  -0.473  1.00  0.00    -0.744 OA
ENDBRANCH  75  79
ENDBRANCH  48  72
BRANCH  60  83
ATOM     83  C   UNL     1     -10.752  11.015  -4.476  1.00  0.00     0.023 A 
ATOM     84  C   UNL     1     -11.358  11.532  -3.318  1.00  0.00     0.031 A 
ATOM     85  C   UNL     1     -11.429  11.161  -5.700  1.00  0.00     0.131 A 
ATOM     86  C   UNL     1     -12.628  12.121  -3.400  1.00  0.00     0.055 A 
ATOM     87  C   UNL     1     -12.664  11.803  -5.785  1.00  0.00     0.041 A 
ATOM     88  F   UNL     1     -10.895  10.685  -6.837  1.00  0.00    -0.206 F 
ATOM     89  C   UNL     1     -13.277  12.276  -4.628  1.00  0.00     0.022 A 
BRANCH  86  90
ATOM     90  S   UNL     1     -13.463  12.603  -1.864  1.00  0.00     0.124 S 
ATOM     91  O   UNL     1     -13.525  11.336  -1.142  1.00  0.00    -0.237 OA
ATOM     92  O   UNL     1     -12.554  13.605  -1.316  1.00  0.00    -0.237 OA
ATOM     93  O   UNL     1     -14.751  13.120  -2.322  1.00  0.00    -0.744 OA
ENDBRANCH  86  90
ENDBRANCH  60  83
ENDBRANCH  34  35
ENDBRANCH  26  29
ENDBRANCH  24  25
ENDBRANCH  23  24
ENDBRANCH  22  23
ENDBRANCH   1  22
TORSDOF 20
