REMARK SMILES O=C(NCCCCNC(=O)[C@@]1([NH2+]C2CC2)CCC[C@@H]([NH+]2CCS(=O)(=O)CC2)C1)c1ccc(-c2c3nc(c(-c4cc(S(=O)(=O)[O-])ccc4F)c4ccc([nH]4)c(-c4cc(S(=O)(=O)[O-])ccc4F)c4nc(c(-c5cc(S(=O)(=O)[O-])ccc5F)c5ccc2[nH]5)C=C4)C=C3)cc1
REMARK SMILES IDX 5 1 4 2 3 3 1 4 2 5 29 7 30 8 91 9 31 10 90 11 32 12 33 13
REMARK SMILES IDX 34 14 84 15 35 16 89 17 83 18 85 19 36 20 88 21 82 22 81 23
REMARK SMILES IDX 37 25 69 26 49 27 68 28 50 29 53 30 67 31 86 32 51 33 52 34
REMARK SMILES IDX 66 36 87 37 54 38 38 39 39 40 47 41 40 42 46 43 48 44 45 45
REMARK SMILES IDX 41 46 42 47 43 48 44 49 70 50 71 51 79 52 72 53 78 54 80 55
REMARK SMILES IDX 77 56 73 57 74 58 75 59 76 60 55 61 56 62 64 63 57 64 63 65
REMARK SMILES IDX 65 66 62 67 58 68 59 69 60 70 61 71 6 72 7 73 8 74 9 75
REMARK SMILES IDX 10 77 11 78 16 79 28 80 17 81 19 82 18 83 12 84 13 87 14 88
REMARK SMILES IDX 15 89 20 90 21 91 27 92 22 94 26 95 23 96 24 97 25 98
REMARK H PARENT 3 6 85 24 53 35 8 76 12 85 12 86 20 93
REMARK Flexibility Score: inf
ROOT
ATOM      1  C   UNL     1       4.691   0.414  -2.507  1.00  0.00     0.023 C 
ENDROOT
BRANCH   1   2
ATOM      2  C   UNL     1       4.368   0.319  -1.025  1.00  0.00     0.116 C 
BRANCH   2   3
ATOM      3  N   UNL     1       2.948   0.501  -0.728  1.00  0.00    -0.352 N 
ATOM      4  O   UNL     1       0.990  -0.006   0.299  1.00  0.00    -0.269 OA
ATOM      5  C   UNL     1       2.204  -0.159   0.222  1.00  0.00     0.251 C 
ATOM      6  H   UNL     1       2.471   1.171  -1.269  1.00  0.00     0.163 HD
BRANCH   5   7
ATOM      7  C   UNL     1       2.923  -1.072   1.127  1.00  0.00     0.039 A 
ATOM      8  C   UNL     1       4.084  -0.609   1.745  1.00  0.00     0.014 A 
ATOM      9  C   UNL     1       2.531  -2.406   1.234  1.00  0.00     0.014 A 
ATOM     10  C   UNL     1       4.954  -1.523   2.307  1.00  0.00     0.010 A 
ATOM     11  C   UNL     1       3.346  -3.300   1.933  1.00  0.00     0.010 A 
ATOM     12  C   UNL     1       4.578  -2.870   2.451  1.00  0.00    -0.014 A 
BRANCH  12  13
ATOM     13  C   UNL     1       5.471  -3.755   3.240  1.00  0.00     0.031 A 
ATOM     14  C   UNL     1       6.124  -4.967   2.641  1.00  0.00     0.074 A 
ATOM     15  C   UNL     1       5.743  -3.381   4.508  1.00  0.00     0.049 A 
ATOM     16  N   UNL     1       6.962  -5.803   3.199  1.00  0.00    -0.248 NA
ATOM     17  C   UNL     1       5.792  -5.293   1.247  1.00  0.00     0.031 C 
ATOM     18  C   UNL     1       5.148  -2.221   5.184  1.00  0.00     0.029 A 
ATOM     19  N   UNL     1       6.607  -3.892   5.438  1.00  0.00    -0.354 N 
ATOM     20  C   UNL     1       7.253  -6.760   2.233  1.00  0.00     0.074 A 
ATOM     21  C   UNL     1       6.468  -6.420   1.063  1.00  0.00     0.031 C 
ATOM     22  C   UNL     1       5.727  -2.060   6.378  1.00  0.00     0.029 A 
ATOM     23  C   UNL     1       6.643  -3.167   6.606  1.00  0.00     0.049 A 
ATOM     24  H   UNL     1       7.150  -4.699   5.285  1.00  0.00     0.167 HD
ATOM     25  C   UNL     1       8.103  -7.814   2.319  1.00  0.00     0.034 A 
ATOM     26  C   UNL     1       7.309  -3.386   7.754  1.00  0.00     0.034 A 
ATOM     27  C   UNL     1       8.868  -8.131   3.504  1.00  0.00     0.049 A 
ATOM     28  C   UNL     1       8.207  -4.587   7.831  1.00  0.00     0.074 A 
ATOM     29  C   UNL     1       9.755  -9.175   3.705  1.00  0.00     0.029 A 
ATOM     30  N   UNL     1       8.839  -7.409   4.693  1.00  0.00    -0.354 N 
ATOM     31  N   UNL     1       8.464  -5.484   6.906  1.00  0.00    -0.248 NA
ATOM     32  C   UNL     1       8.905  -4.804   9.100  1.00  0.00     0.031 C 
ATOM     33  C   UNL     1      10.205  -9.126   5.029  1.00  0.00     0.029 A 
ATOM     34  C   UNL     1       9.669  -8.001   5.635  1.00  0.00     0.049 A 
ATOM     35  H   UNL     1       8.306  -6.596   4.845  1.00  0.00     0.167 HD
ATOM     36  C   UNL     1       9.367  -6.369   7.484  1.00  0.00     0.074 A 
ATOM     37  C   UNL     1       9.641  -5.867   8.816  1.00  0.00     0.031 C 
ATOM     38  C   UNL     1       9.911  -7.501   6.968  1.00  0.00     0.034 A 
BRANCH  25  39
ATOM     39  C   UNL     1       8.222  -8.722   1.117  1.00  0.00     0.023 A 
ATOM     40  C   UNL     1       8.745  -8.268  -0.106  1.00  0.00     0.031 A 
ATOM     41  C   UNL     1       7.818 -10.068   1.198  1.00  0.00     0.131 A 
ATOM     42  C   UNL     1       8.801  -9.133  -1.211  1.00  0.00     0.055 A 
ATOM     43  C   UNL     1       7.947 -10.944   0.118  1.00  0.00     0.041 A 
ATOM     44  F   UNL     1       7.289 -10.556   2.331  1.00  0.00    -0.206 F 
ATOM     45  C   UNL     1       8.431 -10.476  -1.099  1.00  0.00     0.022 A 
BRANCH  42  46
ATOM     46  S   UNL     1       9.251  -8.449  -2.829  1.00  0.00     0.124 S 
ATOM     47  O   UNL     1       8.217  -7.434  -3.018  1.00  0.00    -0.237 OA
ATOM     48  O   UNL     1      10.601  -7.949  -2.596  1.00  0.00    -0.237 OA
ATOM     49  O   UNL     1       9.157  -9.598  -3.727  1.00  0.00    -0.744 OA
ENDBRANCH  42  46
ENDBRANCH  25  39
BRANCH  26  50
ATOM     50  C   UNL     1       7.097  -2.492   8.929  1.00  0.00     0.023 A 
ATOM     51  C   UNL     1       8.160  -1.790   9.512  1.00  0.00     0.031 A 
ATOM     52  C   UNL     1       5.823  -2.364   9.515  1.00  0.00     0.131 A 
ATOM     53  C   UNL     1       7.944  -1.041  10.679  1.00  0.00     0.055 A 
ATOM     54  C   UNL     1       5.598  -1.556  10.629  1.00  0.00     0.041 A 
ATOM     55  F   UNL     1       4.767  -3.014   8.999  1.00  0.00    -0.206 F 
ATOM     56  C   UNL     1       6.667  -0.904  11.230  1.00  0.00     0.022 A 
BRANCH  53  57
ATOM     57  S   UNL     1       9.381  -0.352  11.543  1.00  0.00     0.124 S 
ATOM     58  O   UNL     1      10.209  -1.538  11.732  1.00  0.00    -0.237 OA
ATOM     59  O   UNL     1       9.872   0.626  10.578  1.00  0.00    -0.237 OA
ATOM     60  O   UNL     1       8.806   0.210  12.763  1.00  0.00    -0.744 OA
ENDBRANCH  53  57
ENDBRANCH  26  50
BRANCH  38  61
ATOM     61  C   UNL     1      10.879  -8.242   7.858  1.00  0.00     0.023 A 
ATOM     62  C   UNL     1      10.466  -8.814   9.075  1.00  0.00     0.031 A 
ATOM     63  C   UNL     1      12.240  -8.323   7.518  1.00  0.00     0.131 A 
ATOM     64  C   UNL     1      11.418  -9.360   9.948  1.00  0.00     0.055 A 
ATOM     65  C   UNL     1      13.170  -8.940   8.355  1.00  0.00     0.041 A 
ATOM     66  F   UNL     1      12.692  -7.791   6.371  1.00  0.00    -0.206 F 
ATOM     67  C   UNL     1      12.764  -9.444   9.588  1.00  0.00     0.022 A 
BRANCH  64  68
ATOM     68  S   UNL     1      10.891  -9.828  11.620  1.00  0.00     0.124 S 
ATOM     69  O   UNL     1      10.331  -8.577  12.121  1.00  0.00    -0.237 OA
ATOM     70  O   UNL     1       9.932 -10.895  11.357  1.00  0.00    -0.237 OA
ATOM     71  O   UNL     1      12.132 -10.254  12.263  1.00  0.00    -0.744 OA
ENDBRANCH  64  68
ENDBRANCH  38  61
ENDBRANCH  12  13
ENDBRANCH   5   7
ENDBRANCH   2   3
ENDBRANCH   1   2
BRANCH   1  72
ATOM     72  C   UNL     1       4.196   1.701  -3.157  1.00  0.00     0.023 C 
BRANCH  72  73
ATOM     73  C   UNL     1       4.787   2.956  -2.527  1.00  0.00     0.116 C 
BRANCH  73  74
ATOM     74  N   UNL     1       6.162   3.167  -2.928  1.00  0.00    -0.351 N 
ATOM     75  C   UNL     1       6.769   3.769  -3.984  1.00  0.00     0.281 C 
ATOM     76  H   UNL     1       6.806   2.787  -2.287  1.00  0.00     0.163 HD
ATOM     77  O   UNL     1       8.000   3.623  -4.017  1.00  0.00    -0.268 OA
BRANCH  75  78
ATOM     78  C   UNL     1       6.057   4.689  -5.039  1.00  0.00     0.181 C 
ATOM     79  C   UNL     1       4.541   4.862  -4.951  1.00  0.00     0.079 C 
ATOM     80  C   UNL     1       6.705   6.076  -4.720  1.00  0.00     0.144 C 
ATOM     81  C   UNL     1       3.998   5.954  -5.862  1.00  0.00     0.013 C 
ATOM     82  C   UNL     1       5.983   7.385  -5.101  1.00  0.00     0.190 C 
ATOM     83  C   UNL     1       4.457   7.296  -5.313  1.00  0.00     0.065 C 
BRANCH  78  84
ATOM     84  N   UNL     1       6.492   4.334  -6.410  1.00  0.00    -0.331 N 
ATOM     85  H   UNL     1       7.469   4.621  -6.465  1.00  0.00     0.347 HD
ATOM     86  H   UNL     1       5.756   4.788  -6.952  1.00  0.00     0.347 HD
BRANCH  84  87
ATOM     87  C   UNL     1       6.450   2.998  -7.000  1.00  0.00     0.183 C 
ATOM     88  C   UNL     1       6.425   1.688  -6.277  1.00  0.00     0.071 C 
ATOM     89  C   UNL     1       5.212   2.151  -7.034  1.00  0.00     0.071 C 
ENDBRANCH  84  87
ENDBRANCH  78  84
BRANCH  82  90
ATOM     90  N   UNL     1       6.319   8.546  -4.237  1.00  0.00    -0.331 N 
ATOM     91  C   UNL     1       7.686   9.065  -4.358  1.00  0.00     0.278 C 
ATOM     92  C   UNL     1       5.839   8.579  -2.847  1.00  0.00     0.278 C 
ATOM     93  H   UNL     1       5.698   9.211  -4.699  1.00  0.00     0.348 HD
ATOM     94  C   UNL     1       8.757   8.336  -3.568  1.00  0.00     0.198 C 
ATOM     95  C   UNL     1       6.631   7.824  -1.795  1.00  0.00     0.198 C 
ATOM     96  S   UNL     1       8.352   8.246  -1.844  1.00  0.00     0.161 S 
ATOM     97  O   UNL     1       9.091   7.139  -1.273  1.00  0.00    -0.228 OA
ATOM     98  O   UNL     1       8.490   9.583  -1.289  1.00  0.00    -0.228 OA
ENDBRANCH  82  90
ENDBRANCH  75  78
ENDBRANCH  73  74
ENDBRANCH  72  73
ENDBRANCH   1  72
TORSDOF 17
