REMARK SMILES C[C@H](Oc1ccccc1Cl)C(=O)N1CCCC[C@H]1C(=O)NCCCCNC(=O)c1ccc(-c2c3nc(c(-c4cc(S(=O)(=O)[O-])ccc4F)c4ccc([nH]4)c(-c4cc(S(=O)(=O)[O-])ccc4F)c4nc(c(-c5cc(S(=O)(=O)[O-])ccc5F)c5ccc2[nH]5)C=C4)C=C3)cc1
REMARK SMILES IDX 23 1 22 2 21 3 19 4 20 5 18 7 13 8 14 9 15 10 17 11 16 12
REMARK SMILES IDX 11 13 12 14 2 15 1 16 3 17 4 18 5 19 9 20 6 21 8 22 10 23
REMARK SMILES IDX 7 24 24 25 25 26 26 27 27 28 28 30 29 31 30 32 91 33 31 34
REMARK SMILES IDX 90 35 32 36 33 37 34 38 84 39 35 40 89 41 83 42 85 43 36 44
REMARK SMILES IDX 88 45 82 46 81 47 37 49 69 50 49 51 68 52 50 53 53 54 67 55
REMARK SMILES IDX 86 56 51 57 52 58 66 60 87 61 54 62 38 63 39 64 47 65 40 66
REMARK SMILES IDX 46 67 48 68 45 69 41 70 42 71 43 72 44 73 70 74 71 75 79 76
REMARK SMILES IDX 72 77 78 78 80 79 77 80 73 81 74 82 75 83 76 84 55 85 56 86
REMARK SMILES IDX 64 87 57 88 63 89 65 90 62 91 58 92 59 93 60 94 61 95
REMARK H PARENT 21 6 26 29 85 48 53 59
REMARK Flexibility Score: inf
ROOT
ATOM      1  C   UNL     1      -0.642  -1.773  -4.995  1.00  0.00     0.023 C 
ENDROOT
BRANCH   1   2
ATOM      2  C   UNL     1       0.058  -0.968  -3.903  1.00  0.00     0.116 C 
BRANCH   2   3
ATOM      3  N   UNL     1      -0.373   0.417  -3.852  1.00  0.00    -0.354 N 
ATOM      4  C   UNL     1      -1.011   1.091  -2.847  1.00  0.00     0.242 C 
ATOM      5  O   UNL     1      -1.208   2.298  -3.009  1.00  0.00    -0.273 OA
ATOM      6  H   UNL     1      -0.177   0.948  -4.657  1.00  0.00     0.163 HD
BRANCH   4   7
ATOM      7  C   UNL     1      -1.491   0.328  -1.586  1.00  0.00     0.174 C 
ATOM      8  N   UNL     1      -1.821   1.199  -0.436  1.00  0.00    -0.327 N 
ATOM      9  C   UNL     1      -3.082   1.939  -0.520  1.00  0.00     0.120 C 
ATOM     10  C   UNL     1      -4.267   1.052  -0.875  1.00  0.00     0.022 C 
ATOM     11  C   UNL     1      -2.684  -0.587  -1.905  1.00  0.00     0.035 C 
ATOM     12  C   UNL     1      -3.977   0.197  -2.102  1.00  0.00     0.004 C 
BRANCH   8  13
ATOM     13  C   UNL     1      -1.001   1.419   0.669  1.00  0.00     0.264 C 
ATOM     14  O   UNL     1      -1.477   1.764   1.757  1.00  0.00    -0.271 OA
BRANCH  13  15
ATOM     15  C   UNL     1       0.542   1.449   0.480  1.00  0.00     0.259 C 
ATOM     16  C   UNL     1       0.826   2.694  -0.372  1.00  0.00     0.064 C 
BRANCH  15  17
ATOM     17  O   UNL     1       1.043   0.207  -0.003  1.00  0.00    -0.479 OA
BRANCH  17  18
ATOM     18  C   UNL     1       2.336   0.018  -0.402  1.00  0.00     0.139 A 
ATOM     19  C   UNL     1       3.357   0.965  -0.315  1.00  0.00     0.048 A 
ATOM     20  C   UNL     1       2.640  -1.228  -0.981  1.00  0.00     0.083 A 
ATOM     21  C   UNL     1       4.603   0.731  -0.909  1.00  0.00     0.004 A 
ATOM     22  C   UNL     1       3.886  -1.466  -1.571  1.00  0.00     0.024 A 
ATOM     23  Cl  UNL     1       1.505  -2.535  -0.961  1.00  0.00    -0.080 Cl
ATOM     24  C   UNL     1       4.860  -0.473  -1.558  1.00  0.00     0.002 A 
ENDBRANCH  17  18
ENDBRANCH  15  17
ENDBRANCH  13  15
ENDBRANCH   8  13
ENDBRANCH   4   7
ENDBRANCH   2   3
ENDBRANCH   1   2
BRANCH   1  25
ATOM     25  C   UNL     1      -0.432  -1.263  -6.420  1.00  0.00     0.023 C 
BRANCH  25  26
ATOM     26  C   UNL     1       1.022  -1.093  -6.844  1.00  0.00     0.116 C 
BRANCH  26  27
ATOM     27  N   UNL     1       1.779  -2.333  -6.783  1.00  0.00    -0.352 N 
ATOM     28  C   UNL     1       2.565  -2.922  -7.744  1.00  0.00     0.251 C 
ATOM     29  H   UNL     1       1.720  -2.820  -5.929  1.00  0.00     0.163 HD
ATOM     30  O   UNL     1       3.009  -4.052  -7.552  1.00  0.00    -0.269 OA
BRANCH  28  31
ATOM     31  C   UNL     1       2.842  -2.215  -9.014  1.00  0.00     0.039 A 
ATOM     32  C   UNL     1       2.745  -2.923 -10.215  1.00  0.00     0.014 A 
ATOM     33  C   UNL     1       3.180  -0.859  -9.028  1.00  0.00     0.014 A 
ATOM     34  C   UNL     1       2.914  -2.254 -11.430  1.00  0.00     0.010 A 
ATOM     35  C   UNL     1       3.265  -0.178 -10.240  1.00  0.00     0.010 A 
ATOM     36  C   UNL     1       3.133  -0.867 -11.455  1.00  0.00    -0.014 A 
BRANCH  36  37
ATOM     37  C   UNL     1       3.211  -0.125 -12.742  1.00  0.00     0.031 A 
ATOM     38  C   UNL     1       4.470   0.602 -13.128  1.00  0.00     0.074 A 
ATOM     39  C   UNL     1       2.122  -0.049 -13.532  1.00  0.00     0.049 A 
ATOM     40  N   UNL     1       4.710   1.346 -14.178  1.00  0.00    -0.248 NA
ATOM     41  C   UNL     1       5.594   0.507 -12.188  1.00  0.00     0.031 C 
ATOM     42  C   UNL     1       0.823  -0.658 -13.238  1.00  0.00     0.029 A 
ATOM     43  N   UNL     1       1.927   0.583 -14.735  1.00  0.00    -0.354 N 
ATOM     44  C   UNL     1       6.009   1.816 -14.020  1.00  0.00     0.074 A 
ATOM     45  C   UNL     1       6.471   1.334 -12.735  1.00  0.00     0.031 C 
ATOM     46  C   UNL     1      -0.026  -0.388 -14.241  1.00  0.00     0.029 A 
ATOM     47  C   UNL     1       0.649   0.452 -15.226  1.00  0.00     0.049 A 
ATOM     48  H   UNL     1       2.635   1.082 -15.202  1.00  0.00     0.167 HD
ATOM     49  C   UNL     1       6.756   2.558 -14.878  1.00  0.00     0.034 A 
ATOM     50  C   UNL     1       0.075   0.963 -16.333  1.00  0.00     0.034 A 
ATOM     51  C   UNL     1       6.272   3.035 -16.152  1.00  0.00     0.049 A 
ATOM     52  C   UNL     1       0.907   1.804 -17.264  1.00  0.00     0.074 A 
ATOM     53  C   UNL     1       6.958   3.735 -17.129  1.00  0.00     0.029 A 
ATOM     54  N   UNL     1       4.971   2.880 -16.621  1.00  0.00    -0.354 N 
ATOM     55  N   UNL     1       2.161   2.178 -17.141  1.00  0.00    -0.248 NA
ATOM     56  C   UNL     1       0.253   2.280 -18.488  1.00  0.00     0.031 C 
ATOM     57  C   UNL     1       6.055   4.076 -18.143  1.00  0.00     0.029 A 
ATOM     58  C   UNL     1       4.824   3.510 -17.849  1.00  0.00     0.049 A 
ATOM     59  H   UNL     1       4.257   2.393 -16.149  1.00  0.00     0.167 HD
ATOM     60  C   UNL     1       2.450   2.919 -18.283  1.00  0.00     0.074 A 
ATOM     61  C   UNL     1       1.246   2.920 -19.090  1.00  0.00     0.031 C 
ATOM     62  C   UNL     1       3.609   3.535 -18.634  1.00  0.00     0.034 A 
BRANCH  49  63
ATOM     63  C   UNL     1       8.157   2.922 -14.434  1.00  0.00     0.023 A 
ATOM     64  C   UNL     1       9.111   1.938 -14.117  1.00  0.00     0.031 A 
ATOM     65  C   UNL     1       8.526   4.268 -14.259  1.00  0.00     0.131 A 
ATOM     66  C   UNL     1      10.334   2.305 -13.535  1.00  0.00     0.055 A 
ATOM     67  C   UNL     1       9.787   4.630 -13.777  1.00  0.00     0.041 A 
ATOM     68  F   UNL     1       7.659   5.257 -14.524  1.00  0.00    -0.206 F 
ATOM     69  C   UNL     1      10.691   3.646 -13.389  1.00  0.00     0.022 A 
BRANCH  66  70
ATOM     70  S   UNL     1      11.356   1.005 -12.785  1.00  0.00     0.124 S 
ATOM     71  O   UNL     1      10.412   0.388 -11.855  1.00  0.00    -0.237 OA
ATOM     72  O   UNL     1      11.736   0.199 -13.939  1.00  0.00    -0.237 OA
ATOM     73  O   UNL     1      12.444   1.747 -12.153  1.00  0.00    -0.744 OA
ENDBRANCH  66  70
ENDBRANCH  49  63
BRANCH  50  74
ATOM     74  C   UNL     1      -1.369   0.707 -16.603  1.00  0.00     0.023 A 
ATOM     75  C   UNL     1      -1.783  -0.084 -17.685  1.00  0.00     0.031 A 
ATOM     76  C   UNL     1      -2.359   1.249 -15.762  1.00  0.00     0.131 A 
ATOM     77  C   UNL     1      -3.153  -0.294 -17.912  1.00  0.00     0.055 A 
ATOM     78  C   UNL     1      -3.716   0.999 -15.964  1.00  0.00     0.041 A 
ATOM     79  F   UNL     1      -2.014   2.006 -14.708  1.00  0.00    -0.206 F 
ATOM     80  C   UNL     1      -4.120   0.229 -17.050  1.00  0.00     0.022 A 
BRANCH  77  81
ATOM     81  S   UNL     1      -3.661  -1.227 -19.382  1.00  0.00     0.124 S 
ATOM     82  O   UNL     1      -3.128  -0.400 -20.458  1.00  0.00    -0.237 OA
ATOM     83  O   UNL     1      -2.999  -2.511 -19.170  1.00  0.00    -0.237 OA
ATOM     84  O   UNL     1      -5.119  -1.257 -19.279  1.00  0.00    -0.744 OA
ENDBRANCH  77  81
ENDBRANCH  50  74
BRANCH  62  85
ATOM     85  C   UNL     1       3.632   4.244 -19.969  1.00  0.00     0.023 A 
ATOM     86  C   UNL     1       2.830   5.371 -20.225  1.00  0.00     0.031 A 
ATOM     87  C   UNL     1       4.459   3.776 -21.006  1.00  0.00     0.131 A 
ATOM     88  C   UNL     1       2.827   5.953 -21.503  1.00  0.00     0.055 A 
ATOM     89  C   UNL     1       4.503   4.401 -22.254  1.00  0.00     0.041 A 
ATOM     90  F   UNL     1       5.242   2.700 -20.824  1.00  0.00    -0.206 F 
ATOM     91  C   UNL     1       3.673   5.487 -22.512  1.00  0.00     0.022 A 
BRANCH  88  92
ATOM     92  S   UNL     1       1.622   7.261 -21.863  1.00  0.00     0.124 S 
ATOM     93  O   UNL     1       0.357   6.593 -21.575  1.00  0.00    -0.237 OA
ATOM     94  O   UNL     1       2.015   8.312 -20.930  1.00  0.00    -0.237 OA
ATOM     95  O   UNL     1       1.856   7.564 -23.273  1.00  0.00    -0.744 OA
ENDBRANCH  88  92
ENDBRANCH  62  85
ENDBRANCH  36  37
ENDBRANCH  28  31
ENDBRANCH  26  27
ENDBRANCH  25  26
ENDBRANCH   1  25
TORSDOF 18
