REMARK SMILES Cc1nc([C@]2(C)CCCO2)nc(C)c1C(=O)NCCCCNC(=O)c1ccc(-c2c3nc(c(-c4cc(S(=O)(=O)[O-])ccc4F)c4ccc([nH]4)c(-c4cc(S(=O)(=O)[O-])ccc4F)c4nc(c(-c5cc(S(=O)(=O)[O-])ccc5F)c5ccc2[nH]5)C=C4)C=C3)cc1
REMARK SMILES IDX 20 1 19 2 18 3 17 4 15 5 16 6 14 8 1 9 2 10 3 11 4 12 12 13
REMARK SMILES IDX 11 14 13 15 5 16 7 17 10 18 6 19 8 20 9 21 21 22 22 23 23 24
REMARK SMILES IDX 24 26 25 27 26 28 87 29 27 30 86 31 28 32 29 33 30 34 80 35
REMARK SMILES IDX 31 36 85 37 79 38 81 39 32 40 84 41 78 42 77 43 33 45 65 46
REMARK SMILES IDX 45 47 64 48 46 49 49 50 63 51 82 52 47 53 48 54 62 56 83 57
REMARK SMILES IDX 50 58 34 59 35 60 43 61 36 62 42 63 44 64 41 65 37 66 38 67
REMARK SMILES IDX 39 68 40 69 66 70 67 71 75 72 68 73 74 74 76 75 73 76 69 77
REMARK SMILES IDX 70 78 71 79 72 80 51 81 52 82 60 83 53 84 59 85 61 86 58 87
REMARK SMILES IDX 54 88 55 89 56 90 57 91
REMARK H PARENT 17 7 22 25 81 44 49 55
REMARK Flexibility Score: inf
ROOT
ATOM      1  C   UNL     1      -6.631  -6.795   4.343  1.00  0.00     0.023 C 
ENDROOT
BRANCH   1   2
ATOM      2  C   UNL     1      -5.581  -6.265   3.369  1.00  0.00     0.023 C 
BRANCH   2   3
ATOM      3  C   UNL     1      -6.113  -5.319   2.286  1.00  0.00     0.116 C 
BRANCH   3   4
ATOM      4  N   UNL     1      -5.840  -3.944   2.638  1.00  0.00    -0.352 N 
ATOM      5  C   UNL     1      -4.859  -3.009   2.475  1.00  0.00     0.254 C 
ATOM      6  O   UNL     1      -5.123  -1.981   3.111  1.00  0.00    -0.269 OA
ATOM      7  H   UNL     1      -6.591  -3.567   3.150  1.00  0.00     0.163 HD
BRANCH   5   8
ATOM      8  C   UNL     1      -3.583  -3.051   1.673  1.00  0.00     0.082 A 
ATOM      9  C   UNL     1      -3.192  -5.587   1.303  1.00  0.00     0.068 C 
ATOM     10  C   UNL     1      -2.871  -4.143   1.182  1.00  0.00     0.054 A 
ATOM     11  N   UNL     1      -1.681  -4.023   0.533  1.00  0.00    -0.234 NA
ATOM     12  C   UNL     1      -1.111  -2.825   0.393  1.00  0.00     0.160 A 
ATOM     13  C   UNL     1      -2.925  -1.822   1.421  1.00  0.00     0.054 A 
ATOM     14  N   UNL     1      -1.717  -1.708   0.793  1.00  0.00    -0.234 NA
ATOM     15  C   UNL     1      -3.447  -0.472   1.844  1.00  0.00     0.068 C 
BRANCH  12  16
ATOM     16  C   UNL     1       0.303  -2.780  -0.201  1.00  0.00     0.125 C 
ATOM     17  C   UNL     1       0.356  -3.386  -1.604  1.00  0.00     0.046 C 
ATOM     18  O   UNL     1       1.200  -3.618   0.575  1.00  0.00    -0.367 OA
ATOM     19  C   UNL     1       0.883  -1.364  -0.184  1.00  0.00     0.051 C 
ATOM     20  C   UNL     1       0.530  -4.869  -1.352  1.00  0.00     0.032 C 
ATOM     21  C   UNL     1       1.199  -4.936   0.008  1.00  0.00     0.161 C 
ENDBRANCH  12  16
ENDBRANCH   5   8
ENDBRANCH   3   4
ENDBRANCH   2   3
ENDBRANCH   1   2
BRANCH   1  22
ATOM     22  C   UNL     1      -7.713  -7.651   3.700  1.00  0.00     0.116 C 
BRANCH  22  23
ATOM     23  N   UNL     1      -7.199  -8.768   2.919  1.00  0.00    -0.352 N 
ATOM     24  C   UNL     1      -7.862  -9.927   2.590  1.00  0.00     0.251 C 
ATOM     25  H   UNL     1      -6.275  -8.684   2.590  1.00  0.00     0.163 HD
ATOM     26  O   UNL     1      -7.290 -10.825   1.980  1.00  0.00    -0.269 OA
BRANCH  24  27
ATOM     27  C   UNL     1      -9.255 -10.081   3.048  1.00  0.00     0.039 A 
ATOM     28  C   UNL     1      -9.572 -11.149   3.888  1.00  0.00     0.014 A 
ATOM     29  C   UNL     1     -10.199  -9.094   2.752  1.00  0.00     0.014 A 
ATOM     30  C   UNL     1     -10.824 -11.185   4.501  1.00  0.00     0.010 A 
ATOM     31  C   UNL     1     -11.416  -9.094   3.422  1.00  0.00     0.010 A 
ATOM     32  C   UNL     1     -11.736 -10.135   4.307  1.00  0.00    -0.014 A 
BRANCH  32  33
ATOM     33  C   UNL     1     -13.036 -10.105   5.021  1.00  0.00     0.031 A 
ATOM     34  C   UNL     1     -14.316 -10.186   4.238  1.00  0.00     0.074 A 
ATOM     35  C   UNL     1     -13.061  -9.926   6.357  1.00  0.00     0.049 A 
ATOM     36  N   UNL     1     -15.551 -10.090   4.657  1.00  0.00    -0.248 NA
ATOM     37  C   UNL     1     -14.184 -10.358   2.784  1.00  0.00     0.031 C 
ATOM     38  C   UNL     1     -11.882  -9.775   7.214  1.00  0.00     0.029 A 
ATOM     39  N   UNL     1     -14.116  -9.828   7.228  1.00  0.00    -0.354 N 
ATOM     40  C   UNL     1     -16.342 -10.172   3.517  1.00  0.00     0.074 A 
ATOM     41  C   UNL     1     -15.442 -10.258   2.386  1.00  0.00     0.031 C 
ATOM     42  C   UNL     1     -12.280  -9.628   8.488  1.00  0.00     0.029 A 
ATOM     43  C   UNL     1     -13.738  -9.635   8.536  1.00  0.00     0.049 A 
ATOM     44  H   UNL     1     -15.056  -9.891   6.943  1.00  0.00     0.167 HD
ATOM     45  C   UNL     1     -17.695 -10.202   3.425  1.00  0.00     0.034 A 
ATOM     46  C   UNL     1     -14.485  -9.475   9.646  1.00  0.00     0.034 A 
ATOM     47  C   UNL     1     -18.573 -10.140   4.566  1.00  0.00     0.049 A 
ATOM     48  C   UNL     1     -15.986  -9.512   9.521  1.00  0.00     0.074 A 
ATOM     49  C   UNL     1     -19.953 -10.239   4.600  1.00  0.00     0.029 A 
ATOM     50  N   UNL     1     -18.156  -9.959   5.878  1.00  0.00    -0.354 N 
ATOM     51  N   UNL     1     -16.721  -9.655   8.441  1.00  0.00    -0.248 NA
ATOM     52  C   UNL     1     -16.758  -9.374  10.762  1.00  0.00     0.031 C 
ATOM     53  C   UNL     1     -20.372 -10.061   5.923  1.00  0.00     0.029 A 
ATOM     54  C   UNL     1     -19.252  -9.913   6.725  1.00  0.00     0.049 A 
ATOM     55  H   UNL     1     -17.218  -9.875   6.165  1.00  0.00     0.167 HD
ATOM     56  C   UNL     1     -18.042  -9.644   8.879  1.00  0.00     0.074 A 
ATOM     57  C   UNL     1     -18.000  -9.499  10.320  1.00  0.00     0.031 C 
ATOM     58  C   UNL     1     -19.187  -9.748   8.158  1.00  0.00     0.034 A 
BRANCH  45  59
ATOM     59  C   UNL     1     -18.288 -10.287   2.040  1.00  0.00     0.023 A 
ATOM     60  C   UNL     1     -18.053 -11.393   1.205  1.00  0.00     0.031 A 
ATOM     61  C   UNL     1     -19.056  -9.227   1.527  1.00  0.00     0.131 A 
ATOM     62  C   UNL     1     -18.501 -11.377  -0.123  1.00  0.00     0.055 A 
ATOM     63  C   UNL     1     -19.573  -9.255   0.229  1.00  0.00     0.041 A 
ATOM     64  F   UNL     1     -19.298  -8.136   2.269  1.00  0.00    -0.206 F 
ATOM     65  C   UNL     1     -19.281 -10.327  -0.610  1.00  0.00     0.022 A 
BRANCH  62  66
ATOM     66  S   UNL     1     -17.917 -12.676  -1.247  1.00  0.00     0.124 S 
ATOM     67  O   UNL     1     -16.470 -12.478  -1.198  1.00  0.00    -0.237 OA
ATOM     68  O   UNL     1     -18.418 -13.890  -0.614  1.00  0.00    -0.237 OA
ATOM     69  O   UNL     1     -18.543 -12.332  -2.522  1.00  0.00    -0.744 OA
ENDBRANCH  62  66
ENDBRANCH  45  59
BRANCH  46  70
ATOM     70  C   UNL     1     -13.837  -9.259  10.970  1.00  0.00     0.023 A 
ATOM     71  C   UNL     1     -13.937 -10.222  11.987  1.00  0.00     0.031 A 
ATOM     72  C   UNL     1     -13.141  -8.071  11.251  1.00  0.00     0.131 A 
ATOM     73  C   UNL     1     -13.387  -9.962  13.252  1.00  0.00     0.055 A 
ATOM     74  C   UNL     1     -12.558  -7.835  12.497  1.00  0.00     0.041 A 
ATOM     75  F   UNL     1     -13.009  -7.123  10.309  1.00  0.00    -0.206 F 
ATOM     76  C   UNL     1     -12.690  -8.780  13.511  1.00  0.00     0.022 A 
BRANCH  73  77
ATOM     77  S   UNL     1     -13.659 -11.167  14.580  1.00  0.00     0.124 S 
ATOM     78  O   UNL     1     -15.115 -11.219  14.642  1.00  0.00    -0.237 OA
ATOM     79  O   UNL     1     -12.995 -12.354  14.052  1.00  0.00    -0.237 OA
ATOM     80  O   UNL     1     -13.006 -10.553  15.735  1.00  0.00    -0.744 OA
ENDBRANCH  73  77
ENDBRANCH  46  70
BRANCH  58  81
ATOM     81  C   UNL     1     -20.480  -9.733   8.932  1.00  0.00     0.023 A 
ATOM     82  C   UNL     1     -20.937  -8.571   9.576  1.00  0.00     0.031 A 
ATOM     83  C   UNL     1     -21.257 -10.900   9.034  1.00  0.00     0.131 A 
ATOM     84  C   UNL     1     -22.114  -8.613  10.336  1.00  0.00     0.055 A 
ATOM     85  C   UNL     1     -22.455 -10.922   9.748  1.00  0.00     0.041 A 
ATOM     86  F   UNL     1     -20.863 -12.037   8.438  1.00  0.00    -0.206 F 
ATOM     87  C   UNL     1     -22.884  -9.777  10.414  1.00  0.00     0.022 A 
BRANCH  84  88
ATOM     88  S   UNL     1     -22.590  -7.143  11.287  1.00  0.00     0.124 S 
ATOM     89  O   UNL     1     -21.447  -6.977  12.179  1.00  0.00    -0.237 OA
ATOM     90  O   UNL     1     -22.738  -6.132  10.245  1.00  0.00    -0.237 OA
ATOM     91  O   UNL     1     -23.834  -7.545  11.940  1.00  0.00    -0.744 OA
ENDBRANCH  84  88
ENDBRANCH  58  81
ENDBRANCH  32  33
ENDBRANCH  24  27
ENDBRANCH  22  23
ENDBRANCH   1  22
TORSDOF 15
