REMARK SMILES CC1(C)[C@H](C(=O)NCCCCNC(=O)c2ccc(-c3c4nc(c(-c5cc(S(=O)(=O)[O-])ccc5F)c5ccc([nH]5)c(-c5cc(S(=O)(=O)[O-])ccc5F)c5nc(c(-c6cc(S(=O)(=O)[O-])ccc6F)c6ccc3[nH]6)C=C5)C=C4)cc2)[C@H]1C(=O)Nc1nc(-c2ccco2)n[nH]1
REMARK SMILES IDX 9 1 8 2 7 3 5 4 6 5 4 7 1 8 2 9 3 10 78 11 79 12 80 13 81 14
REMARK SMILES IDX 82 16 83 17 91 18 84 19 90 20 85 22 86 23 89 24 87 25 88 26
REMARK SMILES IDX 10 27 11 28 12 29 13 30 14 32 15 33 16 34 77 35 17 36 76 37
REMARK SMILES IDX 18 38 19 39 20 40 70 41 21 42 75 43 69 44 71 45 22 46 74 47
REMARK SMILES IDX 68 48 67 49 23 51 55 52 35 53 54 54 36 55 39 56 53 57 72 58
REMARK SMILES IDX 37 59 38 60 52 62 73 63 40 64 24 65 25 66 33 67 26 68 32 69
REMARK SMILES IDX 34 70 31 71 27 72 28 73 29 74 30 75 56 76 57 77 65 78 58 79
REMARK SMILES IDX 64 80 66 81 63 82 59 83 60 84 61 85 62 86 41 87 42 88 50 89
REMARK SMILES IDX 43 90 49 91 51 92 48 93 44 94 45 95 46 96 47 97
REMARK H PARENT 7 6 81 15 91 21 12 31 71 50 39 61
REMARK Flexibility Score: inf
ROOT
ATOM      1  C   UNL     1      -0.260   3.959  -0.795  1.00  0.00     0.023 C 
ENDROOT
BRANCH   1   2
ATOM      2  C   UNL     1      -1.415   3.057  -0.358  1.00  0.00     0.116 C 
BRANCH   2   3
ATOM      3  N   UNL     1      -1.705   2.065  -1.366  1.00  0.00    -0.356 N 
ATOM      4  C   UNL     1      -1.332   0.773  -1.575  1.00  0.00     0.224 C 
ATOM      5  O   UNL     1      -1.729   0.267  -2.626  1.00  0.00    -0.275 OA
ATOM      6  H   UNL     1      -2.313   2.401  -2.063  1.00  0.00     0.163 HD
BRANCH   4   7
ATOM      7  C   UNL     1      -0.576  -0.120  -0.659  1.00  0.00     0.098 C 
ATOM      8  C   UNL     1       1.657  -1.020   0.266  1.00  0.00     0.013 C 
ATOM      9  C   UNL     1       0.614   0.088   0.265  1.00  0.00    -0.011 C 
ATOM     10  C   UNL     1       1.268   1.420   0.490  1.00  0.00     0.013 C 
ATOM     11  C   UNL     1      -0.808  -0.177   0.830  1.00  0.00     0.098 C 
BRANCH  11  12
ATOM     12  C   UNL     1      -1.103  -1.471   1.516  1.00  0.00     0.231 C 
ATOM     13  O   UNL     1      -0.588  -1.720   2.602  1.00  0.00    -0.274 OA
ATOM     14  N   UNL     1      -1.865  -2.360   0.803  1.00  0.00    -0.295 N 
ATOM     15  H   UNL     1      -2.837  -2.231   0.709  1.00  0.00     0.173 HD
BRANCH  14  16
ATOM     16  C   UNL     1      -1.236  -3.439   0.223  1.00  0.00     0.225 A 
ATOM     17  N   UNL     1      -1.698  -4.126  -0.792  1.00  0.00    -0.188 NA
ATOM     18  N   UNL     1       0.038  -3.852   0.495  1.00  0.00    -0.244 N 
ATOM     19  C   UNL     1      -0.614  -4.876  -1.196  1.00  0.00     0.218 A 
ATOM     20  N   UNL     1       0.480  -4.720  -0.430  1.00  0.00    -0.149 NA
ATOM     21  H   UNL     1       0.566  -3.551   1.270  1.00  0.00     0.193 HD
BRANCH  19  22
ATOM     22  C   UNL     1      -0.642  -5.761  -2.401  1.00  0.00     0.173 A 
ATOM     23  C   UNL     1       0.425  -6.492  -2.896  1.00  0.00     0.054 A 
ATOM     24  O   UNL     1      -1.735  -5.970  -3.200  1.00  0.00    -0.461 OA
ATOM     25  C   UNL     1      -0.042  -7.182  -4.041  1.00  0.00     0.043 A 
ATOM     26  C   UNL     1      -1.361  -6.828  -4.184  1.00  0.00     0.196 A 
ENDBRANCH  19  22
ENDBRANCH  14  16
ENDBRANCH  11  12
ENDBRANCH   4   7
ENDBRANCH   2   3
ENDBRANCH   1   2
BRANCH   1  27
ATOM     27  C   UNL     1      -0.665   5.150  -1.655  1.00  0.00     0.023 C 
BRANCH  27  28
ATOM     28  C   UNL     1      -1.613   6.137  -0.989  1.00  0.00     0.116 C 
BRANCH  28  29
ATOM     29  N   UNL     1      -1.127   6.641   0.290  1.00  0.00    -0.352 N 
ATOM     30  C   UNL     1      -1.121   7.937   0.755  1.00  0.00     0.251 C 
ATOM     31  H   UNL     1      -0.753   5.966   0.902  1.00  0.00     0.163 HD
ATOM     32  O   UNL     1      -0.584   8.211   1.822  1.00  0.00    -0.269 OA
BRANCH  30  33
ATOM     33  C   UNL     1      -1.730   8.989  -0.083  1.00  0.00     0.039 A 
ATOM     34  C   UNL     1      -0.964  10.103  -0.432  1.00  0.00     0.014 A 
ATOM     35  C   UNL     1      -3.009   8.807  -0.613  1.00  0.00     0.014 A 
ATOM     36  C   UNL     1      -1.440  10.980  -1.407  1.00  0.00     0.010 A 
ATOM     37  C   UNL     1      -3.444   9.635  -1.640  1.00  0.00     0.010 A 
ATOM     38  C   UNL     1      -2.654  10.716  -2.063  1.00  0.00    -0.014 A 
BRANCH  38  39
ATOM     39  C   UNL     1      -3.106  11.524  -3.224  1.00  0.00     0.031 A 
ATOM     40  C   UNL     1      -4.395  12.290  -3.144  1.00  0.00     0.074 A 
ATOM     41  C   UNL     1      -2.408  11.480  -4.378  1.00  0.00     0.049 A 
ATOM     42  N   UNL     1      -5.033  12.937  -4.085  1.00  0.00    -0.248 NA
ATOM     43  C   UNL     1      -5.072  12.298  -1.839  1.00  0.00     0.031 C 
ATOM     44  C   UNL     1      -1.162  10.738  -4.586  1.00  0.00     0.029 A 
ATOM     45  N   UNL     1      -2.656  12.056  -5.599  1.00  0.00    -0.354 N 
ATOM     46  C   UNL     1      -6.193  13.419  -3.490  1.00  0.00     0.074 A 
ATOM     47  C   UNL     1      -6.198  12.933  -2.126  1.00  0.00     0.031 C 
ATOM     48  C   UNL     1      -0.747  10.920  -5.850  1.00  0.00     0.029 A 
ATOM     49  C   UNL     1      -1.722  11.741  -6.559  1.00  0.00     0.049 A 
ATOM     50  H   UNL     1      -3.430  12.639  -5.772  1.00  0.00     0.167 HD
ATOM     51  C   UNL     1      -7.152  14.213  -4.026  1.00  0.00     0.034 A 
ATOM     52  C   UNL     1      -1.670  12.057  -7.869  1.00  0.00     0.034 A 
ATOM     53  C   UNL     1      -7.124  14.693  -5.386  1.00  0.00     0.049 A 
ATOM     54  C   UNL     1      -2.778  12.892  -8.459  1.00  0.00     0.074 A 
ATOM     55  C   UNL     1      -8.003  15.558  -6.013  1.00  0.00     0.029 A 
ATOM     56  N   UNL     1      -6.173  14.338  -6.334  1.00  0.00    -0.354 N 
ATOM     57  N   UNL     1      -3.841  13.386  -7.869  1.00  0.00    -0.248 NA
ATOM     58  C   UNL     1      -2.680  13.207  -9.890  1.00  0.00     0.031 C 
ATOM     59  C   UNL     1      -7.626  15.668  -7.356  1.00  0.00     0.029 A 
ATOM     60  C   UNL     1      -6.469  14.931  -7.552  1.00  0.00     0.049 A 
ATOM     61  H   UNL     1      -5.401  13.751  -6.166  1.00  0.00     0.167 HD
ATOM     62  C   UNL     1      -4.529  14.089  -8.854  1.00  0.00     0.074 A 
ATOM     63  C   UNL     1      -3.752  13.966 -10.071  1.00  0.00     0.031 C 
ATOM     64  C   UNL     1      -5.694  14.778  -8.761  1.00  0.00     0.034 A 
BRANCH  51  65
ATOM     65  C   UNL     1      -8.318  14.583  -3.142  1.00  0.00     0.023 A 
ATOM     66  C   UNL     1      -8.141  15.329  -1.963  1.00  0.00     0.031 A 
ATOM     67  C   UNL     1      -9.619  14.154  -3.459  1.00  0.00     0.131 A 
ATOM     68  C   UNL     1      -9.227  15.550  -1.104  1.00  0.00     0.055 A 
ATOM     69  C   UNL     1     -10.712  14.452  -2.642  1.00  0.00     0.041 A 
ATOM     70  F   UNL     1      -9.848  13.421  -4.560  1.00  0.00    -0.206 F 
ATOM     71  C   UNL     1     -10.516  15.139  -1.447  1.00  0.00     0.022 A 
BRANCH  68  72
ATOM     72  S   UNL     1      -8.899  16.246   0.539  1.00  0.00     0.124 S 
ATOM     73  O   UNL     1      -7.965  15.268   1.092  1.00  0.00    -0.237 OA
ATOM     74  O   UNL     1      -8.341  17.555   0.221  1.00  0.00    -0.237 OA
ATOM     75  O   UNL     1     -10.216  16.265   1.172  1.00  0.00    -0.744 OA
ENDBRANCH  68  72
ENDBRANCH  51  65
BRANCH  52  76
ATOM     76  C   UNL     1      -0.551  11.564  -8.722  1.00  0.00     0.023 A 
ATOM     77  C   UNL     1       0.362  12.459  -9.301  1.00  0.00     0.031 A 
ATOM     78  C   UNL     1      -0.397  10.193  -8.998  1.00  0.00     0.131 A 
ATOM     79  C   UNL     1       1.365  11.978 -10.158  1.00  0.00     0.055 A 
ATOM     80  C   UNL     1       0.632   9.715  -9.811  1.00  0.00     0.041 A 
ATOM     81  F   UNL     1      -1.240   9.294  -8.466  1.00  0.00    -0.206 F 
ATOM     82  C   UNL     1       1.514  10.611 -10.406  1.00  0.00     0.022 A 
BRANCH  79  83
ATOM     83  S   UNL     1       2.431  13.176 -11.005  1.00  0.00     0.124 S 
ATOM     84  O   UNL     1       1.457  13.967 -11.748  1.00  0.00    -0.237 OA
ATOM     85  O   UNL     1       3.083  13.847  -9.884  1.00  0.00    -0.237 OA
ATOM     86  O   UNL     1       3.307  12.336 -11.820  1.00  0.00    -0.744 OA
ENDBRANCH  79  83
ENDBRANCH  52  76
BRANCH  64  87
ATOM     87  C   UNL     1      -6.181  15.471 -10.008  1.00  0.00     0.023 A 
ATOM     88  C   UNL     1      -6.653  14.746 -11.116  1.00  0.00     0.031 A 
ATOM     89  C   UNL     1      -6.181  16.875 -10.085  1.00  0.00     0.131 A 
ATOM     90  C   UNL     1      -7.067  15.428 -12.270  1.00  0.00     0.055 A 
ATOM     91  C   UNL     1      -6.645  17.549 -11.214  1.00  0.00     0.041 A 
ATOM     92  F   UNL     1      -5.738  17.615  -9.055  1.00  0.00    -0.206 F 
ATOM     93  C   UNL     1      -7.084  16.824 -12.319  1.00  0.00     0.022 A 
BRANCH  90  94
ATOM     94  S   UNL     1      -7.530  14.463 -13.734  1.00  0.00     0.124 S 
ATOM     95  O   UNL     1      -6.283  13.770 -14.046  1.00  0.00    -0.237 OA
ATOM     96  O   UNL     1      -8.614  13.627 -13.230  1.00  0.00    -0.237 OA
ATOM     97  O   UNL     1      -7.933  15.481 -14.703  1.00  0.00    -0.744 OA
ENDBRANCH  90  94
ENDBRANCH  64  87
ENDBRANCH  38  39
ENDBRANCH  30  33
ENDBRANCH  28  29
ENDBRANCH  27  28
ENDBRANCH   1  27
TORSDOF 17
