REMARK SMILES CC[NH2+][C@@]1(C(=O)NCCCCNC(=O)c2ccc(-c3c4nc(c(-c5cc(S(=O)(=O)[O-])ccc5F)c5ccc([nH]5)c(-c5cc(S(=O)(=O)[O-])ccc5F)c5nc(c(-c6cc(S(=O)(=O)[O-])ccc6F)c6ccc3[nH]6)C=C5)C=C4)cc2)CC[C@H](Oc2ccc3c(c2)OCO3)C1
REMARK SMILES IDX 10 1 9 2 8 3 7 4 5 5 6 6 4 8 78 9 91 10 79 11 80 12 3 13
REMARK SMILES IDX 2 16 1 17 81 18 82 19 83 20 87 21 84 22 86 23 85 24 88 25
REMARK SMILES IDX 90 26 89 27 11 28 12 29 13 30 14 32 15 33 16 34 77 35 17 36
REMARK SMILES IDX 76 37 18 38 19 39 20 40 70 41 21 42 75 43 69 44 71 45 22 46
REMARK SMILES IDX 74 47 68 48 67 49 23 51 55 52 35 53 54 54 36 55 39 56 53 57
REMARK SMILES IDX 72 58 37 59 38 60 52 62 73 63 40 64 24 65 25 66 33 67 26 68
REMARK SMILES IDX 32 69 34 70 31 71 27 72 28 73 29 74 30 75 56 76 57 77 65 78
REMARK SMILES IDX 58 79 64 80 66 81 63 82 59 83 60 84 61 85 62 86 41 87 42 88
REMARK SMILES IDX 50 89 43 90 49 91 51 92 48 93 44 94 45 95 46 96 47 97
REMARK H PARENT 7 7 3 14 3 15 12 31 71 50 39 61
REMARK Flexibility Score: inf
ROOT
ATOM      1  C   UNL     1      -2.152   6.450   3.310  1.00  0.00     0.023 C 
ENDROOT
BRANCH   1   2
ATOM      2  C   UNL     1      -1.695   6.177   1.893  1.00  0.00     0.023 C 
BRANCH   2   3
ATOM      3  C   UNL     1      -0.189   6.049   1.688  1.00  0.00     0.116 C 
BRANCH   3   4
ATOM      4  N   UNL     1       0.238   4.680   1.853  1.00  0.00    -0.351 N 
ATOM      5  C   UNL     1      -0.068   3.687   0.966  1.00  0.00     0.281 C 
ATOM      6  O   UNL     1      -0.722   2.750   1.440  1.00  0.00    -0.268 OA
ATOM      7  H   UNL     1       0.776   4.450   2.645  1.00  0.00     0.163 HD
BRANCH   5   8
ATOM      8  C   UNL     1       0.484   3.669  -0.523  1.00  0.00     0.179 C 
ATOM      9  C   UNL     1       1.397   4.837  -0.931  1.00  0.00     0.083 C 
ATOM     10  C   UNL     1      -0.631   3.716  -1.590  1.00  0.00     0.124 C 
ATOM     11  C   UNL     1       0.549   5.824  -1.740  1.00  0.00     0.052 C 
ATOM     12  C   UNL     1      -0.834   5.202  -1.946  1.00  0.00     0.180 C 
BRANCH   8  13
ATOM     13  N   UNL     1       1.316   2.428  -0.715  1.00  0.00    -0.334 N 
ATOM     14  H   UNL     1       1.532   2.344  -1.709  1.00  0.00     0.347 HD
ATOM     15  H   UNL     1       2.141   2.546  -0.127  1.00  0.00     0.347 HD
BRANCH  13  16
ATOM     16  C   UNL     1       0.682   1.177  -0.281  1.00  0.00     0.257 C 
ATOM     17  C   UNL     1       1.319  -0.015  -0.975  1.00  0.00     0.071 C 
ENDBRANCH  13  16
ENDBRANCH   8  13
BRANCH  12  18
ATOM     18  O   UNL     1      -1.867   5.655  -1.082  1.00  0.00    -0.490 OA
BRANCH  18  19
ATOM     19  C   UNL     1      -2.496   6.861  -1.217  1.00  0.00     0.123 A 
ATOM     20  C   UNL     1      -1.894   8.060  -1.627  1.00  0.00     0.050 A 
ATOM     21  C   UNL     1      -3.764   6.886  -0.612  1.00  0.00     0.097 A 
ATOM     22  C   UNL     1      -2.500   9.293  -1.327  1.00  0.00     0.054 A 
ATOM     23  C   UNL     1      -4.320   8.108  -0.306  1.00  0.00     0.169 A 
ATOM     24  C   UNL     1      -3.695   9.283  -0.638  1.00  0.00     0.166 A 
ATOM     25  O   UNL     1      -5.451   8.308   0.423  1.00  0.00    -0.453 OA
ATOM     26  O   UNL     1      -4.363  10.370  -0.169  1.00  0.00    -0.454 OA
ATOM     27  C   UNL     1      -5.375   9.733   0.640  1.00  0.00     0.468 C 
ENDBRANCH  18  19
ENDBRANCH  12  18
ENDBRANCH   5   8
ENDBRANCH   3   4
ENDBRANCH   2   3
ENDBRANCH   1   2
BRANCH   1  28
ATOM     28  C   UNL     1      -1.579   7.731   3.894  1.00  0.00     0.116 C 
BRANCH  28  29
ATOM     29  N   UNL     1      -1.655   8.894   3.009  1.00  0.00    -0.352 N 
ATOM     30  C   UNL     1      -1.957  10.199   3.330  1.00  0.00     0.251 C 
ATOM     31  H   UNL     1      -1.467   8.721   2.058  1.00  0.00     0.163 HD
ATOM     32  O   UNL     1      -2.040  11.059   2.468  1.00  0.00    -0.269 OA
BRANCH  30  33
ATOM     33  C   UNL     1      -2.233  10.507   4.744  1.00  0.00     0.039 A 
ATOM     34  C   UNL     1      -3.445  11.111   5.081  1.00  0.00     0.014 A 
ATOM     35  C   UNL     1      -1.362  10.038   5.727  1.00  0.00     0.014 A 
ATOM     36  C   UNL     1      -3.830  11.154   6.420  1.00  0.00     0.010 A 
ATOM     37  C   UNL     1      -1.804   9.970   7.037  1.00  0.00     0.010 A 
ATOM     38  C   UNL     1      -3.040  10.531   7.399  1.00  0.00    -0.014 A 
BRANCH  38  39
ATOM     39  C   UNL     1      -3.447  10.474   8.824  1.00  0.00     0.031 A 
ATOM     40  C   UNL     1      -2.534  11.068   9.861  1.00  0.00     0.074 A 
ATOM     41  C   UNL     1      -4.557   9.800   9.188  1.00  0.00     0.049 A 
ATOM     42  N   UNL     1      -2.575  10.965  11.163  1.00  0.00    -0.248 NA
ATOM     43  C   UNL     1      -1.379  11.827   9.355  1.00  0.00     0.031 C 
ATOM     44  C   UNL     1      -5.486   9.131   8.273  1.00  0.00     0.029 A 
ATOM     45  N   UNL     1      -5.083   9.553  10.430  1.00  0.00    -0.354 N 
ATOM     46  C   UNL     1      -1.428  11.601  11.625  1.00  0.00     0.074 A 
ATOM     47  C   UNL     1      -0.677  12.016  10.460  1.00  0.00     0.031 C 
ATOM     48  C   UNL     1      -6.481   8.576   8.984  1.00  0.00     0.029 A 
ATOM     49  C   UNL     1      -6.237   8.804  10.404  1.00  0.00     0.049 A 
ATOM     50  H   UNL     1      -4.673   9.880  11.263  1.00  0.00     0.167 HD
ATOM     51  C   UNL     1      -1.052  11.845  12.904  1.00  0.00     0.034 A 
ATOM     52  C   UNL     1      -7.000   8.345  11.415  1.00  0.00     0.034 A 
ATOM     53  C   UNL     1      -1.848  11.472  14.044  1.00  0.00     0.049 A 
ATOM     54  C   UNL     1      -6.587   8.664  12.830  1.00  0.00     0.074 A 
ATOM     55  C   UNL     1      -1.616  11.731  15.383  1.00  0.00     0.029 A 
ATOM     56  N   UNL     1      -3.043  10.764  13.977  1.00  0.00    -0.354 N 
ATOM     57  N   UNL     1      -5.522   9.305  13.254  1.00  0.00    -0.248 NA
ATOM     58  C   UNL     1      -7.483   8.209  13.900  1.00  0.00     0.031 C 
ATOM     59  C   UNL     1      -2.642  11.138  16.127  1.00  0.00     0.029 A 
ATOM     60  C   UNL     1      -3.550  10.565  15.250  1.00  0.00     0.049 A 
ATOM     61  H   UNL     1      -3.466  10.450  13.145  1.00  0.00     0.167 HD
ATOM     62  C   UNL     1      -5.637   9.355  14.640  1.00  0.00     0.074 A 
ATOM     63  C   UNL     1      -6.881   8.692  14.976  1.00  0.00     0.031 C 
ATOM     64  C   UNL     1      -4.794   9.899  15.556  1.00  0.00     0.034 A 
BRANCH  51  65
ATOM     65  C   UNL     1       0.276  12.533  13.115  1.00  0.00     0.023 A 
ATOM     66  C   UNL     1       0.533  13.817  12.602  1.00  0.00     0.031 A 
ATOM     67  C   UNL     1       1.322  11.874  13.785  1.00  0.00     0.131 A 
ATOM     68  C   UNL     1       1.826  14.357  12.676  1.00  0.00     0.055 A 
ATOM     69  C   UNL     1       2.581  12.458  13.940  1.00  0.00     0.041 A 
ATOM     70  F   UNL     1       1.146  10.638  14.280  1.00  0.00    -0.206 F 
ATOM     71  C   UNL     1       2.845  13.698  13.366  1.00  0.00     0.022 A 
BRANCH  68  72
ATOM     72  S   UNL     1       2.194  15.848  11.711  1.00  0.00     0.124 S 
ATOM     73  O   UNL     1       1.918  15.392  10.351  1.00  0.00    -0.237 OA
ATOM     74  O   UNL     1       1.255  16.820  12.261  1.00  0.00    -0.237 OA
ATOM     75  O   UNL     1       3.602  16.106  12.002  1.00  0.00    -0.744 OA
ENDBRANCH  68  72
ENDBRANCH  51  65
BRANCH  52  76
ATOM     76  C   UNL     1      -8.227   7.543  11.139  1.00  0.00     0.023 A 
ATOM     77  C   UNL     1      -9.500   8.043  11.454  1.00  0.00     0.031 A 
ATOM     78  C   UNL     1      -8.144   6.252  10.588  1.00  0.00     0.131 A 
ATOM     79  C   UNL     1     -10.636   7.242  11.262  1.00  0.00     0.055 A 
ATOM     80  C   UNL     1      -9.282   5.476  10.353  1.00  0.00     0.041 A 
ATOM     81  F   UNL     1      -6.952   5.729  10.258  1.00  0.00    -0.206 F 
ATOM     82  C   UNL     1     -10.537   5.966  10.703  1.00  0.00     0.022 A 
BRANCH  79  83
ATOM     83  S   UNL     1     -12.244   7.864  11.826  1.00  0.00     0.124 S 
ATOM     84  O   UNL     1     -11.992   8.097  13.244  1.00  0.00    -0.237 OA
ATOM     85  O   UNL     1     -12.413   9.056  11.001  1.00  0.00    -0.237 OA
ATOM     86  O   UNL     1     -13.159   6.766  11.527  1.00  0.00    -0.744 OA
ENDBRANCH  79  83
ENDBRANCH  52  76
BRANCH  64  87
ATOM     87  C   UNL     1      -5.226   9.839  16.998  1.00  0.00     0.023 A 
ATOM     88  C   UNL     1      -5.290   8.624  17.700  1.00  0.00     0.031 A 
ATOM     89  C   UNL     1      -5.580  11.019  17.675  1.00  0.00     0.131 A 
ATOM     90  C   UNL     1      -5.751   8.610  19.024  1.00  0.00     0.055 A 
ATOM     91  C   UNL     1      -5.983  11.005  19.010  1.00  0.00     0.041 A 
ATOM     92  F   UNL     1      -5.536  12.206  17.049  1.00  0.00    -0.206 F 
ATOM     93  C   UNL     1      -6.082   9.794  19.689  1.00  0.00     0.022 A 
BRANCH  90  94
ATOM     94  S   UNL     1      -5.994   7.010  19.843  1.00  0.00     0.124 S 
ATOM     95  O   UNL     1      -6.956   6.359  18.959  1.00  0.00    -0.237 OA
ATOM     96  O   UNL     1      -4.646   6.450  19.840  1.00  0.00    -0.237 OA
ATOM     97  O   UNL     1      -6.510   7.374  21.161  1.00  0.00    -0.744 OA
ENDBRANCH  90  94
ENDBRANCH  64  87
ENDBRANCH  38  39
ENDBRANCH  30  33
ENDBRANCH  28  29
ENDBRANCH   1  28
TORSDOF 18
