REMARK SMILES CC(C)[C@H]1CC[C@@H](C)/C(=C/c2ccc(NC(=O)CCC(=O)NCCCCNC(=O)c3ccc(-c4c5nc(c(-c6cc(S(=O)(=O)[O-])ccc6F)c6ccc([nH]6)c(-c6cc(S(=O)(=O)[O-])ccc6F)c6nc(c(-c7cc(S(=O)(=O)[O-])ccc7F)c7ccc4[nH]7)C=C6)C=C5)cc3)cc2)C1=O
REMARK SMILES IDX 23 1 22 2 20 3 21 4 19 6 18 7 16 8 15 9 17 11 14 12 11 13
REMARK SMILES IDX 12 14 94 15 13 16 93 17 10 18 4 19 5 20 95 21 6 22 9 23
REMARK SMILES IDX 96 24 7 25 8 26 2 27 1 28 3 29 24 30 25 31 26 32 27 33 28 34
REMARK SMILES IDX 29 36 30 37 31 38 92 39 32 40 91 41 33 42 34 43 35 44 85 45
REMARK SMILES IDX 36 46 90 47 84 48 86 49 37 50 89 51 83 52 82 53 38 55 70 56
REMARK SMILES IDX 50 57 69 58 51 59 54 60 68 61 87 62 52 63 53 64 67 66 88 67
REMARK SMILES IDX 55 68 39 69 40 70 48 71 41 72 47 73 49 74 46 75 42 76 43 77
REMARK SMILES IDX 44 78 45 79 71 80 72 81 80 82 73 83 79 84 81 85 78 86 74 87
REMARK SMILES IDX 75 88 76 89 77 90 56 91 57 92 65 93 58 94 64 95 66 96 63 97
REMARK SMILES IDX 59 98 60 99 61 100 62 101
REMARK H PARENT 22 5 15 10 27 35 86 54 54 65
REMARK Flexibility Score: inf
ROOT
ATOM      1  C   UNL     1       3.769   6.147  -0.577  1.00  0.00     0.116 C 
ENDROOT
BRANCH   1   2
ATOM      2  N   UNL     1       3.163   5.096  -1.376  1.00  0.00    -0.356 N 
ATOM      3  C   UNL     1       2.607   5.160  -2.618  1.00  0.00     0.220 C 
ATOM      4  O   UNL     1       2.307   4.114  -3.194  1.00  0.00    -0.275 OA
ATOM      5  H   UNL     1       3.152   4.205  -0.957  1.00  0.00     0.163 HD
BRANCH   3   6
ATOM      6  C   UNL     1       2.363   6.500  -3.272  1.00  0.00     0.110 C 
BRANCH   6   7
ATOM      7  C   UNL     1       0.967   7.067  -3.049  1.00  0.00     0.110 C 
BRANCH   7   8
ATOM      8  C   UNL     1       0.591   7.287  -1.598  1.00  0.00     0.224 C 
ATOM      9  N   UNL     1       0.041   6.306  -0.827  1.00  0.00    -0.326 N 
ATOM     10  H   UNL     1      -0.179   6.578   0.093  1.00  0.00     0.169 HD
ATOM     11  O   UNL     1       0.876   8.360  -1.054  1.00  0.00    -0.275 OA
BRANCH   9  12
ATOM     12  C   UNL     1      -0.261   4.974  -1.133  1.00  0.00     0.041 A 
ATOM     13  C   UNL     1      -0.599   2.243  -1.673  1.00  0.00    -0.025 A 
ATOM     14  C   UNL     1      -1.038   3.207  -2.585  1.00  0.00     0.010 A 
ATOM     15  C   UNL     1       0.005   2.659  -0.484  1.00  0.00     0.010 A 
ATOM     16  C   UNL     1      -0.872   4.567  -2.314  1.00  0.00     0.027 A 
ATOM     17  C   UNL     1       0.104   4.015  -0.187  1.00  0.00     0.027 A 
BRANCH  13  18
ATOM     18  C   UNL     1      -0.849   0.830  -1.973  1.00  0.00     0.015 C 
ATOM     19  C   UNL     1      -1.302  -0.572   1.341  1.00  0.00     0.063 C 
ATOM     20  C   UNL     1      -1.672  -2.027   1.012  1.00  0.00     0.013 C 
ATOM     21  C   UNL     1      -1.860   0.336   0.248  1.00  0.00     0.162 C 
ATOM     22  C   UNL     1      -1.249  -2.420  -0.413  1.00  0.00     0.009 C 
ATOM     23  C   UNL     1      -1.450  -0.040  -1.143  1.00  0.00    -0.001 C 
ATOM     24  O   UNL     1      -2.572   1.314   0.450  1.00  0.00    -0.294 OA
ATOM     25  C   UNL     1      -1.776  -1.465  -1.497  1.00  0.00     0.020 C 
ATOM     26  C   UNL     1      -3.289  -1.604  -1.709  1.00  0.00     0.013 C 
BRANCH  19  27
ATOM     27  C   UNL     1      -1.698  -0.096   2.761  1.00  0.00    -0.007 C 
ATOM     28  C   UNL     1      -3.197  -0.195   3.061  1.00  0.00     0.008 C 
ATOM     29  C   UNL     1      -0.915  -0.848   3.843  1.00  0.00     0.008 C 
ENDBRANCH  19  27
ENDBRANCH  13  18
ENDBRANCH   9  12
ENDBRANCH   7   8
ENDBRANCH   6   7
ENDBRANCH   3   6
ENDBRANCH   1   2
BRANCH   1  30
ATOM     30  C   UNL     1       3.190   6.259   0.832  1.00  0.00     0.023 C 
BRANCH  30  31
ATOM     31  C   UNL     1       3.254   4.987   1.673  1.00  0.00     0.023 C 
BRANCH  31  32
ATOM     32  C   UNL     1       4.644   4.399   1.829  1.00  0.00     0.116 C 
BRANCH  32  33
ATOM     33  N   UNL     1       5.539   5.302   2.532  1.00  0.00    -0.352 N 
ATOM     34  C   UNL     1       6.121   5.149   3.764  1.00  0.00     0.251 C 
ATOM     35  H   UNL     1       5.757   6.137   2.058  1.00  0.00     0.163 HD
ATOM     36  O   UNL     1       6.647   6.119   4.314  1.00  0.00    -0.269 OA
BRANCH  34  37
ATOM     37  C   UNL     1       6.097   3.831   4.431  1.00  0.00     0.039 A 
ATOM     38  C   UNL     1       5.835   3.757   5.800  1.00  0.00     0.014 A 
ATOM     39  C   UNL     1       6.338   2.665   3.698  1.00  0.00     0.014 A 
ATOM     40  C   UNL     1       5.772   2.508   6.425  1.00  0.00     0.010 A 
ATOM     41  C   UNL     1       6.171   1.423   4.298  1.00  0.00     0.010 A 
ATOM     42  C   UNL     1       5.918   1.330   5.674  1.00  0.00    -0.014 A 
BRANCH  42  43
ATOM     43  C   UNL     1       5.893  -0.011   6.312  1.00  0.00     0.031 A 
ATOM     44  C   UNL     1       7.119  -0.886   6.234  1.00  0.00     0.074 A 
ATOM     45  C   UNL     1       4.767  -0.465   6.894  1.00  0.00     0.049 A 
ATOM     46  N   UNL     1       7.282  -2.126   6.617  1.00  0.00    -0.248 NA
ATOM     47  C   UNL     1       8.306  -0.298   5.592  1.00  0.00     0.031 C 
ATOM     48  C   UNL     1       3.505   0.272   6.987  1.00  0.00     0.029 A 
ATOM     49  N   UNL     1       4.497  -1.660   7.512  1.00  0.00    -0.354 N 
ATOM     50  C   UNL     1       8.574  -2.473   6.233  1.00  0.00     0.074 A 
ATOM     51  C   UNL     1       9.119  -1.339   5.520  1.00  0.00     0.031 C 
ATOM     52  C   UNL     1       2.607  -0.474   7.651  1.00  0.00     0.029 A 
ATOM     53  C   UNL     1       3.213  -1.757   7.994  1.00  0.00     0.049 A 
ATOM     54  H   UNL     1       5.162  -2.381   7.601  1.00  0.00     0.167 HD
ATOM     55  C   UNL     1       9.255  -3.620   6.480  1.00  0.00     0.034 A 
ATOM     56  C   UNL     1       2.597  -2.769   8.637  1.00  0.00     0.034 A 
ATOM     57  C   UNL     1       8.706  -4.721   7.231  1.00  0.00     0.049 A 
ATOM     58  C   UNL     1       3.380  -4.025   8.927  1.00  0.00     0.074 A 
ATOM     59  C   UNL     1       9.317  -5.908   7.596  1.00  0.00     0.029 A 
ATOM     60  N   UNL     1       7.414  -4.766   7.740  1.00  0.00    -0.354 N 
ATOM     61  N   UNL     1       4.616  -4.324   8.595  1.00  0.00    -0.248 NA
ATOM     62  C   UNL     1       2.693  -5.072   9.693  1.00  0.00     0.031 C 
ATOM     63  C   UNL     1       8.378  -6.692   8.276  1.00  0.00     0.029 A 
ATOM     64  C   UNL     1       7.204  -5.966   8.400  1.00  0.00     0.049 A 
ATOM     65  H   UNL     1       6.745  -4.050   7.645  1.00  0.00     0.167 HD
ATOM     66  C   UNL     1       4.863  -5.579   9.143  1.00  0.00     0.074 A 
ATOM     67  C   UNL     1       3.654  -5.973   9.836  1.00  0.00     0.031 C 
ATOM     68  C   UNL     1       5.988  -6.338   9.084  1.00  0.00     0.034 A 
BRANCH  55  69
ATOM     69  C   UNL     1      10.653  -3.733   5.916  1.00  0.00     0.023 A 
ATOM     70  C   UNL     1      11.676  -2.844   6.292  1.00  0.00     0.031 A 
ATOM     71  C   UNL     1      10.958  -4.712   4.955  1.00  0.00     0.131 A 
ATOM     72  C   UNL     1      12.920  -2.889   5.645  1.00  0.00     0.055 A 
ATOM     73  C   UNL     1      12.228  -4.812   4.381  1.00  0.00     0.041 A 
ATOM     74  F   UNL     1      10.021  -5.578   4.539  1.00  0.00    -0.206 F 
ATOM     75  C   UNL     1      13.213  -3.885   4.712  1.00  0.00     0.022 A 
BRANCH  72  76
ATOM     76  S   UNL     1      14.089  -1.531   5.924  1.00  0.00     0.124 S 
ATOM     77  O   UNL     1      13.316  -0.380   5.461  1.00  0.00    -0.237 OA
ATOM     78  O   UNL     1      14.325  -1.606   7.361  1.00  0.00    -0.237 OA
ATOM     79  O   UNL     1      15.231  -1.884   5.083  1.00  0.00    -0.744 OA
ENDBRANCH  72  76
ENDBRANCH  55  69
BRANCH  56  80
ATOM     80  C   UNL     1       1.174  -2.638   9.066  1.00  0.00     0.023 A 
ATOM     81  C   UNL     1       0.830  -2.627  10.427  1.00  0.00     0.031 A 
ATOM     82  C   UNL     1       0.135  -2.555   8.123  1.00  0.00     0.131 A 
ATOM     83  C   UNL     1      -0.520  -2.586  10.808  1.00  0.00     0.055 A 
ATOM     84  C   UNL     1      -1.204  -2.462   8.508  1.00  0.00     0.041 A 
ATOM     85  F   UNL     1       0.408  -2.551   6.808  1.00  0.00    -0.206 F 
ATOM     86  C   UNL     1      -1.539  -2.491   9.858  1.00  0.00     0.022 A 
BRANCH  83  87
ATOM     87  S   UNL     1      -0.929  -2.743  12.569  1.00  0.00     0.124 S 
ATOM     88  O   UNL     1      -0.307  -4.019  12.905  1.00  0.00    -0.237 OA
ATOM     89  O   UNL     1      -0.300  -1.554  13.132  1.00  0.00    -0.237 OA
ATOM     90  O   UNL     1      -2.390  -2.738  12.580  1.00  0.00    -0.744 OA
ENDBRANCH  83  87
ENDBRANCH  56  80
BRANCH  68  91
ATOM     91  C   UNL     1       5.973  -7.644   9.838  1.00  0.00     0.023 A 
ATOM     92  C   UNL     1       5.153  -8.716   9.445  1.00  0.00     0.031 A 
ATOM     93  C   UNL     1       6.790  -7.813  10.969  1.00  0.00     0.131 A 
ATOM     94  C   UNL     1       5.127  -9.890  10.211  1.00  0.00     0.055 A 
ATOM     95  C   UNL     1       6.805  -9.005  11.693  1.00  0.00     0.041 A 
ATOM     96  F   UNL     1       7.593  -6.821  11.386  1.00  0.00    -0.206 F 
ATOM     97  C   UNL     1       5.960 -10.048  11.322  1.00  0.00     0.022 A 
BRANCH  94  98
ATOM     98  S   UNL     1       3.924 -11.179   9.786  1.00  0.00     0.124 S 
ATOM     99  O   UNL     1       2.659 -10.458   9.889  1.00  0.00    -0.237 OA
ATOM    100  O   UNL     1       4.334 -11.557   8.438  1.00  0.00    -0.237 OA
ATOM    101  O   UNL     1       4.141 -12.201  10.809  1.00  0.00    -0.744 OA
ENDBRANCH  94  98
ENDBRANCH  68  91
ENDBRANCH  42  43
ENDBRANCH  34  37
ENDBRANCH  32  33
ENDBRANCH  31  32
ENDBRANCH  30  31
ENDBRANCH   1  30
TORSDOF 19
