REMARK SMILES COc1ccc(CCC(=O)N(C)C[C@H](C)C(=O)NCCCCNC(=O)c2ccc(-c3c4nc(c(-c5cc(S(=O)(=O)[O-])ccc5F)c5ccc([nH]5)c(-c5cc(S(=O)(=O)[O-])ccc5F)c5nc(c(-c6cc(S(=O)(=O)[O-])ccc6F)c6ccc3[nH]6)C=C5)C=C4)cc2)cc1F
REMARK SMILES IDX 16 1 17 2 18 3 14 5 15 6 13 7 11 8 12 9 9 10 10 11 8 12 7 13
REMARK SMILES IDX 6 14 3 15 4 16 90 17 5 18 89 19 91 20 2 21 1 22 19 23 20 24
REMARK SMILES IDX 21 25 22 26 23 27 24 28 25 30 26 31 27 32 88 33 28 34 87 35
REMARK SMILES IDX 29 36 30 37 31 38 81 39 32 40 86 41 80 42 82 43 33 44 85 45
REMARK SMILES IDX 79 46 78 47 34 49 66 50 46 51 65 52 47 53 50 54 64 55 83 56
REMARK SMILES IDX 48 57 49 58 63 60 84 61 51 62 35 63 36 64 44 65 37 66 43 67
REMARK SMILES IDX 45 68 42 69 38 70 39 71 40 72 41 73 67 74 68 75 76 76 69 77
REMARK SMILES IDX 75 78 77 79 74 80 70 81 71 82 72 83 73 84 52 85 53 86 61 87
REMARK SMILES IDX 54 88 60 89 62 90 59 91 55 92 56 93 57 94 58 95
REMARK H PARENT 18 4 23 29 82 48 50 59
REMARK Flexibility Score: inf
ROOT
ATOM      1  C   UNL     1      -4.151   2.337   5.956  1.00  0.00     0.224 C 
ATOM      2  O   UNL     1      -4.855   1.756   5.127  1.00  0.00    -0.275 OA
ATOM      3  N   UNL     1      -4.575   3.547   6.414  1.00  0.00    -0.356 N 
ATOM      4  H   UNL     1      -5.506   3.771   6.186  1.00  0.00     0.163 HD
ENDROOT
BRANCH   1   5
ATOM      5  C   UNL     1      -2.803   1.765   6.372  1.00  0.00     0.095 C 
ATOM      6  C   UNL     1      -1.688   2.479   5.600  1.00  0.00     0.020 C 
BRANCH   5   7
ATOM      7  C   UNL     1      -2.604   1.754   7.906  1.00  0.00     0.132 C 
BRANCH   7   8
ATOM      8  N   UNL     1      -2.666   0.425   8.535  1.00  0.00    -0.345 N 
ATOM      9  C   UNL     1      -1.718   0.197   9.618  1.00  0.00     0.146 C 
BRANCH   8  10
ATOM     10  C   UNL     1      -3.802  -0.350   8.335  1.00  0.00     0.222 C 
ATOM     11  O   UNL     1      -4.803   0.108   7.781  1.00  0.00    -0.275 OA
BRANCH  10  12
ATOM     12  C   UNL     1      -3.793  -1.819   8.727  1.00  0.00     0.105 C 
BRANCH  12  13
ATOM     13  C   UNL     1      -3.130  -2.696   7.655  1.00  0.00     0.045 C 
BRANCH  13  14
ATOM     14  C   UNL     1      -1.625  -2.556   7.638  1.00  0.00    -0.044 A 
ATOM     15  C   UNL     1       1.090  -1.910   7.904  1.00  0.00     0.154 A 
ATOM     16  C   UNL     1       0.328  -1.308   6.907  1.00  0.00     0.050 A 
ATOM     17  C   UNL     1       0.510  -2.876   8.728  1.00  0.00     0.165 A 
ATOM     18  C   UNL     1      -1.015  -1.653   6.755  1.00  0.00     0.008 A 
ATOM     19  C   UNL     1      -0.838  -3.205   8.598  1.00  0.00     0.047 A 
ATOM     20  F   UNL     1       1.215  -3.448   9.715  1.00  0.00    -0.203 F 
BRANCH  15  21
ATOM     21  O   UNL     1       2.344  -1.401   8.109  1.00  0.00    -0.494 OA
ATOM     22  C   UNL     1       3.360  -2.382   7.941  1.00  0.00     0.278 C 
ENDBRANCH  15  21
ENDBRANCH  13  14
ENDBRANCH  12  13
ENDBRANCH  10  12
ENDBRANCH   8  10
ENDBRANCH   7   8
ENDBRANCH   5   7
ENDBRANCH   1   5
BRANCH   3  23
ATOM     23  C   UNL     1      -3.876   4.558   7.184  1.00  0.00     0.116 C 
BRANCH  23  24
ATOM     24  C   UNL     1      -3.895   5.901   6.466  1.00  0.00     0.023 C 
BRANCH  24  25
ATOM     25  C   UNL     1      -5.279   6.547   6.392  1.00  0.00     0.023 C 
BRANCH  25  26
ATOM     26  C   UNL     1      -5.969   6.736   7.739  1.00  0.00     0.116 C 
BRANCH  26  27
ATOM     27  N   UNL     1      -5.178   7.532   8.666  1.00  0.00    -0.352 N 
ATOM     28  C   UNL     1      -5.572   8.606   9.426  1.00  0.00     0.251 C 
ATOM     29  H   UNL     1      -4.235   7.264   8.761  1.00  0.00     0.163 HD
ATOM     30  O   UNL     1      -4.736   9.265  10.038  1.00  0.00    -0.269 OA
BRANCH  28  31
ATOM     31  C   UNL     1      -7.001   8.972   9.467  1.00  0.00     0.039 A 
ATOM     32  C   UNL     1      -7.368  10.297   9.227  1.00  0.00     0.014 A 
ATOM     33  C   UNL     1      -7.976   7.995   9.693  1.00  0.00     0.014 A 
ATOM     34  C   UNL     1      -8.722  10.630   9.143  1.00  0.00     0.010 A 
ATOM     35  C   UNL     1      -9.321   8.315   9.536  1.00  0.00     0.010 A 
ATOM     36  C   UNL     1      -9.707   9.634   9.255  1.00  0.00    -0.014 A 
BRANCH  36  37
ATOM     37  C   UNL     1     -11.147   9.953   9.078  1.00  0.00     0.031 A 
ATOM     38  C   UNL     1     -12.102   9.773  10.227  1.00  0.00     0.074 A 
ATOM     39  C   UNL     1     -11.601  10.358   7.874  1.00  0.00     0.049 A 
ATOM     40  N   UNL     1     -13.402   9.911  10.246  1.00  0.00    -0.248 NA
ATOM     41  C   UNL     1     -11.523   9.363  11.517  1.00  0.00     0.031 C 
ATOM     42  C   UNL     1     -10.775  10.547   6.678  1.00  0.00     0.029 A 
ATOM     43  N   UNL     1     -12.866  10.685   7.454  1.00  0.00    -0.354 N 
ATOM     44  C   UNL     1     -13.797   9.600  11.542  1.00  0.00     0.074 A 
ATOM     45  C   UNL     1     -12.605   9.216  12.267  1.00  0.00     0.031 C 
ATOM     46  C   UNL     1     -11.548  10.990   5.674  1.00  0.00     0.029 A 
ATOM     47  C   UNL     1     -12.931  11.069   6.134  1.00  0.00     0.049 A 
ATOM     48  H   UNL     1     -13.655  10.648   8.043  1.00  0.00     0.167 HD
ATOM     49  C   UNL     1     -15.037   9.652  12.082  1.00  0.00     0.034 A 
ATOM     50  C   UNL     1     -13.986  11.434   5.376  1.00  0.00     0.034 A 
ATOM     51  C   UNL     1     -16.213  10.064  11.361  1.00  0.00     0.049 A 
ATOM     52  C   UNL     1     -15.359  11.452   5.996  1.00  0.00     0.074 A 
ATOM     53  C   UNL     1     -17.508  10.189  11.834  1.00  0.00     0.029 A 
ATOM     54  N   UNL     1     -16.240  10.422  10.022  1.00  0.00    -0.354 N 
ATOM     55  N   UNL     1     -15.711  11.153   7.224  1.00  0.00    -0.248 NA
ATOM     56  C   UNL     1     -16.476  11.853   5.130  1.00  0.00     0.031 C 
ATOM     57  C   UNL     1     -18.327  10.570  10.768  1.00  0.00     0.029 A 
ATOM     58  C   UNL     1     -17.532  10.748   9.647  1.00  0.00     0.049 A 
ATOM     59  H   UNL     1     -15.456  10.442   9.426  1.00  0.00     0.167 HD
ATOM     60  C   UNL     1     -17.086  11.356   7.284  1.00  0.00     0.074 A 
ATOM     61  C   UNL     1     -17.500  11.806   5.972  1.00  0.00     0.031 C 
ATOM     62  C   UNL     1     -17.928  11.191   8.333  1.00  0.00     0.034 A 
BRANCH  49  63
ATOM     63  C   UNL     1     -15.192   9.257  13.526  1.00  0.00     0.023 A 
ATOM     64  C   UNL     1     -14.685  10.057  14.562  1.00  0.00     0.031 A 
ATOM     65  C   UNL     1     -15.902   8.093  13.870  1.00  0.00     0.131 A 
ATOM     66  C   UNL     1     -14.870   9.669  15.896  1.00  0.00     0.055 A 
ATOM     67  C   UNL     1     -16.133   7.742  15.200  1.00  0.00     0.041 A 
ATOM     68  F   UNL     1     -16.392   7.285  12.916  1.00  0.00    -0.206 F 
ATOM     69  C   UNL     1     -15.612   8.530  16.223  1.00  0.00     0.022 A 
BRANCH  66  70
ATOM     70  S   UNL     1     -14.083  10.646  17.205  1.00  0.00     0.124 S 
ATOM     71  O   UNL     1     -12.668  10.386  16.954  1.00  0.00    -0.237 OA
ATOM     72  O   UNL     1     -14.544  11.998  16.915  1.00  0.00    -0.237 OA
ATOM     73  O   UNL     1     -14.611  10.058  18.435  1.00  0.00    -0.744 OA
ENDBRANCH  66  70
ENDBRANCH  49  63
BRANCH  50  74
ATOM     74  C   UNL     1     -13.793  11.802   3.946  1.00  0.00     0.023 A 
ATOM     75  C   UNL     1     -14.010  13.117   3.504  1.00  0.00     0.031 A 
ATOM     76  C   UNL     1     -13.410  10.840   2.994  1.00  0.00     0.131 A 
ATOM     77  C   UNL     1     -13.876  13.428   2.142  1.00  0.00     0.055 A 
ATOM     78  C   UNL     1     -13.234  11.164   1.648  1.00  0.00     0.041 A 
ATOM     79  F   UNL     1     -13.184   9.570   3.367  1.00  0.00    -0.206 F 
ATOM     80  C   UNL     1     -13.477  12.463   1.214  1.00  0.00     0.022 A 
BRANCH  77  81
ATOM     81  S   UNL     1     -14.279  15.107   1.589  1.00  0.00     0.124 S 
ATOM     82  O   UNL     1     -15.695  15.198   1.925  1.00  0.00    -0.237 OA
ATOM     83  O   UNL     1     -13.374  15.920   2.395  1.00  0.00    -0.237 OA
ATOM     84  O   UNL     1     -13.976  15.076   0.160  1.00  0.00    -0.744 OA
ENDBRANCH  77  81
ENDBRANCH  50  74
BRANCH  62  85
ATOM     85  C   UNL     1     -19.378  11.534   8.123  1.00  0.00     0.023 A 
ATOM     86  C   UNL     1     -20.222  10.719   7.351  1.00  0.00     0.031 A 
ATOM     87  C   UNL     1     -19.932  12.662   8.753  1.00  0.00     0.131 A 
ATOM     88  C   UNL     1     -21.575  11.059   7.207  1.00  0.00     0.055 A 
ATOM     89  C   UNL     1     -21.288  12.970   8.644  1.00  0.00     0.041 A 
ATOM     90  F   UNL     1     -19.166  13.468   9.505  1.00  0.00    -0.206 F 
ATOM     91  C   UNL     1     -22.117  12.168   7.864  1.00  0.00     0.022 A 
BRANCH  88  92
ATOM     92  S   UNL     1     -22.620  10.044   6.128  1.00  0.00     0.124 S 
ATOM     93  O   UNL     1     -22.022  10.282   4.818  1.00  0.00    -0.237 OA
ATOM     94  O   UNL     1     -22.437   8.705   6.678  1.00  0.00    -0.237 OA
ATOM     95  O   UNL     1     -23.955  10.610   6.312  1.00  0.00    -0.744 OA
ENDBRANCH  88  92
ENDBRANCH  62  85
ENDBRANCH  36  37
ENDBRANCH  28  31
ENDBRANCH  26  27
ENDBRANCH  25  26
ENDBRANCH  24  25
ENDBRANCH  23  24
ENDBRANCH   3  23
TORSDOF 21
