REMARK SMILES COCCC(=O)N1[C@@H](C(=O)NCCCCNC(=O)c2ccc(-c3c4nc(c(-c5cc(S(=O)(=O)[O-])ccc5F)c5ccc([nH]5)c(-c5cc(S(=O)(=O)[O-])ccc5F)c5nc(c(-c6cc(S(=O)(=O)[O-])ccc6F)c6ccc3[nH]6)C=C5)C=C4)cc2)CC[C@H]2CCCC[C@@H]21
REMARK SMILES IDX 13 1 12 2 11 3 9 4 10 5 8 7 7 8 89 9 82 10 84 11 88 12 83 13
REMARK SMILES IDX 85 14 87 15 86 16 5 17 6 18 4 19 3 20 2 21 1 22 14 23 15 24
REMARK SMILES IDX 16 25 17 26 18 28 19 29 20 30 81 31 21 32 80 33 22 34 23 35
REMARK SMILES IDX 24 36 74 37 25 38 79 39 73 40 75 41 26 42 78 43 72 44 71 45
REMARK SMILES IDX 27 47 59 48 39 49 58 50 40 51 43 52 57 53 76 54 41 55 42 56
REMARK SMILES IDX 56 58 77 59 44 60 28 61 29 62 37 63 30 64 36 65 38 66 35 67
REMARK SMILES IDX 31 68 32 69 33 70 34 71 60 72 61 73 69 74 62 75 68 76 70 77
REMARK SMILES IDX 67 78 63 79 64 80 65 81 66 82 45 83 46 84 54 85 47 86 53 87
REMARK SMILES IDX 55 88 52 89 48 90 49 91 50 92 51 93
REMARK H PARENT 11 6 16 27 75 46 43 57
REMARK Flexibility Score: inf
ROOT
ATOM      1  C   UNL     1      -3.411  -3.990   0.444  1.00  0.00     0.023 C 
ENDROOT
BRANCH   1   2
ATOM      2  C   UNL     1      -2.133  -3.384   1.033  1.00  0.00     0.116 C 
BRANCH   2   3
ATOM      3  N   UNL     1      -1.001  -4.274   0.859  1.00  0.00    -0.354 N 
ATOM      4  C   UNL     1       0.030  -4.229  -0.035  1.00  0.00     0.242 C 
ATOM      5  O   UNL     1       0.666  -5.272  -0.215  1.00  0.00    -0.273 OA
ATOM      6  H   UNL     1      -0.971  -5.032   1.487  1.00  0.00     0.163 HD
BRANCH   4   7
ATOM      7  C   UNL     1       0.323  -2.974  -0.898  1.00  0.00     0.174 C 
ATOM      8  N   UNL     1       0.459  -1.727  -0.127  1.00  0.00    -0.327 N 
ATOM      9  C   UNL     1       0.635  -0.487  -0.894  1.00  0.00     0.089 C 
ATOM     10  C   UNL     1      -0.785  -2.850  -1.982  1.00  0.00     0.036 C 
ATOM     11  C   UNL     1       0.040  -0.564  -2.309  1.00  0.00     0.012 C 
ATOM     12  C   UNL     1       2.096  -0.025  -1.063  1.00  0.00     0.025 C 
ATOM     13  C   UNL     1      -1.219  -1.407  -2.282  1.00  0.00     0.008 C 
ATOM     14  C   UNL     1      -0.107   0.855  -2.852  1.00  0.00     0.006 C 
ATOM     15  C   UNL     1       2.156   1.351  -1.745  1.00  0.00     0.002 C 
ATOM     16  C   UNL     1       1.289   1.472  -3.005  1.00  0.00     0.000 C 
BRANCH   8  17
ATOM     17  C   UNL     1       1.062  -1.782   1.130  1.00  0.00     0.225 C 
ATOM     18  O   UNL     1       2.050  -2.468   1.371  1.00  0.00    -0.275 OA
BRANCH  17  19
ATOM     19  C   UNL     1       0.306  -1.032   2.211  1.00  0.00     0.128 C 
BRANCH  19  20
ATOM     20  C   UNL     1       1.181  -0.025   2.941  1.00  0.00     0.169 C 
BRANCH  20  21
ATOM     21  O   UNL     1       0.554   1.258   3.067  1.00  0.00    -0.384 OA
ATOM     22  C   UNL     1       0.456   1.973   1.846  1.00  0.00     0.194 C 
ENDBRANCH  20  21
ENDBRANCH  19  20
ENDBRANCH  17  19
ENDBRANCH   8  17
ENDBRANCH   4   7
ENDBRANCH   2   3
ENDBRANCH   1   2
BRANCH   1  23
ATOM     23  C   UNL     1      -3.899  -5.265   1.136  1.00  0.00     0.023 C 
BRANCH  23  24
ATOM     24  C   UNL     1      -4.251  -5.106   2.609  1.00  0.00     0.116 C 
BRANCH  24  25
ATOM     25  N   UNL     1      -5.304  -4.127   2.832  1.00  0.00    -0.352 N 
ATOM     26  C   UNL     1      -6.396  -4.212   3.663  1.00  0.00     0.251 C 
ATOM     27  H   UNL     1      -5.224  -3.291   2.319  1.00  0.00     0.163 HD
ATOM     28  O   UNL     1      -7.267  -3.348   3.615  1.00  0.00    -0.269 OA
BRANCH  26  29
ATOM     29  C   UNL     1      -6.528  -5.365   4.579  1.00  0.00     0.039 A 
ATOM     30  C   UNL     1      -7.750  -6.039   4.646  1.00  0.00     0.014 A 
ATOM     31  C   UNL     1      -5.441  -5.799   5.342  1.00  0.00     0.014 A 
ATOM     32  C   UNL     1      -7.860  -7.192   5.426  1.00  0.00     0.010 A 
ATOM     33  C   UNL     1      -5.532  -6.989   6.059  1.00  0.00     0.010 A 
ATOM     34  C   UNL     1      -6.741  -7.699   6.108  1.00  0.00    -0.014 A 
BRANCH  34  35
ATOM     35  C   UNL     1      -6.815  -8.966   6.880  1.00  0.00     0.031 A 
ATOM     36  C   UNL     1      -6.594  -8.954   8.367  1.00  0.00     0.074 A 
ATOM     37  C   UNL     1      -7.012 -10.132   6.232  1.00  0.00     0.049 A 
ATOM     38  N   UNL     1      -6.530  -9.957   9.204  1.00  0.00    -0.248 NA
ATOM     39  C   UNL     1      -6.385  -7.638   8.990  1.00  0.00     0.031 C 
ATOM     40  C   UNL     1      -7.196 -10.276   4.786  1.00  0.00     0.029 A 
ATOM     41  N   UNL     1      -7.078 -11.420   6.702  1.00  0.00    -0.354 N 
ATOM     42  C   UNL     1      -6.259  -9.396  10.448  1.00  0.00     0.074 A 
ATOM     43  C   UNL     1      -6.109  -7.972  10.241  1.00  0.00     0.031 C 
ATOM     44  C   UNL     1      -7.377 -11.573   4.491  1.00  0.00     0.029 A 
ATOM     45  C   UNL     1      -7.274 -12.361   5.716  1.00  0.00     0.049 A 
ATOM     46  H   UNL     1      -6.993 -11.650   7.655  1.00  0.00     0.167 HD
ATOM     47  C   UNL     1      -6.168 -10.010  11.654  1.00  0.00     0.034 A 
ATOM     48  C   UNL     1      -7.349 -13.704   5.789  1.00  0.00     0.034 A 
ATOM     49  C   UNL     1      -6.335 -11.431  11.843  1.00  0.00     0.049 A 
ATOM     50  C   UNL     1      -7.224 -14.367   7.138  1.00  0.00     0.074 A 
ATOM     51  C   UNL     1      -6.319 -12.151  13.025  1.00  0.00     0.029 A 
ATOM     52  N   UNL     1      -6.539 -12.351  10.822  1.00  0.00    -0.354 N 
ATOM     53  N   UNL     1      -7.021 -13.817   8.313  1.00  0.00    -0.248 NA
ATOM     54  C   UNL     1      -7.350 -15.830   7.172  1.00  0.00     0.031 C 
ATOM     55  C   UNL     1      -6.447 -13.509  12.714  1.00  0.00     0.029 A 
ATOM     56  C   UNL     1      -6.621 -13.633  11.345  1.00  0.00     0.049 A 
ATOM     57  H   UNL     1      -6.615 -12.126   9.867  1.00  0.00     0.167 HD
ATOM     58  C   UNL     1      -7.027 -14.866   9.229  1.00  0.00     0.074 A 
ATOM     59  C   UNL     1      -7.269 -16.076   8.471  1.00  0.00     0.031 C 
ATOM     60  C   UNL     1      -6.854 -14.832  10.575  1.00  0.00     0.034 A 
BRANCH  47  61
ATOM     61  C   UNL     1      -5.852  -9.146  12.852  1.00  0.00     0.023 A 
ATOM     62  C   UNL     1      -6.719  -8.121  13.272  1.00  0.00     0.031 A 
ATOM     63  C   UNL     1      -4.656  -9.329  13.568  1.00  0.00     0.131 A 
ATOM     64  C   UNL     1      -6.343  -7.271  14.323  1.00  0.00     0.055 A 
ATOM     65  C   UNL     1      -4.327  -8.533  14.667  1.00  0.00     0.041 A 
ATOM     66  F   UNL     1      -3.779 -10.277  13.203  1.00  0.00    -0.206 F 
ATOM     67  C   UNL     1      -5.164  -7.486  15.040  1.00  0.00     0.022 A 
BRANCH  64  68
ATOM     68  S   UNL     1      -7.345  -5.793  14.641  1.00  0.00     0.124 S 
ATOM     69  O   UNL     1      -7.264  -5.101  13.357  1.00  0.00    -0.237 OA
ATOM     70  O   UNL     1      -8.645  -6.360  14.981  1.00  0.00    -0.237 OA
ATOM     71  O   UNL     1      -6.644  -5.134  15.741  1.00  0.00    -0.744 OA
ENDBRANCH  64  68
ENDBRANCH  47  61
BRANCH  48  72
ATOM     72  C   UNL     1      -7.542 -14.521   4.555  1.00  0.00     0.023 A 
ATOM     73  C   UNL     1      -8.702 -15.290   4.371  1.00  0.00     0.031 A 
ATOM     74  C   UNL     1      -6.547 -14.581   3.563  1.00  0.00     0.131 A 
ATOM     75  C   UNL     1      -8.818 -16.124   3.248  1.00  0.00     0.055 A 
ATOM     76  C   UNL     1      -6.691 -15.370   2.420  1.00  0.00     0.041 A 
ATOM     77  F   UNL     1      -5.420 -13.861   3.686  1.00  0.00    -0.206 F 
ATOM     78  C   UNL     1      -7.826 -16.159   2.265  1.00  0.00     0.022 A 
BRANCH  75  79
ATOM     79  S   UNL     1     -10.248 -17.233   3.134  1.00  0.00     0.124 S 
ATOM     80  O   UNL     1     -10.126 -18.004   4.366  1.00  0.00    -0.237 OA
ATOM     81  O   UNL     1     -11.359 -16.289   3.075  1.00  0.00    -0.237 OA
ATOM     82  O   UNL     1     -10.002 -17.980   1.902  1.00  0.00    -0.744 OA
ENDBRANCH  75  79
ENDBRANCH  48  72
BRANCH  60  83
ATOM     83  C   UNL     1      -6.970 -16.143  11.314  1.00  0.00     0.023 A 
ATOM     84  C   UNL     1      -6.032 -17.176  11.145  1.00  0.00     0.031 A 
ATOM     85  C   UNL     1      -8.044 -16.362  12.195  1.00  0.00     0.131 A 
ATOM     86  C   UNL     1      -6.216 -18.401  11.803  1.00  0.00     0.055 A 
ATOM     87  C   UNL     1      -8.188 -17.561  12.895  1.00  0.00     0.041 A 
ATOM     88  F   UNL     1      -8.971 -15.411  12.393  1.00  0.00    -0.206 F 
ATOM     89  C   UNL     1      -7.278 -18.594  12.691  1.00  0.00     0.022 A 
BRANCH  86  90
ATOM     90  S   UNL     1      -5.097 -19.776  11.417  1.00  0.00     0.124 S 
ATOM     91  O   UNL     1      -5.292 -19.930   9.979  1.00  0.00    -0.237 OA
ATOM     92  O   UNL     1      -3.801 -19.249  11.831  1.00  0.00    -0.237 OA
ATOM     93  O   UNL     1      -5.608 -20.875  12.233  1.00  0.00    -0.744 OA
ENDBRANCH  86  90
ENDBRANCH  60  83
ENDBRANCH  34  35
ENDBRANCH  26  29
ENDBRANCH  24  25
ENDBRANCH  23  24
ENDBRANCH   1  23
TORSDOF 18
