REMARK SMILES CS(=O)(=O)c1ccc(N2N=C(C(=O)NCCCCNC(=O)c3ccc(-c4c5nc(c(-c6cc(S(=O)(=O)[O-])ccc6F)c6ccc([nH]6)c(-c6cc(S(=O)(=O)[O-])ccc6F)c6nc(c(-c7cc(S(=O)(=O)[O-])ccc7F)c7ccc4[nH]7)C=C6)C=C5)cc3)C[C@H]2c2ccco2)cc1
REMARK SMILES IDX 17 1 16 2 15 3 14 4 12 5 13 6 11 8 9 9 10 10 86 11 85 12
REMARK SMILES IDX 8 13 5 14 6 15 93 16 7 17 92 18 2 19 1 20 3 21 4 22 87 23
REMARK SMILES IDX 88 24 91 25 89 26 90 27 18 28 19 29 20 30 21 32 22 33 23 34
REMARK SMILES IDX 84 35 24 36 83 37 25 38 26 39 27 40 77 41 28 42 82 43 76 44
REMARK SMILES IDX 78 45 29 46 81 47 75 48 74 49 30 51 62 52 42 53 61 54 43 55
REMARK SMILES IDX 46 56 60 57 79 58 44 59 45 60 59 62 80 63 47 64 31 65 32 66
REMARK SMILES IDX 40 67 33 68 39 69 41 70 38 71 34 72 35 73 36 74 37 75 63 76
REMARK SMILES IDX 64 77 72 78 65 79 71 80 73 81 70 82 66 83 67 84 68 85 69 86
REMARK SMILES IDX 48 87 49 88 57 89 50 90 56 91 58 92 55 93 51 94 52 95 53 96
REMARK SMILES IDX 54 97
REMARK H PARENT 14 7 19 31 78 50 46 61
REMARK Flexibility Score: inf
ROOT
ATOM      1  C   UNL     1       5.526  -2.357 -13.035  1.00  0.00     0.023 C 
ENDROOT
BRANCH   1   2
ATOM      2  C   UNL     1       5.605  -1.884 -11.586  1.00  0.00     0.023 C 
BRANCH   2   3
ATOM      3  C   UNL     1       4.477  -0.941 -11.185  1.00  0.00     0.116 C 
BRANCH   3   4
ATOM      4  N   UNL     1       3.238  -1.661 -10.963  1.00  0.00    -0.351 N 
ATOM      5  C   UNL     1       2.483  -1.952  -9.854  1.00  0.00     0.267 C 
ATOM      6  O   UNL     1       1.498  -2.671 -10.003  1.00  0.00    -0.268 OA
ATOM      7  H   UNL     1       2.852  -2.022 -11.793  1.00  0.00     0.163 HD
BRANCH   5   8
ATOM      8  C   UNL     1       2.771  -1.399  -8.467  1.00  0.00     0.128 C 
ATOM      9  N   UNL     1       2.413  -0.875  -6.431  1.00  0.00    -0.254 N 
ATOM     10  N   UNL     1       1.985  -1.651  -7.463  1.00  0.00    -0.171 NA
ATOM     11  C   UNL     1       3.685  -0.195  -6.686  1.00  0.00     0.180 C 
ATOM     12  C   UNL     1       3.927  -0.514  -8.161  1.00  0.00     0.099 C 
BRANCH   9  13
ATOM     13  C   UNL     1       1.911  -1.073  -5.153  1.00  0.00     0.060 A 
ATOM     14  C   UNL     1       0.928  -1.407  -2.547  1.00  0.00     0.067 A 
ATOM     15  C   UNL     1       1.421  -2.510  -3.248  1.00  0.00     0.022 A 
ATOM     16  C   UNL     1       0.886  -0.149  -3.145  1.00  0.00     0.022 A 
ATOM     17  C   UNL     1       1.895  -2.339  -4.553  1.00  0.00     0.029 A 
ATOM     18  C   UNL     1       1.380   0.007  -4.438  1.00  0.00     0.029 A 
BRANCH  14  19
ATOM     19  S   UNL     1       0.359  -1.600  -0.878  1.00  0.00     0.175 S 
ATOM     20  C   UNL     1       1.071  -0.235   0.005  1.00  0.00     0.163 C 
ATOM     21  O   UNL     1       0.964  -2.805  -0.343  1.00  0.00    -0.224 OA
ATOM     22  O   UNL     1      -1.081  -1.423  -0.894  1.00  0.00    -0.224 OA
ENDBRANCH  14  19
ENDBRANCH   9  13
BRANCH  11  23
ATOM     23  C   UNL     1       3.769   1.278  -6.396  1.00  0.00     0.128 A 
ATOM     24  C   UNL     1       3.975   1.998  -5.234  1.00  0.00     0.048 A 
ATOM     25  O   UNL     1       3.645   2.148  -7.445  1.00  0.00    -0.467 OA
ATOM     26  C   UNL     1       3.953   3.368  -5.593  1.00  0.00     0.042 A 
ATOM     27  C   UNL     1       3.767   3.404  -6.953  1.00  0.00     0.195 A 
ENDBRANCH  11  23
ENDBRANCH   5   8
ENDBRANCH   3   4
ENDBRANCH   2   3
ENDBRANCH   1   2
BRANCH   1  28
ATOM     28  C   UNL     1       5.478  -1.239 -14.070  1.00  0.00     0.116 C 
BRANCH  28  29
ATOM     29  N   UNL     1       6.599  -0.313 -13.967  1.00  0.00    -0.352 N 
ATOM     30  C   UNL     1       7.382   0.187 -14.983  1.00  0.00     0.251 C 
ATOM     31  H   UNL     1       6.825  -0.007 -13.059  1.00  0.00     0.163 HD
ATOM     32  O   UNL     1       8.376   0.857 -14.732  1.00  0.00    -0.269 OA
BRANCH  30  33
ATOM     33  C   UNL     1       7.012  -0.142 -16.374  1.00  0.00     0.039 A 
ATOM     34  C   UNL     1       7.952  -0.756 -17.203  1.00  0.00     0.014 A 
ATOM     35  C   UNL     1       5.698   0.056 -16.805  1.00  0.00     0.014 A 
ATOM     36  C   UNL     1       7.546  -1.255 -18.442  1.00  0.00     0.010 A 
ATOM     37  C   UNL     1       5.280  -0.516 -17.999  1.00  0.00     0.010 A 
ATOM     38  C   UNL     1       6.197  -1.185 -18.827  1.00  0.00    -0.014 A 
BRANCH  38  39
ATOM     39  C   UNL     1       5.707  -1.790 -20.093  1.00  0.00     0.031 A 
ATOM     40  C   UNL     1       5.085  -0.906 -21.138  1.00  0.00     0.074 A 
ATOM     41  C   UNL     1       5.739  -3.127 -20.265  1.00  0.00     0.049 A 
ATOM     42  N   UNL     1       4.443  -1.236 -22.228  1.00  0.00    -0.248 NA
ATOM     43  C   UNL     1       5.170   0.544 -20.903  1.00  0.00     0.031 C 
ATOM     44  C   UNL     1       6.304  -4.092 -19.319  1.00  0.00     0.029 A 
ATOM     45  N   UNL     1       5.269  -3.911 -21.291  1.00  0.00    -0.354 N 
ATOM     46  C   UNL     1       4.042  -0.036 -22.806  1.00  0.00     0.074 A 
ATOM     47  C   UNL     1       4.449   1.021 -21.905  1.00  0.00     0.031 C 
ATOM     48  C   UNL     1       6.162  -5.332 -19.816  1.00  0.00     0.029 A 
ATOM     49  C   UNL     1       5.440  -5.262 -21.082  1.00  0.00     0.049 A 
ATOM     50  H   UNL     1       4.848  -3.542 -22.101  1.00  0.00     0.167 HD
ATOM     51  C   UNL     1       3.420   0.166 -23.992  1.00  0.00     0.034 A 
ATOM     52  C   UNL     1       5.036  -6.321 -21.814  1.00  0.00     0.034 A 
ATOM     53  C   UNL     1       3.023  -0.898 -24.880  1.00  0.00     0.049 A 
ATOM     54  C   UNL     1       4.270  -6.073 -23.093  1.00  0.00     0.074 A 
ATOM     55  C   UNL     1       2.400  -0.805 -26.111  1.00  0.00     0.029 A 
ATOM     56  N   UNL     1       3.208  -2.251 -24.629  1.00  0.00    -0.354 N 
ATOM     57  N   UNL     1       3.916  -4.930 -23.636  1.00  0.00    -0.248 NA
ATOM     58  C   UNL     1       3.854  -7.254 -23.862  1.00  0.00     0.031 C 
ATOM     59  C   UNL     1       2.146  -2.099 -26.573  1.00  0.00     0.029 A 
ATOM     60  C   UNL     1       2.688  -3.001 -25.672  1.00  0.00     0.049 A 
ATOM     61  H   UNL     1       3.644  -2.623 -23.829  1.00  0.00     0.167 HD
ATOM     62  C   UNL     1       3.280  -5.259 -24.831  1.00  0.00     0.074 A 
ATOM     63  C   UNL     1       3.302  -6.702 -24.932  1.00  0.00     0.031 C 
ATOM     64  C   UNL     1       2.733  -4.441 -25.766  1.00  0.00     0.034 A 
BRANCH  51  65
ATOM     65  C   UNL     1       3.121   1.593 -24.384  1.00  0.00     0.023 A 
ATOM     66  C   UNL     1       4.151   2.527 -24.585  1.00  0.00     0.031 A 
ATOM     67  C   UNL     1       1.794   2.033 -24.537  1.00  0.00     0.131 A 
ATOM     68  C   UNL     1       3.840   3.867 -24.853  1.00  0.00     0.055 A 
ATOM     69  C   UNL     1       1.493   3.349 -24.892  1.00  0.00     0.041 A 
ATOM     70  F   UNL     1       0.767   1.193 -24.334  1.00  0.00    -0.206 F 
ATOM     71  C   UNL     1       2.518   4.279 -25.037  1.00  0.00     0.022 A 
BRANCH  68  72
ATOM     72  S   UNL     1       5.178   5.089 -24.807  1.00  0.00     0.124 S 
ATOM     73  O   UNL     1       5.671   4.934 -23.440  1.00  0.00    -0.237 OA
ATOM     74  O   UNL     1       6.069   4.622 -25.863  1.00  0.00    -0.237 OA
ATOM     75  O   UNL     1       4.497   6.354 -25.077  1.00  0.00    -0.744 OA
ENDBRANCH  68  72
ENDBRANCH  51  65
BRANCH  52  76
ATOM     76  C   UNL     1       5.311  -7.717 -21.359  1.00  0.00     0.023 A 
ATOM     77  C   UNL     1       6.073  -8.594 -22.146  1.00  0.00     0.031 A 
ATOM     78  C   UNL     1       4.748  -8.223 -20.173  1.00  0.00     0.131 A 
ATOM     79  C   UNL     1       6.192  -9.944 -21.780  1.00  0.00     0.055 A 
ATOM     80  C   UNL     1       4.929  -9.549 -19.775  1.00  0.00     0.041 A 
ATOM     81  F   UNL     1       4.009  -7.432 -19.379  1.00  0.00    -0.206 F 
ATOM     82  C   UNL     1       5.639 -10.424 -20.592  1.00  0.00     0.022 A 
BRANCH  79  83
ATOM     83  S   UNL     1       6.966 -11.093 -22.951  1.00  0.00     0.124 S 
ATOM     84  O   UNL     1       6.150 -10.890 -24.144  1.00  0.00    -0.237 OA
ATOM     85  O   UNL     1       8.332 -10.586 -23.014  1.00  0.00    -0.237 OA
ATOM     86  O   UNL     1       6.813 -12.393 -22.303  1.00  0.00    -0.744 OA
ENDBRANCH  79  83
ENDBRANCH  52  76
BRANCH  64  87
ATOM     87  C   UNL     1       2.187  -5.079 -27.019  1.00  0.00     0.023 A 
ATOM     88  C   UNL     1       1.042  -5.893 -27.006  1.00  0.00     0.031 A 
ATOM     89  C   UNL     1       2.815  -4.838 -28.255  1.00  0.00     0.131 A 
ATOM     90  C   UNL     1       0.581  -6.466 -28.202  1.00  0.00     0.055 A 
ATOM     91  C   UNL     1       2.317  -5.361 -29.448  1.00  0.00     0.041 A 
ATOM     92  F   UNL     1       3.914  -4.070 -28.324  1.00  0.00    -0.206 F 
ATOM     93  C   UNL     1       1.198  -6.188 -29.425  1.00  0.00     0.022 A 
BRANCH  90  94
ATOM     94  S   UNL     1      -0.804  -7.635 -28.134  1.00  0.00     0.124 S 
ATOM     95  O   UNL     1      -0.273  -8.684 -27.269  1.00  0.00    -0.237 OA
ATOM     96  O   UNL     1      -1.874  -6.821 -27.565  1.00  0.00    -0.237 OA
ATOM     97  O   UNL     1      -0.997  -8.021 -29.530  1.00  0.00    -0.744 OA
ENDBRANCH  90  94
ENDBRANCH  64  87
ENDBRANCH  38  39
ENDBRANCH  30  33
ENDBRANCH  28  29
ENDBRANCH   1  28
TORSDOF 17
