REMARK SMILES C[C@@](O)(CNC(=O)c1ccc(Br)cc1N)CC(=O)NCCCCNC(=O)c1ccc(-c2c3nc(c(-c4cc(S(=O)(=O)[O-])ccc4F)c4ccc([nH]4)c(-c4cc(S(=O)(=O)[O-])ccc4F)c4nc(c(-c5cc(S(=O)(=O)[O-])ccc5F)c5ccc2[nH]5)C=C4)C=C3)cc1
REMARK SMILES IDX 20 1 19 2 17 3 18 4 16 6 2 7 1 8 3 9 4 11 5 12 6 13 7 15
REMARK SMILES IDX 8 16 9 17 14 18 10 19 13 20 11 21 12 22 15 23 21 26 22 27
REMARK SMILES IDX 23 28 24 29 25 30 26 32 27 33 28 34 89 35 29 36 88 37 30 38
REMARK SMILES IDX 31 39 32 40 82 41 33 42 87 43 81 44 83 45 34 46 86 47 80 48
REMARK SMILES IDX 79 49 35 51 67 52 47 53 66 54 48 55 51 56 65 57 84 58 49 59
REMARK SMILES IDX 50 60 64 62 85 63 52 64 36 65 37 66 45 67 38 68 44 69 46 70
REMARK SMILES IDX 43 71 39 72 40 73 41 74 42 75 68 76 69 77 77 78 70 79 76 80
REMARK SMILES IDX 78 81 75 82 71 83 72 84 73 85 74 86 53 87 54 88 62 89 55 90
REMARK SMILES IDX 61 91 63 92 60 93 56 94 57 95 58 96 59 97
REMARK H PARENT 19 5 3 10 5 14 15 24 15 25 24 31 83 50 51 61
REMARK Flexibility Score: inf
ROOT
ATOM      1  C   UNL     1      -1.623   2.618   0.648  1.00  0.00     0.116 C 
ENDROOT
BRANCH   1   2
ATOM      2  N   UNL     1      -0.792   2.689   1.865  1.00  0.00    -0.356 N 
ATOM      3  C   UNL     1       0.450   2.301   2.264  1.00  0.00     0.222 C 
ATOM      4  O   UNL     1       0.837   2.601   3.397  1.00  0.00    -0.275 OA
ATOM      5  H   UNL     1      -1.271   3.145   2.594  1.00  0.00     0.163 HD
BRANCH   3   6
ATOM      6  C   UNL     1       1.386   1.592   1.353  1.00  0.00     0.136 C 
BRANCH   6   7
ATOM      7  C   UNL     1       0.755   0.422   0.643  1.00  0.00     0.088 C 
ATOM      8  C   UNL     1       1.824  -0.642   0.311  1.00  0.00     0.044 C 
BRANCH   7   9
ATOM      9  O   UNL     1       0.392   0.894  -0.691  1.00  0.00    -0.388 OA
ATOM     10  H   UNL     1      -0.020   0.170  -1.189  1.00  0.00     0.211 HD
ENDBRANCH   7   9
BRANCH   7  11
ATOM     11  C   UNL     1      -0.537  -0.215   1.297  1.00  0.00     0.151 C 
BRANCH  11  12
ATOM     12  N   UNL     1      -1.110  -0.054   2.721  1.00  0.00    -0.349 N 
ATOM     13  C   UNL     1      -1.982   0.593   3.631  1.00  0.00     0.253 C 
ATOM     14  H   UNL     1      -0.640  -0.731   3.260  1.00  0.00     0.163 HD
ATOM     15  O   UNL     1      -2.309  -0.169   4.561  1.00  0.00    -0.269 OA
BRANCH  13  16
ATOM     16  C   UNL     1      -2.543   2.026   3.824  1.00  0.00     0.062 A 
ATOM     17  C   UNL     1      -3.434   2.737   2.996  1.00  0.00     0.017 A 
ATOM     18  C   UNL     1      -2.269   2.699   5.034  1.00  0.00     0.045 A 
ATOM     19  C   UNL     1      -3.747   4.102   3.129  1.00  0.00     0.016 A 
ATOM     20  C   UNL     1      -2.528   4.090   5.163  1.00  0.00     0.042 A 
ATOM     21  C   UNL     1      -3.222   4.797   4.189  1.00  0.00     0.020 A 
ATOM     22  Br  UNL     1      -3.471   6.663   4.309  1.00  0.00    -0.051 Br
BRANCH  18  23
ATOM     23  N   UNL     1      -1.636   2.062   6.104  1.00  0.00    -0.398 N 
ATOM     24  H   UNL     1      -1.438   1.099   6.057  1.00  0.00     0.156 HD
ATOM     25  H   UNL     1      -1.388   2.577   6.906  1.00  0.00     0.156 HD
ENDBRANCH  18  23
ENDBRANCH  13  16
ENDBRANCH  11  12
ENDBRANCH   7  11
ENDBRANCH   6   7
ENDBRANCH   3   6
ENDBRANCH   1   2
BRANCH   1  26
ATOM     26  C   UNL     1      -2.907   1.653   0.266  1.00  0.00     0.023 C 
BRANCH  26  27
ATOM     27  C   UNL     1      -3.692   0.336   0.817  1.00  0.00     0.023 C 
BRANCH  27  28
ATOM     28  C   UNL     1      -4.795   0.170   1.926  1.00  0.00     0.116 C 
BRANCH  28  29
ATOM     29  N   UNL     1      -5.975   1.009   1.806  1.00  0.00    -0.352 N 
ATOM     30  C   UNL     1      -7.148   0.986   2.536  1.00  0.00     0.251 C 
ATOM     31  H   UNL     1      -5.932   1.695   1.101  1.00  0.00     0.163 HD
ATOM     32  O   UNL     1      -8.052   1.763   2.205  1.00  0.00    -0.269 OA
BRANCH  30  33
ATOM     33  C   UNL     1      -7.400   0.023   3.647  1.00  0.00     0.039 A 
ATOM     34  C   UNL     1      -6.534  -0.136   4.730  1.00  0.00     0.014 A 
ATOM     35  C   UNL     1      -8.608  -0.692   3.643  1.00  0.00     0.014 A 
ATOM     36  C   UNL     1      -6.814  -1.093   5.725  1.00  0.00     0.010 A 
ATOM     37  C   UNL     1      -8.904  -1.620   4.658  1.00  0.00     0.010 A 
ATOM     38  C   UNL     1      -7.985  -1.874   5.687  1.00  0.00    -0.014 A 
BRANCH  38  39
ATOM     39  C   UNL     1      -8.218  -2.966   6.689  1.00  0.00     0.031 A 
ATOM     40  C   UNL     1      -8.247  -4.415   6.252  1.00  0.00     0.074 A 
ATOM     41  C   UNL     1      -8.376  -2.679   7.998  1.00  0.00     0.049 A 
ATOM     42  N   UNL     1      -8.369  -5.499   6.979  1.00  0.00    -0.248 NA
ATOM     43  C   UNL     1      -8.131  -4.683   4.810  1.00  0.00     0.031 C 
ATOM     44  C   UNL     1      -8.394  -1.330   8.558  1.00  0.00     0.029 A 
ATOM     45  N   UNL     1      -8.536  -3.495   9.097  1.00  0.00    -0.354 N 
ATOM     46  C   UNL     1      -8.353  -6.569   6.087  1.00  0.00     0.074 A 
ATOM     47  C   UNL     1      -8.258  -6.003   4.761  1.00  0.00     0.031 C 
ATOM     48  C   UNL     1      -8.502  -1.409   9.893  1.00  0.00     0.029 A 
ATOM     49  C   UNL     1      -8.614  -2.812  10.292  1.00  0.00     0.049 A 
ATOM     50  H   UNL     1      -8.589  -4.476   9.035  1.00  0.00     0.167 HD
ATOM     51  C   UNL     1      -8.392  -7.899   6.349  1.00  0.00     0.034 A 
ATOM     52  C   UNL     1      -8.754  -3.253  11.563  1.00  0.00     0.034 A 
ATOM     53  C   UNL     1      -8.456  -8.458   7.677  1.00  0.00     0.049 A 
ATOM     54  C   UNL     1      -8.804  -4.740  11.829  1.00  0.00     0.074 A 
ATOM     55  C   UNL     1      -8.439  -9.795   8.039  1.00  0.00     0.029 A 
ATOM     56  N   UNL     1      -8.546  -7.730   8.854  1.00  0.00    -0.354 N 
ATOM     57  N   UNL     1      -8.702  -5.734  10.978  1.00  0.00    -0.248 NA
ATOM     58  C   UNL     1      -8.976  -5.171  13.225  1.00  0.00     0.031 C 
ATOM     59  C   UNL     1      -8.606  -9.877   9.420  1.00  0.00     0.029 A 
ATOM     60  C   UNL     1      -8.621  -8.592   9.937  1.00  0.00     0.049 A 
ATOM     61  H   UNL     1      -8.555  -6.747   8.911  1.00  0.00     0.167 HD
ATOM     62  C   UNL     1      -8.757  -6.901  11.738  1.00  0.00     0.074 A 
ATOM     63  C   UNL     1      -8.882  -6.491  13.119  1.00  0.00     0.031 C 
ATOM     64  C   UNL     1      -8.709  -8.191  11.321  1.00  0.00     0.034 A 
BRANCH  51  65
ATOM     65  C   UNL     1      -8.343  -8.881   5.198  1.00  0.00     0.023 A 
ATOM     66  C   UNL     1      -9.402  -9.792   5.008  1.00  0.00     0.031 A 
ATOM     67  C   UNL     1      -7.190  -9.035   4.409  1.00  0.00     0.131 A 
ATOM     68  C   UNL     1      -9.264 -10.845   4.095  1.00  0.00     0.055 A 
ATOM     69  C   UNL     1      -7.079 -10.055   3.461  1.00  0.00     0.041 A 
ATOM     70  F   UNL     1      -6.147  -8.201   4.553  1.00  0.00    -0.206 F 
ATOM     71  C   UNL     1      -8.112 -10.976   3.314  1.00  0.00     0.022 A 
BRANCH  68  72
ATOM     72  S   UNL     1     -10.531 -12.135   3.949  1.00  0.00     0.124 S 
ATOM     73  O   UNL     1     -10.891 -12.044   2.536  1.00  0.00    -0.237 OA
ATOM     74  O   UNL     1      -9.790 -13.335   4.327  1.00  0.00    -0.237 OA
ATOM     75  O   UNL     1     -11.571 -11.714   4.882  1.00  0.00    -0.744 OA
ENDBRANCH  68  72
ENDBRANCH  51  65
BRANCH  52  76
ATOM     76  C   UNL     1      -8.783  -2.262  12.684  1.00  0.00     0.023 A 
ATOM     77  C   UNL     1      -9.777  -1.269  12.750  1.00  0.00     0.031 A 
ATOM     78  C   UNL     1      -7.763  -2.235  13.652  1.00  0.00     0.131 A 
ATOM     79  C   UNL     1      -9.687  -0.251  13.709  1.00  0.00     0.055 A 
ATOM     80  C   UNL     1      -7.723  -1.265  14.657  1.00  0.00     0.041 A 
ATOM     81  F   UNL     1      -6.785  -3.154  13.632  1.00  0.00    -0.206 F 
ATOM     82  C   UNL     1      -8.677  -0.254  14.675  1.00  0.00     0.022 A 
BRANCH  79  83
ATOM     83  S   UNL     1     -10.793   1.186  13.643  1.00  0.00     0.124 S 
ATOM     84  O   UNL     1     -11.445   1.129  14.949  1.00  0.00    -0.237 OA
ATOM     85  O   UNL     1      -9.843   2.283  13.462  1.00  0.00    -0.237 OA
ATOM     86  O   UNL     1     -11.649   0.911  12.498  1.00  0.00    -0.744 OA
ENDBRANCH  79  83
ENDBRANCH  52  76
BRANCH  64  87
ATOM     87  C   UNL     1      -8.754  -9.303  12.347  1.00  0.00     0.023 A 
ATOM     88  C   UNL     1      -7.687 -10.221  12.426  1.00  0.00     0.031 A 
ATOM     89  C   UNL     1      -9.907  -9.564  13.107  1.00  0.00     0.131 A 
ATOM     90  C   UNL     1      -7.815 -11.382  13.199  1.00  0.00     0.055 A 
ATOM     91  C   UNL     1     -10.006 -10.693  13.925  1.00  0.00     0.041 A 
ATOM     92  F   UNL     1     -10.960  -8.734  13.057  1.00  0.00    -0.206 F 
ATOM     93  C   UNL     1      -8.965 -11.617  13.958  1.00  0.00     0.022 A 
BRANCH  90  94
ATOM     94  S   UNL     1      -6.548 -12.681  13.159  1.00  0.00     0.124 S 
ATOM     95  O   UNL     1      -6.124 -12.733  14.556  1.00  0.00    -0.237 OA
ATOM     96  O   UNL     1      -7.308 -13.837  12.694  1.00  0.00    -0.237 OA
ATOM     97  O   UNL     1      -5.548 -12.169  12.225  1.00  0.00    -0.744 OA
ENDBRANCH  90  94
ENDBRANCH  64  87
ENDBRANCH  38  39
ENDBRANCH  30  33
ENDBRANCH  28  29
ENDBRANCH  27  28
ENDBRANCH  26  27
ENDBRANCH   1  26
TORSDOF 20
