REMARK SMILES CCn1cccc1C(=O)N(C)c1snc(C)c1C(=O)NCCCCNC(=O)c1ccc(-c2c3nc(c(-c4cc(S(=O)(=O)[O-])ccc4F)c4ccc([nH]4)c(-c4cc(S(=O)(=O)[O-])ccc4F)c4nc(c(-c5cc(S(=O)(=O)[O-])ccc5F)c5ccc2[nH]5)C=C4)C=C3)cc1
REMARK SMILES IDX 22 1 21 2 20 3 18 4 19 5 17 7 12 8 13 9 14 10 15 11 16 12
REMARK SMILES IDX 10 13 11 14 8 15 9 16 7 17 3 18 4 19 5 20 6 21 2 22 1 23
REMARK SMILES IDX 23 24 24 25 25 26 26 27 27 29 28 30 29 31 90 32 30 33 89 34
REMARK SMILES IDX 31 35 32 36 33 37 83 38 34 39 88 40 82 41 84 42 35 43 87 44
REMARK SMILES IDX 81 45 80 46 36 48 68 49 48 50 67 51 49 52 52 53 66 54 85 55
REMARK SMILES IDX 50 56 51 57 65 59 86 60 53 61 37 62 38 63 46 64 39 65 45 66
REMARK SMILES IDX 47 67 44 68 40 69 41 70 42 71 43 72 69 73 70 74 78 75 71 76
REMARK SMILES IDX 77 77 79 78 76 79 72 80 73 81 74 82 75 83 54 84 55 85 63 86
REMARK SMILES IDX 56 87 62 88 64 89 61 90 57 91 58 92 59 93 60 94
REMARK H PARENT 20 6 25 28 84 47 52 58
REMARK Flexibility Score: inf
ROOT
ATOM      1  C   UNL     1       4.272   2.298   0.631  1.00  0.00     0.023 C 
ENDROOT
BRANCH   1   2
ATOM      2  C   UNL     1       3.921   1.724  -0.738  1.00  0.00     0.116 C 
BRANCH   2   3
ATOM      3  N   UNL     1       5.023   1.262  -1.535  1.00  0.00    -0.352 N 
ATOM      4  C   UNL     1       5.194   0.193  -2.388  1.00  0.00     0.256 C 
ATOM      5  O   UNL     1       6.269   0.256  -2.995  1.00  0.00    -0.269 OA
ATOM      6  H   UNL     1       5.824   1.827  -1.454  1.00  0.00     0.163 HD
BRANCH   4   7
ATOM      7  C   UNL     1       4.294  -0.966  -2.592  1.00  0.00     0.097 A 
ATOM      8  C   UNL     1       2.954  -1.188  -2.275  1.00  0.00     0.131 A 
ATOM      9  S   UNL     1       2.425  -2.708  -2.851  1.00  0.00    -0.017 S 
ATOM     10  N   UNL     1       3.881  -3.193  -3.416  1.00  0.00    -0.195 NA
ATOM     11  C   UNL     1       4.770  -2.211  -3.248  1.00  0.00     0.066 A 
ATOM     12  C   UNL     1       6.149  -2.560  -3.714  1.00  0.00     0.069 C 
BRANCH   8  13
ATOM     13  N   UNL     1       1.981  -0.503  -1.536  1.00  0.00    -0.300 N 
ATOM     14  C   UNL     1       1.849  -0.887  -0.135  1.00  0.00     0.154 C 
BRANCH  13  15
ATOM     15  C   UNL     1       1.210   0.409  -2.282  1.00  0.00     0.275 C 
ATOM     16  O   UNL     1       1.257   0.329  -3.517  1.00  0.00    -0.267 OA
BRANCH  15  17
ATOM     17  C   UNL     1       0.477   1.557  -1.708  1.00  0.00     0.107 A 
ATOM     18  N   UNL     1      -0.205   1.855  -0.532  1.00  0.00    -0.344 N 
ATOM     19  C   UNL     1      -0.631   3.171  -0.560  1.00  0.00     0.086 A 
ATOM     20  C   UNL     1      -0.427   3.675  -1.812  1.00  0.00     0.020 A 
ATOM     21  C   UNL     1       0.299   2.699  -2.506  1.00  0.00     0.033 A 
BRANCH  18  22
ATOM     22  C   UNL     1      -0.649   1.021   0.569  1.00  0.00     0.119 C 
ATOM     23  C   UNL     1      -1.444  -0.197   0.147  1.00  0.00     0.027 C 
ENDBRANCH  18  22
ENDBRANCH  15  17
ENDBRANCH  13  15
ENDBRANCH   8  13
ENDBRANCH   4   7
ENDBRANCH   2   3
ENDBRANCH   1   2
BRANCH   1  24
ATOM     24  C   UNL     1       4.841   3.717   0.655  1.00  0.00     0.023 C 
BRANCH  24  25
ATOM     25  C   UNL     1       3.936   4.790   0.043  1.00  0.00     0.116 C 
BRANCH  25  26
ATOM     26  N   UNL     1       2.675   4.924   0.753  1.00  0.00    -0.352 N 
ATOM     27  C   UNL     1       1.624   5.784   0.528  1.00  0.00     0.251 C 
ATOM     28  H   UNL     1       2.553   4.306   1.509  1.00  0.00     0.163 HD
ATOM     29  O   UNL     1       0.796   5.936   1.426  1.00  0.00    -0.269 OA
BRANCH  27  30
ATOM     30  C   UNL     1       1.480   6.550  -0.737  1.00  0.00     0.039 A 
ATOM     31  C   UNL     1       0.978   7.855  -0.666  1.00  0.00     0.014 A 
ATOM     32  C   UNL     1       1.743   5.986  -1.990  1.00  0.00     0.014 A 
ATOM     33  C   UNL     1       0.832   8.615  -1.829  1.00  0.00     0.010 A 
ATOM     34  C   UNL     1       1.562   6.726  -3.160  1.00  0.00     0.010 A 
ATOM     35  C   UNL     1       1.162   8.063  -3.075  1.00  0.00    -0.014 A 
BRANCH  35  36
ATOM     36  C   UNL     1       1.395   8.985  -4.220  1.00  0.00     0.031 A 
ATOM     37  C   UNL     1       2.798   9.635  -4.121  1.00  0.00     0.074 A 
ATOM     38  C   UNL     1       0.397   9.174  -5.135  1.00  0.00     0.049 A 
ATOM     39  N   UNL     1       3.201  10.828  -4.442  1.00  0.00    -0.248 NA
ATOM     40  C   UNL     1       3.887   8.877  -3.440  1.00  0.00     0.031 C 
ATOM     41  C   UNL     1      -0.903   8.467  -5.137  1.00  0.00     0.029 A 
ATOM     42  N   UNL     1       0.263   9.989  -6.243  1.00  0.00    -0.354 N 
ATOM     43  C   UNL     1       4.598  10.886  -4.202  1.00  0.00     0.074 A 
ATOM     44  C   UNL     1       4.919   9.719  -3.444  1.00  0.00     0.031 C 
ATOM     45  C   UNL     1      -1.703   8.922  -6.131  1.00  0.00     0.029 A 
ATOM     46  C   UNL     1      -1.012   9.958  -6.878  1.00  0.00     0.049 A 
ATOM     47  H   UNL     1       1.000  10.553  -6.573  1.00  0.00     0.167 HD
ATOM     48  C   UNL     1       5.432  11.812  -4.764  1.00  0.00     0.034 A 
ATOM     49  C   UNL     1      -1.490  10.740  -7.899  1.00  0.00     0.034 A 
ATOM     50  C   UNL     1       4.681  12.700  -5.585  1.00  0.00     0.049 A 
ATOM     51  C   UNL     1      -0.359  11.597  -8.284  1.00  0.00     0.074 A 
ATOM     52  C   UNL     1       3.794  13.709  -5.331  1.00  0.00     0.029 A 
ATOM     53  N   UNL     1       4.646  12.406  -6.927  1.00  0.00    -0.354 N 
ATOM     54  N   UNL     1       0.666  11.219  -8.982  1.00  0.00    -0.248 NA
ATOM     55  C   UNL     1      -0.358  12.993  -7.823  1.00  0.00     0.031 C 
ATOM     56  C   UNL     1       2.931  13.686  -6.447  1.00  0.00     0.029 A 
ATOM     57  C   UNL     1       3.397  12.744  -7.374  1.00  0.00     0.049 A 
ATOM     58  H   UNL     1       5.378  12.025  -7.464  1.00  0.00     0.167 HD
ATOM     59  C   UNL     1       1.556  12.247  -8.794  1.00  0.00     0.074 A 
ATOM     60  C   UNL     1       0.785  13.393  -8.372  1.00  0.00     0.031 C 
ATOM     61  C   UNL     1       2.840  11.970  -8.464  1.00  0.00     0.034 A 
BRANCH  48  62
ATOM     62  C   UNL     1       6.940  11.914  -4.879  1.00  0.00     0.023 A 
ATOM     63  C   UNL     1       7.447  13.130  -5.412  1.00  0.00     0.031 A 
ATOM     64  C   UNL     1       7.857  10.858  -4.790  1.00  0.00     0.131 A 
ATOM     65  C   UNL     1       8.737  13.224  -5.949  1.00  0.00     0.055 A 
ATOM     66  C   UNL     1       9.176  10.977  -5.262  1.00  0.00     0.041 A 
ATOM     67  F   UNL     1       7.508   9.652  -4.326  1.00  0.00    -0.206 F 
ATOM     68  C   UNL     1       9.610  12.148  -5.880  1.00  0.00     0.022 A 
BRANCH  65  69
ATOM     69  S   UNL     1       9.169  14.714  -6.896  1.00  0.00     0.124 S 
ATOM     70  O   UNL     1       8.070  14.805  -7.850  1.00  0.00    -0.237 OA
ATOM     71  O   UNL     1       9.196  15.737  -5.854  1.00  0.00    -0.237 OA
ATOM     72  O   UNL     1      10.469  14.383  -7.474  1.00  0.00    -0.744 OA
ENDBRANCH  65  69
ENDBRANCH  48  62
BRANCH  49  73
ATOM     73  C   UNL     1      -2.793  11.024  -8.642  1.00  0.00     0.023 A 
ATOM     74  C   UNL     1      -4.001  10.318  -8.517  1.00  0.00     0.031 A 
ATOM     75  C   UNL     1      -2.857  12.143  -9.539  1.00  0.00     0.131 A 
ATOM     76  C   UNL     1      -5.174  10.774  -9.190  1.00  0.00     0.055 A 
ATOM     77  C   UNL     1      -4.023  12.632 -10.126  1.00  0.00     0.041 A 
ATOM     78  F   UNL     1      -1.769  12.837  -9.899  1.00  0.00    -0.206 F 
ATOM     79  C   UNL     1      -5.200  11.952  -9.942  1.00  0.00     0.022 A 
BRANCH  76  80
ATOM     80  S   UNL     1      -6.741   9.857  -9.112  1.00  0.00     0.124 S 
ATOM     81  O   UNL     1      -6.688   9.066 -10.338  1.00  0.00    -0.237 OA
ATOM     82  O   UNL     1      -6.630   9.112  -7.863  1.00  0.00    -0.237 OA
ATOM     83  O   UNL     1      -7.744  10.922  -9.105  1.00  0.00    -0.744 OA
ENDBRANCH  76  80
ENDBRANCH  49  73
BRANCH  61  84
ATOM     84  C   UNL     1       3.325  10.610  -8.945  1.00  0.00     0.023 A 
ATOM     85  C   UNL     1       3.412  10.341 -10.323  1.00  0.00     0.031 A 
ATOM     86  C   UNL     1       3.582   9.530  -8.081  1.00  0.00     0.131 A 
ATOM     87  C   UNL     1       3.730   9.048 -10.784  1.00  0.00     0.055 A 
ATOM     88  C   UNL     1       3.921   8.251  -8.535  1.00  0.00     0.041 A 
ATOM     89  F   UNL     1       3.484   9.675  -6.760  1.00  0.00    -0.206 F 
ATOM     90  C   UNL     1       3.994   8.003  -9.897  1.00  0.00     0.022 A 
BRANCH  87  91
ATOM     91  S   UNL     1       3.819   8.744 -12.570  1.00  0.00     0.124 S 
ATOM     92  O   UNL     1       2.407   8.743 -12.960  1.00  0.00    -0.237 OA
ATOM     93  O   UNL     1       4.611   9.858 -13.049  1.00  0.00    -0.237 OA
ATOM     94  O   UNL     1       4.476   7.435 -12.659  1.00  0.00    -0.744 OA
ENDBRANCH  87  91
ENDBRANCH  61  84
ENDBRANCH  35  36
ENDBRANCH  27  30
ENDBRANCH  25  26
ENDBRANCH  24  25
ENDBRANCH   1  24
TORSDOF 18
