REMARK SMILES Cc1c(CC(=O)NCCCCNC(=O)c2ccc(-c3c4nc(c(-c5cc(S(=O)(=O)[O-])ccc5F)c5ccc([nH]5)c(-c5cc(S(=O)(=O)[O-])ccc5F)c5nc(c(-c6cc(S(=O)(=O)[O-])ccc6F)c6ccc3[nH]6)C=C5)C=C4)cc2)c2ccccc2n1C(=O)c1ccc(Cl)cc1
REMARK SMILES IDX 9 1 8 2 7 3 5 4 6 5 4 7 3 8 1 9 2 10 84 11 78 12 83 13 79 14
REMARK SMILES IDX 82 15 80 16 81 17 85 18 86 19 87 20 88 21 93 22 89 23 92 24
REMARK SMILES IDX 90 25 91 26 10 27 11 28 12 29 13 30 14 32 15 33 16 34 77 35
REMARK SMILES IDX 17 36 76 37 18 38 19 39 20 40 70 41 21 42 75 43 69 44 71 45
REMARK SMILES IDX 22 46 74 47 68 48 67 49 23 51 55 52 35 53 54 54 36 55 39 56
REMARK SMILES IDX 53 57 72 58 37 59 38 60 52 62 73 63 40 64 24 65 25 66 33 67
REMARK SMILES IDX 26 68 32 69 34 70 31 71 27 72 28 73 29 74 30 75 56 76 57 77
REMARK SMILES IDX 65 78 58 79 64 80 66 81 63 82 59 83 60 84 61 85 62 86 41 87
REMARK SMILES IDX 42 88 50 89 43 90 49 91 51 92 48 93 44 94 45 95 46 96 47 97
REMARK H PARENT 7 6 12 31 71 50 39 61
REMARK Flexibility Score: inf
ROOT
ATOM      1  C   UNL     1      -2.978   0.683  -0.627  1.00  0.00     0.023 C 
ENDROOT
BRANCH   1   2
ATOM      2  C   UNL     1      -2.369  -0.715  -0.533  1.00  0.00     0.116 C 
BRANCH   2   3
ATOM      3  N   UNL     1      -2.565  -1.479  -1.748  1.00  0.00    -0.356 N 
ATOM      4  C   UNL     1      -1.627  -1.896  -2.649  1.00  0.00     0.224 C 
ATOM      5  O   UNL     1      -1.998  -2.559  -3.621  1.00  0.00    -0.275 OA
ATOM      6  H   UNL     1      -3.495  -1.730  -1.951  1.00  0.00     0.163 HD
BRANCH   4   7
ATOM      7  C   UNL     1      -0.154  -1.604  -2.406  1.00  0.00     0.138 C 
BRANCH   7   8
ATOM      8  C   UNL     1       0.179  -0.139  -2.435  1.00  0.00    -0.010 A 
ATOM      9  C   UNL     1       1.282   0.156  -0.097  1.00  0.00     0.065 C 
ATOM     10  C   UNL     1       0.787   0.611  -1.436  1.00  0.00     0.028 A 
ATOM     11  N   UNL     1       0.825   1.956  -1.838  1.00  0.00    -0.280 N 
ATOM     12  C   UNL     1      -0.063   0.737  -3.530  1.00  0.00     0.004 A 
ATOM     13  C   UNL     1       0.408   2.007  -3.179  1.00  0.00     0.056 A 
ATOM     14  C   UNL     1      -0.635   0.536  -4.807  1.00  0.00     0.010 A 
ATOM     15  C   UNL     1       0.386   3.047  -4.133  1.00  0.00     0.027 A 
ATOM     16  C   UNL     1      -0.723   1.592  -5.713  1.00  0.00     0.001 A 
ATOM     17  C   UNL     1      -0.206   2.832  -5.381  1.00  0.00     0.002 A 
BRANCH  11  18
ATOM     18  C   UNL     1       1.233   3.050  -1.018  1.00  0.00     0.262 C 
ATOM     19  O   UNL     1       1.680   2.815   0.105  1.00  0.00    -0.268 OA
BRANCH  18  20
ATOM     20  C   UNL     1       1.222   4.468  -1.412  1.00  0.00     0.040 A 
ATOM     21  C   UNL     1       0.033   5.134  -1.732  1.00  0.00     0.015 A 
ATOM     22  C   UNL     1       2.455   5.125  -1.491  1.00  0.00     0.015 A 
ATOM     23  C   UNL     1       0.098   6.437  -2.235  1.00  0.00     0.021 A 
ATOM     24  C   UNL     1       2.511   6.428  -1.983  1.00  0.00     0.021 A 
ATOM     25  C   UNL     1       1.335   7.069  -2.376  1.00  0.00     0.041 A 
ATOM     26  Cl  UNL     1       1.424   8.641  -3.067  1.00  0.00    -0.084 Cl
ENDBRANCH  18  20
ENDBRANCH  11  18
ENDBRANCH   7   8
ENDBRANCH   4   7
ENDBRANCH   2   3
ENDBRANCH   1   2
BRANCH   1  27
ATOM     27  C   UNL     1      -4.514   0.702  -0.646  1.00  0.00     0.023 C 
BRANCH  27  28
ATOM     28  C   UNL     1      -5.167  -0.129   0.461  1.00  0.00     0.116 C 
BRANCH  28  29
ATOM     29  N   UNL     1      -4.739   0.251   1.792  1.00  0.00    -0.352 N 
ATOM     30  C   UNL     1      -5.229   1.087   2.756  1.00  0.00     0.251 C 
ATOM     31  H   UNL     1      -3.905  -0.195   2.064  1.00  0.00     0.163 HD
ATOM     32  O   UNL     1      -4.658   1.031   3.849  1.00  0.00    -0.269 OA
BRANCH  30  33
ATOM     33  C   UNL     1      -6.317   2.082   2.556  1.00  0.00     0.039 A 
ATOM     34  C   UNL     1      -7.040   2.264   1.377  1.00  0.00     0.014 A 
ATOM     35  C   UNL     1      -6.550   2.961   3.631  1.00  0.00     0.014 A 
ATOM     36  C   UNL     1      -7.876   3.362   1.230  1.00  0.00     0.010 A 
ATOM     37  C   UNL     1      -7.397   4.053   3.495  1.00  0.00     0.010 A 
ATOM     38  C   UNL     1      -8.005   4.285   2.268  1.00  0.00    -0.014 A 
BRANCH  38  39
ATOM     39  C   UNL     1      -8.820   5.467   2.012  1.00  0.00     0.031 A 
ATOM     40  C   UNL     1     -10.254   5.192   1.710  1.00  0.00     0.074 A 
ATOM     41  C   UNL     1      -8.328   6.719   2.093  1.00  0.00     0.049 A 
ATOM     42  N   UNL     1     -10.906   5.413   0.614  1.00  0.00    -0.248 NA
ATOM     43  C   UNL     1     -11.019   4.448   2.721  1.00  0.00     0.031 C 
ATOM     44  C   UNL     1      -7.046   7.160   2.653  1.00  0.00     0.029 A 
ATOM     45  N   UNL     1      -8.935   7.891   1.766  1.00  0.00    -0.354 N 
ATOM     46  C   UNL     1     -12.218   4.992   0.850  1.00  0.00     0.074 A 
ATOM     47  C   UNL     1     -12.191   4.286   2.106  1.00  0.00     0.031 C 
ATOM     48  C   UNL     1      -7.083   8.498   2.851  1.00  0.00     0.029 A 
ATOM     49  C   UNL     1      -8.313   9.019   2.279  1.00  0.00     0.049 A 
ATOM     50  H   UNL     1      -9.748   7.935   1.213  1.00  0.00     0.167 HD
ATOM     51  C   UNL     1     -13.266   5.394   0.074  1.00  0.00     0.034 A 
ATOM     52  C   UNL     1      -8.809  10.281   2.294  1.00  0.00     0.034 A 
ATOM     53  C   UNL     1     -12.811   5.961  -1.164  1.00  0.00     0.049 A 
ATOM     54  C   UNL     1      -9.905  10.355   1.299  1.00  0.00     0.074 A 
ATOM     55  C   UNL     1     -12.190   5.469  -2.291  1.00  0.00     0.029 A 
ATOM     56  N   UNL     1     -12.690   7.327  -1.227  1.00  0.00    -0.354 N 
ATOM     57  N   UNL     1      -9.728  10.291   0.009  1.00  0.00    -0.248 NA
ATOM     58  C   UNL     1     -11.251  10.056   1.762  1.00  0.00     0.031 C 
ATOM     59  C   UNL     1     -11.333   6.518  -2.725  1.00  0.00     0.029 A 
ATOM     60  C   UNL     1     -11.516   7.610  -1.872  1.00  0.00     0.049 A 
ATOM     61  H   UNL     1     -13.332   7.984  -0.873  1.00  0.00     0.167 HD
ATOM     62  C   UNL     1     -10.788   9.522  -0.450  1.00  0.00     0.074 A 
ATOM     63  C   UNL     1     -11.743   9.492   0.656  1.00  0.00     0.031 C 
ATOM     64  C   UNL     1     -10.675   8.753  -1.573  1.00  0.00     0.034 A 
BRANCH  51  65
ATOM     65  C   UNL     1     -14.690   5.552   0.557  1.00  0.00     0.023 A 
ATOM     66  C   UNL     1     -15.045   5.501   1.917  1.00  0.00     0.031 A 
ATOM     67  C   UNL     1     -15.702   5.993  -0.323  1.00  0.00     0.131 A 
ATOM     68  C   UNL     1     -16.324   5.869   2.359  1.00  0.00     0.055 A 
ATOM     69  C   UNL     1     -16.959   6.421   0.124  1.00  0.00     0.041 A 
ATOM     70  F   UNL     1     -15.482   6.080  -1.645  1.00  0.00    -0.206 F 
ATOM     71  C   UNL     1     -17.274   6.364   1.475  1.00  0.00     0.022 A 
BRANCH  68  72
ATOM     72  S   UNL     1     -16.757   5.723   4.115  1.00  0.00     0.124 S 
ATOM     73  O   UNL     1     -17.055   7.113   4.465  1.00  0.00    -0.237 OA
ATOM     74  O   UNL     1     -17.913   4.828   4.059  1.00  0.00    -0.237 OA
ATOM     75  O   UNL     1     -15.564   5.156   4.718  1.00  0.00    -0.744 OA
ENDBRANCH  68  72
ENDBRANCH  51  65
BRANCH  52  76
ATOM     76  C   UNL     1      -8.730  11.232   3.425  1.00  0.00     0.023 A 
ATOM     77  C   UNL     1      -8.755  10.739   4.744  1.00  0.00     0.031 A 
ATOM     78  C   UNL     1      -8.948  12.607   3.242  1.00  0.00     0.131 A 
ATOM     79  C   UNL     1      -9.037  11.594   5.817  1.00  0.00     0.055 A 
ATOM     80  C   UNL     1      -9.209  13.464   4.318  1.00  0.00     0.041 A 
ATOM     81  F   UNL     1      -8.979  13.132   2.007  1.00  0.00    -0.206 F 
ATOM     82  C   UNL     1      -9.268  12.955   5.613  1.00  0.00     0.022 A 
BRANCH  79  83
ATOM     83  S   UNL     1      -9.208  10.936   7.499  1.00  0.00     0.124 S 
ATOM     84  O   UNL     1      -8.322  11.812   8.262  1.00  0.00    -0.237 OA
ATOM     85  O   UNL     1     -10.635  11.117   7.745  1.00  0.00    -0.237 OA
ATOM     86  O   UNL     1      -8.754   9.554   7.375  1.00  0.00    -0.744 OA
ENDBRANCH  79  83
ENDBRANCH  52  76
BRANCH  64  87
ATOM     87  C   UNL     1      -9.455   8.919  -2.454  1.00  0.00     0.023 A 
ATOM     88  C   UNL     1      -9.679   9.057  -3.835  1.00  0.00     0.031 A 
ATOM     89  C   UNL     1      -8.131   8.697  -2.030  1.00  0.00     0.131 A 
ATOM     90  C   UNL     1      -8.624   8.914  -4.742  1.00  0.00     0.055 A 
ATOM     91  C   UNL     1      -7.065   8.634  -2.936  1.00  0.00     0.041 A 
ATOM     92  F   UNL     1      -7.837   8.444  -0.749  1.00  0.00    -0.206 F 
ATOM     93  C   UNL     1      -7.312   8.721  -4.301  1.00  0.00     0.022 A 
BRANCH  90  94
ATOM     94  S   UNL     1      -8.960   8.793  -6.518  1.00  0.00     0.124 S 
ATOM     95  O   UNL     1      -8.283   9.976  -7.041  1.00  0.00    -0.237 OA
ATOM     96  O   UNL     1      -8.341   7.514  -6.862  1.00  0.00    -0.237 OA
ATOM     97  O   UNL     1     -10.417   8.816  -6.605  1.00  0.00    -0.744 OA
ENDBRANCH  90  94
ENDBRANCH  64  87
ENDBRANCH  38  39
ENDBRANCH  30  33
ENDBRANCH  28  29
ENDBRANCH  27  28
ENDBRANCH   1  27
TORSDOF 17
