REMARK SMILES C[C@H](C(=O)NCCCCNC(=O)c1ccc(-c2c3nc(c(-c4cc(S(=O)(=O)[O-])ccc4F)c4ccc([nH]4)c(-c4cc(S(=O)(=O)[O-])ccc4F)c4nc(c(-c5cc(S(=O)(=O)[O-])ccc5F)c5ccc2[nH]5)C=C4)C=C3)cc1)[C@H](C)[S@@](=O)c1cccs1
REMARK SMILES IDX 7 1 6 2 5 3 3 4 4 5 2 7 1 8 76 9 77 10 78 11 79 12 80 13
REMARK SMILES IDX 81 14 84 15 82 16 83 17 8 18 9 19 10 20 11 21 12 23 13 24
REMARK SMILES IDX 14 25 75 26 15 27 74 28 16 29 17 30 18 31 68 32 19 33 73 34
REMARK SMILES IDX 67 35 69 36 20 37 72 38 66 39 65 40 21 42 53 43 33 44 52 45
REMARK SMILES IDX 34 46 37 47 51 48 70 49 35 50 36 51 50 53 71 54 38 55 22 56
REMARK SMILES IDX 23 57 31 58 24 59 30 60 32 61 29 62 25 63 26 64 27 65 28 66
REMARK SMILES IDX 54 67 55 68 63 69 56 70 62 71 64 72 61 73 57 74 58 75 59 76
REMARK SMILES IDX 60 77 39 78 40 79 48 80 41 81 47 82 49 83 46 84 42 85 43 86
REMARK SMILES IDX 44 87 45 88
REMARK H PARENT 5 6 10 22 69 41 37 52
REMARK Flexibility Score: inf
ROOT
ATOM      1  C   UNL     1      -2.038  -0.675  -3.451  1.00  0.00     0.023 C 
ENDROOT
BRANCH   1   2
ATOM      2  C   UNL     1      -2.053  -1.785  -2.405  1.00  0.00     0.116 C 
BRANCH   2   3
ATOM      3  N   UNL     1      -0.764  -1.916  -1.749  1.00  0.00    -0.356 N 
ATOM      4  C   UNL     1      -0.407  -1.690  -0.453  1.00  0.00     0.224 C 
ATOM      5  O   UNL     1       0.755  -1.945  -0.140  1.00  0.00    -0.275 OA
ATOM      6  H   UNL     1      -0.031  -2.216  -2.333  1.00  0.00     0.163 HD
BRANCH   4   7
ATOM      7  C   UNL     1      -1.470  -1.264   0.559  1.00  0.00     0.091 C 
ATOM      8  C   UNL     1      -2.179  -2.562   0.952  1.00  0.00     0.019 C 
BRANCH   7   9
ATOM      9  C   UNL     1      -0.953  -0.315   1.686  1.00  0.00     0.094 C 
ATOM     10  C   UNL     1       0.549  -0.116   1.872  1.00  0.00     0.023 C 
BRANCH   9  11
ATOM     11  S   UNL     1      -1.821  -0.381   3.308  1.00  0.00     0.067 S 
ATOM     12  O   UNL     1      -3.297  -0.437   3.058  1.00  0.00    -0.253 OA
BRANCH  11  13
ATOM     13  C   UNL     1      -1.299  -1.902   3.983  1.00  0.00     0.091 A 
ATOM     14  C   UNL     1      -0.007  -2.175   4.377  1.00  0.00     0.029 A 
ATOM     15  S   UNL     1      -2.356  -3.189   4.366  1.00  0.00    -0.135 S 
ATOM     16  C   UNL     1       0.143  -3.521   4.828  1.00  0.00     0.013 A 
ATOM     17  C   UNL     1      -1.053  -4.204   4.813  1.00  0.00     0.066 A 
ENDBRANCH  11  13
ENDBRANCH   9  11
ENDBRANCH   7   9
ENDBRANCH   4   7
ENDBRANCH   2   3
ENDBRANCH   1   2
BRANCH   1  18
ATOM     18  C   UNL     1      -1.018  -0.874  -4.576  1.00  0.00     0.023 C 
BRANCH  18  19
ATOM     19  C   UNL     1      -1.096  -2.215  -5.298  1.00  0.00     0.116 C 
BRANCH  19  20
ATOM     20  N   UNL     1      -2.389  -2.440  -5.919  1.00  0.00    -0.352 N 
ATOM     21  C   UNL     1      -2.678  -2.880  -7.187  1.00  0.00     0.251 C 
ATOM     22  H   UNL     1      -3.170  -2.251  -5.350  1.00  0.00     0.163 HD
ATOM     23  O   UNL     1      -3.842  -2.841  -7.584  1.00  0.00    -0.269 OA
BRANCH  21  24
ATOM     24  C   UNL     1      -1.601  -3.369  -8.078  1.00  0.00     0.039 A 
ATOM     25  C   UNL     1      -1.642  -3.027  -9.432  1.00  0.00     0.014 A 
ATOM     26  C   UNL     1      -0.570  -4.183  -7.598  1.00  0.00     0.014 A 
ATOM     27  C   UNL     1      -0.636  -3.473 -10.293  1.00  0.00     0.010 A 
ATOM     28  C   UNL     1       0.478  -4.552  -8.438  1.00  0.00     0.010 A 
ATOM     29  C   UNL     1       0.444  -4.225  -9.802  1.00  0.00    -0.014 A 
BRANCH  29  30
ATOM     30  C   UNL     1       1.505  -4.724 -10.717  1.00  0.00     0.031 A 
ATOM     31  C   UNL     1       1.695  -6.207 -10.911  1.00  0.00     0.074 A 
ATOM     32  C   UNL     1       2.308  -3.851 -11.357  1.00  0.00     0.049 A 
ATOM     33  N   UNL     1       2.563  -6.842 -11.657  1.00  0.00    -0.248 NA
ATOM     34  C   UNL     1       0.812  -7.093 -10.138  1.00  0.00     0.031 C 
ATOM     35  C   UNL     1       2.249  -2.394 -11.222  1.00  0.00     0.029 A 
ATOM     36  N   UNL     1       3.327  -4.058 -12.254  1.00  0.00    -0.354 N 
ATOM     37  C   UNL     1       2.339  -8.197 -11.432  1.00  0.00     0.074 A 
ATOM     38  C   UNL     1       1.305  -8.287 -10.425  1.00  0.00     0.031 C 
ATOM     39  C   UNL     1       3.159  -1.839 -12.039  1.00  0.00     0.029 A 
ATOM     40  C   UNL     1       3.897  -2.896 -12.723  1.00  0.00     0.049 A 
ATOM     41  H   UNL     1       3.622  -4.954 -12.535  1.00  0.00     0.167 HD
ATOM     42  C   UNL     1       2.921  -9.268 -12.029  1.00  0.00     0.034 A 
ATOM     43  C   UNL     1       4.898  -2.706 -13.606  1.00  0.00     0.034 A 
ATOM     44  C   UNL     1       3.941  -9.159 -13.044  1.00  0.00     0.049 A 
ATOM     45  C   UNL     1       5.540  -3.912 -14.248  1.00  0.00     0.074 A 
ATOM     46  C   UNL     1       4.563 -10.171 -13.754  1.00  0.00     0.029 A 
ATOM     47  N   UNL     1       4.496  -7.965 -13.491  1.00  0.00    -0.354 N 
ATOM     48  N   UNL     1       5.278  -5.186 -14.066  1.00  0.00    -0.248 NA
ATOM     49  C   UNL     1       6.599  -3.650 -15.230  1.00  0.00     0.031 C 
ATOM     50  C   UNL     1       5.545  -9.598 -14.568  1.00  0.00     0.029 A 
ATOM     51  C   UNL     1       5.473  -8.220 -14.442  1.00  0.00     0.049 A 
ATOM     52  H   UNL     1       4.234  -7.070 -13.177  1.00  0.00     0.167 HD
ATOM     53  C   UNL     1       6.108  -5.874 -14.948  1.00  0.00     0.074 A 
ATOM     54  C   UNL     1       6.867  -4.871 -15.666  1.00  0.00     0.031 C 
ATOM     55  C   UNL     1       6.227  -7.212 -15.152  1.00  0.00     0.034 A 
BRANCH  42  56
ATOM     56  C   UNL     1       2.485 -10.643 -11.574  1.00  0.00     0.023 A 
ATOM     57  C   UNL     1       1.155 -11.082 -11.704  1.00  0.00     0.031 A 
ATOM     58  C   UNL     1       3.406 -11.517 -10.969  1.00  0.00     0.131 A 
ATOM     59  C   UNL     1       0.767 -12.317 -11.161  1.00  0.00     0.055 A 
ATOM     60  C   UNL     1       3.033 -12.783 -10.514  1.00  0.00     0.041 A 
ATOM     61  F   UNL     1       4.685 -11.148 -10.794  1.00  0.00    -0.206 F 
ATOM     62  C   UNL     1       1.703 -13.183 -10.593  1.00  0.00     0.022 A 
BRANCH  59  63
ATOM     63  S   UNL     1      -1.003 -12.701 -11.060  1.00  0.00     0.124 S 
ATOM     64  O   UNL     1      -1.503 -11.580 -10.267  1.00  0.00    -0.237 OA
ATOM     65  O   UNL     1      -1.402 -12.720 -12.463  1.00  0.00    -0.237 OA
ATOM     66  O   UNL     1      -1.035 -13.996 -10.383  1.00  0.00    -0.744 OA
ENDBRANCH  59  63
ENDBRANCH  42  56
BRANCH  43  67
ATOM     67  C   UNL     1       5.355  -1.328 -13.953  1.00  0.00     0.023 A 
ATOM     68  C   UNL     1       5.236  -0.834 -15.262  1.00  0.00     0.031 A 
ATOM     69  C   UNL     1       5.968  -0.504 -12.992  1.00  0.00     0.131 A 
ATOM     70  C   UNL     1       5.774   0.421 -15.590  1.00  0.00     0.055 A 
ATOM     71  C   UNL     1       6.446   0.769 -13.309  1.00  0.00     0.041 A 
ATOM     72  F   UNL     1       6.104  -0.923 -11.724  1.00  0.00    -0.206 F 
ATOM     73  C   UNL     1       6.365   1.232 -14.619  1.00  0.00     0.022 A 
BRANCH  70  74
ATOM     74  S   UNL     1       5.779   0.937 -17.329  1.00  0.00     0.124 S 
ATOM     75  O   UNL     1       6.526  -0.146 -17.957  1.00  0.00    -0.237 OA
ATOM     76  O   UNL     1       4.352   0.993 -17.632  1.00  0.00    -0.237 OA
ATOM     77  O   UNL     1       6.458   2.230 -17.297  1.00  0.00    -0.744 OA
ENDBRANCH  70  74
ENDBRANCH  43  67
BRANCH  55  78
ATOM     78  C   UNL     1       7.166  -7.660 -16.249  1.00  0.00     0.023 A 
ATOM     79  C   UNL     1       8.550  -7.420 -16.194  1.00  0.00     0.031 A 
ATOM     80  C   UNL     1       6.656  -8.314 -17.386  1.00  0.00     0.131 A 
ATOM     81  C   UNL     1       9.363  -7.757 -17.287  1.00  0.00     0.055 A 
ATOM     82  C   UNL     1       7.482  -8.718 -18.436  1.00  0.00     0.041 A 
ATOM     83  F   UNL     1       5.343  -8.569 -17.498  1.00  0.00    -0.206 F 
ATOM     84  C   UNL     1       8.841  -8.422 -18.399  1.00  0.00     0.022 A 
BRANCH  81  85
ATOM     85  S   UNL     1      11.088  -7.197 -17.294  1.00  0.00     0.124 S 
ATOM     86  O   UNL     1      10.940  -5.758 -17.101  1.00  0.00    -0.237 OA
ATOM     87  O   UNL     1      11.659  -7.934 -16.172  1.00  0.00    -0.237 OA
ATOM     88  O   UNL     1      11.574  -7.598 -18.613  1.00  0.00    -0.744 OA
ENDBRANCH  81  85
ENDBRANCH  55  78
ENDBRANCH  29  30
ENDBRANCH  21  24
ENDBRANCH  19  20
ENDBRANCH  18  19
ENDBRANCH   1  18
TORSDOF 17
