REMARK SMILES COc1cccc(-c2c([C@H]3c4ccccc4C(=O)N3CC(=O)NCCCCNC(=O)c3ccc(-c4c5nc(c(-c6cc(S(=O)(=O)[O-])ccc6F)c6ccc([nH]6)c(-c6cc(S(=O)(=O)[O-])ccc6F)c6nc(c(-c7cc(S(=O)(=O)[O-])ccc7F)c7ccc4[nH]7)C=C6)C=C5)cc3)c3ccccc3n2C)c1
REMARK SMILES IDX 25 1 24 2 23 3 21 4 22 5 20 7 19 8 10 9 11 10 12 11 16 12
REMARK SMILES IDX 17 13 13 14 15 15 18 16 14 17 9 18 8 19 100 20 94 21 99 22
REMARK SMILES IDX 101 23 95 24 98 25 96 26 97 27 7 28 3 29 4 30 102 31 5 32
REMARK SMILES IDX 6 33 2 34 1 35 26 36 27 37 28 38 29 39 30 41 31 42 32 43
REMARK SMILES IDX 93 44 33 45 92 46 34 47 35 48 36 49 86 50 37 51 91 52 85 53
REMARK SMILES IDX 87 54 38 55 90 56 84 57 83 58 39 60 71 61 51 62 70 63 52 64
REMARK SMILES IDX 55 65 69 66 88 67 53 68 54 69 68 71 89 72 56 73 40 74 41 75
REMARK SMILES IDX 49 76 42 77 48 78 50 79 47 80 43 81 44 82 45 83 46 84 72 85
REMARK SMILES IDX 73 86 81 87 74 88 80 89 82 90 79 91 75 92 76 93 77 94 78 95
REMARK SMILES IDX 57 96 58 97 66 98 59 99 65 100 67 101 64 102 60 103 61 104
REMARK SMILES IDX 62 105 63 106
REMARK H PARENT 23 6 28 40 87 59 55 70
REMARK Flexibility Score: inf
ROOT
ATOM      1  C   UNL     1       5.265  -2.939  -0.717  1.00  0.00     0.023 C 
ENDROOT
BRANCH   1   2
ATOM      2  C   UNL     1       6.424  -3.213   0.228  1.00  0.00     0.116 C 
BRANCH   2   3
ATOM      3  N   UNL     1       7.294  -2.058   0.251  1.00  0.00    -0.355 N 
ATOM      4  C   UNL     1       6.993  -0.867   0.854  1.00  0.00     0.239 C 
ATOM      5  O   UNL     1       7.603   0.155   0.538  1.00  0.00    -0.273 OA
ATOM      6  H   UNL     1       8.165  -2.134  -0.201  1.00  0.00     0.163 HD
BRANCH   4   7
ATOM      7  C   UNL     1       5.912  -0.852   1.932  1.00  0.00     0.220 C 
BRANCH   7   8
ATOM      8  N   UNL     1       4.522  -0.500   1.578  1.00  0.00    -0.318 N 
ATOM      9  C   UNL     1       4.012   0.657   2.292  1.00  0.00     0.150 C 
ATOM     10  C   UNL     1       3.471  -0.043   3.528  1.00  0.00    -0.008 A 
ATOM     11  C   UNL     1       3.734   0.189   4.869  1.00  0.00     0.007 A 
ATOM     12  C   UNL     1       3.077  -1.326   3.156  1.00  0.00     0.045 A 
ATOM     13  C   UNL     1       3.558  -1.510   1.796  1.00  0.00     0.255 C 
ATOM     14  C   UNL     1       3.576  -0.875   5.780  1.00  0.00     0.000 A 
ATOM     15  C   UNL     1       2.871  -2.385   4.026  1.00  0.00     0.014 A 
ATOM     16  O   UNL     1       3.223  -2.465   1.128  1.00  0.00    -0.269 OA
ATOM     17  C   UNL     1       3.138  -2.147   5.365  1.00  0.00     0.001 A 
BRANCH   9  18
ATOM     18  C   UNL     1       2.861   1.339   1.553  1.00  0.00     0.013 A 
ATOM     19  C   UNL     1       2.148   2.445   2.032  1.00  0.00     0.055 A 
ATOM     20  N   UNL     1       1.073   2.641   1.188  1.00  0.00    -0.343 N 
ATOM     21  C   UNL     1       2.392   1.140   0.199  1.00  0.00     0.006 A 
ATOM     22  C   UNL     1       1.271   1.952   0.007  1.00  0.00     0.049 A 
ATOM     23  C   UNL     1      -0.082   3.465   1.468  1.00  0.00     0.150 C 
ATOM     24  C   UNL     1       2.820   0.354  -0.896  1.00  0.00     0.011 A 
ATOM     25  C   UNL     1       0.562   1.971  -1.213  1.00  0.00     0.027 A 
ATOM     26  C   UNL     1       2.133   0.372  -2.114  1.00  0.00     0.001 A 
ATOM     27  C   UNL     1       1.012   1.171  -2.267  1.00  0.00     0.002 A 
BRANCH  19  28
ATOM     28  C   UNL     1       2.521   3.252   3.199  1.00  0.00     0.002 A 
ATOM     29  C   UNL     1       4.402   4.146   4.458  1.00  0.00     0.119 A 
ATOM     30  C   UNL     1       3.569   4.292   5.565  1.00  0.00     0.046 A 
ATOM     31  C   UNL     1       3.851   3.713   3.259  1.00  0.00     0.056 A 
ATOM     32  C   UNL     1       2.216   3.946   5.486  1.00  0.00     0.005 A 
ATOM     33  C   UNL     1       1.697   3.397   4.312  1.00  0.00     0.010 A 
BRANCH  29  34
ATOM     34  O   UNL     1       5.730   4.401   4.668  1.00  0.00    -0.497 OA
ATOM     35  C   UNL     1       6.646   3.824   3.736  1.00  0.00     0.278 C 
ENDBRANCH  29  34
ENDBRANCH  19  28
ENDBRANCH   9  18
ENDBRANCH   7   8
ENDBRANCH   4   7
ENDBRANCH   2   3
ENDBRANCH   1   2
BRANCH   1  36
ATOM     36  C   UNL     1       5.371  -3.511  -2.108  1.00  0.00     0.023 C 
BRANCH  36  37
ATOM     37  C   UNL     1       5.349  -5.026  -2.095  1.00  0.00     0.116 C 
BRANCH  37  38
ATOM     38  N   UNL     1       4.257  -5.641  -1.331  1.00  0.00    -0.352 N 
ATOM     39  C   UNL     1       3.861  -6.960  -1.397  1.00  0.00     0.251 C 
ATOM     40  H   UNL     1       3.761  -5.057  -0.713  1.00  0.00     0.163 HD
ATOM     41  O   UNL     1       2.944  -7.407  -0.723  1.00  0.00    -0.269 OA
BRANCH  39  42
ATOM     42  C   UNL     1       4.560  -7.780  -2.397  1.00  0.00     0.039 A 
ATOM     43  C   UNL     1       3.868  -8.112  -3.561  1.00  0.00     0.014 A 
ATOM     44  C   UNL     1       5.950  -7.873  -2.315  1.00  0.00     0.014 A 
ATOM     45  C   UNL     1       4.593  -8.454  -4.697  1.00  0.00     0.010 A 
ATOM     46  C   UNL     1       6.665  -8.081  -3.481  1.00  0.00     0.010 A 
ATOM     47  C   UNL     1       5.995  -8.378  -4.681  1.00  0.00    -0.014 A 
BRANCH  47  48
ATOM     48  C   UNL     1       6.798  -8.647  -5.897  1.00  0.00     0.031 A 
ATOM     49  C   UNL     1       7.791  -9.773  -5.867  1.00  0.00     0.074 A 
ATOM     50  C   UNL     1       6.689  -7.849  -6.978  1.00  0.00     0.049 A 
ATOM     51  N   UNL     1       8.679 -10.122  -6.759  1.00  0.00    -0.248 NA
ATOM     52  C   UNL     1       7.828 -10.575  -4.634  1.00  0.00     0.031 C 
ATOM     53  C   UNL     1       5.796  -6.694  -7.101  1.00  0.00     0.029 A 
ATOM     54  N   UNL     1       7.339  -7.893  -8.185  1.00  0.00    -0.354 N 
ATOM     55  C   UNL     1       9.393 -11.165  -6.180  1.00  0.00     0.074 A 
ATOM     56  C   UNL     1       8.908 -11.310  -4.827  1.00  0.00     0.031 C 
ATOM     57  C   UNL     1       5.917  -6.173  -8.334  1.00  0.00     0.029 A 
ATOM     58  C   UNL     1       6.927  -6.924  -9.071  1.00  0.00     0.049 A 
ATOM     59  H   UNL     1       8.035  -8.555  -8.398  1.00  0.00     0.167 HD
ATOM     60  C   UNL     1      10.334 -11.963  -6.742  1.00  0.00     0.034 A 
ATOM     61  C   UNL     1       7.324  -6.680 -10.335  1.00  0.00     0.034 A 
ATOM     62  C   UNL     1      10.776 -11.818  -8.104  1.00  0.00     0.049 A 
ATOM     63  C   UNL     1       8.390  -7.559 -10.938  1.00  0.00     0.074 A 
ATOM     64  C   UNL     1      11.678 -12.592  -8.809  1.00  0.00     0.029 A 
ATOM     65  N   UNL     1      10.343 -10.820  -8.971  1.00  0.00    -0.354 N 
ATOM     66  N   UNL     1       9.028  -8.573 -10.398  1.00  0.00    -0.248 NA
ATOM     67  C   UNL     1       8.788  -7.261 -12.319  1.00  0.00     0.031 C 
ATOM     68  C   UNL     1      11.832 -12.031 -10.082  1.00  0.00     0.029 A 
ATOM     69  C   UNL     1      10.978 -10.945 -10.195  1.00  0.00     0.049 A 
ATOM     70  H   UNL     1       9.680 -10.127  -8.747  1.00  0.00     0.167 HD
ATOM     71  C   UNL     1       9.881  -9.054 -11.387  1.00  0.00     0.074 A 
ATOM     72  C   UNL     1       9.670  -8.222 -12.555  1.00  0.00     0.031 C 
ATOM     73  C   UNL     1      10.756 -10.091 -11.339  1.00  0.00     0.034 A 
BRANCH  60  74
ATOM     74  C   UNL     1      10.931 -13.033  -5.859  1.00  0.00     0.023 A 
ATOM     75  C   UNL     1      10.128 -14.024  -5.262  1.00  0.00     0.031 A 
ATOM     76  C   UNL     1      12.294 -13.005  -5.522  1.00  0.00     0.131 A 
ATOM     77  C   UNL     1      10.664 -14.857  -4.270  1.00  0.00     0.055 A 
ATOM     78  C   UNL     1      12.845 -13.910  -4.611  1.00  0.00     0.041 A 
ATOM     79  F   UNL     1      13.109 -12.072  -6.041  1.00  0.00    -0.206 F 
ATOM     80  C   UNL     1      12.024 -14.826  -3.959  1.00  0.00     0.022 A 
BRANCH  77  81
ATOM     81  S   UNL     1       9.518 -15.827  -3.250  1.00  0.00     0.124 S 
ATOM     82  O   UNL     1       8.668 -14.779  -2.687  1.00  0.00    -0.237 OA
ATOM     83  O   UNL     1       8.887 -16.703  -4.230  1.00  0.00    -0.237 OA
ATOM     84  O   UNL     1      10.394 -16.492  -2.288  1.00  0.00    -0.744 OA
ENDBRANCH  77  81
ENDBRANCH  60  74
BRANCH  61  85
ATOM     85  C   UNL     1       6.705  -5.578 -11.126  1.00  0.00     0.023 A 
ATOM     86  C   UNL     1       5.909  -5.862 -12.248  1.00  0.00     0.031 A 
ATOM     87  C   UNL     1       6.919  -4.230 -10.793  1.00  0.00     0.131 A 
ATOM     88  C   UNL     1       5.384  -4.814 -13.019  1.00  0.00     0.055 A 
ATOM     89  C   UNL     1       6.361  -3.189 -11.540  1.00  0.00     0.041 A 
ATOM     90  F   UNL     1       7.666  -3.904  -9.727  1.00  0.00    -0.206 F 
ATOM     91  C   UNL     1       5.596  -3.479 -12.666  1.00  0.00     0.022 A 
BRANCH  88  92
ATOM     92  S   UNL     1       4.465  -5.220 -14.529  1.00  0.00     0.124 S 
ATOM     93  O   UNL     1       5.470  -5.936 -15.306  1.00  0.00    -0.237 OA
ATOM     94  O   UNL     1       3.364  -6.023 -14.007  1.00  0.00    -0.237 OA
ATOM     95  O   UNL     1       4.082  -3.912 -15.057  1.00  0.00    -0.744 OA
ENDBRANCH  88  92
ENDBRANCH  61  85
BRANCH  73  96
ATOM     96  C   UNL     1      11.512 -10.400 -12.605  1.00  0.00     0.023 A 
ATOM     97  C   UNL     1      12.502  -9.536 -13.102  1.00  0.00     0.031 A 
ATOM     98  C   UNL     1      11.234 -11.578 -13.321  1.00  0.00     0.131 A 
ATOM     99  C   UNL     1      13.148  -9.840 -14.309  1.00  0.00     0.055 A 
ATOM    100  C   UNL     1      11.919 -11.902 -14.492  1.00  0.00     0.041 A 
ATOM    101  F   UNL     1      10.297 -12.436 -12.888  1.00  0.00    -0.206 F 
ATOM    102  C   UNL     1      12.874 -11.025 -14.998  1.00  0.00     0.022 A 
BRANCH  99 103
ATOM    103  S   UNL     1      14.301  -8.627 -15.008  1.00  0.00     0.124 S 
ATOM    104  O   UNL     1      13.439  -7.466 -15.203  1.00  0.00    -0.237 OA
ATOM    105  O   UNL     1      15.305  -8.506 -13.955  1.00  0.00    -0.237 OA
ATOM    106  O   UNL     1      14.768  -9.267 -16.237  1.00  0.00    -0.744 OA
ENDBRANCH  99 103
ENDBRANCH  73  96
ENDBRANCH  47  48
ENDBRANCH  39  42
ENDBRANCH  37  38
ENDBRANCH  36  37
ENDBRANCH   1  36
TORSDOF 18
