REMARK SMILES CC(C)c1ccc(O[C@H](C)C(=O)Nc2ccccc2C(=O)NCCCCNC(=O)c2ccc(-c3c4nc(c(-c5cc(S(=O)(=O)[O-])ccc5F)c5ccc([nH]5)c(-c5cc(S(=O)(=O)[O-])ccc5F)c5nc(c(-c6cc(S(=O)(=O)[O-])ccc6F)c6ccc3[nH]6)C=C5)C=C4)cc2)cc1
REMARK SMILES IDX 23 1 22 2 20 3 21 4 19 6 14 7 15 8 16 9 18 10 17 11 13 12
REMARK SMILES IDX 11 13 12 14 9 16 10 17 8 18 7 19 4 20 5 21 94 22 6 23 93 24
REMARK SMILES IDX 2 25 1 26 3 27 24 28 25 29 26 30 27 31 28 32 29 34 30 35
REMARK SMILES IDX 31 36 92 37 32 38 91 39 33 40 34 41 35 42 85 43 36 44 90 45
REMARK SMILES IDX 84 46 86 47 37 48 89 49 83 50 82 51 38 53 70 54 50 55 69 56
REMARK SMILES IDX 51 57 54 58 68 59 87 60 52 61 53 62 67 64 88 65 55 66 39 67
REMARK SMILES IDX 40 68 48 69 41 70 47 71 49 72 46 73 42 74 43 75 44 76 45 77
REMARK SMILES IDX 71 78 72 79 80 80 73 81 79 82 81 83 78 84 74 85 75 86 76 87
REMARK SMILES IDX 77 88 56 89 57 90 65 91 58 92 64 93 66 94 63 95 59 96 60 97
REMARK SMILES IDX 61 98 62 99
REMARK H PARENT 22 5 13 15 27 33 86 52 54 63
REMARK Flexibility Score: inf
ROOT
ATOM      1  C   UNL     1      -4.655  -1.632   4.661  1.00  0.00     0.116 C 
ENDROOT
BRANCH   1   2
ATOM      2  N   UNL     1      -4.377  -0.381   3.999  1.00  0.00    -0.352 N 
ATOM      3  C   UNL     1      -3.716  -0.120   2.821  1.00  0.00     0.253 C 
ATOM      4  O   UNL     1      -3.670   1.062   2.465  1.00  0.00    -0.269 OA
ATOM      5  H   UNL     1      -4.716   0.417   4.466  1.00  0.00     0.163 HD
BRANCH   3   6
ATOM      6  C   UNL     1      -2.998  -1.141   1.985  1.00  0.00     0.063 A 
ATOM      7  C   UNL     1      -3.244  -2.520   1.847  1.00  0.00     0.054 A 
ATOM      8  C   UNL     1      -2.260  -3.333   1.247  1.00  0.00     0.027 A 
ATOM      9  C   UNL     1      -1.123  -2.788   0.650  1.00  0.00     0.002 A 
ATOM     10  C   UNL     1      -1.858  -0.608   1.331  1.00  0.00     0.016 A 
ATOM     11  C   UNL     1      -0.941  -1.416   0.657  1.00  0.00     0.001 A 
BRANCH   7  12
ATOM     12  N   UNL     1      -4.388  -3.232   2.254  1.00  0.00    -0.322 N 
ATOM     13  C   UNL     1      -5.715  -3.097   1.914  1.00  0.00     0.265 C 
ATOM     14  O   UNL     1      -6.522  -3.795   2.541  1.00  0.00    -0.270 OA
ATOM     15  H   UNL     1      -4.207  -3.956   2.897  1.00  0.00     0.170 HD
BRANCH  13  16
ATOM     16  C   UNL     1      -6.193  -2.188   0.775  1.00  0.00     0.259 C 
ATOM     17  C   UNL     1      -6.598  -0.809   1.264  1.00  0.00     0.064 C 
BRANCH  16  18
ATOM     18  O   UNL     1      -5.187  -2.361  -0.216  1.00  0.00    -0.481 OA
BRANCH  18  19
ATOM     19  C   UNL     1      -5.067  -1.546  -1.286  1.00  0.00     0.120 A 
ATOM     20  C   UNL     1      -4.278  -0.102  -3.555  1.00  0.00    -0.045 A 
ATOM     21  C   UNL     1      -4.431   0.535  -2.317  1.00  0.00     0.008 A 
ATOM     22  C   UNL     1      -4.562  -1.470  -3.648  1.00  0.00     0.008 A 
ATOM     23  C   UNL     1      -4.799  -0.189  -1.185  1.00  0.00     0.047 A 
ATOM     24  C   UNL     1      -4.950  -2.187  -2.517  1.00  0.00     0.047 A 
BRANCH  20  25
ATOM     25  C   UNL     1      -3.821   0.655  -4.785  1.00  0.00     0.013 C 
ATOM     26  C   UNL     1      -5.014   1.364  -5.423  1.00  0.00     0.012 C 
ATOM     27  C   UNL     1      -2.683   1.640  -4.494  1.00  0.00     0.012 C 
ENDBRANCH  20  25
ENDBRANCH  18  19
ENDBRANCH  16  18
ENDBRANCH  13  16
ENDBRANCH   7  12
ENDBRANCH   3   6
ENDBRANCH   1   2
BRANCH   1  28
ATOM     28  C   UNL     1      -5.230  -1.528   6.066  1.00  0.00     0.023 C 
BRANCH  28  29
ATOM     29  C   UNL     1      -6.661  -0.982   6.152  1.00  0.00     0.023 C 
BRANCH  29  30
ATOM     30  C   UNL     1      -7.729  -1.671   5.296  1.00  0.00     0.116 C 
BRANCH  30  31
ATOM     31  N   UNL     1      -7.900  -3.088   5.576  1.00  0.00    -0.352 N 
ATOM     32  C   UNL     1      -8.944  -3.761   6.170  1.00  0.00     0.251 C 
ATOM     33  H   UNL     1      -7.148  -3.658   5.294  1.00  0.00     0.163 HD
ATOM     34  O   UNL     1      -8.830  -4.957   6.434  1.00  0.00    -0.269 OA
BRANCH  32  35
ATOM     35  C   UNL     1     -10.191  -3.046   6.524  1.00  0.00     0.039 A 
ATOM     36  C   UNL     1     -10.731  -3.216   7.801  1.00  0.00     0.014 A 
ATOM     37  C   UNL     1     -10.831  -2.212   5.604  1.00  0.00     0.014 A 
ATOM     38  C   UNL     1     -11.849  -2.469   8.187  1.00  0.00     0.010 A 
ATOM     39  C   UNL     1     -11.897  -1.411   6.015  1.00  0.00     0.010 A 
ATOM     40  C   UNL     1     -12.409  -1.517   7.318  1.00  0.00    -0.014 A 
BRANCH  40  41
ATOM     41  C   UNL     1     -13.495  -0.602   7.773  1.00  0.00     0.031 A 
ATOM     42  C   UNL     1     -14.846  -0.622   7.108  1.00  0.00     0.074 A 
ATOM     43  C   UNL     1     -13.239   0.295   8.748  1.00  0.00     0.049 A 
ATOM     44  N   UNL     1     -15.887   0.140   7.330  1.00  0.00    -0.248 NA
ATOM     45  C   UNL     1     -15.043  -1.608   6.035  1.00  0.00     0.031 C 
ATOM     46  C   UNL     1     -11.954   0.450   9.437  1.00  0.00     0.029 A 
ATOM     47  N   UNL     1     -14.036   1.253   9.327  1.00  0.00    -0.354 N 
ATOM     48  C   UNL     1     -16.858  -0.265   6.420  1.00  0.00     0.074 A 
ATOM     49  C   UNL     1     -16.260  -1.303   5.607  1.00  0.00     0.031 C 
ATOM     50  C   UNL     1     -12.060   1.421  10.358  1.00  0.00     0.029 A 
ATOM     51  C   UNL     1     -13.399   1.997  10.296  1.00  0.00     0.049 A 
ATOM     52  H   UNL     1     -14.977   1.395   9.072  1.00  0.00     0.167 HD
ATOM     53  C   UNL     1     -18.135   0.175   6.287  1.00  0.00     0.034 A 
ATOM     54  C   UNL     1     -13.834   3.035  11.039  1.00  0.00     0.034 A 
ATOM     55  C   UNL     1     -18.723   1.201   7.115  1.00  0.00     0.049 A 
ATOM     56  C   UNL     1     -15.254   3.514  10.859  1.00  0.00     0.074 A 
ATOM     57  C   UNL     1     -20.027   1.667   7.109  1.00  0.00     0.029 A 
ATOM     58  N   UNL     1     -18.049   1.928   8.087  1.00  0.00    -0.354 N 
ATOM     59  N   UNL     1     -16.179   3.070  10.039  1.00  0.00    -0.248 NA
ATOM     60  C   UNL     1     -15.692   4.626  11.713  1.00  0.00     0.031 C 
ATOM     61  C   UNL     1     -20.120   2.726   8.018  1.00  0.00     0.029 A 
ATOM     62  C   UNL     1     -18.900   2.864   8.658  1.00  0.00     0.049 A 
ATOM     63  H   UNL     1     -17.105   1.798   8.336  1.00  0.00     0.167 HD
ATOM     64  C   UNL     1     -17.316   3.829  10.304  1.00  0.00     0.074 A 
ATOM     65  C   UNL     1     -16.967   4.741  11.373  1.00  0.00     0.031 C 
ATOM     66  C   UNL     1     -18.539   3.778   9.717  1.00  0.00     0.034 A 
BRANCH  53  67
ATOM     67  C   UNL     1     -18.977  -0.433   5.190  1.00  0.00     0.023 A 
ATOM     68  C   UNL     1     -19.324  -1.796   5.190  1.00  0.00     0.031 A 
ATOM     69  C   UNL     1     -19.450   0.365   4.133  1.00  0.00     0.131 A 
ATOM     70  C   UNL     1     -20.067  -2.330   4.125  1.00  0.00     0.055 A 
ATOM     71  C   UNL     1     -20.254  -0.156   3.118  1.00  0.00     0.041 A 
ATOM     72  F   UNL     1     -19.136   1.669   4.068  1.00  0.00    -0.206 F 
ATOM     73  C   UNL     1     -20.557  -1.514   3.103  1.00  0.00     0.022 A 
BRANCH  70  74
ATOM     74  S   UNL     1     -20.282  -4.128   4.033  1.00  0.00     0.124 S 
ATOM     75  O   UNL     1     -18.896  -4.588   3.969  1.00  0.00    -0.237 OA
ATOM     76  O   UNL     1     -20.997  -4.425   5.268  1.00  0.00    -0.237 OA
ATOM     77  O   UNL     1     -21.051  -4.319   2.805  1.00  0.00    -0.744 OA
ENDBRANCH  70  74
ENDBRANCH  53  67
BRANCH  54  78
ATOM     78  C   UNL     1     -12.923   3.716  12.007  1.00  0.00     0.023 A 
ATOM     79  C   UNL     1     -13.207   3.736  13.382  1.00  0.00     0.031 A 
ATOM     80  C   UNL     1     -11.787   4.417  11.561  1.00  0.00     0.131 A 
ATOM     81  C   UNL     1     -12.404   4.490  14.253  1.00  0.00     0.055 A 
ATOM     82  C   UNL     1     -10.956   5.113  12.440  1.00  0.00     0.041 A 
ATOM     83  F   UNL     1     -11.466   4.433  10.258  1.00  0.00    -0.206 F 
ATOM     84  C   UNL     1     -11.272   5.166  13.794  1.00  0.00     0.022 A 
BRANCH  81  85
ATOM     85  S   UNL     1     -12.928   4.669  15.981  1.00  0.00     0.124 S 
ATOM     86  O   UNL     1     -14.270   5.220  15.828  1.00  0.00    -0.237 OA
ATOM     87  O   UNL     1     -12.849   3.295  16.465  1.00  0.00    -0.237 OA
ATOM     88  O   UNL     1     -11.938   5.584  16.543  1.00  0.00    -0.744 OA
ENDBRANCH  81  85
ENDBRANCH  54  78
BRANCH  66  89
ATOM     89  C   UNL     1     -19.600   4.708  10.256  1.00  0.00     0.023 A 
ATOM     90  C   UNL     1     -19.488   6.105  10.142  1.00  0.00     0.031 A 
ATOM     91  C   UNL     1     -20.731   4.188  10.911  1.00  0.00     0.131 A 
ATOM     92  C   UNL     1     -20.455   6.935  10.730  1.00  0.00     0.055 A 
ATOM     93  C   UNL     1     -21.724   5.017  11.434  1.00  0.00     0.041 A 
ATOM     94  F   UNL     1     -20.890   2.863  11.053  1.00  0.00    -0.206 F 
ATOM     95  C   UNL     1     -21.582   6.399  11.359  1.00  0.00     0.022 A 
BRANCH  92  96
ATOM     96  S   UNL     1     -20.166   8.726  10.757  1.00  0.00     0.124 S 
ATOM     97  O   UNL     1     -18.889   8.817  11.456  1.00  0.00    -0.237 OA
ATOM     98  O   UNL     1     -20.141   9.059   9.337  1.00  0.00    -0.237 OA
ATOM     99  O   UNL     1     -21.316   9.248  11.495  1.00  0.00    -0.744 OA
ENDBRANCH  92  96
ENDBRANCH  66  89
ENDBRANCH  40  41
ENDBRANCH  32  35
ENDBRANCH  30  31
ENDBRANCH  29  30
ENDBRANCH  28  29
ENDBRANCH   1  28
TORSDOF 19
