REMARK SMILES Cc1c(/C=C2/SC(=S)N(CCC(=O)NCCCCNC(=O)c3ccc(-c4c5nc(c(-c6cc(S(=O)(=O)[O-])ccc6F)c6ccc([nH]6)c(-c6cc(S(=O)(=O)[O-])ccc6F)c6nc(c(-c7cc(S(=O)(=O)[O-])ccc7F)c7ccc4[nH]7)C=C6)C=C5)cc3)C2=O)c(N2C[C@@H](C)C[C@H](C)C2)n(C)c(=O)c1C#N
REMARK SMILES IDX 16 1 15 2 14 3 12 4 13 5 11 7 10 8 9 9 4 10 5 11 6 12 85 13
REMARK SMILES IDX 7 14 86 15 8 16 3 17 1 18 2 19 100 20 87 21 98 22 96 23
REMARK SMILES IDX 99 24 97 25 101 26 102 27 88 28 89 29 95 30 90 31 93 32
REMARK SMILES IDX 91 33 92 34 94 35 17 36 18 37 19 38 20 39 21 41 22 42 23 43
REMARK SMILES IDX 84 44 24 45 83 46 25 47 26 48 27 49 77 50 28 51 82 52 76 53
REMARK SMILES IDX 78 54 29 55 81 56 75 57 74 58 30 60 62 61 42 62 61 63 43 64
REMARK SMILES IDX 46 65 60 66 79 67 44 68 45 69 59 71 80 72 47 73 31 74 32 75
REMARK SMILES IDX 40 76 33 77 39 78 41 79 38 80 34 81 35 82 36 83 37 84 63 85
REMARK SMILES IDX 64 86 72 87 65 88 71 89 73 90 70 91 66 92 67 93 68 94 69 95
REMARK SMILES IDX 48 96 49 97 57 98 50 99 56 100 58 101 55 102 51 103 52 104
REMARK SMILES IDX 53 105 54 106
REMARK H PARENT 14 6 19 40 78 59 46 70
REMARK Flexibility Score: inf
ROOT
ATOM      1  C   UNL     1       2.592   1.106   2.490  1.00  0.00     0.023 C 
ENDROOT
BRANCH   1   2
ATOM      2  C   UNL     1       1.242   1.894   2.514  1.00  0.00     0.116 C 
BRANCH   2   3
ATOM      3  N   UNL     1       0.056   1.191   2.023  1.00  0.00    -0.356 N 
ATOM      4  C   UNL     1      -1.084   0.814   2.677  1.00  0.00     0.221 C 
ATOM      5  O   UNL     1      -2.109   0.611   2.027  1.00  0.00    -0.275 OA
ATOM      6  H   UNL     1       0.083   0.951   1.069  1.00  0.00     0.163 HD
BRANCH   4   7
ATOM      7  C   UNL     1      -1.057   0.573   4.164  1.00  0.00     0.122 C 
BRANCH   7   8
ATOM      8  C   UNL     1      -1.038  -0.931   4.461  1.00  0.00     0.137 C 
BRANCH   8   9
ATOM      9  N   UNL     1       0.165  -1.595   3.937  1.00  0.00    -0.292 N 
ATOM     10  C   UNL     1       1.988  -2.668   0.959  1.00  0.00     0.033 C 
ATOM     11  C   UNL     1       1.523  -2.469   2.209  1.00  0.00     0.081 C 
ATOM     12  S   UNL     1       2.522  -2.583   3.619  1.00  0.00    -0.054 SA
ATOM     13  C   UNL     1       0.148  -2.087   2.636  1.00  0.00     0.266 C 
ATOM     14  C   UNL     1       1.343  -1.751   4.631  1.00  0.00     0.148 C 
ATOM     15  O   UNL     1      -0.847  -2.206   1.931  1.00  0.00    -0.268 OA
ATOM     16  S   UNL     1       1.712  -1.215   6.170  1.00  0.00    -0.052 S 
BRANCH  10  17
ATOM     17  C   UNL     1       1.232  -2.629  -0.299  1.00  0.00     0.021 A 
ATOM     18  C   UNL     1       1.555  -0.175  -1.502  1.00  0.00     0.047 C 
ATOM     19  C   UNL     1       0.818  -1.383  -1.009  1.00  0.00    -0.017 A 
ATOM     20  C   UNL     1      -0.381  -1.360  -1.562  1.00  0.00     0.121 A 
ATOM     21  C   UNL     1       0.736  -3.839  -0.727  1.00  0.00     0.118 A 
ATOM     22  C   UNL     1      -1.038  -2.651  -1.914  1.00  0.00     0.270 A 
ATOM     23  N   UNL     1      -0.294  -3.806  -1.674  1.00  0.00    -0.296 N 
ATOM     24  O   UNL     1      -2.123  -2.633  -2.493  1.00  0.00    -0.268 OA
ATOM     25  C   UNL     1      -0.775  -5.029  -2.305  1.00  0.00     0.155 C 
BRANCH  20  26
ATOM     26  C   UNL     1      -1.050  -0.124  -2.141  1.00  0.00     0.105 C 
ATOM     27  N   UNL     1      -1.606   0.901  -2.621  1.00  0.00    -0.192 NA
ENDBRANCH  20  26
BRANCH  21  28
ATOM     28  N   UNL     1       1.169  -5.093  -0.217  1.00  0.00    -0.357 N 
ATOM     29  C   UNL     1       1.023  -5.506   1.188  1.00  0.00     0.121 C 
ATOM     30  C   UNL     1       2.149  -5.896  -0.959  1.00  0.00     0.121 C 
ATOM     31  C   UNL     1       0.704  -7.000   1.342  1.00  0.00     0.006 C 
ATOM     32  C   UNL     1       1.756  -7.380  -0.942  1.00  0.00     0.006 C 
ATOM     33  C   UNL     1      -0.766  -7.288   1.041  1.00  0.00     0.009 C 
ATOM     34  C   UNL     1       1.651  -7.872   0.506  1.00  0.00     0.010 C 
ATOM     35  C   UNL     1       2.756  -8.226  -1.730  1.00  0.00     0.009 C 
ENDBRANCH  21  28
ENDBRANCH  10  17
ENDBRANCH   8   9
ENDBRANCH   7   8
ENDBRANCH   4   7
ENDBRANCH   2   3
ENDBRANCH   1   2
BRANCH   1  36
ATOM     36  C   UNL     1       2.841   0.505   1.112  1.00  0.00     0.023 C 
BRANCH  36  37
ATOM     37  C   UNL     1       4.174  -0.013   0.511  1.00  0.00     0.116 C 
BRANCH  37  38
ATOM     38  N   UNL     1       4.846  -1.240   0.871  1.00  0.00    -0.352 N 
ATOM     39  C   UNL     1       5.404  -2.250   0.062  1.00  0.00     0.251 C 
ATOM     40  H   UNL     1       4.927  -1.396   1.839  1.00  0.00     0.163 HD
ATOM     41  O   UNL     1       6.216  -2.981   0.643  1.00  0.00    -0.269 OA
BRANCH  39  42
ATOM     42  C   UNL     1       5.072  -2.609  -1.400  1.00  0.00     0.039 A 
ATOM     43  C   UNL     1       5.374  -3.923  -1.822  1.00  0.00     0.014 A 
ATOM     44  C   UNL     1       4.552  -1.789  -2.404  1.00  0.00     0.014 A 
ATOM     45  C   UNL     1       5.140  -4.389  -3.148  1.00  0.00     0.010 A 
ATOM     46  C   UNL     1       4.230  -2.274  -3.710  1.00  0.00     0.010 A 
ATOM     47  C   UNL     1       4.548  -3.576  -4.124  1.00  0.00    -0.014 A 
BRANCH  47  48
ATOM     48  C   UNL     1       4.361  -4.044  -5.556  1.00  0.00     0.031 A 
ATOM     49  C   UNL     1       5.130  -3.402  -6.696  1.00  0.00     0.074 A 
ATOM     50  C   UNL     1       3.526  -5.056  -5.892  1.00  0.00     0.049 A 
ATOM     51  N   UNL     1       5.123  -3.703  -7.974  1.00  0.00    -0.248 NA
ATOM     52  C   UNL     1       6.016  -2.280  -6.359  1.00  0.00     0.031 C 
ATOM     53  C   UNL     1       2.686  -5.779  -4.951  1.00  0.00     0.029 A 
ATOM     54  N   UNL     1       3.232  -5.652  -7.105  1.00  0.00    -0.354 N 
ATOM     55  C   UNL     1       5.996  -2.811  -8.590  1.00  0.00     0.074 A 
ATOM     56  C   UNL     1       6.482  -1.929  -7.550  1.00  0.00     0.031 C 
ATOM     57  C   UNL     1       1.987  -6.725  -5.598  1.00  0.00     0.029 A 
ATOM     58  C   UNL     1       2.295  -6.664  -7.026  1.00  0.00     0.049 A 
ATOM     59  H   UNL     1       3.654  -5.379  -7.952  1.00  0.00     0.167 HD
ATOM     60  C   UNL     1       6.381  -2.739  -9.889  1.00  0.00     0.034 A 
ATOM     61  C   UNL     1       1.729  -7.455  -7.968  1.00  0.00     0.034 A 
ATOM     62  C   UNL     1       5.936  -3.620 -10.940  1.00  0.00     0.049 A 
ATOM     63  C   UNL     1       2.148  -7.340  -9.414  1.00  0.00     0.074 A 
ATOM     64  C   UNL     1       6.351  -3.641 -12.262  1.00  0.00     0.029 A 
ATOM     65  N   UNL     1       4.987  -4.620 -10.810  1.00  0.00    -0.354 N 
ATOM     66  N   UNL     1       3.054  -6.556  -9.944  1.00  0.00    -0.248 NA
ATOM     67  C   UNL     1       1.479  -8.218 -10.391  1.00  0.00     0.031 C 
ATOM     68  C   UNL     1       5.609  -4.603 -12.946  1.00  0.00     0.029 A 
ATOM     69  C   UNL     1       4.779  -5.234 -12.037  1.00  0.00     0.049 A 
ATOM     70  H   UNL     1       4.528  -4.858  -9.973  1.00  0.00     0.167 HD
ATOM     71  C   UNL     1       3.081  -6.862 -11.304  1.00  0.00     0.074 A 
ATOM     72  C   UNL     1       2.115  -7.916 -11.517  1.00  0.00     0.031 C 
ATOM     73  C   UNL     1       3.842  -6.305 -12.277  1.00  0.00     0.034 A 
BRANCH  60  74
ATOM     74  C   UNL     1       7.380  -1.679 -10.287  1.00  0.00     0.023 A 
ATOM     75  C   UNL     1       7.010  -0.669 -11.196  1.00  0.00     0.031 A 
ATOM     76  C   UNL     1       8.730  -1.775  -9.909  1.00  0.00     0.131 A 
ATOM     77  C   UNL     1       7.988   0.180 -11.727  1.00  0.00     0.055 A 
ATOM     78  C   UNL     1       9.695  -0.901 -10.412  1.00  0.00     0.041 A 
ATOM     79  F   UNL     1       9.131  -2.726  -9.050  1.00  0.00    -0.206 F 
ATOM     80  C   UNL     1       9.327   0.073 -11.335  1.00  0.00     0.022 A 
BRANCH  77  81
ATOM     81  S   UNL     1       7.574   1.417 -12.987  1.00  0.00     0.124 S 
ATOM     82  O   UNL     1       8.089   2.645 -12.383  1.00  0.00    -0.237 OA
ATOM     83  O   UNL     1       8.318   0.933 -14.145  1.00  0.00    -0.237 OA
ATOM     84  O   UNL     1       6.121   1.341 -13.088  1.00  0.00    -0.744 OA
ENDBRANCH  77  81
ENDBRANCH  60  74
BRANCH  61  85
ATOM     85  C   UNL     1       0.709  -8.470  -7.556  1.00  0.00     0.023 A 
ATOM     86  C   UNL     1      -0.518  -8.070  -6.998  1.00  0.00     0.031 A 
ATOM     87  C   UNL     1       0.976  -9.847  -7.645  1.00  0.00     0.131 A 
ATOM     88  C   UNL     1      -1.396  -9.033  -6.484  1.00  0.00     0.055 A 
ATOM     89  C   UNL     1       0.063 -10.806  -7.198  1.00  0.00     0.041 A 
ATOM     90  F   UNL     1       2.131 -10.280  -8.172  1.00  0.00    -0.206 F 
ATOM     91  C   UNL     1      -1.124 -10.399  -6.598  1.00  0.00     0.022 A 
BRANCH  88  92
ATOM     92  S   UNL     1      -2.871  -8.536  -5.553  1.00  0.00     0.124 S 
ATOM     93  O   UNL     1      -3.925  -9.300  -6.213  1.00  0.00    -0.237 OA
ATOM     94  O   UNL     1      -2.520  -8.975  -4.204  1.00  0.00    -0.237 OA
ATOM     95  O   UNL     1      -2.922  -7.092  -5.744  1.00  0.00    -0.744 OA
ENDBRANCH  88  92
ENDBRANCH  61  85
BRANCH  73  96
ATOM     96  C   UNL     1       3.714  -6.799 -13.699  1.00  0.00     0.023 A 
ATOM     97  C   UNL     1       4.818  -7.398 -14.338  1.00  0.00     0.031 A 
ATOM     98  C   UNL     1       2.574  -6.519 -14.470  1.00  0.00     0.131 A 
ATOM     99  C   UNL     1       4.778  -7.648 -15.717  1.00  0.00     0.055 A 
ATOM    100  C   UNL     1       2.522  -6.810 -15.836  1.00  0.00     0.041 A 
ATOM    101  F   UNL     1       1.498  -5.943 -13.911  1.00  0.00    -0.206 F 
ATOM    102  C   UNL     1       3.633  -7.363 -16.468  1.00  0.00     0.022 A 
BRANCH  99 103
ATOM    103  S   UNL     1       6.232  -8.284 -16.598  1.00  0.00     0.124 S 
ATOM    104  O   UNL     1       5.691  -9.463 -17.271  1.00  0.00    -0.237 OA
ATOM    105  O   UNL     1       6.572  -7.167 -17.475  1.00  0.00    -0.237 OA
ATOM    106  O   UNL     1       7.191  -8.565 -15.535  1.00  0.00    -0.744 OA
ENDBRANCH  99 103
ENDBRANCH  73  96
ENDBRANCH  47  48
ENDBRANCH  39  42
ENDBRANCH  37  38
ENDBRANCH  36  37
ENDBRANCH   1  36
TORSDOF 19
