REMARK SMILES Cc1ccc(S(=O)(=O)/C=C/C(=O)NCCCCNC(=O)c2ccc(-c3c4nc(c(-c5cc(S(=O)(=O)[O-])ccc5F)c5ccc([nH]5)c(-c5cc(S(=O)(=O)[O-])ccc5F)c5nc(c(-c6cc(S(=O)(=O)[O-])ccc6F)c6ccc3[nH]6)C=C5)C=C4)cc2)cc1
REMARK SMILES IDX 16 1 15 2 14 3 13 4 11 5 12 6 10 8 9 9 6 10 7 11 8 12 5 13
REMARK SMILES IDX 1 14 2 15 3 16 85 17 4 18 84 19 17 20 18 21 19 22 20 24
REMARK SMILES IDX 21 25 22 26 83 27 23 28 82 29 24 30 25 31 26 32 76 33 27 34
REMARK SMILES IDX 81 35 75 36 77 37 28 38 80 39 74 40 73 41 29 43 61 44 41 45
REMARK SMILES IDX 60 46 42 47 45 48 59 49 78 50 43 51 44 52 58 54 79 55 46 56
REMARK SMILES IDX 30 57 31 58 39 59 32 60 38 61 40 62 37 63 33 64 34 65 35 66
REMARK SMILES IDX 36 67 62 68 63 69 71 70 64 71 70 72 72 73 69 74 65 75 66 76
REMARK SMILES IDX 67 77 68 78 47 79 48 80 56 81 49 82 55 83 57 84 54 85 50 86
REMARK SMILES IDX 51 87 52 88 53 89
REMARK H PARENT 13 7 18 23 77 42 45 53
REMARK Flexibility Score: inf
ROOT
ATOM      1  C   UNL     1      -7.767   4.292   1.916  1.00  0.00     0.023 C 
ENDROOT
BRANCH   1   2
ATOM      2  C   UNL     1      -7.162   3.049   1.256  1.00  0.00     0.023 C 
BRANCH   2   3
ATOM      3  C   UNL     1      -6.516   3.288  -0.116  1.00  0.00     0.116 C 
BRANCH   3   4
ATOM      4  N   UNL     1      -5.354   4.170  -0.025  1.00  0.00    -0.353 N 
ATOM      5  C   UNL     1      -4.045   3.883  -0.255  1.00  0.00     0.244 C 
ATOM      6  O   UNL     1      -3.177   4.749  -0.207  1.00  0.00    -0.270 OA
ATOM      7  H   UNL     1      -5.545   5.100   0.238  1.00  0.00     0.163 HD
BRANCH   5   8
ATOM      8  C   UNL     1      -3.668   2.498  -0.571  1.00  0.00     0.083 C 
ATOM      9  C   UNL     1      -3.761   1.568   0.387  1.00  0.00     0.117 C 
BRANCH   9  10
ATOM     10  S   UNL     1      -3.244  -0.045   0.073  1.00  0.00     0.200 S 
ATOM     11  O   UNL     1      -3.574  -0.414  -1.296  1.00  0.00    -0.219 OA
ATOM     12  O   UNL     1      -3.637  -0.873   1.190  1.00  0.00    -0.219 OA
BRANCH  10  13
ATOM     13  C   UNL     1      -1.459  -0.029   0.122  1.00  0.00     0.071 A 
ATOM     14  C   UNL     1       2.831  -0.239   0.028  1.00  0.00     0.044 C 
ATOM     15  C   UNL     1       1.335  -0.161   0.072  1.00  0.00    -0.051 A 
ATOM     16  C   UNL     1       0.572  -1.318  -0.126  1.00  0.00     0.005 A 
ATOM     17  C   UNL     1       0.685   1.055   0.324  1.00  0.00     0.005 A 
ATOM     18  C   UNL     1      -0.820  -1.253  -0.107  1.00  0.00     0.021 A 
ATOM     19  C   UNL     1      -0.710   1.126   0.353  1.00  0.00     0.021 A 
ENDBRANCH  10  13
ENDBRANCH   9  10
ENDBRANCH   5   8
ENDBRANCH   3   4
ENDBRANCH   2   3
ENDBRANCH   1   2
BRANCH   1  20
ATOM     20  C   UNL     1      -8.922   4.911   1.140  1.00  0.00     0.116 C 
BRANCH  20  21
ATOM     21  N   UNL     1     -10.251   4.432   1.490  1.00  0.00    -0.352 N 
ATOM     22  C   UNL     1     -11.460   4.736   0.887  1.00  0.00     0.251 C 
ATOM     23  H   UNL     1     -10.296   3.812   2.254  1.00  0.00     0.163 HD
ATOM     24  O   UNL     1     -12.527   4.379   1.380  1.00  0.00    -0.269 OA
BRANCH  22  25
ATOM     25  C   UNL     1     -11.452   5.393  -0.446  1.00  0.00     0.039 A 
ATOM     26  C   UNL     1     -12.167   4.767  -1.474  1.00  0.00     0.014 A 
ATOM     27  C   UNL     1     -10.574   6.433  -0.738  1.00  0.00     0.014 A 
ATOM     28  C   UNL     1     -11.818   5.011  -2.801  1.00  0.00     0.010 A 
ATOM     29  C   UNL     1     -10.156   6.602  -2.046  1.00  0.00     0.010 A 
ATOM     30  C   UNL     1     -10.732   5.845  -3.071  1.00  0.00    -0.014 A 
BRANCH  30  31
ATOM     31  C   UNL     1     -10.058   5.888  -4.366  1.00  0.00     0.031 A 
ATOM     32  C   UNL     1     -10.204   7.057  -5.256  1.00  0.00     0.074 A 
ATOM     33  C   UNL     1      -9.256   4.869  -4.745  1.00  0.00     0.049 A 
ATOM     34  N   UNL     1     -10.015   7.028  -6.532  1.00  0.00    -0.248 NA
ATOM     35  C   UNL     1     -10.620   8.365  -4.766  1.00  0.00     0.031 C 
ATOM     36  C   UNL     1      -8.336   4.831  -5.878  1.00  0.00     0.029 A 
ATOM     37  N   UNL     1      -9.335   3.545  -4.319  1.00  0.00    -0.354 N 
ATOM     38  C   UNL     1     -10.027   8.323  -6.991  1.00  0.00     0.074 A 
ATOM     39  C   UNL     1     -10.450   9.116  -5.859  1.00  0.00     0.031 C 
ATOM     40  C   UNL     1      -8.159   3.553  -6.246  1.00  0.00     0.029 A 
ATOM     41  C   UNL     1      -9.055   2.742  -5.444  1.00  0.00     0.049 A 
ATOM     42  H   UNL     1      -9.546   3.231  -3.410  1.00  0.00     0.167 HD
ATOM     43  C   UNL     1      -9.572   8.600  -8.246  1.00  0.00     0.034 A 
ATOM     44  C   UNL     1      -9.989   1.865  -5.918  1.00  0.00     0.034 A 
ATOM     45  C   UNL     1      -9.207   7.389  -8.979  1.00  0.00     0.049 A 
ATOM     46  C   UNL     1     -10.445   2.157  -7.335  1.00  0.00     0.074 A 
ATOM     47  C   UNL     1      -8.014   6.741  -9.252  1.00  0.00     0.029 A 
ATOM     48  N   UNL     1     -10.210   6.509  -9.340  1.00  0.00    -0.354 N 
ATOM     49  N   UNL     1     -10.037   3.173  -8.049  1.00  0.00    -0.248 NA
ATOM     50  C   UNL     1     -11.470   1.373  -8.026  1.00  0.00     0.031 C 
ATOM     51  C   UNL     1      -8.323   5.436  -9.742  1.00  0.00     0.029 A 
ATOM     52  C   UNL     1      -9.699   5.307  -9.787  1.00  0.00     0.049 A 
ATOM     53  H   UNL     1     -11.171   6.715  -9.284  1.00  0.00     0.167 HD
ATOM     54  C   UNL     1     -10.758   3.230  -9.213  1.00  0.00     0.074 A 
ATOM     55  C   UNL     1     -11.641   2.078  -9.156  1.00  0.00     0.031 C 
ATOM     56  C   UNL     1     -10.625   4.238 -10.123  1.00  0.00     0.034 A 
BRANCH  43  57
ATOM     57  C   UNL     1      -9.244   9.990  -8.731  1.00  0.00     0.023 A 
ATOM     58  C   UNL     1      -8.206  10.163  -9.668  1.00  0.00     0.031 A 
ATOM     59  C   UNL     1      -9.880  11.171  -8.304  1.00  0.00     0.131 A 
ATOM     60  C   UNL     1      -7.774  11.444 -10.055  1.00  0.00     0.055 A 
ATOM     61  C   UNL     1      -9.407  12.448  -8.632  1.00  0.00     0.041 A 
ATOM     62  F   UNL     1     -11.017  11.140  -7.596  1.00  0.00    -0.206 F 
ATOM     63  C   UNL     1      -8.338  12.591  -9.504  1.00  0.00     0.022 A 
BRANCH  60  64
ATOM     64  S   UNL     1      -6.473  11.592 -11.309  1.00  0.00     0.124 S 
ATOM     65  O   UNL     1      -5.372  10.849 -10.705  1.00  0.00    -0.237 OA
ATOM     66  O   UNL     1      -7.101  10.984 -12.476  1.00  0.00    -0.237 OA
ATOM     67  O   UNL     1      -6.260  13.036 -11.406  1.00  0.00    -0.744 OA
ENDBRANCH  60  64
ENDBRANCH  43  57
BRANCH  44  68
ATOM     68  C   UNL     1     -10.827   1.281  -4.825  1.00  0.00     0.023 A 
ATOM     69  C   UNL     1     -10.132   0.693  -3.744  1.00  0.00     0.031 A 
ATOM     70  C   UNL     1     -12.164   1.645  -4.620  1.00  0.00     0.131 A 
ATOM     71  C   UNL     1     -10.692   0.701  -2.461  1.00  0.00     0.055 A 
ATOM     72  C   UNL     1     -12.760   1.537  -3.357  1.00  0.00     0.041 A 
ATOM     73  F   UNL     1     -12.874   2.237  -5.592  1.00  0.00    -0.206 F 
ATOM     74  C   UNL     1     -12.007   1.117  -2.259  1.00  0.00     0.022 A 
BRANCH  71  75
ATOM     75  S   UNL     1      -9.571   0.509  -1.042  1.00  0.00     0.124 S 
ATOM     76  O   UNL     1      -9.511  -0.939  -0.889  1.00  0.00    -0.237 OA
ATOM     77  O   UNL     1      -8.348   1.157  -1.513  1.00  0.00    -0.237 OA
ATOM     78  O   UNL     1     -10.244   1.231   0.035  1.00  0.00    -0.744 OA
ENDBRANCH  71  75
ENDBRANCH  44  68
BRANCH  56  79
ATOM     79  C   UNL     1     -11.408   4.281 -11.406  1.00  0.00     0.023 A 
ATOM     80  C   UNL     1     -11.605   3.128 -12.183  1.00  0.00     0.031 A 
ATOM     81  C   UNL     1     -11.924   5.487 -11.926  1.00  0.00     0.131 A 
ATOM     82  C   UNL     1     -12.350   3.185 -13.372  1.00  0.00     0.055 A 
ATOM     83  C   UNL     1     -12.586   5.555 -13.154  1.00  0.00     0.041 A 
ATOM     84  F   UNL     1     -11.848   6.638 -11.241  1.00  0.00    -0.206 F 
ATOM     85  C   UNL     1     -12.816   4.396 -13.880  1.00  0.00     0.022 A 
BRANCH  82  86
ATOM     86  S   UNL     1     -12.783   1.629 -14.192  1.00  0.00     0.124 S 
ATOM     87  O   UNL     1     -11.482   1.005 -14.403  1.00  0.00    -0.237 OA
ATOM     88  O   UNL     1     -13.637   0.996 -13.190  1.00  0.00    -0.237 OA
ATOM     89  O   UNL     1     -13.472   2.060 -15.407  1.00  0.00    -0.744 OA
ENDBRANCH  82  86
ENDBRANCH  56  79
ENDBRANCH  30  31
ENDBRANCH  22  25
ENDBRANCH  20  21
ENDBRANCH   1  20
TORSDOF 16
