REMARK SMILES C[C@@H](C(=O)NCCCCNC(=O)c1ccc(-c2c3nc(c(-c4cc(S(=O)(=O)[O-])ccc4F)c4ccc([nH]4)c(-c4cc(S(=O)(=O)[O-])ccc4F)c4nc(c(-c5cc(S(=O)(=O)[O-])ccc5F)c5ccc2[nH]5)C=C4)C=C3)cc1)c1ccc(C[C@@H]2CCC[C@@H]2O)cc1Br
REMARK SMILES IDX 7 1 6 2 5 3 3 4 4 5 2 7 1 8 76 9 77 10 88 11 78 12 87 13
REMARK SMILES IDX 89 14 79 15 80 16 81 17 82 18 85 19 83 20 84 21 86 22 8 24
REMARK SMILES IDX 9 25 10 26 11 27 12 29 13 30 14 31 75 32 15 33 74 34 16 35
REMARK SMILES IDX 17 36 18 37 68 38 19 39 73 40 67 41 69 42 20 43 72 44 66 45
REMARK SMILES IDX 65 46 21 48 53 49 33 50 52 51 34 52 37 53 51 54 70 55 35 56
REMARK SMILES IDX 36 57 50 59 71 60 38 61 22 62 23 63 31 64 24 65 30 66 32 67
REMARK SMILES IDX 29 68 25 69 26 70 27 71 28 72 54 73 55 74 63 75 56 76 62 77
REMARK SMILES IDX 64 78 61 79 57 80 58 81 59 82 60 83 39 84 40 85 48 86 41 87
REMARK SMILES IDX 47 88 49 89 46 90 42 91 43 92 44 93 45 94
REMARK H PARENT 5 6 86 23 10 28 69 47 37 58
REMARK Flexibility Score: inf
ROOT
ATOM      1  C   UNL     1     -11.207   5.816   7.253  1.00  0.00     0.023 C 
ENDROOT
BRANCH   1   2
ATOM      2  C   UNL     1     -11.350   4.309   7.043  1.00  0.00     0.116 C 
BRANCH   2   3
ATOM      3  N   UNL     1     -11.863   3.986   5.728  1.00  0.00    -0.356 N 
ATOM      4  C   UNL     1     -11.249   3.440   4.639  1.00  0.00     0.227 C 
ATOM      5  O   UNL     1     -11.992   3.097   3.716  1.00  0.00    -0.274 OA
ATOM      6  H   UNL     1     -12.816   4.197   5.597  1.00  0.00     0.163 HD
BRANCH   4   7
ATOM      7  C   UNL     1      -9.734   3.173   4.638  1.00  0.00     0.106 C 
ATOM      8  C   UNL     1      -8.840   4.384   4.932  1.00  0.00     0.023 C 
BRANCH   7   9
ATOM      9  C   UNL     1      -9.238   2.485   3.362  1.00  0.00    -0.022 A 
ATOM     10  C   UNL     1      -8.643   1.214   3.502  1.00  0.00     0.006 A 
ATOM     11  C   UNL     1      -9.272   3.053   2.075  1.00  0.00     0.022 A 
ATOM     12  C   UNL     1      -8.048   0.563   2.418  1.00  0.00     0.004 A 
ATOM     13  C   UNL     1      -8.677   2.391   0.993  1.00  0.00     0.019 A 
ATOM     14  Br  UNL     1     -10.039   4.747   1.673  1.00  0.00    -0.051 Br
ATOM     15  C   UNL     1      -8.020   1.166   1.161  1.00  0.00    -0.047 A 
BRANCH  15  16
ATOM     16  C   UNL     1      -7.268   0.552   0.007  1.00  0.00     0.041 C 
BRANCH  16  17
ATOM     17  C   UNL     1      -5.744   0.807  -0.067  1.00  0.00     0.022 C 
ATOM     18  C   UNL     1      -4.935   0.191   1.081  1.00  0.00     0.007 C 
ATOM     19  C   UNL     1      -5.265   2.263  -0.067  1.00  0.00     0.117 C 
ATOM     20  C   UNL     1      -4.641   1.321   2.072  1.00  0.00     0.003 C 
ATOM     21  C   UNL     1      -5.079   2.619   1.403  1.00  0.00     0.032 C 
BRANCH  19  22
ATOM     22  O   UNL     1      -6.140   3.138  -0.746  1.00  0.00    -0.393 OA
ATOM     23  H   UNL     1      -7.013   3.114  -0.323  1.00  0.00     0.210 HD
ENDBRANCH  19  22
ENDBRANCH  16  17
ENDBRANCH  15  16
ENDBRANCH   7   9
ENDBRANCH   4   7
ENDBRANCH   2   3
ENDBRANCH   1   2
BRANCH   1  24
ATOM     24  C   UNL     1     -12.515   6.610   7.173  1.00  0.00     0.023 C 
BRANCH  24  25
ATOM     25  C   UNL     1     -13.644   6.125   8.079  1.00  0.00     0.116 C 
BRANCH  25  26
ATOM     26  N   UNL     1     -13.272   6.092   9.485  1.00  0.00    -0.352 N 
ATOM     27  C   UNL     1     -13.969   6.550  10.579  1.00  0.00     0.251 C 
ATOM     28  H   UNL     1     -12.399   5.683   9.682  1.00  0.00     0.163 HD
ATOM     29  O   UNL     1     -13.441   6.535  11.688  1.00  0.00    -0.269 OA
BRANCH  27  30
ATOM     30  C   UNL     1     -15.331   7.101  10.406  1.00  0.00     0.039 A 
ATOM     31  C   UNL     1     -15.625   8.351  10.957  1.00  0.00     0.014 A 
ATOM     32  C   UNL     1     -16.298   6.409   9.672  1.00  0.00     0.014 A 
ATOM     33  C   UNL     1     -16.857   8.953  10.688  1.00  0.00     0.010 A 
ATOM     34  C   UNL     1     -17.504   7.034   9.360  1.00  0.00     0.010 A 
ATOM     35  C   UNL     1     -17.784   8.322   9.843  1.00  0.00    -0.014 A 
BRANCH  35  36
ATOM     36  C   UNL     1     -19.018   9.020   9.394  1.00  0.00     0.031 A 
ATOM     37  C   UNL     1     -20.373   8.503   9.791  1.00  0.00     0.074 A 
ATOM     38  C   UNL     1     -18.911  10.064   8.547  1.00  0.00     0.049 A 
ATOM     39  N   UNL     1     -21.555   8.907   9.404  1.00  0.00    -0.248 NA
ATOM     40  C   UNL     1     -20.400   7.369  10.727  1.00  0.00     0.031 C 
ATOM     41  C   UNL     1     -17.649  10.629   8.059  1.00  0.00     0.029 A 
ATOM     42  N   UNL     1     -19.872  10.823   7.925  1.00  0.00    -0.354 N 
ATOM     43  C   UNL     1     -22.469   8.070  10.034  1.00  0.00     0.074 A 
ATOM     44  C   UNL     1     -21.699   7.113  10.802  1.00  0.00     0.031 C 
ATOM     45  C   UNL     1     -17.915  11.641   7.218  1.00  0.00     0.029 A 
ATOM     46  C   UNL     1     -19.360  11.769   7.066  1.00  0.00     0.049 A 
ATOM     47  H   UNL     1     -20.836  10.702   8.080  1.00  0.00     0.167 HD
ATOM     48  C   UNL     1     -23.823   8.107   9.983  1.00  0.00     0.034 A 
ATOM     49  C   UNL     1     -19.981  12.622   6.226  1.00  0.00     0.034 A 
ATOM     50  C   UNL     1     -24.575   9.079   9.229  1.00  0.00     0.049 A 
ATOM     51  C   UNL     1     -21.488  12.617   6.168  1.00  0.00     0.074 A 
ATOM     52  C   UNL     1     -25.947   9.264   9.191  1.00  0.00     0.029 A 
ATOM     53  N   UNL     1     -24.025  10.019   8.368  1.00  0.00    -0.354 N 
ATOM     54  N   UNL     1     -22.337  11.868   6.833  1.00  0.00    -0.248 NA
ATOM     55  C   UNL     1     -22.120  13.572   5.248  1.00  0.00     0.031 C 
ATOM     56  C   UNL     1     -26.229  10.266   8.257  1.00  0.00     0.029 A 
ATOM     57  C   UNL     1     -25.032  10.754   7.760  1.00  0.00     0.049 A 
ATOM     58  H   UNL     1     -23.061  10.145   8.211  1.00  0.00     0.167 HD
ATOM     59  C   UNL     1     -23.603  12.278   6.425  1.00  0.00     0.074 A 
ATOM     60  C   UNL     1     -23.407  13.354   5.475  1.00  0.00     0.031 C 
ATOM     61  C   UNL     1     -24.820  11.810   6.800  1.00  0.00     0.034 A 
BRANCH  48  62
ATOM     62  C   UNL     1     -24.584   7.049  10.741  1.00  0.00     0.023 A 
ATOM     63  C   UNL     1     -24.579   6.997  12.145  1.00  0.00     0.031 A 
ATOM     64  C   UNL     1     -25.345   6.093  10.046  1.00  0.00     0.131 A 
ATOM     65  C   UNL     1     -25.284   5.981  12.809  1.00  0.00     0.055 A 
ATOM     66  C   UNL     1     -26.095   5.123  10.713  1.00  0.00     0.041 A 
ATOM     67  F   UNL     1     -25.371   6.086   8.704  1.00  0.00    -0.206 F 
ATOM     68  C   UNL     1     -26.060   5.058  12.103  1.00  0.00     0.022 A 
BRANCH  65  69
ATOM     69  S   UNL     1     -25.100   5.826  14.606  1.00  0.00     0.124 S 
ATOM     70  O   UNL     1     -23.670   5.557  14.734  1.00  0.00    -0.237 OA
ATOM     71  O   UNL     1     -25.550   7.128  15.084  1.00  0.00    -0.237 OA
ATOM     72  O   UNL     1     -25.971   4.702  14.944  1.00  0.00    -0.744 OA
ENDBRANCH  65  69
ENDBRANCH  48  62
BRANCH  49  73
ATOM     73  C   UNL     1     -19.195  13.522   5.334  1.00  0.00     0.023 A 
ATOM     74  C   UNL     1     -19.284  14.918   5.455  1.00  0.00     0.031 A 
ATOM     75  C   UNL     1     -18.396  12.999   4.301  1.00  0.00     0.131 A 
ATOM     76  C   UNL     1     -18.634  15.743   4.524  1.00  0.00     0.055 A 
ATOM     77  C   UNL     1     -17.706  13.825   3.412  1.00  0.00     0.041 A 
ATOM     78  F   UNL     1     -18.274  11.672   4.142  1.00  0.00    -0.206 F 
ATOM     79  C   UNL     1     -17.836  15.206   3.510  1.00  0.00     0.022 A 
BRANCH  76  80
ATOM     80  S   UNL     1     -18.936  17.530   4.591  1.00  0.00     0.124 S 
ATOM     81  O   UNL     1     -20.391  17.590   4.517  1.00  0.00    -0.237 OA
ATOM     82  O   UNL     1     -18.343  17.888   5.876  1.00  0.00    -0.237 OA
ATOM     83  O   UNL     1     -18.229  18.039   3.417  1.00  0.00    -0.744 OA
ENDBRANCH  76  80
ENDBRANCH  49  73
BRANCH  61  84
ATOM     84  C   UNL     1     -26.025  12.482   6.195  1.00  0.00     0.023 A 
ATOM     85  C   UNL     1     -26.332  12.347   4.830  1.00  0.00     0.031 A 
ATOM     86  C   UNL     1     -26.867  13.280   6.989  1.00  0.00     0.131 A 
ATOM     87  C   UNL     1     -27.425  13.040   4.288  1.00  0.00     0.055 A 
ATOM     88  C   UNL     1     -27.985  13.922   6.457  1.00  0.00     0.041 A 
ATOM     89  F   UNL     1     -26.617  13.444   8.298  1.00  0.00    -0.206 F 
ATOM     90  C   UNL     1     -28.263  13.814   5.096  1.00  0.00     0.022 A 
BRANCH  87  91
ATOM     91  S   UNL     1     -27.696  12.978   2.496  1.00  0.00     0.124 S 
ATOM     92  O   UNL     1     -26.466  13.574   1.983  1.00  0.00    -0.237 OA
ATOM     93  O   UNL     1     -27.861  11.549   2.253  1.00  0.00    -0.237 OA
ATOM     94  O   UNL     1     -28.902  13.781   2.303  1.00  0.00    -0.744 OA
ENDBRANCH  87  91
ENDBRANCH  61  84
ENDBRANCH  35  36
ENDBRANCH  27  30
ENDBRANCH  25  26
ENDBRANCH  24  25
ENDBRANCH   1  24
TORSDOF 18
