REMARK SMILES C[C@@H](NC(=O)NCCC(=O)NC1CC1)C(=O)NCCCCNC(=O)c1ccc(-c2c3nc(c(-c4cc(S(=O)(=O)[O-])ccc4F)c4ccc([nH]4)c(-c4cc(S(=O)(=O)[O-])ccc4F)c4nc(c(-c5cc(S(=O)(=O)[O-])ccc5F)c5ccc2[nH]5)C=C4)C=C3)cc1
REMARK SMILES IDX 18 1 17 2 15 3 16 4 2 6 1 7 3 8 4 9 5 11 6 12 7 14 8 15 9 16
REMARK SMILES IDX 10 17 11 18 12 20 13 21 14 22 19 23 20 24 21 25 22 26 23 27
REMARK SMILES IDX 24 29 25 30 26 31 87 32 27 33 86 34 28 35 29 36 30 37 80 38
REMARK SMILES IDX 31 39 85 40 79 41 81 42 32 43 84 44 78 45 77 46 33 48 65 49
REMARK SMILES IDX 45 50 64 51 46 52 49 53 63 54 82 55 47 56 48 57 62 59 83 60
REMARK SMILES IDX 50 61 34 62 35 63 43 64 36 65 42 66 44 67 41 68 37 69 38 70
REMARK SMILES IDX 39 71 40 72 66 73 67 74 75 75 68 76 74 77 76 78 73 79 69 80
REMARK SMILES IDX 70 81 71 82 72 83 51 84 52 85 60 86 53 87 59 88 61 89 58 90
REMARK SMILES IDX 54 91 55 92 56 93 57 94
REMARK H PARENT 17 5 3 10 6 13 11 19 22 28 81 47 49 58
REMARK Flexibility Score: inf
ROOT
ATOM      1  C   UNL     1      -0.678  -0.690   2.039  1.00  0.00     0.116 C 
ENDROOT
BRANCH   1   2
ATOM      2  N   UNL     1      -1.019   0.197   0.946  1.00  0.00    -0.354 N 
ATOM      3  C   UNL     1      -0.453   0.294  -0.287  1.00  0.00     0.242 C 
ATOM      4  O   UNL     1      -0.852   1.197  -1.030  1.00  0.00    -0.273 OA
ATOM      5  H   UNL     1      -1.763   0.817   1.120  1.00  0.00     0.163 HD
BRANCH   3   6
ATOM      6  C   UNL     1       0.746  -0.579  -0.710  1.00  0.00     0.170 C 
ATOM      7  C   UNL     1       2.007   0.181  -0.283  1.00  0.00     0.041 C 
BRANCH   6   8
ATOM      8  N   UNL     1       0.821  -1.941  -0.193  1.00  0.00    -0.327 N 
ATOM      9  C   UNL     1       0.045  -3.019  -0.296  1.00  0.00     0.315 C 
ATOM     10  H   UNL     1       1.624  -2.099   0.354  1.00  0.00     0.166 HD
ATOM     11  O   UNL     1       0.494  -4.085   0.131  1.00  0.00    -0.249 OA
ATOM     12  N   UNL     1      -1.204  -3.015  -0.755  1.00  0.00    -0.338 N 
ATOM     13  H   UNL     1      -1.631  -3.896  -0.652  1.00  0.00     0.165 HD
BRANCH  12  14
ATOM     14  C   UNL     1      -2.102  -2.055  -1.366  1.00  0.00     0.127 C 
BRANCH  14  15
ATOM     15  C   UNL     1      -2.975  -2.648  -2.462  1.00  0.00     0.121 C 
BRANCH  15  16
ATOM     16  C   UNL     1      -4.012  -3.644  -1.995  1.00  0.00     0.221 C 
ATOM     17  O   UNL     1      -5.157  -3.274  -1.728  1.00  0.00    -0.275 OA
ATOM     18  N   UNL     1      -3.708  -4.973  -1.883  1.00  0.00    -0.353 N 
ATOM     19  H   UNL     1      -4.488  -5.565  -1.779  1.00  0.00     0.163 HD
BRANCH  18  20
ATOM     20  C   UNL     1      -2.450  -5.642  -1.894  1.00  0.00     0.082 C 
ATOM     21  C   UNL     1      -2.187  -6.778  -2.843  1.00  0.00     0.027 C 
ATOM     22  C   UNL     1      -1.409  -5.505  -2.967  1.00  0.00     0.027 C 
ENDBRANCH  18  20
ENDBRANCH  15  16
ENDBRANCH  14  15
ENDBRANCH  12  14
ENDBRANCH   6   8
ENDBRANCH   3   6
ENDBRANCH   1   2
BRANCH   1  23
ATOM     23  C   UNL     1      -1.291  -0.216   3.350  1.00  0.00     0.023 C 
BRANCH  23  24
ATOM     24  C   UNL     1      -2.803  -0.452   3.443  1.00  0.00     0.023 C 
BRANCH  24  25
ATOM     25  C   UNL     1      -3.215  -1.924   3.477  1.00  0.00     0.116 C 
BRANCH  25  26
ATOM     26  N   UNL     1      -2.649  -2.621   4.624  1.00  0.00    -0.352 N 
ATOM     27  C   UNL     1      -3.260  -3.043   5.776  1.00  0.00     0.251 C 
ATOM     28  H   UNL     1      -1.686  -2.817   4.563  1.00  0.00     0.163 HD
ATOM     29  O   UNL     1      -2.569  -3.362   6.748  1.00  0.00    -0.269 OA
BRANCH  27  30
ATOM     30  C   UNL     1      -4.732  -3.105   5.859  1.00  0.00     0.039 A 
ATOM     31  C   UNL     1      -5.375  -2.632   7.006  1.00  0.00     0.014 A 
ATOM     32  C   UNL     1      -5.480  -3.649   4.811  1.00  0.00     0.014 A 
ATOM     33  C   UNL     1      -6.771  -2.642   7.071  1.00  0.00     0.010 A 
ATOM     34  C   UNL     1      -6.870  -3.587   4.845  1.00  0.00     0.010 A 
ATOM     35  C   UNL     1      -7.532  -3.085   5.976  1.00  0.00    -0.014 A 
BRANCH  35  36
ATOM     36  C   UNL     1      -9.018  -3.037   5.996  1.00  0.00     0.031 A 
ATOM     37  C   UNL     1      -9.816  -4.310   5.917  1.00  0.00     0.074 A 
ATOM     38  C   UNL     1      -9.646  -1.845   6.024  1.00  0.00     0.049 A 
ATOM     39  N   UNL     1     -11.111  -4.472   5.835  1.00  0.00    -0.248 NA
ATOM     40  C   UNL     1      -9.050  -5.565   5.898  1.00  0.00     0.031 C 
ATOM     41  C   UNL     1      -8.981  -0.540   6.062  1.00  0.00     0.029 A 
ATOM     42  N   UNL     1     -10.983  -1.533   6.014  1.00  0.00    -0.354 N 
ATOM     43  C   UNL     1     -11.318  -5.845   5.749  1.00  0.00     0.074 A 
ATOM     44  C   UNL     1     -10.008  -6.462   5.719  1.00  0.00     0.031 C 
ATOM     45  C   UNL     1      -9.911   0.427   6.092  1.00  0.00     0.029 A 
ATOM     46  C   UNL     1     -11.236  -0.181   6.027  1.00  0.00     0.049 A 
ATOM     47  H   UNL     1     -11.694  -2.214   5.998  1.00  0.00     0.167 HD
ATOM     48  C   UNL     1     -12.489  -6.529   5.725  1.00  0.00     0.034 A 
ATOM     49  C   UNL     1     -12.402   0.494   5.977  1.00  0.00     0.034 A 
ATOM     50  C   UNL     1     -13.786  -5.897   5.756  1.00  0.00     0.049 A 
ATOM     51  C   UNL     1     -13.691  -0.284   5.917  1.00  0.00     0.074 A 
ATOM     52  C   UNL     1     -15.036  -6.493   5.768  1.00  0.00     0.029 A 
ATOM     53  N   UNL     1     -14.004  -4.524   5.773  1.00  0.00    -0.354 N 
ATOM     54  N   UNL     1     -13.870  -1.585   5.873  1.00  0.00    -0.248 NA
ATOM     55  C   UNL     1     -14.935   0.495   5.912  1.00  0.00     0.031 C 
ATOM     56  C   UNL     1     -16.005  -5.484   5.726  1.00  0.00     0.029 A 
ATOM     57  C   UNL     1     -15.364  -4.256   5.770  1.00  0.00     0.049 A 
ATOM     58  H   UNL     1     -13.294  -3.841   5.785  1.00  0.00     0.167 HD
ATOM     59  C   UNL     1     -15.249  -1.777   5.865  1.00  0.00     0.074 A 
ATOM     60  C   UNL     1     -15.852  -0.461   5.925  1.00  0.00     0.031 C 
ATOM     61  C   UNL     1     -15.953  -2.937   5.817  1.00  0.00     0.034 A 
BRANCH  48  62
ATOM     62  C   UNL     1     -12.410  -8.035   5.641  1.00  0.00     0.023 A 
ATOM     63  C   UNL     1     -11.803  -8.798   6.655  1.00  0.00     0.031 A 
ATOM     64  C   UNL     1     -12.919  -8.719   4.523  1.00  0.00     0.131 A 
ATOM     65  C   UNL     1     -11.649 -10.183   6.496  1.00  0.00     0.055 A 
ATOM     66  C   UNL     1     -12.840 -10.109   4.410  1.00  0.00     0.041 A 
ATOM     67  F   UNL     1     -13.492  -8.047   3.512  1.00  0.00    -0.206 F 
ATOM     68  C   UNL     1     -12.187 -10.848   5.393  1.00  0.00     0.022 A 
BRANCH  65  69
ATOM     69  S   UNL     1     -10.606 -11.079   7.678  1.00  0.00     0.124 S 
ATOM     70  O   UNL     1      -9.326 -10.392   7.521  1.00  0.00    -0.237 OA
ATOM     71  O   UNL     1     -11.299 -10.858   8.942  1.00  0.00    -0.237 OA
ATOM     72  O   UNL     1     -10.631 -12.454   7.184  1.00  0.00    -0.744 OA
ENDBRANCH  65  69
ENDBRANCH  48  62
BRANCH  49  73
ATOM     73  C   UNL     1     -12.408   1.986   5.966  1.00  0.00     0.023 A 
ATOM     74  C   UNL     1     -12.968   2.717   7.024  1.00  0.00     0.031 A 
ATOM     75  C   UNL     1     -11.881   2.702   4.876  1.00  0.00     0.131 A 
ATOM     76  C   UNL     1     -13.029   4.118   6.952  1.00  0.00     0.055 A 
ATOM     77  C   UNL     1     -11.895   4.097   4.833  1.00  0.00     0.041 A 
ATOM     78  F   UNL     1     -11.328   2.052   3.839  1.00  0.00    -0.206 F 
ATOM     79  C   UNL     1     -12.484   4.813   5.870  1.00  0.00     0.022 A 
BRANCH  76  80
ATOM     80  S   UNL     1     -13.906   5.018   8.260  1.00  0.00     0.124 S 
ATOM     81  O   UNL     1     -15.239   4.432   8.182  1.00  0.00    -0.237 OA
ATOM     82  O   UNL     1     -13.121   4.675   9.442  1.00  0.00    -0.237 OA
ATOM     83  O   UNL     1     -13.811   6.413   7.835  1.00  0.00    -0.744 OA
ENDBRANCH  76  80
ENDBRANCH  49  73
BRANCH  61  84
ATOM     84  C   UNL     1     -17.458  -2.830   5.874  1.00  0.00     0.023 A 
ATOM     85  C   UNL     1     -18.201  -2.243   4.835  1.00  0.00     0.031 A 
ATOM     86  C   UNL     1     -18.157  -3.316   6.994  1.00  0.00     0.131 A 
ATOM     87  C   UNL     1     -19.592  -2.106   4.961  1.00  0.00     0.055 A 
ATOM     88  C   UNL     1     -19.547  -3.233   7.086  1.00  0.00     0.041 A 
ATOM     89  F   UNL     1     -17.499  -3.883   8.017  1.00  0.00    -0.206 F 
ATOM     90  C   UNL     1     -20.271  -2.613   6.072  1.00  0.00     0.022 A 
BRANCH  87  91
ATOM     91  S   UNL     1     -20.494  -1.171   3.696  1.00  0.00     0.124 S 
ATOM     92  O   UNL     1     -19.835   0.130   3.752  1.00  0.00    -0.237 OA
ATOM     93  O   UNL     1     -20.249  -1.958   2.491  1.00  0.00    -0.237 OA
ATOM     94  O   UNL     1     -21.875  -1.188   4.176  1.00  0.00    -0.744 OA
ENDBRANCH  87  91
ENDBRANCH  61  84
ENDBRANCH  35  36
ENDBRANCH  27  30
ENDBRANCH  25  26
ENDBRANCH  24  25
ENDBRANCH  23  24
ENDBRANCH   1  23
TORSDOF 19
