REMARK SMILES O=C(C[C@H]1C[N@@H+](Cc2c(F)cccc2F)CCO1)NCCCCNC(=O)c1ccc(-c2c3nc(c(-c4cc(S(=O)(=O)[O-])ccc4F)c4ccc([nH]4)c(-c4cc(S(=O)(=O)[O-])ccc4F)c4nc(c(-c5cc(S(=O)(=O)[O-])ccc5F)c5ccc2[nH]5)C=C4)C=C3)cc1
REMARK SMILES IDX 21 1 20 2 19 3 1 4 2 5 3 7 4 8 5 9 18 10 6 11 17 12 16 13
REMARK SMILES IDX 7 15 8 16 9 17 14 18 10 19 11 20 13 21 15 22 12 23 22 24
REMARK SMILES IDX 23 25 24 26 25 27 26 29 27 30 28 31 89 32 29 33 88 34 30 35
REMARK SMILES IDX 31 36 32 37 82 38 33 39 87 40 81 41 83 42 34 43 86 44 80 45
REMARK SMILES IDX 79 46 35 48 67 49 47 50 66 51 48 52 51 53 65 54 84 55 49 56
REMARK SMILES IDX 50 57 64 59 85 60 52 61 36 62 37 63 45 64 38 65 44 66 46 67
REMARK SMILES IDX 43 68 39 69 40 70 41 71 42 72 68 73 69 74 77 75 70 76 76 77
REMARK SMILES IDX 78 78 75 79 71 80 72 81 73 82 74 83 53 84 54 85 62 86 55 87
REMARK SMILES IDX 61 88 63 89 60 90 56 91 57 92 58 93 59 94
REMARK H PARENT 19 6 6 14 24 28 83 47 51 58
REMARK Flexibility Score: inf
ROOT
ATOM      1  C   UNL     1       8.791   3.292   2.542  1.00  0.00     0.023 C 
ENDROOT
BRANCH   1   2
ATOM      2  C   UNL     1       7.966   1.986   2.600  1.00  0.00     0.116 C 
BRANCH   2   3
ATOM      3  N   UNL     1       7.303   1.592   1.364  1.00  0.00    -0.356 N 
ATOM      4  O   UNL     1       6.171  -0.210   2.216  1.00  0.00    -0.275 OA
ATOM      5  C   UNL     1       6.353   0.590   1.300  1.00  0.00     0.222 C 
ATOM      6  H   UNL     1       7.543   2.062   0.533  1.00  0.00     0.163 HD
BRANCH   5   7
ATOM      7  C   UNL     1       5.426   0.611   0.082  1.00  0.00     0.138 C 
BRANCH   7   8
ATOM      8  C   UNL     1       4.088   1.359   0.324  1.00  0.00     0.182 C 
ATOM      9  C   UNL     1       4.052   2.227   1.600  1.00  0.00     0.295 C 
ATOM     10  O   UNL     1       3.740   2.137  -0.852  1.00  0.00    -0.366 OA
ATOM     11  N   UNL     1       4.109   3.674   1.361  1.00  0.00    -0.327 N 
ATOM     12  C   UNL     1       2.707   3.129  -0.634  1.00  0.00     0.222 C 
ATOM     13  C   UNL     1       2.916   4.025   0.606  1.00  0.00     0.291 C 
ATOM     14  H   UNL     1       4.114   4.147   2.264  1.00  0.00     0.348 HD
BRANCH  11  15
ATOM     15  C   UNL     1       5.371   4.212   0.817  1.00  0.00     0.305 C 
BRANCH  15  16
ATOM     16  C   UNL     1       5.631   4.425  -0.658  1.00  0.00     0.078 A 
ATOM     17  C   UNL     1       5.094   5.534  -1.309  1.00  0.00     0.135 A 
ATOM     18  C   UNL     1       6.468   3.617  -1.436  1.00  0.00     0.135 A 
ATOM     19  F   UNL     1       4.422   6.454  -0.605  1.00  0.00    -0.206 F 
ATOM     20  C   UNL     1       5.256   5.746  -2.679  1.00  0.00     0.040 A 
ATOM     21  C   UNL     1       6.612   3.781  -2.815  1.00  0.00     0.040 A 
ATOM     22  F   UNL     1       7.244   2.688  -0.873  1.00  0.00    -0.206 F 
ATOM     23  C   UNL     1       5.984   4.843  -3.447  1.00  0.00     0.006 A 
ENDBRANCH  15  16
ENDBRANCH  11  15
ENDBRANCH   7   8
ENDBRANCH   5   7
ENDBRANCH   2   3
ENDBRANCH   1   2
BRANCH   1  24
ATOM     24  C   UNL     1       8.120   4.684   2.637  1.00  0.00     0.023 C 
BRANCH  24  25
ATOM     25  C   UNL     1       7.047   4.926   3.712  1.00  0.00     0.116 C 
BRANCH  25  26
ATOM     26  N   UNL     1       7.629   5.096   5.030  1.00  0.00    -0.352 N 
ATOM     27  C   UNL     1       7.543   6.128   5.938  1.00  0.00     0.251 C 
ATOM     28  H   UNL     1       8.185   4.341   5.328  1.00  0.00     0.163 HD
ATOM     29  O   UNL     1       8.336   6.122   6.881  1.00  0.00    -0.269 OA
BRANCH  27  30
ATOM     30  C   UNL     1       6.556   7.242   5.834  1.00  0.00     0.039 A 
ATOM     31  C   UNL     1       6.953   8.514   6.273  1.00  0.00     0.014 A 
ATOM     32  C   UNL     1       5.226   7.056   5.443  1.00  0.00     0.014 A 
ATOM     33  C   UNL     1       6.051   9.589   6.284  1.00  0.00     0.010 A 
ATOM     34  C   UNL     1       4.332   8.144   5.419  1.00  0.00     0.010 A 
ATOM     35  C   UNL     1       4.731   9.427   5.834  1.00  0.00    -0.014 A 
BRANCH  35  36
ATOM     36  C   UNL     1       3.792  10.592   5.774  1.00  0.00     0.031 A 
ATOM     37  C   UNL     1       2.562  10.655   6.647  1.00  0.00     0.074 A 
ATOM     38  C   UNL     1       4.029  11.601   4.908  1.00  0.00     0.049 A 
ATOM     39  N   UNL     1       1.613  11.560   6.683  1.00  0.00    -0.248 NA
ATOM     40  C   UNL     1       2.368   9.548   7.591  1.00  0.00     0.031 C 
ATOM     41  C   UNL     1       5.173  11.673   3.998  1.00  0.00     0.029 A 
ATOM     42  N   UNL     1       3.324  12.752   4.641  1.00  0.00    -0.354 N 
ATOM     43  C   UNL     1       0.706  11.132   7.649  1.00  0.00     0.074 A 
ATOM     44  C   UNL     1       1.199   9.858   8.135  1.00  0.00     0.031 C 
ATOM     45  C   UNL     1       5.098  12.809   3.286  1.00  0.00     0.029 A 
ATOM     46  C   UNL     1       3.877  13.524   3.645  1.00  0.00     0.049 A 
ATOM     47  H   UNL     1       2.499  13.000   5.119  1.00  0.00     0.167 HD
ATOM     48  C   UNL     1      -0.420  11.746   8.099  1.00  0.00     0.034 A 
ATOM     49  C   UNL     1       3.448  14.664   3.063  1.00  0.00     0.034 A 
ATOM     50  C   UNL     1      -0.909  13.014   7.605  1.00  0.00     0.049 A 
ATOM     51  C   UNL     1       2.162  15.296   3.535  1.00  0.00     0.074 A 
ATOM     52  C   UNL     1      -2.019  13.732   8.023  1.00  0.00     0.029 A 
ATOM     53  N   UNL     1      -0.333  13.751   6.577  1.00  0.00    -0.354 N 
ATOM     54  N   UNL     1       1.336  14.890   4.471  1.00  0.00    -0.248 NA
ATOM     55  C   UNL     1       1.756  16.547   2.878  1.00  0.00     0.031 C 
ATOM     56  C   UNL     1      -2.158  14.854   7.199  1.00  0.00     0.029 A 
ATOM     57  C   UNL     1      -1.085  14.891   6.324  1.00  0.00     0.049 A 
ATOM     58  H   UNL     1       0.490  13.501   6.098  1.00  0.00     0.167 HD
ATOM     59  C   UNL     1       0.331  15.854   4.535  1.00  0.00     0.074 A 
ATOM     60  C   UNL     1       0.663  16.867   3.555  1.00  0.00     0.031 C 
ATOM     61  C   UNL     1      -0.763  15.897   5.337  1.00  0.00     0.034 A 
BRANCH  48  62
ATOM     62  C   UNL     1      -1.225  11.033   9.165  1.00  0.00     0.023 A 
ATOM     63  C   UNL     1      -0.690  10.760  10.436  1.00  0.00     0.031 A 
ATOM     64  C   UNL     1      -2.542  10.611   8.905  1.00  0.00     0.131 A 
ATOM     65  C   UNL     1      -1.435  10.019  11.367  1.00  0.00     0.055 A 
ATOM     66  C   UNL     1      -3.310   9.950   9.867  1.00  0.00     0.041 A 
ATOM     67  F   UNL     1      -3.106  10.828   7.707  1.00  0.00    -0.206 F 
ATOM     68  C   UNL     1      -2.751   9.635  11.102  1.00  0.00     0.022 A 
BRANCH  65  69
ATOM     69  S   UNL     1      -0.605   9.430  12.869  1.00  0.00     0.124 S 
ATOM     70  O   UNL     1       0.506   8.664  12.311  1.00  0.00    -0.237 OA
ATOM     71  O   UNL     1      -0.248  10.677  13.541  1.00  0.00    -0.237 OA
ATOM     72  O   UNL     1      -1.629   8.633  13.538  1.00  0.00    -0.744 OA
ENDBRANCH  65  69
ENDBRANCH  48  62
BRANCH  49  73
ATOM     73  C   UNL     1       4.221  15.274   1.940  1.00  0.00     0.023 A 
ATOM     74  C   UNL     1       4.794  16.550   2.056  1.00  0.00     0.031 A 
ATOM     75  C   UNL     1       4.355  14.603   0.710  1.00  0.00     0.131 A 
ATOM     76  C   UNL     1       5.434  17.134   0.951  1.00  0.00     0.055 A 
ATOM     77  C   UNL     1       5.045  15.163  -0.366  1.00  0.00     0.041 A 
ATOM     78  F   UNL     1       3.824  13.381   0.541  1.00  0.00    -0.206 F 
ATOM     79  C   UNL     1       5.578  16.442  -0.254  1.00  0.00     0.022 A 
BRANCH  76  80
ATOM     80  S   UNL     1       5.995  18.855   1.079  1.00  0.00     0.124 S 
ATOM     81  O   UNL     1       4.754  19.549   1.396  1.00  0.00    -0.237 OA
ATOM     82  O   UNL     1       6.979  18.773   2.154  1.00  0.00    -0.237 OA
ATOM     83  O   UNL     1       6.547  19.132  -0.246  1.00  0.00    -0.744 OA
ENDBRANCH  76  80
ENDBRANCH  49  73
BRANCH  61  84
ATOM     84  C   UNL     1      -1.659  17.110   5.222  1.00  0.00     0.023 A 
ATOM     85  C   UNL     1      -2.389  17.391   4.053  1.00  0.00     0.031 A 
ATOM     86  C   UNL     1      -1.774  18.008   6.300  1.00  0.00     0.131 A 
ATOM     87  C   UNL     1      -3.152  18.567   3.967  1.00  0.00     0.055 A 
ATOM     88  C   UNL     1      -2.587  19.141   6.232  1.00  0.00     0.041 A 
ATOM     89  F   UNL     1      -1.098  17.797   7.440  1.00  0.00    -0.206 F 
ATOM     90  C   UNL     1      -3.271  19.433   5.056  1.00  0.00     0.022 A 
BRANCH  87  91
ATOM     91  S   UNL     1      -3.911  19.003   2.377  1.00  0.00     0.124 S 
ATOM     92  O   UNL     1      -2.751  19.062   1.494  1.00  0.00    -0.237 OA
ATOM     93  O   UNL     1      -4.827  17.890   2.153  1.00  0.00    -0.237 OA
ATOM     94  O   UNL     1      -4.553  20.288   2.644  1.00  0.00    -0.744 OA
ENDBRANCH  87  91
ENDBRANCH  61  84
ENDBRANCH  35  36
ENDBRANCH  27  30
ENDBRANCH  25  26
ENDBRANCH  24  25
ENDBRANCH   1  24
TORSDOF 17
