REMARK SMILES Cc1cccc(OCC(=O)Nc2cc(C(=O)NCCCCNC(=O)c3ccc(-c4c5nc(c(-c6cc(S(=O)(=O)[O-])ccc6F)c6ccc([nH]6)c(-c6cc(S(=O)(=O)[O-])ccc6F)c6nc(c(-c7cc(S(=O)(=O)[O-])ccc7F)c7ccc4[nH]7)C=C6)C=C5)cc3)c(Cl)cc2Cl)c1
REMARK SMILES IDX 19 1 18 2 17 3 15 4 16 5 14 7 12 8 13 9 91 10 90 11 92 12
REMARK SMILES IDX 88 13 89 14 11 15 9 16 10 17 8 19 7 20 6 21 1 22 2 23 3 24
REMARK SMILES IDX 93 25 4 26 5 27 20 28 21 29 22 30 23 31 24 33 25 34 26 35
REMARK SMILES IDX 87 36 27 37 86 38 28 39 29 40 30 41 80 42 31 43 85 44 79 45
REMARK SMILES IDX 81 46 32 47 84 48 78 49 77 50 33 52 65 53 45 54 64 55 46 56
REMARK SMILES IDX 49 57 63 58 82 59 47 60 48 61 62 63 83 64 50 65 34 66 35 67
REMARK SMILES IDX 43 68 36 69 42 70 44 71 41 72 37 73 38 74 39 75 40 76 66 77
REMARK SMILES IDX 67 78 75 79 68 80 74 81 76 82 73 83 69 84 70 85 71 86 72 87
REMARK SMILES IDX 51 88 52 89 60 90 53 91 59 92 61 93 58 94 54 95 55 96 56 97
REMARK SMILES IDX 57 98
REMARK H PARENT 17 6 11 18 22 32 81 51 49 62
REMARK Flexibility Score: inf
ROOT
ATOM      1  C   UNL     1      -3.748  -1.319   1.178  1.00  0.00     0.023 C 
ENDROOT
BRANCH   1   2
ATOM      2  C   UNL     1      -3.875   0.143   0.726  1.00  0.00     0.116 C 
BRANCH   2   3
ATOM      3  N   UNL     1      -5.189   0.737   0.854  1.00  0.00    -0.352 N 
ATOM      4  C   UNL     1      -5.591   1.949   1.373  1.00  0.00     0.252 C 
ATOM      5  O   UNL     1      -6.740   2.310   1.118  1.00  0.00    -0.269 OA
ATOM      6  H   UNL     1      -5.923   0.179   0.509  1.00  0.00     0.163 HD
BRANCH   4   7
ATOM      7  C   UNL     1      -4.740   2.815   2.252  1.00  0.00     0.060 A 
ATOM      8  C   UNL     1      -2.620   3.941   2.787  1.00  0.00     0.061 A 
ATOM      9  C   UNL     1      -3.401   3.152   1.926  1.00  0.00     0.043 A 
ATOM     10  C   UNL     1      -3.233   4.467   3.945  1.00  0.00     0.066 A 
ATOM     11  C   UNL     1      -4.569   4.221   4.234  1.00  0.00     0.044 A 
ATOM     12  Cl  UNL     1      -2.354   5.473   5.055  1.00  0.00    -0.082 Cl
ATOM     13  C   UNL     1      -5.318   3.385   3.405  1.00  0.00     0.055 A 
ATOM     14  Cl  UNL     1      -6.943   3.093   3.933  1.00  0.00    -0.083 Cl
BRANCH   8  15
ATOM     15  N   UNL     1      -1.256   4.256   2.631  1.00  0.00    -0.322 N 
ATOM     16  C   UNL     1      -0.293   4.148   1.680  1.00  0.00     0.262 C 
ATOM     17  O   UNL     1       0.821   4.589   1.999  1.00  0.00    -0.271 OA
ATOM     18  H   UNL     1      -0.897   4.675   3.447  1.00  0.00     0.170 HD
BRANCH  16  19
ATOM     19  C   UNL     1      -0.545   3.639   0.267  1.00  0.00     0.329 C 
BRANCH  19  20
ATOM     20  O   UNL     1      -0.909   2.292   0.076  1.00  0.00    -0.484 OA
BRANCH  20  21
ATOM     21  C   UNL     1      -0.120   1.308   0.592  1.00  0.00     0.120 A 
ATOM     22  C   UNL     1       3.297   0.219   1.789  1.00  0.00     0.044 C 
ATOM     23  C   UNL     1       1.815   0.238   1.572  1.00  0.00    -0.047 A 
ATOM     24  C   UNL     1       1.130  -0.980   1.643  1.00  0.00     0.003 A 
ATOM     25  C   UNL     1       1.163   1.399   1.105  1.00  0.00     0.049 A 
ATOM     26  C   UNL     1      -0.142  -1.071   1.122  1.00  0.00     0.004 A 
ATOM     27  C   UNL     1      -0.704   0.051   0.525  1.00  0.00     0.046 A 
ENDBRANCH  20  21
ENDBRANCH  19  20
ENDBRANCH  16  19
ENDBRANCH   8  15
ENDBRANCH   4   7
ENDBRANCH   2   3
ENDBRANCH   1   2
BRANCH   1  28
ATOM     28  C   UNL     1      -3.566  -2.455   0.150  1.00  0.00     0.023 C 
BRANCH  28  29
ATOM     29  C   UNL     1      -2.884  -2.253  -1.209  1.00  0.00     0.116 C 
BRANCH  29  30
ATOM     30  N   UNL     1      -1.589  -2.878  -1.481  1.00  0.00    -0.352 N 
ATOM     31  C   UNL     1      -1.016  -3.228  -2.707  1.00  0.00     0.251 C 
ATOM     32  H   UNL     1      -1.043  -3.082  -0.687  1.00  0.00     0.163 HD
ATOM     33  O   UNL     1      -0.020  -3.946  -2.745  1.00  0.00    -0.269 OA
BRANCH  31  34
ATOM     34  C   UNL     1      -1.520  -2.631  -3.973  1.00  0.00     0.039 A 
ATOM     35  C   UNL     1      -0.588  -2.186  -4.927  1.00  0.00     0.014 A 
ATOM     36  C   UNL     1      -2.852  -2.279  -4.108  1.00  0.00     0.014 A 
ATOM     37  C   UNL     1      -0.941  -1.169  -5.808  1.00  0.00     0.010 A 
ATOM     38  C   UNL     1      -3.152  -1.155  -4.813  1.00  0.00     0.010 A 
ATOM     39  C   UNL     1      -2.174  -0.571  -5.614  1.00  0.00    -0.014 A 
BRANCH  39  40
ATOM     40  C   UNL     1      -2.618   0.691  -6.158  1.00  0.00     0.031 A 
ATOM     41  C   UNL     1      -3.537   0.642  -7.299  1.00  0.00     0.074 A 
ATOM     42  C   UNL     1      -2.500   1.722  -5.294  1.00  0.00     0.049 A 
ATOM     43  N   UNL     1      -3.888   1.647  -8.011  1.00  0.00    -0.248 NA
ATOM     44  C   UNL     1      -4.122  -0.618  -7.759  1.00  0.00     0.031 C 
ATOM     45  C   UNL     1      -3.287   2.940  -5.166  1.00  0.00     0.029 A 
ATOM     46  N   UNL     1      -1.459   1.898  -4.385  1.00  0.00    -0.354 N 
ATOM     47  C   UNL     1      -4.989   1.249  -8.743  1.00  0.00     0.074 A 
ATOM     48  C   UNL     1      -4.982  -0.188  -8.682  1.00  0.00     0.031 C 
ATOM     49  C   UNL     1      -2.587   3.829  -4.429  1.00  0.00     0.029 A 
ATOM     50  C   UNL     1      -1.245   3.275  -4.265  1.00  0.00     0.049 A 
ATOM     51  H   UNL     1      -0.967   1.187  -3.915  1.00  0.00     0.167 HD
ATOM     52  C   UNL     1      -5.886   2.198  -9.131  1.00  0.00     0.034 A 
ATOM     53  C   UNL     1      -0.125   3.806  -4.855  1.00  0.00     0.034 A 
ATOM     54  C   UNL     1      -5.409   3.523  -8.714  1.00  0.00     0.049 A 
ATOM     55  C   UNL     1      -0.457   4.734  -6.008  1.00  0.00     0.074 A 
ATOM     56  C   UNL     1      -5.744   4.342  -7.648  1.00  0.00     0.029 A 
ATOM     57  N   UNL     1      -4.201   3.999  -9.208  1.00  0.00    -0.354 N 
ATOM     58  N   UNL     1      -1.558   4.687  -6.707  1.00  0.00    -0.248 NA
ATOM     59  C   UNL     1       0.458   5.774  -6.459  1.00  0.00     0.031 C 
ATOM     60  C   UNL     1      -4.672   5.258  -7.453  1.00  0.00     0.029 A 
ATOM     61  C   UNL     1      -3.709   5.022  -8.422  1.00  0.00     0.049 A 
ATOM     62  H   UNL     1      -3.754   3.651 -10.014  1.00  0.00     0.167 HD
ATOM     63  C   UNL     1      -1.482   5.588  -7.736  1.00  0.00     0.074 A 
ATOM     64  C   UNL     1      -0.229   6.287  -7.491  1.00  0.00     0.031 C 
ATOM     65  C   UNL     1      -2.421   5.635  -8.732  1.00  0.00     0.034 A 
BRANCH  52  66
ATOM     66  C   UNL     1      -7.312   1.957  -9.593  1.00  0.00     0.023 A 
ATOM     67  C   UNL     1      -8.193   3.059  -9.606  1.00  0.00     0.031 A 
ATOM     68  C   UNL     1      -7.896   0.733  -9.981  1.00  0.00     0.131 A 
ATOM     69  C   UNL     1      -9.559   2.919  -9.913  1.00  0.00     0.055 A 
ATOM     70  C   UNL     1      -9.262   0.586 -10.267  1.00  0.00     0.041 A 
ATOM     71  F   UNL     1      -7.189  -0.387 -10.147  1.00  0.00    -0.206 F 
ATOM     72  C   UNL     1     -10.105   1.681 -10.228  1.00  0.00     0.022 A 
BRANCH  69  73
ATOM     73  S   UNL     1     -10.612   4.391  -9.892  1.00  0.00     0.124 S 
ATOM     74  O   UNL     1     -10.549   4.792  -8.490  1.00  0.00    -0.237 OA
ATOM     75  O   UNL     1      -9.941   5.266 -10.847  1.00  0.00    -0.237 OA
ATOM     76  O   UNL     1     -11.911   3.883 -10.330  1.00  0.00    -0.744 OA
ENDBRANCH  69  73
ENDBRANCH  52  66
BRANCH  53  77
ATOM     77  C   UNL     1       1.017   2.826  -4.926  1.00  0.00     0.023 A 
ATOM     78  C   UNL     1       1.537   2.293  -3.728  1.00  0.00     0.031 A 
ATOM     79  C   UNL     1       1.279   2.127  -6.118  1.00  0.00     0.131 A 
ATOM     80  C   UNL     1       2.137   1.021  -3.737  1.00  0.00     0.055 A 
ATOM     81  C   UNL     1       1.919   0.884  -6.117  1.00  0.00     0.041 A 
ATOM     82  F   UNL     1       0.810   2.574  -7.292  1.00  0.00    -0.206 F 
ATOM     83  C   UNL     1       2.311   0.303  -4.918  1.00  0.00     0.022 A 
BRANCH  80  84
ATOM     84  S   UNL     1       2.561   0.228  -2.171  1.00  0.00     0.124 S 
ATOM     85  O   UNL     1       2.944   1.354  -1.345  1.00  0.00    -0.237 OA
ATOM     86  O   UNL     1       1.294  -0.437  -1.855  1.00  0.00    -0.237 OA
ATOM     87  O   UNL     1       3.660  -0.674  -2.532  1.00  0.00    -0.744 OA
ENDBRANCH  80  84
ENDBRANCH  53  77
BRANCH  65  88
ATOM     88  C   UNL     1      -2.209   6.303 -10.076  1.00  0.00     0.023 A 
ATOM     89  C   UNL     1      -0.961   6.784 -10.488  1.00  0.00     0.031 A 
ATOM     90  C   UNL     1      -3.244   6.428 -11.033  1.00  0.00     0.131 A 
ATOM     91  C   UNL     1      -0.802   7.485 -11.691  1.00  0.00     0.055 A 
ATOM     92  C   UNL     1      -3.056   7.012 -12.291  1.00  0.00     0.041 A 
ATOM     93  F   UNL     1      -4.487   5.980 -10.804  1.00  0.00    -0.206 F 
ATOM     94  C   UNL     1      -1.835   7.581 -12.614  1.00  0.00     0.022 A 
BRANCH  91  95
ATOM     95  S   UNL     1       0.754   8.375 -11.934  1.00  0.00     0.124 S 
ATOM     96  O   UNL     1       0.759   9.281 -10.787  1.00  0.00    -0.237 OA
ATOM     97  O   UNL     1       1.740   7.302 -11.893  1.00  0.00    -0.237 OA
ATOM     98  O   UNL     1       0.582   9.019 -13.233  1.00  0.00    -0.744 OA
ENDBRANCH  91  95
ENDBRANCH  65  88
ENDBRANCH  39  40
ENDBRANCH  31  34
ENDBRANCH  29  30
ENDBRANCH  28  29
ENDBRANCH   1  28
TORSDOF 18
