REMARK SMILES CC(C)[C@@H](NC(=O)N[C@H]1CCS(=O)(=O)C1)C(=O)NCCCCNC(=O)c1ccc(-c2c3nc(c(-c4cc(S(=O)(=O)[O-])ccc4F)c4ccc([nH]4)c(-c4cc(S(=O)(=O)[O-])ccc4F)c4nc(c(-c5cc(S(=O)(=O)[O-])ccc5F)c5ccc2[nH]5)C=C4)C=C3)cc1
REMARK SMILES IDX 21 1 20 2 19 3 18 4 16 5 17 6 4 8 2 9 1 10 3 11 5 12 6 13
REMARK SMILES IDX 7 15 8 16 9 18 10 19 15 20 11 21 12 22 13 23 14 24 22 25
REMARK SMILES IDX 23 26 24 27 25 29 26 30 27 31 88 32 28 33 87 34 29 35 30 36
REMARK SMILES IDX 31 37 81 38 32 39 86 40 80 41 82 42 33 43 85 44 79 45 78 46
REMARK SMILES IDX 34 48 66 49 46 50 65 51 47 52 50 53 64 54 83 55 48 56 49 57
REMARK SMILES IDX 63 59 84 60 51 61 35 62 36 63 44 64 37 65 43 66 45 67 42 68
REMARK SMILES IDX 38 69 39 70 40 71 41 72 67 73 68 74 76 75 69 76 75 77 77 78
REMARK SMILES IDX 74 79 70 80 71 81 72 82 73 83 52 84 53 85 61 86 54 87 60 88
REMARK SMILES IDX 62 89 59 90 55 91 56 92 57 93 58 94
REMARK H PARENT 18 7 5 14 8 17 23 28 82 47 50 58
REMARK Flexibility Score: inf
ROOT
ATOM      1  C   UNL     1      -6.708   2.494  -2.434  1.00  0.00     0.023 C 
ENDROOT
BRANCH   1   2
ATOM      2  C   UNL     1      -6.541   1.830  -3.813  1.00  0.00     0.023 C 
BRANCH   2   3
ATOM      3  C   UNL     1      -5.190   2.106  -4.469  1.00  0.00     0.116 C 
BRANCH   3   4
ATOM      4  N   UNL     1      -4.183   1.617  -3.558  1.00  0.00    -0.354 N 
ATOM      5  C   UNL     1      -3.126   0.769  -3.663  1.00  0.00     0.242 C 
ATOM      6  O   UNL     1      -2.744   0.095  -2.710  1.00  0.00    -0.273 OA
ATOM      7  H   UNL     1      -4.286   1.983  -2.650  1.00  0.00     0.163 HD
BRANCH   5   8
ATOM      8  C   UNL     1      -2.368   0.665  -4.945  1.00  0.00     0.175 C 
BRANCH   8   9
ATOM      9  C   UNL     1      -3.206  -0.306  -5.839  1.00  0.00     0.015 C 
ATOM     10  C   UNL     1      -2.576  -0.710  -7.166  1.00  0.00     0.010 C 
ATOM     11  C   UNL     1      -3.507  -1.605  -5.046  1.00  0.00     0.010 C 
ENDBRANCH   8   9
BRANCH   8  12
ATOM     12  N   UNL     1      -2.185   2.075  -5.282  1.00  0.00    -0.326 N 
ATOM     13  C   UNL     1      -1.873   3.157  -4.539  1.00  0.00     0.315 C 
ATOM     14  H   UNL     1      -2.314   2.275  -6.238  1.00  0.00     0.166 HD
ATOM     15  O   UNL     1      -1.740   4.212  -5.174  1.00  0.00    -0.249 OA
ATOM     16  N   UNL     1      -1.770   3.292  -3.201  1.00  0.00    -0.334 N 
ATOM     17  H   UNL     1      -1.946   4.244  -3.023  1.00  0.00     0.165 HD
BRANCH  16  18
ATOM     18  C   UNL     1      -1.512   2.669  -1.832  1.00  0.00     0.099 C 
ATOM     19  C   UNL     1      -2.575   2.086  -0.831  1.00  0.00     0.042 C 
ATOM     20  C   UNL     1      -0.181   1.946  -1.702  1.00  0.00     0.161 C 
ATOM     21  C   UNL     1      -2.062   0.803  -0.168  1.00  0.00     0.139 C 
ATOM     22  S   UNL     1      -0.301   0.864  -0.293  1.00  0.00     0.152 S 
ATOM     23  O   UNL     1       0.187   1.584   0.873  1.00  0.00    -0.229 OA
ATOM     24  O   UNL     1       0.218  -0.432  -0.657  1.00  0.00    -0.229 OA
ENDBRANCH  16  18
ENDBRANCH   8  12
ENDBRANCH   5   8
ENDBRANCH   3   4
ENDBRANCH   2   3
ENDBRANCH   1   2
BRANCH   1  25
ATOM     25  C   UNL     1      -6.520   4.010  -2.435  1.00  0.00     0.116 C 
BRANCH  25  26
ATOM     26  N   UNL     1      -7.441   4.652  -3.357  1.00  0.00    -0.352 N 
ATOM     27  C   UNL     1      -8.583   5.362  -3.088  1.00  0.00     0.251 C 
ATOM     28  H   UNL     1      -7.213   4.564  -4.310  1.00  0.00     0.163 HD
ATOM     29  O   UNL     1      -9.405   5.548  -3.980  1.00  0.00    -0.269 OA
BRANCH  27  30
ATOM     30  C   UNL     1      -8.822   5.886  -1.726  1.00  0.00     0.039 A 
ATOM     31  C   UNL     1     -10.088   5.743  -1.155  1.00  0.00     0.014 A 
ATOM     32  C   UNL     1      -7.800   6.530  -1.022  1.00  0.00     0.014 A 
ATOM     33  C   UNL     1     -10.308   6.179   0.154  1.00  0.00     0.010 A 
ATOM     34  C   UNL     1      -8.002   6.904   0.304  1.00  0.00     0.010 A 
ATOM     35  C   UNL     1      -9.255   6.722   0.909  1.00  0.00    -0.014 A 
BRANCH  35  36
ATOM     36  C   UNL     1      -9.430   7.066   2.345  1.00  0.00     0.031 A 
ATOM     37  C   UNL     1      -9.294   8.489   2.808  1.00  0.00     0.074 A 
ATOM     38  C   UNL     1      -9.636   6.080   3.240  1.00  0.00     0.049 A 
ATOM     39  N   UNL     1      -9.302   8.966   4.027  1.00  0.00    -0.248 NA
ATOM     40  C   UNL     1      -9.101   9.503   1.763  1.00  0.00     0.031 C 
ATOM     41  C   UNL     1      -9.774   4.660   2.913  1.00  0.00     0.029 A 
ATOM     42  N   UNL     1      -9.755   6.118   4.607  1.00  0.00    -0.354 N 
ATOM     43  C   UNL     1      -9.114  10.338   3.898  1.00  0.00     0.074 A 
ATOM     44  C   UNL     1      -8.931  10.601   2.485  1.00  0.00     0.031 C 
ATOM     45  C   UNL     1      -9.983   3.967   4.043  1.00  0.00     0.029 A 
ATOM     46  C   UNL     1      -9.930   4.880   5.180  1.00  0.00     0.049 A 
ATOM     47  H   UNL     1      -9.718   6.952   5.128  1.00  0.00     0.167 HD
ATOM     48  C   UNL     1      -9.117  11.290   4.865  1.00  0.00     0.034 A 
ATOM     49  C   UNL     1     -10.013   4.515   6.475  1.00  0.00     0.034 A 
ATOM     50  C   UNL     1      -9.288  11.005   6.271  1.00  0.00     0.049 A 
ATOM     51  C   UNL     1      -9.912   5.578   7.540  1.00  0.00     0.074 A 
ATOM     52  C   UNL     1      -9.342  11.895   7.330  1.00  0.00     0.029 A 
ATOM     53  N   UNL     1      -9.414   9.734   6.818  1.00  0.00    -0.354 N 
ATOM     54  N   UNL     1      -9.772   6.876   7.401  1.00  0.00    -0.248 NA
ATOM     55  C   UNL     1      -9.977   5.126   8.936  1.00  0.00     0.031 C 
ATOM     56  C   UNL     1      -9.413  11.161   8.518  1.00  0.00     0.029 A 
ATOM     57  C   UNL     1      -9.496   9.815   8.200  1.00  0.00     0.049 A 
ATOM     58  H   UNL     1      -9.441   8.898   6.299  1.00  0.00     0.167 HD
ATOM     59  C   UNL     1      -9.763   7.397   8.692  1.00  0.00     0.074 A 
ATOM     60  C   UNL     1      -9.924   6.275   9.594  1.00  0.00     0.031 C 
ATOM     61  C   UNL     1      -9.639   8.688   9.094  1.00  0.00     0.034 A 
BRANCH  48  62
ATOM     62  C   UNL     1      -8.892  12.720   4.431  1.00  0.00     0.023 A 
ATOM     63  C   UNL     1      -9.773  13.367   3.547  1.00  0.00     0.031 A 
ATOM     64  C   UNL     1      -7.766  13.436   4.875  1.00  0.00     0.131 A 
ATOM     65  C   UNL     1      -9.467  14.647   3.063  1.00  0.00     0.055 A 
ATOM     66  C   UNL     1      -7.517  14.747   4.463  1.00  0.00     0.041 A 
ATOM     67  F   UNL     1      -6.876  12.868   5.704  1.00  0.00    -0.206 F 
ATOM     68  C   UNL     1      -8.360  15.354   3.536  1.00  0.00     0.022 A 
BRANCH  65  69
ATOM     69  S   UNL     1     -10.437  15.298   1.675  1.00  0.00     0.124 S 
ATOM     70  O   UNL     1     -10.258  14.250   0.673  1.00  0.00    -0.237 OA
ATOM     71  O   UNL     1     -11.773  15.410   2.250  1.00  0.00    -0.237 OA
ATOM     72  O   UNL     1      -9.781  16.566   1.363  1.00  0.00    -0.744 OA
ENDBRANCH  65  69
ENDBRANCH  48  62
BRANCH  49  73
ATOM     73  C   UNL     1     -10.181   3.080   6.845  1.00  0.00     0.023 A 
ATOM     74  C   UNL     1     -11.332   2.643   7.517  1.00  0.00     0.031 A 
ATOM     75  C   UNL     1      -9.180   2.132   6.566  1.00  0.00     0.131 A 
ATOM     76  C   UNL     1     -11.437   1.304   7.926  1.00  0.00     0.055 A 
ATOM     77  C   UNL     1      -9.315   0.790   6.923  1.00  0.00     0.041 A 
ATOM     78  F   UNL     1      -8.057   2.497   5.925  1.00  0.00    -0.206 F 
ATOM     79  C   UNL     1     -10.444   0.372   7.619  1.00  0.00     0.022 A 
BRANCH  76  80
ATOM     80  S   UNL     1     -12.856   0.820   8.946  1.00  0.00     0.124 S 
ATOM     81  O   UNL     1     -12.707   1.702  10.098  1.00  0.00    -0.237 OA
ATOM     82  O   UNL     1     -13.978   1.106   8.059  1.00  0.00    -0.237 OA
ATOM     83  O   UNL     1     -12.617  -0.598   9.209  1.00  0.00    -0.744 OA
ENDBRANCH  76  80
ENDBRANCH  49  73
BRANCH  61  84
ATOM     84  C   UNL     1      -9.707   8.960  10.577  1.00  0.00     0.023 A 
ATOM     85  C   UNL     1      -8.705   8.518  11.459  1.00  0.00     0.031 A 
ATOM     86  C   UNL     1     -10.787   9.684  11.114  1.00  0.00     0.131 A 
ATOM     87  C   UNL     1      -8.824   8.769  12.834  1.00  0.00     0.055 A 
ATOM     88  C   UNL     1     -10.868   9.985  12.474  1.00  0.00     0.041 A 
ATOM     89  F   UNL     1     -11.776  10.126  10.320  1.00  0.00    -0.206 F 
ATOM     90  C   UNL     1      -9.888   9.518  13.345  1.00  0.00     0.022 A 
BRANCH  87  91
ATOM     91  S   UNL     1      -7.606   8.038  13.963  1.00  0.00     0.124 S 
ATOM     92  O   UNL     1      -7.785   6.611  13.717  1.00  0.00    -0.237 OA
ATOM     93  O   UNL     1      -6.353   8.615  13.488  1.00  0.00    -0.237 OA
ATOM     94  O   UNL     1      -8.040   8.500  15.281  1.00  0.00    -0.744 OA
ENDBRANCH  87  91
ENDBRANCH  61  84
ENDBRANCH  35  36
ENDBRANCH  27  30
ENDBRANCH  25  26
ENDBRANCH   1  25
TORSDOF 17
