REMARK SMILES O=C(NCCCCNC(=O)c1cc([C@@H]2C=NN=C2c2ccc(F)cc2)c2c(ccc3ccccc32)n1)c1ccc(-c2c3nc(c(-c4cc(S(=O)(=O)[O-])ccc4F)c4ccc([nH]4)c(-c4cc(S(=O)(=O)[O-])ccc4F)c4nc(c(-c5cc(S(=O)(=O)[O-])ccc5F)c5ccc2[nH]5)C=C4)C=C3)cc1
REMARK SMILES IDX 5 1 4 2 3 3 1 4 2 5 37 7 38 8 99 9 39 10 98 11 40 12 41 13
REMARK SMILES IDX 42 14 92 15 43 16 97 17 91 18 93 19 44 20 96 21 90 22 89 23
REMARK SMILES IDX 45 25 77 26 57 27 76 28 58 29 61 30 75 31 94 32 59 33 60 34
REMARK SMILES IDX 74 36 95 37 62 38 46 39 47 40 55 41 48 42 54 43 56 44 53 45
REMARK SMILES IDX 49 46 50 47 51 48 52 49 78 50 79 51 87 52 80 53 86 54 88 55
REMARK SMILES IDX 85 56 81 57 82 58 83 59 84 60 63 61 64 62 72 63 65 64 71 65
REMARK SMILES IDX 73 66 70 67 66 68 67 69 68 70 69 71 6 72 7 73 8 74 9 75
REMARK SMILES IDX 10 77 11 78 12 79 36 80 13 81 27 82 26 83 28 84 35 85 29 86
REMARK SMILES IDX 30 87 34 88 31 89 33 90 32 91 14 92 15 93 18 94 16 95 17 96
REMARK SMILES IDX 19 97 20 98 25 99 21 100 24 101 22 102 23 103
REMARK H PARENT 3 6 93 24 61 35 8 76
REMARK Flexibility Score: inf
ROOT
ATOM      1  C   UNL     1       4.985   2.157   0.597  1.00  0.00     0.023 C 
ENDROOT
BRANCH   1   2
ATOM      2  C   UNL     1       4.683   0.678   0.834  1.00  0.00     0.116 C 
BRANCH   2   3
ATOM      3  N   UNL     1       3.277   0.356   0.963  1.00  0.00    -0.352 N 
ATOM      4  O   UNL     1       1.216  -0.318   0.551  1.00  0.00    -0.269 OA
ATOM      5  C   UNL     1       2.269   0.112   0.069  1.00  0.00     0.251 C 
ATOM      6  H   UNL     1       2.981   0.299   1.900  1.00  0.00     0.163 HD
BRANCH   5   7
ATOM      7  C   UNL     1       2.333   0.393  -1.392  1.00  0.00     0.039 A 
ATOM      8  C   UNL     1       3.496   0.575  -2.140  1.00  0.00     0.014 A 
ATOM      9  C   UNL     1       1.091   0.493  -2.048  1.00  0.00     0.014 A 
ATOM     10  C   UNL     1       3.420   0.937  -3.485  1.00  0.00     0.010 A 
ATOM     11  C   UNL     1       1.009   0.842  -3.392  1.00  0.00     0.010 A 
ATOM     12  C   UNL     1       2.176   1.095  -4.106  1.00  0.00    -0.014 A 
BRANCH  12  13
ATOM     13  C   UNL     1       2.139   1.307  -5.555  1.00  0.00     0.031 A 
ATOM     14  C   UNL     1       2.681   0.159  -6.341  1.00  0.00     0.074 A 
ATOM     15  C   UNL     1       1.531   2.348  -6.164  1.00  0.00     0.049 A 
ATOM     16  N   UNL     1       3.705   0.144  -7.129  1.00  0.00    -0.248 NA
ATOM     17  C   UNL     1       2.092  -1.173  -6.117  1.00  0.00     0.031 C 
ATOM     18  C   UNL     1       0.741   3.417  -5.551  1.00  0.00     0.029 A 
ATOM     19  N   UNL     1       1.414   2.618  -7.498  1.00  0.00    -0.354 N 
ATOM     20  C   UNL     1       3.763  -1.138  -7.671  1.00  0.00     0.074 A 
ATOM     21  C   UNL     1       2.860  -1.941  -6.891  1.00  0.00     0.031 C 
ATOM     22  C   UNL     1       0.051   4.075  -6.512  1.00  0.00     0.029 A 
ATOM     23  C   UNL     1       0.441   3.566  -7.818  1.00  0.00     0.049 A 
ATOM     24  H   UNL     1       1.972   2.178  -8.180  1.00  0.00     0.167 HD
ATOM     25  C   UNL     1       4.389  -1.384  -8.856  1.00  0.00     0.034 A 
ATOM     26  C   UNL     1      -0.036   3.877  -9.058  1.00  0.00     0.034 A 
ATOM     27  C   UNL     1       5.306  -0.321  -9.192  1.00  0.00     0.049 A 
ATOM     28  C   UNL     1       1.016   3.472 -10.023  1.00  0.00     0.074 A 
ATOM     29  C   UNL     1       6.423   0.225  -8.589  1.00  0.00     0.029 A 
ATOM     30  N   UNL     1       4.912   0.603 -10.132  1.00  0.00    -0.354 N 
ATOM     31  N   UNL     1       2.198   4.023 -10.066  1.00  0.00    -0.248 NA
ATOM     32  C   UNL     1       0.921   2.144 -10.608  1.00  0.00     0.031 C 
ATOM     33  C   UNL     1       6.311   1.627  -8.818  1.00  0.00     0.029 A 
ATOM     34  C   UNL     1       5.182   1.842  -9.609  1.00  0.00     0.049 A 
ATOM     35  H   UNL     1       4.514   0.411 -11.011  1.00  0.00     0.167 HD
ATOM     36  C   UNL     1       3.070   2.967 -10.275  1.00  0.00     0.074 A 
ATOM     37  C   UNL     1       2.221   1.846 -10.680  1.00  0.00     0.031 C 
ATOM     38  C   UNL     1       4.362   3.014  -9.838  1.00  0.00     0.034 A 
BRANCH  25  39
ATOM     39  C   UNL     1       3.916  -2.385  -9.889  1.00  0.00     0.023 A 
ATOM     40  C   UNL     1       4.675  -2.508 -11.071  1.00  0.00     0.031 A 
ATOM     41  C   UNL     1       2.635  -2.980  -9.919  1.00  0.00     0.131 A 
ATOM     42  C   UNL     1       4.126  -3.090 -12.228  1.00  0.00     0.055 A 
ATOM     43  C   UNL     1       2.116  -3.611 -11.054  1.00  0.00     0.041 A 
ATOM     44  F   UNL     1       1.778  -2.908  -8.894  1.00  0.00    -0.206 F 
ATOM     45  C   UNL     1       2.847  -3.638 -12.228  1.00  0.00     0.022 A 
BRANCH  42  46
ATOM     46  S   UNL     1       5.053  -2.969 -13.779  1.00  0.00     0.124 S 
ATOM     47  O   UNL     1       5.237  -1.526 -13.901  1.00  0.00    -0.237 OA
ATOM     48  O   UNL     1       6.249  -3.747 -13.476  1.00  0.00    -0.237 OA
ATOM     49  O   UNL     1       4.153  -3.570 -14.761  1.00  0.00    -0.744 OA
ENDBRANCH  42  46
ENDBRANCH  25  39
BRANCH  26  50
ATOM     50  C   UNL     1      -1.447   4.162  -9.475  1.00  0.00     0.023 A 
ATOM     51  C   UNL     1      -1.782   4.640 -10.768  1.00  0.00     0.031 A 
ATOM     52  C   UNL     1      -2.523   3.704  -8.685  1.00  0.00     0.131 A 
ATOM     53  C   UNL     1      -3.128   4.634 -11.214  1.00  0.00     0.055 A 
ATOM     54  C   UNL     1      -3.849   3.698  -9.131  1.00  0.00     0.041 A 
ATOM     55  F   UNL     1      -2.318   3.155  -7.479  1.00  0.00    -0.206 F 
ATOM     56  C   UNL     1      -4.156   4.151 -10.403  1.00  0.00     0.022 A 
BRANCH  53  57
ATOM     57  S   UNL     1      -3.564   5.142 -12.914  1.00  0.00     0.124 S 
ATOM     58  O   UNL     1      -3.530   6.597 -12.816  1.00  0.00    -0.237 OA
ATOM     59  O   UNL     1      -2.516   4.521 -13.714  1.00  0.00    -0.237 OA
ATOM     60  O   UNL     1      -4.898   4.570 -13.107  1.00  0.00    -0.744 OA
ENDBRANCH  53  57
ENDBRANCH  26  50
BRANCH  38  61
ATOM     61  C   UNL     1       4.929   4.336  -9.368  1.00  0.00     0.023 A 
ATOM     62  C   UNL     1       4.479   5.059  -8.239  1.00  0.00     0.031 A 
ATOM     63  C   UNL     1       6.094   4.784 -10.015  1.00  0.00     0.131 A 
ATOM     64  C   UNL     1       5.201   6.189  -7.799  1.00  0.00     0.055 A 
ATOM     65  C   UNL     1       6.813   5.888  -9.565  1.00  0.00     0.041 A 
ATOM     66  F   UNL     1       6.583   4.115 -11.072  1.00  0.00    -0.206 F 
ATOM     67  C   UNL     1       6.369   6.596  -8.454  1.00  0.00     0.022 A 
BRANCH  64  68
ATOM     68  S   UNL     1       4.657   7.132  -6.335  1.00  0.00     0.124 S 
ATOM     69  O   UNL     1       3.312   7.565  -6.696  1.00  0.00    -0.237 OA
ATOM     70  O   UNL     1       4.748   6.146  -5.261  1.00  0.00    -0.237 OA
ATOM     71  O   UNL     1       5.638   8.216  -6.241  1.00  0.00    -0.744 OA
ENDBRANCH  64  68
ENDBRANCH  38  61
ENDBRANCH  12  13
ENDBRANCH   5   7
ENDBRANCH   2   3
ENDBRANCH   1   2
BRANCH   1  72
ATOM     72  C   UNL     1       4.483   3.105   1.684  1.00  0.00     0.023 C 
BRANCH  72  73
ATOM     73  C   UNL     1       4.903   2.754   3.103  1.00  0.00     0.116 C 
BRANCH  73  74
ATOM     74  N   UNL     1       6.340   2.847   3.329  1.00  0.00    -0.351 N 
ATOM     75  C   UNL     1       7.015   3.579   4.286  1.00  0.00     0.269 C 
ATOM     76  H   UNL     1       6.904   2.319   2.719  1.00  0.00     0.163 HD
ATOM     77  O   UNL     1       8.246   3.582   4.312  1.00  0.00    -0.268 OA
BRANCH  75  78
ATOM     78  C   UNL     1       6.233   4.306   5.322  1.00  0.00     0.129 A 
ATOM     79  C   UNL     1       5.268   3.628   6.025  1.00  0.00     0.039 A 
ATOM     80  N   UNL     1       6.490   5.601   5.528  1.00  0.00    -0.243 NA
ATOM     81  C   UNL     1       4.409   4.314   6.911  1.00  0.00    -0.021 A 
ATOM     82  C   UNL     1       5.737   6.266   6.410  1.00  0.00     0.072 A 
ATOM     83  C   UNL     1       4.631   5.730   7.149  1.00  0.00     0.012 A 
ATOM     84  C   UNL     1       6.146   7.569   6.579  1.00  0.00     0.029 A 
ATOM     85  C   UNL     1       3.940   6.674   8.052  1.00  0.00    -0.009 A 
ATOM     86  C   UNL     1       5.519   8.432   7.463  1.00  0.00     0.011 A 
ATOM     87  C   UNL     1       4.423   8.006   8.196  1.00  0.00    -0.018 A 
ATOM     88  C   UNL     1       2.795   6.403   8.836  1.00  0.00     0.009 A 
ATOM     89  C   UNL     1       3.824   8.932   9.070  1.00  0.00     0.009 A 
ATOM     90  C   UNL     1       2.192   7.322   9.703  1.00  0.00     0.001 A 
ATOM     91  C   UNL     1       2.713   8.592   9.828  1.00  0.00     0.001 A 
BRANCH  81  92
ATOM     92  C   UNL     1       3.428   3.356   7.547  1.00  0.00     0.115 C 
ATOM     93  C   UNL     1       1.976   3.578   7.344  1.00  0.00     0.123 C 
ATOM     94  C   UNL     1       3.425   3.118   9.021  1.00  0.00     0.083 C 
ATOM     95  N   UNL     1       1.289   3.353   8.418  1.00  0.00    -0.162 NA
ATOM     96  N   UNL     1       2.208   3.058   9.488  1.00  0.00    -0.154 NA
BRANCH  94  97
ATOM     97  C   UNL     1       4.634   2.792   9.815  1.00  0.00    -0.001 A 
ATOM     98  C   UNL     1       4.483   1.927  10.906  1.00  0.00     0.013 A 
ATOM     99  C   UNL     1       5.913   3.264   9.493  1.00  0.00     0.013 A 
ATOM    100  C   UNL     1       5.601   1.512  11.636  1.00  0.00     0.040 A 
ATOM    101  C   UNL     1       7.030   2.846  10.220  1.00  0.00     0.040 A 
ATOM    102  C   UNL     1       6.865   1.968  11.279  1.00  0.00     0.123 A 
ATOM    103  F   UNL     1       7.937   1.556  11.966  1.00  0.00    -0.207 F 
ENDBRANCH  94  97
ENDBRANCH  81  92
ENDBRANCH  75  78
ENDBRANCH  73  74
ENDBRANCH  72  73
ENDBRANCH   1  72
TORSDOF 16
