REMARK SMILES O=C(NCCCCNC(=O)[C@@H](Cc1c[nH]c2ccccc12)Nc1ncnc2ccccc12)c1ccc(-c2c3nc(c(-c4cc(S(=O)(=O)[O-])ccc4F)c4ccc([nH]4)c(-c4cc(S(=O)(=O)[O-])ccc4F)c4nc(c(-c5cc(S(=O)(=O)[O-])ccc5F)c5ccc2[nH]5)C=C4)C=C3)cc1
REMARK SMILES IDX 5 1 4 2 3 3 1 4 2 5 33 7 34 8 95 9 35 10 94 11 36 12 37 13
REMARK SMILES IDX 38 14 88 15 39 16 93 17 87 18 89 19 40 20 92 21 86 22 85 23
REMARK SMILES IDX 41 25 73 26 53 27 72 28 54 29 57 30 71 31 90 32 55 33 56 34
REMARK SMILES IDX 70 36 91 37 58 38 42 39 43 40 51 41 44 42 50 43 52 44 49 45
REMARK SMILES IDX 45 46 46 47 47 48 48 49 74 50 75 51 83 52 76 53 82 54 84 55
REMARK SMILES IDX 81 56 77 57 78 58 79 59 80 60 59 61 60 62 68 63 61 64 67 65
REMARK SMILES IDX 69 66 66 67 62 68 63 69 64 70 65 71 6 72 7 73 8 74 9 75
REMARK SMILES IDX 10 77 11 78 12 79 13 80 14 81 21 82 15 83 16 84 20 85 17 87
REMARK SMILES IDX 19 88 18 89 22 90 23 92 24 93 32 94 25 95 27 96 31 97 26 98
REMARK SMILES IDX 28 99 30 100 29 101
REMARK H PARENT 3 6 89 24 57 35 8 76 15 86 22 91
REMARK Flexibility Score: inf
ROOT
ATOM      1  C   UNL     1       5.514   0.591  -2.118  1.00  0.00     0.023 C 
ENDROOT
BRANCH   1   2
ATOM      2  C   UNL     1       4.834   0.562  -0.760  1.00  0.00     0.116 C 
BRANCH   2   3
ATOM      3  N   UNL     1       3.370   0.621  -0.800  1.00  0.00    -0.352 N 
ATOM      4  O   UNL     1       1.262   0.009  -0.213  1.00  0.00    -0.269 OA
ATOM      5  C   UNL     1       2.470  -0.089  -0.030  1.00  0.00     0.251 C 
ATOM      6  H   UNL     1       2.981   1.244  -1.456  1.00  0.00     0.163 HD
BRANCH   5   7
ATOM      7  C   UNL     1       3.012  -1.006   0.994  1.00  0.00     0.039 A 
ATOM      8  C   UNL     1       4.036  -0.553   1.821  1.00  0.00     0.014 A 
ATOM      9  C   UNL     1       2.624  -2.348   1.011  1.00  0.00     0.014 A 
ATOM     10  C   UNL     1       4.841  -1.482   2.456  1.00  0.00     0.010 A 
ATOM     11  C   UNL     1       3.348  -3.262   1.786  1.00  0.00     0.010 A 
ATOM     12  C   UNL     1       4.503  -2.848   2.467  1.00  0.00    -0.014 A 
BRANCH  12  13
ATOM     13  C   UNL     1       5.385  -3.776   3.227  1.00  0.00     0.031 A 
ATOM     14  C   UNL     1       6.098  -4.923   2.558  1.00  0.00     0.074 A 
ATOM     15  C   UNL     1       5.628  -3.487   4.522  1.00  0.00     0.049 A 
ATOM     16  N   UNL     1       6.949  -5.774   3.077  1.00  0.00    -0.248 NA
ATOM     17  C   UNL     1       5.814  -5.162   1.135  1.00  0.00     0.031 C 
ATOM     18  C   UNL     1       4.983  -2.403   5.271  1.00  0.00     0.029 A 
ATOM     19  N   UNL     1       6.517  -4.018   5.418  1.00  0.00    -0.354 N 
ATOM     20  C   UNL     1       7.273  -6.668   2.061  1.00  0.00     0.074 A 
ATOM     21  C   UNL     1       6.514  -6.263   0.896  1.00  0.00     0.031 C 
ATOM     22  C   UNL     1       5.578  -2.273   6.462  1.00  0.00     0.029 A 
ATOM     23  C   UNL     1       6.563  -3.335   6.613  1.00  0.00     0.049 A 
ATOM     24  H   UNL     1       7.069  -4.811   5.228  1.00  0.00     0.167 HD
ATOM     25  C   UNL     1       8.123  -7.726   2.103  1.00  0.00     0.034 A 
ATOM     26  C   UNL     1       7.299  -3.546   7.720  1.00  0.00     0.034 A 
ATOM     27  C   UNL     1       8.887  -8.096   3.273  1.00  0.00     0.049 A 
ATOM     28  C   UNL     1       8.253  -4.705   7.724  1.00  0.00     0.074 A 
ATOM     29  C   UNL     1       9.763  -9.156   3.435  1.00  0.00     0.029 A 
ATOM     30  N   UNL     1       8.875  -7.409   4.482  1.00  0.00    -0.354 N 
ATOM     31  N   UNL     1       8.505  -5.567   6.766  1.00  0.00    -0.248 NA
ATOM     32  C   UNL     1       9.011  -4.927   8.959  1.00  0.00     0.031 C 
ATOM     33  C   UNL     1      10.242  -9.139   4.751  1.00  0.00     0.029 A 
ATOM     34  C   UNL     1       9.716  -8.030   5.395  1.00  0.00     0.049 A 
ATOM     35  H   UNL     1       8.347  -6.599   4.664  1.00  0.00     0.167 HD
ATOM     36  C   UNL     1       9.438  -6.449   7.293  1.00  0.00     0.074 A 
ATOM     37  C   UNL     1       9.748  -5.977   8.629  1.00  0.00     0.031 C 
ATOM     38  C   UNL     1       9.977  -7.564   6.735  1.00  0.00     0.034 A 
BRANCH  25  39
ATOM     39  C   UNL     1       8.230  -8.590   0.867  1.00  0.00     0.023 A 
ATOM     40  C   UNL     1       8.788  -8.114  -0.332  1.00  0.00     0.031 A 
ATOM     41  C   UNL     1       7.762  -9.917   0.892  1.00  0.00     0.131 A 
ATOM     42  C   UNL     1       8.818  -8.940  -1.468  1.00  0.00     0.055 A 
ATOM     43  C   UNL     1       7.856 -10.756  -0.221  1.00  0.00     0.041 A 
ATOM     44  F   UNL     1       7.200 -10.422   2.002  1.00  0.00    -0.206 F 
ATOM     45  C   UNL     1       8.378 -10.265  -1.413  1.00  0.00     0.022 A 
BRANCH  42  46
ATOM     46  S   UNL     1       9.340  -8.226  -3.052  1.00  0.00     0.124 S 
ATOM     47  O   UNL     1       8.348  -7.170  -3.241  1.00  0.00    -0.237 OA
ATOM     48  O   UNL     1      10.699  -7.782  -2.767  1.00  0.00    -0.237 OA
ATOM     49  O   UNL     1       9.232  -9.346  -3.986  1.00  0.00    -0.744 OA
ENDBRANCH  42  46
ENDBRANCH  25  39
BRANCH  26  50
ATOM     50  C   UNL     1       7.112  -2.682   8.920  1.00  0.00     0.023 A 
ATOM     51  C   UNL     1       8.157  -1.893   9.424  1.00  0.00     0.031 A 
ATOM     52  C   UNL     1       5.874  -2.643   9.589  1.00  0.00     0.131 A 
ATOM     53  C   UNL     1       7.953  -1.122  10.579  1.00  0.00     0.055 A 
ATOM     54  C   UNL     1       5.659  -1.828  10.699  1.00  0.00     0.041 A 
ATOM     55  F   UNL     1       4.840  -3.377   9.148  1.00  0.00    -0.206 F 
ATOM     56  C   UNL     1       6.707  -1.070  11.209  1.00  0.00     0.022 A 
BRANCH  53  57
ATOM     57  S   UNL     1       9.368  -0.248  11.303  1.00  0.00     0.124 S 
ATOM     58  O   UNL     1      10.332  -1.329  11.473  1.00  0.00    -0.237 OA
ATOM     59  O   UNL     1       9.678   0.732  10.268  1.00  0.00    -0.237 OA
ATOM     60  O   UNL     1       8.826   0.306  12.542  1.00  0.00    -0.744 OA
ENDBRANCH  53  57
ENDBRANCH  26  50
BRANCH  38  61
ATOM     61  C   UNL     1      10.945  -8.331   7.597  1.00  0.00     0.023 A 
ATOM     62  C   UNL     1      10.514  -8.991   8.761  1.00  0.00     0.031 A 
ATOM     63  C   UNL     1      12.316  -8.344   7.294  1.00  0.00     0.131 A 
ATOM     64  C   UNL     1      11.454  -9.573   9.622  1.00  0.00     0.055 A 
ATOM     65  C   UNL     1      13.242  -8.977   8.124  1.00  0.00     0.041 A 
ATOM     66  F   UNL     1      12.780  -7.726   6.196  1.00  0.00    -0.206 F 
ATOM     67  C   UNL     1      12.815  -9.581   9.305  1.00  0.00     0.022 A 
BRANCH  64  68
ATOM     68  S   UNL     1      10.886 -10.213  11.221  1.00  0.00     0.124 S 
ATOM     69  O   UNL     1      10.253  -9.038  11.811  1.00  0.00    -0.237 OA
ATOM     70  O   UNL     1       9.987 -11.291  10.824  1.00  0.00    -0.237 OA
ATOM     71  O   UNL     1      12.120 -10.645  11.875  1.00  0.00    -0.744 OA
ENDBRANCH  64  68
ENDBRANCH  38  61
ENDBRANCH  12  13
ENDBRANCH   5   7
ENDBRANCH   2   3
ENDBRANCH   1   2
BRANCH   1  72
ATOM     72  C   UNL     1       5.140   1.790  -2.963  1.00  0.00     0.023 C 
BRANCH  72  73
ATOM     73  C   UNL     1       5.593   3.145  -2.436  1.00  0.00     0.116 C 
BRANCH  73  74
ATOM     74  N   UNL     1       6.882   3.491  -2.989  1.00  0.00    -0.354 N 
ATOM     75  C   UNL     1       7.204   4.162  -4.128  1.00  0.00     0.242 C 
ATOM     76  H   UNL     1       7.654   3.192  -2.455  1.00  0.00     0.163 HD
ATOM     77  O   UNL     1       8.387   4.097  -4.488  1.00  0.00    -0.273 OA
BRANCH  75  78
ATOM     78  C   UNL     1       6.198   5.012  -4.949  1.00  0.00     0.174 C 
BRANCH  78  79
ATOM     79  C   UNL     1       5.258   4.241  -5.900  1.00  0.00     0.072 C 
BRANCH  79  80
ATOM     80  C   UNL     1       4.001   3.545  -5.444  1.00  0.00    -0.020 A 
ATOM     81  C   UNL     1       3.667   2.256  -5.837  1.00  0.00     0.087 A 
ATOM     82  C   UNL     1       2.898   4.008  -4.641  1.00  0.00     0.003 A 
ATOM     83  N   UNL     1       2.507   1.887  -5.216  1.00  0.00    -0.361 N 
ATOM     84  C   UNL     1       2.047   2.917  -4.433  1.00  0.00     0.046 A 
ATOM     85  C   UNL     1       2.551   5.224  -4.015  1.00  0.00     0.010 A 
ATOM     86  H   UNL     1       2.066   1.013  -5.316  1.00  0.00     0.166 HD
ATOM     87  C   UNL     1       0.959   2.949  -3.551  1.00  0.00     0.026 A 
ATOM     88  C   UNL     1       1.466   5.277  -3.131  1.00  0.00     0.001 A 
ATOM     89  C   UNL     1       0.696   4.146  -2.885  1.00  0.00     0.002 A 
ENDBRANCH  79  80
ENDBRANCH  78  79
BRANCH  78  90
ATOM     90  N   UNL     1       5.549   6.035  -4.130  1.00  0.00    -0.358 N 
ATOM     91  H   UNL     1       4.859   5.725  -3.500  1.00  0.00     0.162 HD
BRANCH  90  92
ATOM     92  C   UNL     1       5.803   7.386  -4.149  1.00  0.00     0.137 A 
ATOM     93  N   UNL     1       5.798   7.896  -2.905  1.00  0.00    -0.219 NA
ATOM     94  C   UNL     1       5.987   8.201  -5.286  1.00  0.00     0.043 A 
ATOM     95  C   UNL     1       6.036   9.204  -2.781  1.00  0.00     0.224 A 
ATOM     96  C   UNL     1       6.228   9.559  -5.013  1.00  0.00     0.076 A 
ATOM     97  C   UNL     1       5.913   7.805  -6.649  1.00  0.00     0.014 A 
ATOM     98  N   UNL     1       6.260  10.062  -3.778  1.00  0.00    -0.236 NA
ATOM     99  C   UNL     1       6.427  10.441  -6.069  1.00  0.00     0.029 A 
ATOM    100  C   UNL     1       6.119   8.703  -7.694  1.00  0.00     0.001 A 
ATOM    101  C   UNL     1       6.383  10.029  -7.402  1.00  0.00     0.002 A 
ENDBRANCH  90  92
ENDBRANCH  78  90
ENDBRANCH  75  78
ENDBRANCH  73  74
ENDBRANCH  72  73
ENDBRANCH   1  72
TORSDOF 18
