REMARK SMILES O=C(NCCCCNC(=O)[C@H](O)Cc1ccc(O)cc1)c1ccc(-c2c3nc(c(-c4cc(S(=O)(=O)[O-])ccc4F)c4ccc([nH]4)c(-c4cc(S(=O)(=O)[O-])ccc4F)c4nc(c(-c5cc(S(=O)(=O)[O-])ccc5F)c5ccc2[nH]5)C=C4)C=C3)cc1
REMARK SMILES IDX 5 1 4 2 3 3 1 4 2 5 21 7 22 8 83 9 23 10 82 11 24 12 25 13
REMARK SMILES IDX 26 14 76 15 27 16 81 17 75 18 77 19 28 20 80 21 74 22 73 23
REMARK SMILES IDX 29 25 61 26 41 27 60 28 42 29 45 30 59 31 78 32 43 33 44 34
REMARK SMILES IDX 58 36 79 37 46 38 30 39 31 40 39 41 32 42 38 43 40 44 37 45
REMARK SMILES IDX 33 46 34 47 35 48 36 49 62 50 63 51 71 52 64 53 70 54 72 55
REMARK SMILES IDX 69 56 65 57 66 58 67 59 68 60 47 61 48 62 56 63 49 64 55 65
REMARK SMILES IDX 57 66 54 67 50 68 51 69 52 70 53 71 6 72 7 73 8 74 9 75
REMARK SMILES IDX 10 77 11 78 13 79 14 80 15 81 20 82 16 83 19 84 17 85 18 86
REMARK SMILES IDX 12 88
REMARK H PARENT 3 6 77 24 45 35 8 76 18 87 12 89
REMARK Flexibility Score: inf
ROOT
ATOM      1  C   UNL     1       6.425  10.393  -2.839  1.00  0.00     0.023 C 
ENDROOT
BRANCH   1   2
ATOM      2  C   UNL     1       5.202  11.302  -2.774  1.00  0.00     0.116 C 
BRANCH   2   3
ATOM      3  N   UNL     1       5.466  12.567  -2.107  1.00  0.00    -0.352 N 
ATOM      4  O   UNL     1       5.544  14.806  -1.872  1.00  0.00    -0.269 OA
ATOM      5  C   UNL     1       5.123  13.839  -2.502  1.00  0.00     0.251 C 
ATOM      6  H   UNL     1       5.959  12.504  -1.257  1.00  0.00     0.163 HD
BRANCH   5   7
ATOM      7  C   UNL     1       4.269  14.040  -3.695  1.00  0.00     0.039 A 
ATOM      8  C   UNL     1       3.116  13.275  -3.889  1.00  0.00     0.014 A 
ATOM      9  C   UNL     1       4.628  15.015  -4.631  1.00  0.00     0.014 A 
ATOM     10  C   UNL     1       2.396  13.396  -5.073  1.00  0.00     0.010 A 
ATOM     11  C   UNL     1       3.860  15.185  -5.788  1.00  0.00     0.010 A 
ATOM     12  C   UNL     1       2.752  14.358  -6.032  1.00  0.00    -0.014 A 
BRANCH  12  13
ATOM     13  C   UNL     1       1.922  14.514  -7.256  1.00  0.00     0.031 A 
ATOM     14  C   UNL     1       2.475  14.189  -8.617  1.00  0.00     0.074 A 
ATOM     15  C   UNL     1       0.648  14.932  -7.124  1.00  0.00     0.049 A 
ATOM     16  N   UNL     1       1.889  14.264  -9.784  1.00  0.00    -0.248 NA
ATOM     17  C   UNL     1       3.870  13.728  -8.675  1.00  0.00     0.031 C 
ATOM     18  C   UNL     1       0.006  15.282  -5.854  1.00  0.00     0.029 A 
ATOM     19  N   UNL     1      -0.340  15.122  -8.056  1.00  0.00    -0.354 N 
ATOM     20  C   UNL     1       2.842  13.874 -10.719  1.00  0.00     0.074 A 
ATOM     21  C   UNL     1       4.056  13.593  -9.981  1.00  0.00     0.031 C 
ATOM     22  C   UNL     1      -1.274  15.608  -6.083  1.00  0.00     0.029 A 
ATOM     23  C   UNL     1      -1.530  15.553  -7.518  1.00  0.00     0.049 A 
ATOM     24  H   UNL     1      -0.209  14.966  -9.020  1.00  0.00     0.167 HD
ATOM     25  C   UNL     1       2.712  13.756 -12.065  1.00  0.00     0.034 A 
ATOM     26  C   UNL     1      -2.692  15.887  -8.111  1.00  0.00     0.034 A 
ATOM     27  C   UNL     1       1.490  14.037 -12.784  1.00  0.00     0.049 A 
ATOM     28  C   UNL     1      -2.799  15.779  -9.607  1.00  0.00     0.074 A 
ATOM     29  C   UNL     1       1.241  13.917 -14.141  1.00  0.00     0.029 A 
ATOM     30  N   UNL     1       0.315  14.504 -12.209  1.00  0.00    -0.354 N 
ATOM     31  N   UNL     1      -1.891  15.389 -10.473  1.00  0.00    -0.248 NA
ATOM     32  C   UNL     1      -4.086  16.151 -10.207  1.00  0.00     0.031 C 
ATOM     33  C   UNL     1      -0.059  14.370 -14.393  1.00  0.00     0.029 A 
ATOM     34  C   UNL     1      -0.649  14.705 -13.186  1.00  0.00     0.049 A 
ATOM     35  H   UNL     1       0.185  14.668 -11.247  1.00  0.00     0.167 HD
ATOM     36  C   UNL     1      -2.507  15.452 -11.719  1.00  0.00     0.074 A 
ATOM     37  C   UNL     1      -3.867  15.895 -11.488  1.00  0.00     0.031 C 
ATOM     38  C   UNL     1      -1.996  15.166 -12.943  1.00  0.00     0.034 A 
BRANCH  25  39
ATOM     39  C   UNL     1       3.933  13.346 -12.853  1.00  0.00     0.023 A 
ATOM     40  C   UNL     1       4.515  12.073 -12.713  1.00  0.00     0.031 A 
ATOM     41  C   UNL     1       4.526  14.244 -13.758  1.00  0.00     0.131 A 
ATOM     42  C   UNL     1       5.684  11.756 -13.422  1.00  0.00     0.055 A 
ATOM     43  C   UNL     1       5.649  13.898 -14.513  1.00  0.00     0.041 A 
ATOM     44  F   UNL     1       4.027  15.480 -13.920  1.00  0.00    -0.206 F 
ATOM     45  C   UNL     1       6.242  12.651 -14.339  1.00  0.00     0.022 A 
BRANCH  42  46
ATOM     46  S   UNL     1       6.537  10.201 -13.042  1.00  0.00     0.124 S 
ATOM     47  O   UNL     1       6.820  10.359 -11.617  1.00  0.00    -0.237 OA
ATOM     48  O   UNL     1       5.535   9.199 -13.387  1.00  0.00    -0.237 OA
ATOM     49  O   UNL     1       7.712  10.232 -13.910  1.00  0.00    -0.744 OA
ENDBRANCH  42  46
ENDBRANCH  25  39
BRANCH  26  50
ATOM     50  C   UNL     1      -3.833  16.388  -7.294  1.00  0.00     0.023 A 
ATOM     51  C   UNL     1      -5.037  15.672  -7.210  1.00  0.00     0.031 A 
ATOM     52  C   UNL     1      -3.742  17.612  -6.606  1.00  0.00     0.131 A 
ATOM     53  C   UNL     1      -6.116  16.204  -6.488  1.00  0.00     0.055 A 
ATOM     54  C   UNL     1      -4.799  18.111  -5.845  1.00  0.00     0.041 A 
ATOM     55  F   UNL     1      -2.611  18.333  -6.649  1.00  0.00    -0.206 F 
ATOM     56  C   UNL     1      -6.001  17.411  -5.794  1.00  0.00     0.022 A 
BRANCH  53  57
ATOM     57  S   UNL     1      -7.706  15.333  -6.535  1.00  0.00     0.124 S 
ATOM     58  O   UNL     1      -7.971  15.275  -7.968  1.00  0.00    -0.237 OA
ATOM     59  O   UNL     1      -7.375  14.066  -5.892  1.00  0.00    -0.237 OA
ATOM     60  O   UNL     1      -8.594  16.206  -5.770  1.00  0.00    -0.744 OA
ENDBRANCH  53  57
ENDBRANCH  26  50
BRANCH  38  61
ATOM     61  C   UNL     1      -2.935  15.294 -14.115  1.00  0.00     0.023 A 
ATOM     62  C   UNL     1      -3.421  16.544 -14.537  1.00  0.00     0.031 A 
ATOM     63  C   UNL     1      -3.371  14.147 -14.800  1.00  0.00     0.131 A 
ATOM     64  C   UNL     1      -4.361  16.612 -15.577  1.00  0.00     0.055 A 
ATOM     65  C   UNL     1      -4.263  14.226 -15.871  1.00  0.00     0.041 A 
ATOM     66  F   UNL     1      -2.939  12.928 -14.436  1.00  0.00    -0.206 F 
ATOM     67  C   UNL     1      -4.773  15.462 -16.256  1.00  0.00     0.022 A 
BRANCH  64  68
ATOM     68  S   UNL     1      -5.108  18.217 -15.973  1.00  0.00     0.124 S 
ATOM     69  O   UNL     1      -5.728  18.584 -14.704  1.00  0.00    -0.237 OA
ATOM     70  O   UNL     1      -3.950  19.011 -16.370  1.00  0.00    -0.237 OA
ATOM     71  O   UNL     1      -6.043  17.904 -17.052  1.00  0.00    -0.744 OA
ENDBRANCH  64  68
ENDBRANCH  38  61
ENDBRANCH  12  13
ENDBRANCH   5   7
ENDBRANCH   2   3
ENDBRANCH   1   2
BRANCH   1  72
ATOM     72  C   UNL     1       6.995   9.951  -1.487  1.00  0.00     0.023 C 
BRANCH  72  73
ATOM     73  C   UNL     1       5.989   9.286  -0.549  1.00  0.00     0.116 C 
BRANCH  73  74
ATOM     74  N   UNL     1       5.416   8.085  -1.126  1.00  0.00    -0.354 N 
ATOM     75  C   UNL     1       5.610   6.773  -0.789  1.00  0.00     0.249 C 
ATOM     76  H   UNL     1       4.793   8.236  -1.873  1.00  0.00     0.163 HD
ATOM     77  O   UNL     1       5.024   5.916  -1.451  1.00  0.00    -0.272 OA
BRANCH  75  78
ATOM     78  C   UNL     1       6.511   6.428   0.411  1.00  0.00     0.207 C 
BRANCH  78  79
ATOM     79  C   UNL     1       5.672   6.553   1.690  1.00  0.00     0.077 C 
BRANCH  79  80
ATOM     80  C   UNL     1       6.518   6.484   2.942  1.00  0.00    -0.045 A 
ATOM     81  C   UNL     1       6.786   5.245   3.542  1.00  0.00     0.007 A 
ATOM     82  C   UNL     1       7.066   7.647   3.500  1.00  0.00     0.007 A 
ATOM     83  C   UNL     1       7.591   5.167   4.679  1.00  0.00     0.046 A 
ATOM     84  C   UNL     1       7.869   7.569   4.639  1.00  0.00     0.046 A 
ATOM     85  C   UNL     1       8.128   6.332   5.217  1.00  0.00     0.115 A 
BRANCH  85  86
ATOM     86  O   UNL     1       8.923   6.300   6.324  1.00  0.00    -0.508 OA
ATOM     87  H   UNL     1       9.117   5.483   6.739  1.00  0.00     0.293 HD
ENDBRANCH  85  86
ENDBRANCH  79  80
ENDBRANCH  78  79
BRANCH  78  88
ATOM     88  O   UNL     1       7.041   5.105   0.314  1.00  0.00    -0.383 OA
ATOM     89  H   UNL     1       6.311   4.465   0.297  1.00  0.00     0.211 HD
ENDBRANCH  78  88
ENDBRANCH  75  78
ENDBRANCH  73  74
ENDBRANCH  72  73
ENDBRANCH   1  72
TORSDOF 18
