REMARK SMILES CS(=O)(=O)c1ccc(C2=NN(c3ccc(C(=O)NCCCCNC(=O)c4ccc(-c5c6nc(c(-c7cc(S(=O)(=O)[O-])ccc7F)c7ccc([nH]7)c(-c7cc(S(=O)(=O)[O-])ccc7F)c7nc(c(-c8cc(S(=O)(=O)[O-])ccc8F)c8ccc5[nH]8)C=C7)C=C6)cc4)cc3)[C@H](c3cccs3)C2)cc1
REMARK SMILES IDX 20 1 19 2 18 3 16 4 17 5 15 7 12 8 13 9 90 10 14 11 89 12
REMARK SMILES IDX 11 13 9 14 10 15 97 16 91 17 8 18 5 19 6 20 99 21 7 22 98 23
REMARK SMILES IDX 2 24 1 25 3 26 4 27 92 28 93 29 96 30 94 31 95 32 21 33
REMARK SMILES IDX 22 34 23 35 24 36 25 38 26 39 27 40 88 41 28 42 87 43 29 44
REMARK SMILES IDX 30 45 31 46 81 47 32 48 86 49 80 50 82 51 33 52 85 53 79 54
REMARK SMILES IDX 78 55 34 57 66 58 46 59 65 60 47 61 50 62 64 63 83 64 48 65
REMARK SMILES IDX 49 66 63 68 84 69 51 70 35 71 36 72 44 73 37 74 43 75 45 76
REMARK SMILES IDX 42 77 38 78 39 79 40 80 41 81 67 82 68 83 76 84 69 85 75 86
REMARK SMILES IDX 77 87 74 88 70 89 71 90 72 91 73 92 52 93 53 94 61 95 54 96
REMARK SMILES IDX 60 97 62 98 59 99 55 100 56 101 57 102 58 103
REMARK H PARENT 18 6 23 37 82 56 50 67
REMARK Flexibility Score: inf
ROOT
ATOM      1  C   UNL     1       6.912  -2.079  12.886  1.00  0.00     0.023 C 
ENDROOT
BRANCH   1   2
ATOM      2  C   UNL     1       7.075  -0.563  13.010  1.00  0.00     0.116 C 
BRANCH   2   3
ATOM      3  N   UNL     1       8.170  -0.098  12.180  1.00  0.00    -0.352 N 
ATOM      4  C   UNL     1       8.182   0.485  10.937  1.00  0.00     0.251 C 
ATOM      5  O   UNL     1       9.263   0.834  10.466  1.00  0.00    -0.269 OA
ATOM      6  H   UNL     1       9.062  -0.222  12.578  1.00  0.00     0.163 HD
BRANCH   4   7
ATOM      7  C   UNL     1       6.934   0.767  10.177  1.00  0.00     0.039 A 
ATOM      8  C   UNL     1       4.596   1.499   8.779  1.00  0.00     0.060 A 
ATOM      9  C   UNL     1       5.767   2.250   8.646  1.00  0.00     0.029 A 
ATOM     10  C   UNL     1       4.633   0.340   9.553  1.00  0.00     0.029 A 
ATOM     11  C   UNL     1       6.926   1.893   9.344  1.00  0.00     0.016 A 
ATOM     12  C   UNL     1       5.796  -0.037  10.223  1.00  0.00     0.016 A 
BRANCH   8  13
ATOM     13  N   UNL     1       3.434   1.853   8.127  1.00  0.00    -0.257 N 
ATOM     14  C   UNL     1       2.221   2.173   6.431  1.00  0.00     0.071 C 
ATOM     15  N   UNL     1       3.305   1.581   6.814  1.00  0.00    -0.176 NA
ATOM     16  C   UNL     1       1.514   3.000   7.470  1.00  0.00     0.091 C 
ATOM     17  C   UNL     1       2.339   2.629   8.717  1.00  0.00     0.154 C 
BRANCH  14  18
ATOM     18  C   UNL     1       1.718   2.034   5.062  1.00  0.00    -0.002 A 
ATOM     19  C   UNL     1       0.893   1.677   2.436  1.00  0.00     0.067 A 
ATOM     20  C   UNL     1       1.233   0.561   3.204  1.00  0.00     0.021 A 
ATOM     21  C   UNL     1       0.970   2.970   2.976  1.00  0.00     0.021 A 
ATOM     22  C   UNL     1       1.661   0.745   4.517  1.00  0.00     0.011 A 
ATOM     23  C   UNL     1       1.374   3.150   4.301  1.00  0.00     0.011 A 
BRANCH  19  24
ATOM     24  S   UNL     1       0.379   1.506   0.744  1.00  0.00     0.175 S 
ATOM     25  C   UNL     1       1.105   0.009   0.134  1.00  0.00     0.163 C 
ATOM     26  O   UNL     1       0.984   2.601   0.010  1.00  0.00    -0.224 OA
ATOM     27  O   UNL     1      -1.062   1.329   0.772  1.00  0.00    -0.224 OA
ENDBRANCH  19  24
ENDBRANCH  14  18
BRANCH  17  28
ATOM     28  C   UNL     1       1.592   1.945   9.855  1.00  0.00     0.030 A 
ATOM     29  C   UNL     1       2.037   1.823  11.165  1.00  0.00     0.017 A 
ATOM     30  S   UNL     1       0.073   1.167   9.669  1.00  0.00    -0.147 S 
ATOM     31  C   UNL     1       1.137   1.101  11.999  1.00  0.00     0.012 A 
ATOM     32  C   UNL     1       0.010   0.712  11.314  1.00  0.00     0.065 A 
ENDBRANCH  17  28
ENDBRANCH   8  13
ENDBRANCH   4   7
ENDBRANCH   2   3
ENDBRANCH   1   2
BRANCH   1  33
ATOM     33  C   UNL     1       7.945  -2.882  13.676  1.00  0.00     0.023 C 
BRANCH  33  34
ATOM     34  C   UNL     1       7.900  -2.665  15.182  1.00  0.00     0.116 C 
BRANCH  34  35
ATOM     35  N   UNL     1       6.602  -2.976  15.763  1.00  0.00    -0.352 N 
ATOM     36  C   UNL     1       6.330  -3.568  16.973  1.00  0.00     0.251 C 
ATOM     37  H   UNL     1       5.819  -2.731  15.219  1.00  0.00     0.163 HD
ATOM     38  O   UNL     1       5.181  -3.888  17.257  1.00  0.00    -0.269 OA
BRANCH  36  39
ATOM     39  C   UNL     1       7.447  -3.847  17.899  1.00  0.00     0.039 A 
ATOM     40  C   UNL     1       7.559  -5.120  18.459  1.00  0.00     0.014 A 
ATOM     41  C   UNL     1       8.409  -2.869  18.163  1.00  0.00     0.014 A 
ATOM     42  C   UNL     1       8.677  -5.433  19.234  1.00  0.00     0.010 A 
ATOM     43  C   UNL     1       9.562  -3.208  18.862  1.00  0.00     0.010 A 
ATOM     44  C   UNL     1       9.707  -4.492  19.408  1.00  0.00    -0.014 A 
BRANCH  44  45
ATOM     45  C   UNL     1      10.941  -4.835  20.159  1.00  0.00     0.031 A 
ATOM     46  C   UNL     1      11.285  -4.098  21.423  1.00  0.00     0.074 A 
ATOM     47  C   UNL     1      11.780  -5.770  19.672  1.00  0.00     0.049 A 
ATOM     48  N   UNL     1      12.330  -4.226  22.200  1.00  0.00    -0.248 NA
ATOM     49  C   UNL     1      10.343  -3.054  21.849  1.00  0.00     0.031 C 
ATOM     50  C   UNL     1      11.575  -6.525  18.434  1.00  0.00     0.029 A 
ATOM     51  N   UNL     1      12.970  -6.247  20.158  1.00  0.00    -0.354 N 
ATOM     52  C   UNL     1      12.177  -3.271  23.200  1.00  0.00     0.074 A 
ATOM     53  C   UNL     1      10.980  -2.522  22.879  1.00  0.00     0.031 C 
ATOM     54  C   UNL     1      12.577  -7.405  18.286  1.00  0.00     0.029 A 
ATOM     55  C   UNL     1      13.523  -7.242  19.386  1.00  0.00     0.049 A 
ATOM     56  H   UNL     1      13.390  -5.909  20.982  1.00  0.00     0.167 HD
ATOM     57  C   UNL     1      12.946  -3.058  24.298  1.00  0.00     0.034 A 
ATOM     58  C   UNL     1      14.663  -7.942  19.545  1.00  0.00     0.034 A 
ATOM     59  C   UNL     1      14.139  -3.814  24.595  1.00  0.00     0.049 A 
ATOM     60  C   UNL     1      15.534  -7.652  20.740  1.00  0.00     0.074 A 
ATOM     61  C   UNL     1      14.964  -3.726  25.702  1.00  0.00     0.029 A 
ATOM     62  N   UNL     1      14.692  -4.787  23.769  1.00  0.00    -0.354 N 
ATOM     63  N   UNL     1      15.347  -6.790  21.713  1.00  0.00    -0.248 NA
ATOM     64  C   UNL     1      16.769  -8.436  20.859  1.00  0.00     0.031 C 
ATOM     65  C   UNL     1      16.058  -4.576  25.504  1.00  0.00     0.029 A 
ATOM     66  C   UNL     1      15.870  -5.270  24.319  1.00  0.00     0.049 A 
ATOM     67  H   UNL     1      14.303  -5.089  22.916  1.00  0.00     0.167 HD
ATOM     68  C   UNL     1      16.424  -6.954  22.579  1.00  0.00     0.074 A 
ATOM     69  C   UNL     1      17.249  -8.005  22.016  1.00  0.00     0.031 C 
ATOM     70  C   UNL     1      16.701  -6.303  23.739  1.00  0.00     0.034 A 
BRANCH  57  71
ATOM     71  C   UNL     1      12.528  -1.935  25.223  1.00  0.00     0.023 A 
ATOM     72  C   UNL     1      11.263  -1.916  25.839  1.00  0.00     0.031 A 
ATOM     73  C   UNL     1      13.374  -0.832  25.437  1.00  0.00     0.131 A 
ATOM     74  C   UNL     1      10.836  -0.774  26.532  1.00  0.00     0.055 A 
ATOM     75  C   UNL     1      12.982   0.257  26.220  1.00  0.00     0.041 A 
ATOM     76  F   UNL     1      14.586  -0.777  24.863  1.00  0.00    -0.206 F 
ATOM     77  C   UNL     1      11.697   0.302  26.752  1.00  0.00     0.022 A 
BRANCH  74  78
ATOM     78  S   UNL     1       9.076  -0.630  26.953  1.00  0.00     0.124 S 
ATOM     79  O   UNL     1       8.445  -0.804  25.646  1.00  0.00    -0.237 OA
ATOM     80  O   UNL     1       8.889  -1.720  27.904  1.00  0.00    -0.237 OA
ATOM     81  O   UNL     1       8.967   0.716  27.513  1.00  0.00    -0.744 OA
ENDBRANCH  74  78
ENDBRANCH  57  71
BRANCH  58  82
ATOM     82  C   UNL     1      15.039  -8.998  18.564  1.00  0.00     0.023 A 
ATOM     83  C   UNL     1      15.089 -10.348  18.948  1.00  0.00     0.031 A 
ATOM     84  C   UNL     1      15.368  -8.678  17.235  1.00  0.00     0.131 A 
ATOM     85  C   UNL     1      15.493 -11.323  18.025  1.00  0.00     0.055 A 
ATOM     86  C   UNL     1      15.719  -9.658  16.306  1.00  0.00     0.041 A 
ATOM     87  F   UNL     1      15.331  -7.403  16.815  1.00  0.00    -0.206 F 
ATOM     88  C   UNL     1      15.793 -10.990  16.702  1.00  0.00     0.022 A 
BRANCH  85  89
ATOM     89  S   UNL     1      15.682 -13.034  18.596  1.00  0.00     0.124 S 
ATOM     90  O   UNL     1      16.705 -12.891  19.626  1.00  0.00    -0.237 OA
ATOM     91  O   UNL     1      14.337 -13.348  19.066  1.00  0.00    -0.237 OA
ATOM     92  O   UNL     1      16.102 -13.750  17.393  1.00  0.00    -0.744 OA
ENDBRANCH  85  89
ENDBRANCH  58  82
BRANCH  70  93
ATOM     93  C   UNL     1      17.931  -6.744  24.498  1.00  0.00     0.023 A 
ATOM     94  C   UNL     1      19.226  -6.588  23.972  1.00  0.00     0.031 A 
ATOM     95  C   UNL     1      17.803  -7.348  25.762  1.00  0.00     0.131 A 
ATOM     96  C   UNL     1      20.333  -7.086  24.676  1.00  0.00     0.055 A 
ATOM     97  C   UNL     1      18.913  -7.776  26.491  1.00  0.00     0.041 A 
ATOM     98  F   UNL     1      16.592  -7.531  26.313  1.00  0.00    -0.206 F 
ATOM     99  C   UNL     1      20.187  -7.660  25.942  1.00  0.00     0.022 A 
BRANCH  96 100
ATOM    100  S   UNL     1      21.957  -7.076  23.868  1.00  0.00     0.124 S 
ATOM    101  O   UNL     1      21.698  -7.851  22.659  1.00  0.00    -0.237 OA
ATOM    102  O   UNL     1      22.199  -5.651  23.672  1.00  0.00    -0.237 OA
ATOM    103  O   UNL     1      22.830  -7.724  24.845  1.00  0.00    -0.744 OA
ENDBRANCH  96 100
ENDBRANCH  70  93
ENDBRANCH  44  45
ENDBRANCH  36  39
ENDBRANCH  34  35
ENDBRANCH  33  34
ENDBRANCH   1  33
TORSDOF 18
