REMARK SMILES O=Cc1ccc(-c2cnccc2C(=O)NCCCCNC(=O)c2ccc(-c3c4nc(c(-c5cc(S(=O)(=O)[O-])ccc5F)c5ccc([nH]5)c(-c5cc(S(=O)(=O)[O-])ccc5F)c5nc(c(-c6cc(S(=O)(=O)[O-])ccc6F)c6ccc3[nH]6)C=C5)C=C4)cc2)s1
REMARK SMILES IDX 18 1 17 2 16 3 15 4 13 5 14 6 12 8 7 9 8 10 9 11 11 12 10 13
REMARK SMILES IDX 6 14 3 15 4 16 86 17 5 18 2 19 1 20 19 21 20 22 21 23 22 25
REMARK SMILES IDX 23 26 24 27 85 28 25 29 84 30 26 31 27 32 28 33 78 34 29 35
REMARK SMILES IDX 83 36 77 37 79 38 30 39 82 40 76 41 75 42 31 44 63 45 43 46
REMARK SMILES IDX 62 47 44 48 47 49 61 50 80 51 45 52 46 53 60 55 81 56 48 57
REMARK SMILES IDX 32 58 33 59 41 60 34 61 40 62 42 63 39 64 35 65 36 66 37 67
REMARK SMILES IDX 38 68 64 69 65 70 73 71 66 72 72 73 74 74 71 75 67 76 68 77
REMARK SMILES IDX 69 78 70 79 49 80 50 81 58 82 51 83 57 84 59 85 56 86 52 87
REMARK SMILES IDX 53 88 54 89 55 90
REMARK H PARENT 15 7 20 24 79 43 47 54
REMARK Flexibility Score: inf
ROOT
ATOM      1  C   UNL     1       4.688   0.656   2.867  1.00  0.00     0.023 C 
ENDROOT
BRANCH   1   2
ATOM      2  C   UNL     1       5.361   0.808   1.504  1.00  0.00     0.023 C 
BRANCH   2   3
ATOM      3  C   UNL     1       5.161   2.122   0.768  1.00  0.00     0.116 C 
BRANCH   3   4
ATOM      4  N   UNL     1       5.690   3.316   1.367  1.00  0.00    -0.352 N 
ATOM      5  C   UNL     1       5.998   4.519   0.773  1.00  0.00     0.252 C 
ATOM      6  O   UNL     1       6.312   5.451   1.519  1.00  0.00    -0.269 OA
ATOM      7  H   UNL     1       5.856   3.267   2.336  1.00  0.00     0.163 HD
BRANCH   5   8
ATOM      8  C   UNL     1       6.095   4.755  -0.704  1.00  0.00     0.051 A 
ATOM      9  C   UNL     1       5.196   4.397  -1.725  1.00  0.00     0.023 A 
ATOM     10  C   UNL     1       5.525   4.817  -3.023  1.00  0.00     0.121 A 
ATOM     11  N   UNL     1       6.621   5.530  -3.373  1.00  0.00    -0.264 NA
ATOM     12  C   UNL     1       7.233   5.513  -1.056  1.00  0.00     0.034 A 
ATOM     13  C   UNL     1       7.451   5.869  -2.374  1.00  0.00     0.112 A 
BRANCH   9  14
ATOM     14  C   UNL     1       3.941   3.658  -1.573  1.00  0.00     0.037 A 
ATOM     15  C   UNL     1       2.260   1.840  -1.644  1.00  0.00     0.067 A 
ATOM     16  C   UNL     1       1.809   2.942  -0.947  1.00  0.00     0.024 A 
ATOM     17  S   UNL     1       3.780   2.125  -2.358  1.00  0.00    -0.132 S 
ATOM     18  C   UNL     1       2.780   3.993  -0.903  1.00  0.00     0.021 A 
BRANCH  15  19
ATOM     19  C   UNL     1       1.605   0.567  -1.848  1.00  0.00     0.270 C 
ATOM     20  O   UNL     1       0.397   0.385  -1.736  1.00  0.00    -0.297 OA
ENDBRANCH  15  19
ENDBRANCH   9  14
ENDBRANCH   5   8
ENDBRANCH   3   4
ENDBRANCH   2   3
ENDBRANCH   1   2
BRANCH   1  21
ATOM     21  C   UNL     1       3.251   1.154   3.009  1.00  0.00     0.116 C 
BRANCH  21  22
ATOM     22  N   UNL     1       2.306   0.527   2.095  1.00  0.00    -0.352 N 
ATOM     23  C   UNL     1       1.214  -0.275   2.337  1.00  0.00     0.251 C 
ATOM     24  H   UNL     1       2.477   0.708   1.143  1.00  0.00     0.163 HD
ATOM     25  O   UNL     1       0.635  -0.794   1.385  1.00  0.00    -0.269 OA
BRANCH  23  26
ATOM     26  C   UNL     1       0.774  -0.566   3.720  1.00  0.00     0.039 A 
ATOM     27  C   UNL     1       0.421  -1.877   4.054  1.00  0.00     0.014 A 
ATOM     28  C   UNL     1       0.740   0.430   4.696  1.00  0.00     0.014 A 
ATOM     29  C   UNL     1       0.167  -2.210   5.386  1.00  0.00     0.010 A 
ATOM     30  C   UNL     1       0.588   0.081   6.034  1.00  0.00     0.010 A 
ATOM     31  C   UNL     1       0.319  -1.247   6.397  1.00  0.00    -0.014 A 
BRANCH  31  32
ATOM     32  C   UNL     1       0.231  -1.613   7.836  1.00  0.00     0.031 A 
ATOM     33  C   UNL     1      -0.811  -0.976   8.714  1.00  0.00     0.074 A 
ATOM     34  C   UNL     1       1.148  -2.450   8.363  1.00  0.00     0.049 A 
ATOM     35  N   UNL     1      -0.987  -1.086  10.006  1.00  0.00    -0.248 NA
ATOM     36  C   UNL     1      -1.755  -0.061   8.056  1.00  0.00     0.031 C 
ATOM     37  C   UNL     1       2.244  -3.080   7.620  1.00  0.00     0.029 A 
ATOM     38  N   UNL     1       1.315  -2.912   9.645  1.00  0.00    -0.354 N 
ATOM     39  C   UNL     1      -2.048  -0.241  10.317  1.00  0.00     0.074 A 
ATOM     40  C   UNL     1      -2.424   0.426   9.089  1.00  0.00     0.031 C 
ATOM     41  C   UNL     1       2.944  -3.870   8.449  1.00  0.00     0.029 A 
ATOM     42  C   UNL     1       2.384  -3.769   9.791  1.00  0.00     0.049 A 
ATOM     43  H   UNL     1       0.726  -2.655  10.390  1.00  0.00     0.167 HD
ATOM     44  C   UNL     1      -2.666  -0.059  11.511  1.00  0.00     0.034 A 
ATOM     45  C   UNL     1       2.861  -4.395  10.885  1.00  0.00     0.034 A 
ATOM     46  C   UNL     1      -2.282  -0.749  12.719  1.00  0.00     0.049 A 
ATOM     47  C   UNL     1       2.153  -4.184  12.199  1.00  0.00     0.074 A 
ATOM     48  C   UNL     1      -2.863  -0.686  13.973  1.00  0.00     0.029 A 
ATOM     49  N   UNL     1      -1.211  -1.630  12.825  1.00  0.00    -0.354 N 
ATOM     50  N   UNL     1       1.117  -3.422  12.466  1.00  0.00    -0.248 NA
ATOM     51  C   UNL     1       2.669  -4.928  13.354  1.00  0.00     0.031 C 
ATOM     52  C   UNL     1      -2.109  -1.476  14.848  1.00  0.00     0.029 A 
ATOM     53  C   UNL     1      -1.101  -2.096  14.126  1.00  0.00     0.049 A 
ATOM     54  H   UNL     1      -0.616  -1.885  12.083  1.00  0.00     0.167 HD
ATOM     55  C   UNL     1       0.840  -3.619  13.816  1.00  0.00     0.074 A 
ATOM     56  C   UNL     1       1.803  -4.589  14.297  1.00  0.00     0.031 C 
ATOM     57  C   UNL     1      -0.123  -3.053  14.589  1.00  0.00     0.034 A 
BRANCH  44  58
ATOM     58  C   UNL     1      -3.801   0.939  11.560  1.00  0.00     0.023 A 
ATOM     59  C   UNL     1      -4.965   0.772  10.788  1.00  0.00     0.031 A 
ATOM     60  C   UNL     1      -3.703   2.095  12.355  1.00  0.00     0.131 A 
ATOM     61  C   UNL     1      -5.938   1.782  10.756  1.00  0.00     0.055 A 
ATOM     62  C   UNL     1      -4.718   3.055  12.388  1.00  0.00     0.041 A 
ATOM     63  F   UNL     1      -2.610   2.324  13.099  1.00  0.00    -0.206 F 
ATOM     64  C   UNL     1      -5.836   2.911  11.572  1.00  0.00     0.022 A 
BRANCH  61  65
ATOM     65  S   UNL     1      -7.258   1.673   9.516  1.00  0.00     0.124 S 
ATOM     66  O   UNL     1      -6.491   1.656   8.272  1.00  0.00    -0.237 OA
ATOM     67  O   UNL     1      -7.925   0.427   9.873  1.00  0.00    -0.237 OA
ATOM     68  O   UNL     1      -8.040   2.887   9.740  1.00  0.00    -0.744 OA
ENDBRANCH  61  65
ENDBRANCH  44  58
BRANCH  45  69
ATOM     69  C   UNL     1       4.059  -5.280  10.794  1.00  0.00     0.023 A 
ATOM     70  C   UNL     1       3.963  -6.657  11.054  1.00  0.00     0.031 A 
ATOM     71  C   UNL     1       5.327  -4.758  10.480  1.00  0.00     0.131 A 
ATOM     72  C   UNL     1       5.118  -7.456  11.044  1.00  0.00     0.055 A 
ATOM     73  C   UNL     1       6.464  -5.566  10.419  1.00  0.00     0.041 A 
ATOM     74  F   UNL     1       5.476  -3.451  10.214  1.00  0.00    -0.206 F 
ATOM     75  C   UNL     1       6.366  -6.922  10.716  1.00  0.00     0.022 A 
BRANCH  72  76
ATOM     76  S   UNL     1       4.979  -9.192  11.553  1.00  0.00     0.124 S 
ATOM     77  O   UNL     1       4.420  -9.066  12.893  1.00  0.00    -0.237 OA
ATOM     78  O   UNL     1       4.088  -9.734  10.533  1.00  0.00    -0.237 OA
ATOM     79  O   UNL     1       6.357  -9.675  11.493  1.00  0.00    -0.744 OA
ENDBRANCH  72  76
ENDBRANCH  45  69
BRANCH  57  80
ATOM     80  C   UNL     1      -0.195  -3.511  16.026  1.00  0.00     0.023 A 
ATOM     81  C   UNL     1       0.842  -3.248  16.938  1.00  0.00     0.031 A 
ATOM     82  C   UNL     1      -1.304  -4.247  16.479  1.00  0.00     0.131 A 
ATOM     83  C   UNL     1       0.781  -3.776  18.235  1.00  0.00     0.055 A 
ATOM     84  C   UNL     1      -1.391  -4.711  17.791  1.00  0.00     0.041 A 
ATOM     85  F   UNL     1      -2.322  -4.529  15.650  1.00  0.00    -0.206 F 
ATOM     86  C   UNL     1      -0.337  -4.492  18.673  1.00  0.00     0.022 A 
BRANCH  83  87
ATOM     87  S   UNL     1       2.235  -3.616  19.307  1.00  0.00     0.124 S 
ATOM     88  O   UNL     1       3.275  -4.250  18.504  1.00  0.00    -0.237 OA
ATOM     89  O   UNL     1       2.347  -2.170  19.466  1.00  0.00    -0.237 OA
ATOM     90  O   UNL     1       1.853  -4.345  20.515  1.00  0.00    -0.744 OA
ENDBRANCH  83  87
ENDBRANCH  57  80
ENDBRANCH  31  32
ENDBRANCH  23  26
ENDBRANCH  21  22
ENDBRANCH   1  21
TORSDOF 16
