REMARK SMILES N#C/C(=C/c1cccc(OCC(=O)NCCCCNC(=O)c2ccc(-c3c4nc(c(-c5cc(S(=O)(=O)[O-])ccc5F)c5ccc([nH]5)c(-c5cc(S(=O)(=O)[O-])ccc5F)c5nc(c(-c6cc(S(=O)(=O)[O-])ccc6F)c6ccc3[nH]6)C=C5)C=C4)cc2)c1)c1nc2ccccc2[nH]1
REMARK SMILES IDX 16 1 15 2 14 3 12 4 13 5 11 7 10 8 9 9 5 10 6 11 85 12 7 13
REMARK SMILES IDX 8 14 4 15 3 16 2 17 1 18 86 19 87 20 94 21 88 22 93 23 89 25
REMARK SMILES IDX 92 26 90 27 91 28 17 29 18 30 19 31 20 32 21 34 22 35 23 36
REMARK SMILES IDX 84 37 24 38 83 39 25 40 26 41 27 42 77 43 28 44 82 45 76 46
REMARK SMILES IDX 78 47 29 48 81 49 75 50 74 51 30 53 62 54 42 55 61 56 43 57
REMARK SMILES IDX 46 58 60 59 79 60 44 61 45 62 59 64 80 65 47 66 31 67 32 68
REMARK SMILES IDX 40 69 33 70 39 71 41 72 38 73 34 74 35 75 36 76 37 77 63 78
REMARK SMILES IDX 64 79 72 80 65 81 71 82 73 83 70 84 66 85 67 86 68 87 69 88
REMARK SMILES IDX 48 89 49 90 57 91 50 92 56 93 58 94 55 95 51 96 52 97 53 98
REMARK SMILES IDX 54 99
REMARK H PARENT 14 6 94 24 19 33 78 52 46 63
REMARK Flexibility Score: inf
ROOT
ATOM      1  C   UNL     1      10.453  -2.143   0.634  1.00  0.00     0.023 C 
ENDROOT
BRANCH   1   2
ATOM      2  C   UNL     1      10.033  -2.897  -0.627  1.00  0.00     0.116 C 
BRANCH   2   3
ATOM      3  N   UNL     1       8.600  -3.027  -0.821  1.00  0.00    -0.353 N 
ATOM      4  C   UNL     1       7.829  -2.453  -1.797  1.00  0.00     0.257 C 
ATOM      5  O   UNL     1       6.687  -2.873  -2.009  1.00  0.00    -0.271 OA
ATOM      6  H   UNL     1       8.125  -3.596  -0.173  1.00  0.00     0.163 HD
BRANCH   4   7
ATOM      7  C   UNL     1       8.400  -1.320  -2.655  1.00  0.00     0.329 C 
BRANCH   7   8
ATOM      8  O   UNL     1       8.901  -0.190  -1.961  1.00  0.00    -0.484 OA
BRANCH   8   9
ATOM      9  C   UNL     1       8.012   0.585  -1.266  1.00  0.00     0.120 A 
ATOM     10  C   UNL     1       5.827   1.290  -0.454  1.00  0.00    -0.021 A 
ATOM     11  C   UNL     1       6.440   2.274   0.327  1.00  0.00     0.008 A 
ATOM     12  C   UNL     1       6.620   0.463  -1.269  1.00  0.00     0.054 A 
ATOM     13  C   UNL     1       7.827   2.419   0.310  1.00  0.00     0.004 A 
ATOM     14  C   UNL     1       8.606   1.576  -0.481  1.00  0.00     0.046 A 
BRANCH  10  15
ATOM     15  C   UNL     1       4.362   1.140  -0.407  1.00  0.00     0.031 C 
ATOM     16  C   UNL     1       3.691   0.043  -0.002  1.00  0.00     0.095 C 
BRANCH  16  17
ATOM     17  C   UNL     1       2.171   0.043  -0.002  1.00  0.00     0.103 C 
ATOM     18  N   UNL     1       0.910   0.043  -0.002  1.00  0.00    -0.192 NA
ENDBRANCH  16  17
BRANCH  16  19
ATOM     19  C   UNL     1       4.355  -1.110   0.504  1.00  0.00     0.149 A 
ATOM     20  N   UNL     1       5.239  -1.235   1.475  1.00  0.00    -0.228 NA
ATOM     21  N   UNL     1       4.093  -2.337  -0.068  1.00  0.00    -0.337 N 
ATOM     22  C   UNL     1       5.580  -2.564   1.505  1.00  0.00     0.089 A 
ATOM     23  C   UNL     1       4.890  -3.276   0.535  1.00  0.00     0.066 A 
ATOM     24  H   UNL     1       3.444  -2.509  -0.787  1.00  0.00     0.168 HD
ATOM     25  C   UNL     1       6.488  -3.242   2.329  1.00  0.00     0.030 A 
ATOM     26  C   UNL     1       5.078  -4.641   0.303  1.00  0.00     0.028 A 
ATOM     27  C   UNL     1       6.707  -4.610   2.113  1.00  0.00     0.002 A 
ATOM     28  C   UNL     1       6.019  -5.293   1.108  1.00  0.00     0.002 A 
ENDBRANCH  16  19
ENDBRANCH  10  15
ENDBRANCH   8   9
ENDBRANCH   7   8
ENDBRANCH   4   7
ENDBRANCH   2   3
ENDBRANCH   1   2
BRANCH   1  29
ATOM     29  C   UNL     1      10.162  -2.789   1.994  1.00  0.00     0.023 C 
BRANCH  29  30
ATOM     30  C   UNL     1      10.398  -4.291   2.155  1.00  0.00     0.116 C 
BRANCH  30  31
ATOM     31  N   UNL     1      11.801  -4.641   2.251  1.00  0.00    -0.352 N 
ATOM     32  C   UNL     1      12.439  -5.469   3.149  1.00  0.00     0.251 C 
ATOM     33  H   UNL     1      12.384  -4.227   1.575  1.00  0.00     0.163 HD
ATOM     34  O   UNL     1      13.668  -5.485   3.157  1.00  0.00    -0.269 OA
BRANCH  32  35
ATOM     35  C   UNL     1      11.687  -6.321   4.114  1.00  0.00     0.039 A 
ATOM     36  C   UNL     1      12.220  -6.497   5.398  1.00  0.00     0.014 A 
ATOM     37  C   UNL     1      10.529  -7.021   3.761  1.00  0.00     0.014 A 
ATOM     38  C   UNL     1      11.592  -7.346   6.320  1.00  0.00     0.010 A 
ATOM     39  C   UNL     1       9.872  -7.830   4.702  1.00  0.00     0.010 A 
ATOM     40  C   UNL     1      10.406  -8.021   5.988  1.00  0.00    -0.014 A 
BRANCH  40  41
ATOM     41  C   UNL     1       9.776  -8.967   6.958  1.00  0.00     0.031 A 
ATOM     42  C   UNL     1       9.753 -10.450   6.671  1.00  0.00     0.074 A 
ATOM     43  C   UNL     1       9.241  -8.511   8.110  1.00  0.00     0.049 A 
ATOM     44  N   UNL     1       9.271 -11.430   7.396  1.00  0.00    -0.248 NA
ATOM     45  C   UNL     1      10.334 -10.884   5.393  1.00  0.00     0.031 C 
ATOM     46  C   UNL     1       9.173  -7.104   8.510  1.00  0.00     0.029 A 
ATOM     47  N   UNL     1       8.658  -9.180   9.161  1.00  0.00    -0.354 N 
ATOM     48  C   UNL     1       9.503 -12.595   6.670  1.00  0.00     0.074 A 
ATOM     49  C   UNL     1      10.100 -12.188   5.415  1.00  0.00     0.031 C 
ATOM     50  C   UNL     1       8.603  -7.019   9.724  1.00  0.00     0.029 A 
ATOM     51  C   UNL     1       8.237  -8.357  10.182  1.00  0.00     0.049 A 
ATOM     52  H   UNL     1       8.552 -10.159   9.182  1.00  0.00     0.167 HD
ATOM     53  C   UNL     1       9.272 -13.886   7.022  1.00  0.00     0.034 A 
ATOM     54  C   UNL     1       7.628  -8.643  11.352  1.00  0.00     0.034 A 
ATOM     55  C   UNL     1       8.673 -14.294   8.271  1.00  0.00     0.049 A 
ATOM     56  C   UNL     1       7.357 -10.087  11.709  1.00  0.00     0.074 A 
ATOM     57  C   UNL     1       8.386 -15.574   8.716  1.00  0.00     0.029 A 
ATOM     58  N   UNL     1       8.273 -13.430   9.281  1.00  0.00    -0.354 N 
ATOM     59  N   UNL     1       7.612 -11.174  11.017  1.00  0.00    -0.248 NA
ATOM     60  C   UNL     1       6.743 -10.342  13.020  1.00  0.00     0.031 C 
ATOM     61  C   UNL     1       7.770 -15.482   9.969  1.00  0.00     0.029 A 
ATOM     62  C   UNL     1       7.738 -14.149  10.341  1.00  0.00     0.049 A 
ATOM     63  H   UNL     1       8.356 -12.449   9.251  1.00  0.00     0.167 HD
ATOM     64  C   UNL     1       7.231 -12.239  11.832  1.00  0.00     0.074 A 
ATOM     65  C   UNL     1       6.752 -11.664  13.070  1.00  0.00     0.031 C 
ATOM     66  C   UNL     1       7.273 -13.572  11.580  1.00  0.00     0.034 A 
BRANCH  53  67
ATOM     67  C   UNL     1       9.666 -14.955   6.029  1.00  0.00     0.023 A 
ATOM     68  C   UNL     1      11.010 -15.159   5.669  1.00  0.00     0.031 A 
ATOM     69  C   UNL     1       8.694 -15.774   5.427  1.00  0.00     0.131 A 
ATOM     70  C   UNL     1      11.339 -16.106   4.688  1.00  0.00     0.055 A 
ATOM     71  C   UNL     1       9.036 -16.770   4.510  1.00  0.00     0.041 A 
ATOM     72  F   UNL     1       7.392 -15.615   5.716  1.00  0.00    -0.206 F 
ATOM     73  C   UNL     1      10.364 -16.932   4.125  1.00  0.00     0.022 A 
BRANCH  70  74
ATOM     74  S   UNL     1      13.041 -16.154   4.066  1.00  0.00     0.124 S 
ATOM     75  O   UNL     1      13.185 -14.815   3.501  1.00  0.00    -0.237 OA
ATOM     76  O   UNL     1      13.812 -16.426   5.273  1.00  0.00    -0.237 OA
ATOM     77  O   UNL     1      13.016 -17.238   3.084  1.00  0.00    -0.744 OA
ENDBRANCH  70  74
ENDBRANCH  53  67
BRANCH  54  78
ATOM     78  C   UNL     1       7.215  -7.553  12.288  1.00  0.00     0.023 A 
ATOM     79  C   UNL     1       7.739  -7.473  13.589  1.00  0.00     0.031 A 
ATOM     80  C   UNL     1       6.216  -6.632  11.926  1.00  0.00     0.131 A 
ATOM     81  C   UNL     1       7.208  -6.550  14.504  1.00  0.00     0.055 A 
ATOM     82  C   UNL     1       5.738  -5.671  12.819  1.00  0.00     0.041 A 
ATOM     83  F   UNL     1       5.680  -6.660  10.695  1.00  0.00    -0.206 F 
ATOM     84  C   UNL     1       6.220  -5.640  14.124  1.00  0.00     0.022 A 
BRANCH  81  85
ATOM     85  S   UNL     1       7.733  -6.647  16.239  1.00  0.00     0.124 S 
ATOM     86  O   UNL     1       7.447  -8.041  16.558  1.00  0.00    -0.237 OA
ATOM     87  O   UNL     1       9.143  -6.285  16.148  1.00  0.00    -0.237 OA
ATOM     88  O   UNL     1       6.881  -5.665  16.907  1.00  0.00    -0.744 OA
ENDBRANCH  81  85
ENDBRANCH  54  78
BRANCH  66  89
ATOM     89  C   UNL     1       6.857 -14.499  12.700  1.00  0.00     0.023 A 
ATOM     90  C   UNL     1       5.545 -14.519  13.204  1.00  0.00     0.031 A 
ATOM     91  C   UNL     1       7.806 -15.347  13.300  1.00  0.00     0.131 A 
ATOM     92  C   UNL     1       5.236 -15.306  14.325  1.00  0.00     0.055 A 
ATOM     93  C   UNL     1       7.476 -16.179  14.372  1.00  0.00     0.041 A 
ATOM     94  F   UNL     1       9.074 -15.373  12.861  1.00  0.00    -0.206 F 
ATOM     95  C   UNL     1       6.190 -16.147  14.902  1.00  0.00     0.022 A 
BRANCH  92  96
ATOM     96  S   UNL     1       3.604 -15.123  15.096  1.00  0.00     0.124 S 
ATOM     97  O   UNL     1       3.543 -13.687  15.345  1.00  0.00    -0.237 OA
ATOM     98  O   UNL     1       2.712 -15.627  14.056  1.00  0.00    -0.237 OA
ATOM     99  O   UNL     1       3.694 -15.958  16.293  1.00  0.00    -0.744 OA
ENDBRANCH  92  96
ENDBRANCH  66  89
ENDBRANCH  40  41
ENDBRANCH  32  35
ENDBRANCH  30  31
ENDBRANCH  29  30
ENDBRANCH   1  29
TORSDOF 19
