REMARK SMILES Cc1cc(C)c(S(=O)(=O)Nc2ccc(N3CCN(c4ccccn4)CC3)c(C(=O)NCCCCNC(=O)c3ccc(-c4c5nc(c(-c6cc(S(=O)(=O)[O-])ccc6F)c6ccc([nH]6)c(-c6cc(S(=O)(=O)[O-])ccc6F)c6nc(c(-c7cc(S(=O)(=O)[O-])ccc7F)c7ccc4[nH]7)C=C6)C=C5)cc3)c2)c(C)c1
REMARK SMILES IDX 32 1 31 2 30 3 28 4 29 5 27 7 11 8 12 9 101 10 13 11 14 12
REMARK SMILES IDX 10 13 7 15 8 16 9 17 6 18 1 19 2 20 3 21 104 22 4 23 102 24
REMARK SMILES IDX 5 25 103 26 15 27 16 28 26 29 17 30 25 31 18 32 19 33 20 34
REMARK SMILES IDX 24 35 21 36 23 37 22 38 33 39 34 40 35 41 36 42 37 44 38 45
REMARK SMILES IDX 39 46 100 47 40 48 99 49 41 50 42 51 43 52 93 53 44 54 98 55
REMARK SMILES IDX 92 56 94 57 45 58 97 59 91 60 90 61 46 63 78 64 58 65 77 66
REMARK SMILES IDX 59 67 62 68 76 69 95 70 60 71 61 72 75 74 96 75 63 76 47 77
REMARK SMILES IDX 48 78 56 79 49 80 55 81 57 82 54 83 50 84 51 85 52 86 53 87
REMARK SMILES IDX 79 88 80 89 88 90 81 91 87 92 89 93 86 94 82 95 83 96 84 97
REMARK SMILES IDX 85 98 64 99 65 100 73 101 66 102 72 103 74 104 71 105 67 106
REMARK SMILES IDX 68 107 69 108 70 109
REMARK H PARENT 30 6 10 14 35 43 94 62 62 73
REMARK Flexibility Score: inf
ROOT
ATOM      1  C   UNL     1      -0.134  -1.646   3.970  1.00  0.00     0.023 C 
ENDROOT
BRANCH   1   2
ATOM      2  C   UNL     1       0.764  -1.260   2.792  1.00  0.00     0.116 C 
BRANCH   2   3
ATOM      3  N   UNL     1       2.027  -1.955   2.901  1.00  0.00    -0.352 N 
ATOM      4  C   UNL     1       2.435  -3.202   2.496  1.00  0.00     0.253 C 
ATOM      5  O   UNL     1       3.446  -3.620   3.058  1.00  0.00    -0.269 OA
ATOM      6  H   UNL     1       2.730  -1.434   3.351  1.00  0.00     0.163 HD
BRANCH   4   7
ATOM      7  C   UNL     1       1.730  -4.005   1.432  1.00  0.00     0.065 A 
ATOM      8  C   UNL     1      -0.274  -4.392   0.124  1.00  0.00     0.050 A 
ATOM      9  C   UNL     1       0.398  -5.313  -0.669  1.00  0.00     0.029 A 
ATOM     10  C   UNL     1       0.336  -3.916   1.276  1.00  0.00     0.042 A 
ATOM     11  C   UNL     1       1.760  -5.506  -0.478  1.00  0.00     0.029 A 
ATOM     12  C   UNL     1       2.472  -4.764   0.484  1.00  0.00     0.050 A 
BRANCH   8  13
ATOM     13  N   UNL     1      -1.493  -3.882  -0.395  1.00  0.00    -0.280 N 
ATOM     14  H   UNL     1      -2.003  -4.481  -0.987  1.00  0.00     0.180 HD
BRANCH  13  15
ATOM     15  S   UNL     1      -2.158  -2.372  -0.107  1.00  0.00     0.262 S 
ATOM     16  O   UNL     1      -2.443  -2.320   1.314  1.00  0.00    -0.201 OA
ATOM     17  O   UNL     1      -3.223  -2.264  -1.085  1.00  0.00    -0.201 OA
BRANCH  15  18
ATOM     18  C   UNL     1      -1.030  -0.998  -0.447  1.00  0.00     0.093 A 
ATOM     19  C   UNL     1       1.886   2.187  -0.001  1.00  0.00     0.044 C 
ATOM     20  C   UNL     1       0.864   1.105  -0.197  1.00  0.00    -0.051 A 
ATOM     21  C   UNL     1      -0.459   1.303   0.181  1.00  0.00     0.008 A 
ATOM     22  C   UNL     1       1.190  -0.086  -0.844  1.00  0.00     0.008 A 
ATOM     23  C   UNL     1      -1.415   0.272   0.069  1.00  0.00    -0.030 A 
ATOM     24  C   UNL     1       0.245  -1.123  -1.031  1.00  0.00    -0.030 A 
ATOM     25  C   UNL     1      -2.833   0.664   0.411  1.00  0.00     0.046 C 
ATOM     26  C   UNL     1       0.710  -2.240  -1.911  1.00  0.00     0.046 C 
ENDBRANCH  15  18
ENDBRANCH  13  15
ENDBRANCH   8  13
BRANCH  12  27
ATOM     27  N   UNL     1       3.849  -4.696   0.359  1.00  0.00    -0.367 N 
ATOM     28  C   UNL     1       4.466  -4.439  -0.961  1.00  0.00     0.138 C 
ATOM     29  C   UNL     1       4.711  -5.406   1.318  1.00  0.00     0.138 C 
ATOM     30  C   UNL     1       5.850  -3.754  -0.819  1.00  0.00     0.139 C 
ATOM     31  C   UNL     1       6.033  -4.626   1.482  1.00  0.00     0.139 C 
ATOM     32  N   UNL     1       6.667  -4.489   0.154  1.00  0.00    -0.353 N 
BRANCH  32  33
ATOM     33  C   UNL     1       8.042  -4.372   0.099  1.00  0.00     0.128 A 
ATOM     34  C   UNL     1       8.832  -5.380   0.655  1.00  0.00     0.047 A 
ATOM     35  N   UNL     1       8.604  -3.323  -0.537  1.00  0.00    -0.239 NA
ATOM     36  C   UNL     1      10.219  -5.301   0.590  1.00  0.00     0.005 A 
ATOM     37  C   UNL     1       9.955  -3.248  -0.564  1.00  0.00     0.113 A 
ATOM     38  C   UNL     1      10.797  -4.203  -0.023  1.00  0.00     0.020 A 
ENDBRANCH  32  33
ENDBRANCH  12  27
ENDBRANCH   4   7
ENDBRANCH   2   3
ENDBRANCH   1   2
BRANCH   1  39
ATOM     39  C   UNL     1       0.280  -0.982   5.283  1.00  0.00     0.023 C 
BRANCH  39  40
ATOM     40  C   UNL     1       0.239   0.538   5.248  1.00  0.00     0.116 C 
BRANCH  40  41
ATOM     41  N   UNL     1      -1.067   1.055   4.871  1.00  0.00    -0.352 N 
ATOM     42  C   UNL     1      -1.698   2.181   5.337  1.00  0.00     0.251 C 
ATOM     43  H   UNL     1      -1.560   0.533   4.197  1.00  0.00     0.163 HD
ATOM     44  O   UNL     1      -2.863   2.410   5.032  1.00  0.00    -0.269 OA
BRANCH  42  45
ATOM     45  C   UNL     1      -0.957   3.088   6.235  1.00  0.00     0.039 A 
ATOM     46  C   UNL     1      -1.561   3.507   7.422  1.00  0.00     0.014 A 
ATOM     47  C   UNL     1       0.342   3.495   5.915  1.00  0.00     0.014 A 
ATOM     48  C   UNL     1      -0.843   4.309   8.309  1.00  0.00     0.010 A 
ATOM     49  C   UNL     1       1.081   4.226   6.836  1.00  0.00     0.010 A 
ATOM     50  C   UNL     1       0.489   4.659   8.032  1.00  0.00    -0.014 A 
BRANCH  50  51
ATOM     51  C   UNL     1       1.260   5.529   8.954  1.00  0.00     0.031 A 
ATOM     52  C   UNL     1       1.704   6.891   8.490  1.00  0.00     0.074 A 
ATOM     53  C   UNL     1       1.597   5.080  10.178  1.00  0.00     0.049 A 
ATOM     54  N   UNL     1       2.429   7.784   9.112  1.00  0.00    -0.248 NA
ATOM     55  C   UNL     1       1.308   7.282   7.128  1.00  0.00     0.031 C 
ATOM     56  C   UNL     1       1.261   3.760  10.718  1.00  0.00     0.029 A 
ATOM     57  N   UNL     1       2.298   5.683  11.191  1.00  0.00    -0.354 N 
ATOM     58  C   UNL     1       2.592   8.832   8.211  1.00  0.00     0.074 A 
ATOM     59  C   UNL     1       1.950   8.430   6.979  1.00  0.00     0.031 C 
ATOM     60  C   UNL     1       1.728   3.668  11.974  1.00  0.00     0.029 A 
ATOM     61  C   UNL     1       2.427   4.902  12.316  1.00  0.00     0.049 A 
ATOM     62  H   UNL     1       2.674   6.590  11.119  1.00  0.00     0.167 HD
ATOM     63  C   UNL     1       3.198  10.030   8.403  1.00  0.00     0.034 A 
ATOM     64  C   UNL     1       3.039   5.158  13.489  1.00  0.00     0.034 A 
ATOM     65  C   UNL     1       3.811  10.421   9.649  1.00  0.00     0.049 A 
ATOM     66  C   UNL     1       3.694   6.503  13.685  1.00  0.00     0.074 A 
ATOM     67  C   UNL     1       4.412  11.623   9.977  1.00  0.00     0.029 A 
ATOM     68  N   UNL     1       3.897   9.615  10.778  1.00  0.00    -0.354 N 
ATOM     69  N   UNL     1       3.800   7.504  12.841  1.00  0.00    -0.248 NA
ATOM     70  C   UNL     1       4.292   6.759  15.001  1.00  0.00     0.031 C 
ATOM     71  C   UNL     1       4.913  11.524  11.280  1.00  0.00     0.029 A 
ATOM     72  C   UNL     1       4.557  10.287  11.795  1.00  0.00     0.049 A 
ATOM     73  H   UNL     1       3.542   8.699  10.846  1.00  0.00     0.167 HD
ATOM     74  C   UNL     1       4.437   8.524  13.542  1.00  0.00     0.074 A 
ATOM     75  C   UNL     1       4.679   8.019  14.878  1.00  0.00     0.031 C 
ATOM     76  C   UNL     1       4.786   9.769  13.124  1.00  0.00     0.034 A 
BRANCH  63  77
ATOM     77  C   UNL     1       3.243  10.980   7.229  1.00  0.00     0.023 A 
ATOM     78  C   UNL     1       2.069  11.487   6.642  1.00  0.00     0.031 A 
ATOM     79  C   UNL     1       4.473  11.352   6.660  1.00  0.00     0.131 A 
ATOM     80  C   UNL     1       2.147  12.262   5.475  1.00  0.00     0.055 A 
ATOM     81  C   UNL     1       4.547  12.198   5.551  1.00  0.00     0.041 A 
ATOM     82  F   UNL     1       5.628  10.885   7.161  1.00  0.00    -0.206 F 
ATOM     83  C   UNL     1       3.379  12.643   4.941  1.00  0.00     0.022 A 
BRANCH  80  84
ATOM     84  S   UNL     1       0.614  12.631   4.577  1.00  0.00     0.124 S 
ATOM     85  O   UNL     1       0.124  11.289   4.268  1.00  0.00    -0.237 OA
ATOM     86  O   UNL     1      -0.156  13.381   5.561  1.00  0.00    -0.237 OA
ATOM     87  O   UNL     1       1.070  13.400   3.421  1.00  0.00    -0.744 OA
ENDBRANCH  80  84
ENDBRANCH  63  77
BRANCH  64  88
ATOM     88  C   UNL     1       3.052   4.140  14.578  1.00  0.00     0.023 A 
ATOM     89  C   UNL     1       2.399   4.381  15.797  1.00  0.00     0.031 A 
ATOM     90  C   UNL     1       3.759   2.933  14.437  1.00  0.00     0.131 A 
ATOM     91  C   UNL     1       2.513   3.457  16.848  1.00  0.00     0.055 A 
ATOM     92  C   UNL     1       3.824   1.992  15.466  1.00  0.00     0.041 A 
ATOM     93  F   UNL     1       4.395   2.649  13.288  1.00  0.00    -0.206 F 
ATOM     94  C   UNL     1       3.212   2.259  16.686  1.00  0.00     0.022 A 
BRANCH  91  95
ATOM     95  S   UNL     1       1.810   3.890  18.463  1.00  0.00     0.124 S 
ATOM     96  O   UNL     1       2.499   5.140  18.762  1.00  0.00    -0.237 OA
ATOM     97  O   UNL     1       0.388   3.999  18.154  1.00  0.00    -0.237 OA
ATOM     98  O   UNL     1       2.177   2.756  19.308  1.00  0.00    -0.744 OA
ENDBRANCH  91  95
ENDBRANCH  64  88
BRANCH  76  99
ATOM     99  C   UNL     1       5.401  10.688  14.152  1.00  0.00     0.023 A 
ATOM    100  C   UNL     1       6.656  10.427  14.728  1.00  0.00     0.031 A 
ATOM    101  C   UNL     1       4.700  11.829  14.580  1.00  0.00     0.131 A 
ATOM    102  C   UNL     1       7.140  11.256  15.751  1.00  0.00     0.055 A 
ATOM    103  C   UNL     1       5.217  12.688  15.551  1.00  0.00     0.041 A 
ATOM    104  F   UNL     1       3.497  12.128  14.064  1.00  0.00    -0.206 F 
ATOM    105  C   UNL     1       6.436  12.393  16.155  1.00  0.00     0.022 A 
BRANCH 102 106
ATOM    106  S   UNL     1       8.650  10.764  16.628  1.00  0.00     0.124 S 
ATOM    107  O   UNL     1       8.311   9.420  17.087  1.00  0.00    -0.237 OA
ATOM    108  O   UNL     1       9.659  10.842  15.578  1.00  0.00    -0.237 OA
ATOM    109  O   UNL     1       8.775  11.766  17.684  1.00  0.00    -0.744 OA
ENDBRANCH 102 106
ENDBRANCH  76  99
ENDBRANCH  50  51
ENDBRANCH  42  45
ENDBRANCH  40  41
ENDBRANCH  39  40
ENDBRANCH   1  39
TORSDOF 19
