REMARK SMILES [NH3+][C@@H](CC(=O)NCCCCNC(=O)c1ccc(-c2c3nc(c(-c4cc(S(=O)(=O)[O-])ccc4F)c4ccc([nH]4)c(-c4cc(S(=O)(=O)[O-])ccc4F)c4nc(c(-c5cc(S(=O)(=O)[O-])ccc5F)c5ccc2[nH]5)C=C4)C=C3)cc1)c1ccc(C(F)(F)F)cc1F
REMARK SMILES IDX 8 1 7 2 6 3 4 4 5 5 3 7 2 8 1 9 77 13 78 14 86 15 79 16
REMARK SMILES IDX 85 17 87 18 80 19 81 20 82 21 83 22 84 23 9 24 10 25 11 26
REMARK SMILES IDX 12 27 13 29 14 30 15 31 76 32 16 33 75 34 17 35 18 36 19 37
REMARK SMILES IDX 69 38 20 39 74 40 68 41 70 42 21 43 73 44 67 45 66 46 22 48
REMARK SMILES IDX 54 49 34 50 53 51 35 52 38 53 52 54 71 55 36 56 37 57 51 59
REMARK SMILES IDX 72 60 39 61 23 62 24 63 32 64 25 65 31 66 33 67 30 68 26 69
REMARK SMILES IDX 27 70 28 71 29 72 55 73 56 74 64 75 57 76 63 77 65 78 62 79
REMARK SMILES IDX 58 80 59 81 60 82 61 83 40 84 41 85 49 86 42 87 48 88 50 89
REMARK SMILES IDX 47 90 43 91 44 92 45 93 46 94
REMARK H PARENT 6 6 1 10 1 11 1 12 11 28 70 47 38 58
REMARK Flexibility Score: inf
ROOT
ATOM      1  C   UNL     1       1.080   2.271   0.066  1.00  0.00     0.023 C 
ENDROOT
BRANCH   1   2
ATOM      2  C   UNL     1       1.844   1.601   1.206  1.00  0.00     0.116 C 
BRANCH   2   3
ATOM      3  N   UNL     1       0.962   1.233   2.294  1.00  0.00    -0.356 N 
ATOM      4  C   UNL     1       0.546   0.001   2.697  1.00  0.00     0.226 C 
ATOM      5  O   UNL     1      -0.213  -0.068   3.665  1.00  0.00    -0.275 OA
ATOM      6  H   UNL     1       0.611   1.986   2.821  1.00  0.00     0.163 HD
BRANCH   4   7
ATOM      7  C   UNL     1       1.028  -1.249   1.993  1.00  0.00     0.170 C 
BRANCH   7   8
ATOM      8  C   UNL     1       0.286  -1.695   0.717  1.00  0.00     0.224 C 
BRANCH   8   9
ATOM      9  N   UNL     1       0.821  -1.152  -0.537  1.00  0.00    -0.351 N 
ATOM     10  H   UNL     1       1.838  -1.235  -0.538  1.00  0.00     0.345 HD
ATOM     11  H   UNL     1       0.559  -0.170  -0.622  1.00  0.00     0.345 HD
ATOM     12  H   UNL     1       0.437  -1.675  -1.325  1.00  0.00     0.345 HD
ENDBRANCH   8   9
BRANCH   8  13
ATOM     13  C   UNL     1      -1.225  -1.593   0.762  1.00  0.00     0.045 A 
ATOM     14  C   UNL     1      -1.900  -0.362   0.765  1.00  0.00     0.013 A 
ATOM     15  C   UNL     1      -2.002  -2.755   0.795  1.00  0.00     0.132 A 
ATOM     16  C   UNL     1      -3.295  -0.299   0.812  1.00  0.00     0.014 A 
ATOM     17  C   UNL     1      -3.395  -2.705   0.834  1.00  0.00     0.052 A 
ATOM     18  F   UNL     1      -1.413  -3.959   0.794  1.00  0.00    -0.206 F 
ATOM     19  C   UNL     1      -4.059  -1.472   0.847  1.00  0.00     0.058 A 
BRANCH  19  20
ATOM     20  C   UNL     1      -5.561  -1.392   0.908  1.00  0.00     0.416 C 
ATOM     21  F   UNL     1      -6.006  -0.765   2.031  1.00  0.00    -0.166 F 
ATOM     22  F   UNL     1      -6.090  -0.703  -0.141  1.00  0.00    -0.166 F 
ATOM     23  F   UNL     1      -6.171  -2.611   0.896  1.00  0.00    -0.166 F 
ENDBRANCH  19  20
ENDBRANCH   8  13
ENDBRANCH   7   8
ENDBRANCH   4   7
ENDBRANCH   2   3
ENDBRANCH   1   2
BRANCH   1  24
ATOM     24  C   UNL     1       0.548   3.667   0.382  1.00  0.00     0.023 C 
BRANCH  24  25
ATOM     25  C   UNL     1       1.620   4.685   0.739  1.00  0.00     0.116 C 
BRANCH  25  26
ATOM     26  N   UNL     1       2.649   4.792  -0.284  1.00  0.00    -0.352 N 
ATOM     27  C   UNL     1       3.226   5.916  -0.818  1.00  0.00     0.251 C 
ATOM     28  H   UNL     1       2.978   3.936  -0.644  1.00  0.00     0.163 HD
ATOM     29  O   UNL     1       3.959   5.812  -1.798  1.00  0.00    -0.269 OA
BRANCH  27  30
ATOM     30  C   UNL     1       2.931   7.239  -0.230  1.00  0.00     0.039 A 
ATOM     31  C   UNL     1       2.681   8.313  -1.084  1.00  0.00     0.014 A 
ATOM     32  C   UNL     1       2.879   7.412   1.156  1.00  0.00     0.014 A 
ATOM     33  C   UNL     1       2.322   9.548  -0.544  1.00  0.00     0.010 A 
ATOM     34  C   UNL     1       2.426   8.614   1.687  1.00  0.00     0.010 A 
ATOM     35  C   UNL     1       2.154   9.699   0.843  1.00  0.00    -0.014 A 
BRANCH  35  36
ATOM     36  C   UNL     1       1.698  10.993   1.411  1.00  0.00     0.031 A 
ATOM     37  C   UNL     1       2.586  11.770   2.344  1.00  0.00     0.074 A 
ATOM     38  C   UNL     1       0.469  11.450   1.098  1.00  0.00     0.049 A 
ATOM     39  N   UNL     1       2.374  12.929   2.911  1.00  0.00    -0.248 NA
ATOM     40  C   UNL     1       3.867  11.148   2.714  1.00  0.00     0.031 C 
ATOM     41  C   UNL     1      -0.504  10.747   0.257  1.00  0.00     0.029 A 
ATOM     42  N   UNL     1      -0.170  12.615   1.437  1.00  0.00    -0.354 N 
ATOM     43  C   UNL     1       3.491  13.175   3.702  1.00  0.00     0.074 A 
ATOM     44  C   UNL     1       4.338  12.007   3.604  1.00  0.00     0.031 C 
ATOM     45  C   UNL     1      -1.591  11.518   0.102  1.00  0.00     0.029 A 
ATOM     46  C   UNL     1      -1.416  12.748   0.867  1.00  0.00     0.049 A 
ATOM     47  H   UNL     1       0.224  13.292   2.032  1.00  0.00     0.167 HD
ATOM     48  C   UNL     1       3.796  14.286   4.418  1.00  0.00     0.034 A 
ATOM     49  C   UNL     1      -2.312  13.751   0.947  1.00  0.00     0.034 A 
ATOM     50  C   UNL     1       2.937  15.442   4.498  1.00  0.00     0.049 A 
ATOM     51  C   UNL     1      -1.953  14.973   1.754  1.00  0.00     0.074 A 
ATOM     52  C   UNL     1       3.163  16.642   5.149  1.00  0.00     0.029 A 
ATOM     53  N   UNL     1       1.678  15.540   3.915  1.00  0.00    -0.354 N 
ATOM     54  N   UNL     1      -0.859  15.220   2.438  1.00  0.00    -0.248 NA
ATOM     55  C   UNL     1      -2.941  16.056   1.782  1.00  0.00     0.031 C 
ATOM     56  C   UNL     1       2.015  17.433   5.024  1.00  0.00     0.029 A 
ATOM     57  C   UNL     1       1.104  16.765   4.220  1.00  0.00     0.049 A 
ATOM     58  H   UNL     1       1.256  14.841   3.365  1.00  0.00     0.167 HD
ATOM     59  C   UNL     1      -1.019  16.503   2.956  1.00  0.00     0.074 A 
ATOM     60  C   UNL     1      -2.301  16.982   2.478  1.00  0.00     0.031 C 
ATOM     61  C   UNL     1      -0.186  17.220   3.754  1.00  0.00     0.034 A 
BRANCH  48  62
ATOM     62  C   UNL     1       5.100  14.284   5.184  1.00  0.00     0.023 A 
ATOM     63  C   UNL     1       6.341  14.161   4.532  1.00  0.00     0.031 A 
ATOM     64  C   UNL     1       5.104  14.379   6.587  1.00  0.00     0.131 A 
ATOM     65  C   UNL     1       7.522  14.056   5.282  1.00  0.00     0.055 A 
ATOM     66  C   UNL     1       6.291  14.363   7.323  1.00  0.00     0.041 A 
ATOM     67  F   UNL     1       3.953  14.474   7.270  1.00  0.00    -0.206 F 
ATOM     68  C   UNL     1       7.509  14.184   6.673  1.00  0.00     0.022 A 
BRANCH  65  69
ATOM     69  S   UNL     1       9.054  13.596   4.427  1.00  0.00     0.124 S 
ATOM     70  O   UNL     1       8.684  12.313   3.831  1.00  0.00    -0.237 OA
ATOM     71  O   UNL     1       9.241  14.702   3.496  1.00  0.00    -0.237 OA
ATOM     72  O   UNL     1      10.037  13.512   5.505  1.00  0.00    -0.744 OA
ENDBRANCH  65  69
ENDBRANCH  48  62
BRANCH  49  73
ATOM     73  C   UNL     1      -3.623  13.654   0.243  1.00  0.00     0.023 A 
ATOM     74  C   UNL     1      -3.968  14.552  -0.780  1.00  0.00     0.031 A 
ATOM     75  C   UNL     1      -4.572  12.683   0.612  1.00  0.00     0.131 A 
ATOM     76  C   UNL     1      -5.244  14.495  -1.362  1.00  0.00     0.055 A 
ATOM     77  C   UNL     1      -5.818  12.593  -0.010  1.00  0.00     0.041 A 
ATOM     78  F   UNL     1      -4.293  11.795   1.580  1.00  0.00    -0.206 F 
ATOM     79  C   UNL     1      -6.166  13.513  -0.994  1.00  0.00     0.022 A 
BRANCH  76  80
ATOM     80  S   UNL     1      -5.718  15.787  -2.544  1.00  0.00     0.124 S 
ATOM     81  O   UNL     1      -5.535  16.997  -1.752  1.00  0.00    -0.237 OA
ATOM     82  O   UNL     1      -4.759  15.575  -3.624  1.00  0.00    -0.237 OA
ATOM     83  O   UNL     1      -7.104  15.456  -2.871  1.00  0.00    -0.744 OA
ENDBRANCH  76  80
ENDBRANCH  49  73
BRANCH  61  84
ATOM     84  C   UNL     1      -0.634  18.614   4.125  1.00  0.00     0.023 A 
ATOM     85  C   UNL     1      -1.789  18.838   4.895  1.00  0.00     0.031 A 
ATOM     86  C   UNL     1       0.082  19.735   3.669  1.00  0.00     0.131 A 
ATOM     87  C   UNL     1      -2.239  20.148   5.115  1.00  0.00     0.055 A 
ATOM     88  C   UNL     1      -0.328  21.038   3.958  1.00  0.00     0.041 A 
ATOM     89  F   UNL     1       1.191  19.584   2.928  1.00  0.00    -0.206 F 
ATOM     90  C   UNL     1      -1.506  21.250   4.668  1.00  0.00     0.022 A 
BRANCH  87  91
ATOM     91  S   UNL     1      -3.868  20.388   5.878  1.00  0.00     0.124 S 
ATOM     92  O   UNL     1      -4.736  19.634   4.979  1.00  0.00    -0.237 OA
ATOM     93  O   UNL     1      -3.676  19.817   7.207  1.00  0.00    -0.237 OA
ATOM     94  O   UNL     1      -4.051  21.837   5.846  1.00  0.00    -0.744 OA
ENDBRANCH  87  91
ENDBRANCH  61  84
ENDBRANCH  35  36
ENDBRANCH  27  30
ENDBRANCH  25  26
ENDBRANCH  24  25
ENDBRANCH   1  24
TORSDOF 18
