REMARK SMILES COc1ccc(-c2cc(Cl)cc3c2O[C@@H](C(F)(F)F)C(C(=O)NCCCCNC(=O)c2ccc(-c4c5nc(c(-c6cc(S(=O)(=O)[O-])ccc6F)c6ccc([nH]6)c(-c6cc(S(=O)(=O)[O-])ccc6F)c6nc(c(-c7cc(S(=O)(=O)[O-])ccc7F)c7ccc4[nH]7)C=C6)C=C5)cc2)=C3)cc1C
REMARK SMILES IDX 26 1 25 2 24 3 23 4 21 5 22 6 20 8 7 9 8 10 13 11 9 12 12 13
REMARK SMILES IDX 14 14 10 15 11 16 94 17 15 18 6 19 3 20 4 21 96 22 5 23
REMARK SMILES IDX 95 24 97 25 2 26 1 27 16 28 17 29 18 30 19 31 27 32 28 33
REMARK SMILES IDX 29 34 30 36 31 37 32 38 93 39 33 40 92 41 34 42 35 43 36 44
REMARK SMILES IDX 86 45 37 46 91 47 85 48 87 49 38 50 90 51 84 52 83 53 39 55
REMARK SMILES IDX 71 56 51 57 70 58 52 59 55 60 69 61 88 62 53 63 54 64 68 66
REMARK SMILES IDX 89 67 56 68 40 69 41 70 49 71 42 72 48 73 50 74 47 75 43 76
REMARK SMILES IDX 44 77 45 78 46 79 72 80 73 81 81 82 74 83 80 84 82 85 79 86
REMARK SMILES IDX 75 87 76 88 77 89 78 90 57 91 58 92 66 93 59 94 65 95 67 96
REMARK SMILES IDX 64 97 60 98 61 99 62 100 63 101
REMARK H PARENT 23 7 28 35 87 54 55 65
REMARK Flexibility Score: inf
ROOT
ATOM      1  C   UNL     1      -3.742  -2.813  -7.289  1.00  0.00     0.023 C 
ENDROOT
BRANCH   1   2
ATOM      2  C   UNL     1      -2.655  -3.449  -8.158  1.00  0.00     0.023 C 
BRANCH   2   3
ATOM      3  C   UNL     1      -1.391  -2.629  -8.480  1.00  0.00     0.116 C 
BRANCH   3   4
ATOM      4  N   UNL     1      -0.439  -2.504  -7.380  1.00  0.00    -0.352 N 
ATOM      5  C   UNL     1       0.910  -2.724  -7.308  1.00  0.00     0.251 C 
ATOM      6  O   UNL     1       1.537  -2.023  -6.506  1.00  0.00    -0.270 OA
ATOM      7  H   UNL     1      -0.843  -2.206  -6.533  1.00  0.00     0.163 HD
BRANCH   5   8
ATOM      8  C   UNL     1       1.629  -3.871  -8.030  1.00  0.00     0.067 C 
ATOM      9  C   UNL     1       1.177  -5.636  -4.474  1.00  0.00     0.026 A 
ATOM     10  C   UNL     1       2.145  -6.522  -3.966  1.00  0.00     0.033 A 
ATOM     11  C   UNL     1       1.360  -5.296  -5.812  1.00  0.00     0.135 A 
ATOM     12  C   UNL     1       3.383  -6.650  -4.610  1.00  0.00     0.042 A 
ATOM     13  C   UNL     1       2.673  -5.101  -6.299  1.00  0.00     0.019 A 
ATOM     14  O   UNL     1       0.285  -5.351  -6.729  1.00  0.00    -0.475 OA
ATOM     15  Cl  UNL     1       4.584  -7.677  -3.929  1.00  0.00    -0.084 Cl
ATOM     16  C   UNL     1       3.690  -5.852  -5.719  1.00  0.00     0.032 A 
ATOM     17  C   UNL     1       2.837  -4.164  -7.468  1.00  0.00     0.025 C 
ATOM     18  C   UNL     1       0.830  -5.163  -8.079  1.00  0.00     0.314 C 
BRANCH   9  19
ATOM     19  C   UNL     1       0.823  -4.543  -3.508  1.00  0.00    -0.014 A 
ATOM     20  C   UNL     1       0.465  -2.611  -1.450  1.00  0.00     0.121 A 
ATOM     21  C   UNL     1      -0.575  -3.474  -1.845  1.00  0.00     0.047 A 
ATOM     22  C   UNL     1       1.705  -2.695  -2.084  1.00  0.00    -0.008 A 
ATOM     23  C   UNL     1      -0.403  -4.431  -2.862  1.00  0.00     0.013 A 
ATOM     24  C   UNL     1       1.843  -3.629  -3.127  1.00  0.00     0.016 A 
ATOM     25  C   UNL     1       2.914  -1.892  -1.695  1.00  0.00     0.048 C 
BRANCH  20  26
ATOM     26  O   UNL     1       0.179  -1.826  -0.363  1.00  0.00    -0.496 OA
ATOM     27  C   UNL     1       0.547  -0.454  -0.480  1.00  0.00     0.278 C 
ENDBRANCH  20  26
ENDBRANCH   9  19
BRANCH  18  28
ATOM     28  C   UNL     1       0.034  -5.446  -9.361  1.00  0.00     0.429 C 
ATOM     29  F   UNL     1       0.468  -6.616  -9.916  1.00  0.00    -0.167 F 
ATOM     30  F   UNL     1      -1.286  -5.593  -9.168  1.00  0.00    -0.167 F 
ATOM     31  F   UNL     1       0.246  -4.509 -10.310  1.00  0.00    -0.167 F 
ENDBRANCH  18  28
ENDBRANCH   5   8
ENDBRANCH   3   4
ENDBRANCH   2   3
ENDBRANCH   1   2
BRANCH   1  32
ATOM     32  C   UNL     1      -4.209  -1.419  -7.678  1.00  0.00     0.116 C 
BRANCH  32  33
ATOM     33  N   UNL     1      -5.289  -1.301  -8.648  1.00  0.00    -0.352 N 
ATOM     34  C   UNL     1      -5.855  -0.133  -9.162  1.00  0.00     0.251 C 
ATOM     35  H   UNL     1      -5.666  -2.148  -8.981  1.00  0.00     0.163 HD
ATOM     36  O   UNL     1      -6.862  -0.164  -9.849  1.00  0.00    -0.269 OA
BRANCH  34  37
ATOM     37  C   UNL     1      -5.149   1.162  -8.944  1.00  0.00     0.039 A 
ATOM     38  C   UNL     1      -4.852   1.950 -10.063  1.00  0.00     0.014 A 
ATOM     39  C   UNL     1      -4.561   1.447  -7.719  1.00  0.00     0.014 A 
ATOM     40  C   UNL     1      -3.769   2.828 -10.011  1.00  0.00     0.010 A 
ATOM     41  C   UNL     1      -3.401   2.191  -7.709  1.00  0.00     0.010 A 
ATOM     42  C   UNL     1      -2.970   2.840  -8.870  1.00  0.00    -0.014 A 
BRANCH  42  43
ATOM     43  C   UNL     1      -1.605   3.358  -8.836  1.00  0.00     0.031 A 
ATOM     44  C   UNL     1      -1.245   4.506  -7.978  1.00  0.00     0.074 A 
ATOM     45  C   UNL     1      -0.624   2.699  -9.493  1.00  0.00     0.049 A 
ATOM     46  N   UNL     1      -0.226   5.270  -8.184  1.00  0.00    -0.248 NA
ATOM     47  C   UNL     1      -2.028   4.905  -6.816  1.00  0.00     0.031 C 
ATOM     48  C   UNL     1       0.819   2.861  -9.328  1.00  0.00     0.029 A 
ATOM     49  N   UNL     1      -0.753   1.896 -10.623  1.00  0.00    -0.354 N 
ATOM     50  C   UNL     1      -0.030   6.020  -7.048  1.00  0.00     0.074 A 
ATOM     51  C   UNL     1      -1.222   5.813  -6.259  1.00  0.00     0.031 C 
ATOM     52  C   UNL     1       1.435   2.422 -10.435  1.00  0.00     0.029 A 
ATOM     53  C   UNL     1       0.405   2.090 -11.399  1.00  0.00     0.049 A 
ATOM     54  H   UNL     1      -1.510   1.304 -10.839  1.00  0.00     0.167 HD
ATOM     55  C   UNL     1       1.180   6.611  -6.834  1.00  0.00     0.034 A 
ATOM     56  C   UNL     1       0.323   2.587 -12.667  1.00  0.00     0.034 A 
ATOM     57  C   UNL     1       2.102   6.374  -7.948  1.00  0.00     0.049 A 
ATOM     58  C   UNL     1       1.054   3.897 -12.857  1.00  0.00     0.074 A 
ATOM     59  C   UNL     1       3.197   5.540  -8.112  1.00  0.00     0.029 A 
ATOM     60  N   UNL     1       1.794   6.861  -9.213  1.00  0.00    -0.354 N 
ATOM     61  N   UNL     1       1.496   4.645 -11.884  1.00  0.00    -0.248 NA
ATOM     62  C   UNL     1       1.322   4.480 -14.165  1.00  0.00     0.031 C 
ATOM     63  C   UNL     1       3.539   5.524  -9.490  1.00  0.00     0.029 A 
ATOM     64  C   UNL     1       2.665   6.361 -10.162  1.00  0.00     0.049 A 
ATOM     65  H   UNL     1       1.053   7.479  -9.407  1.00  0.00     0.167 HD
ATOM     66  C   UNL     1       2.062   5.793 -12.389  1.00  0.00     0.074 A 
ATOM     67  C   UNL     1       1.940   5.626 -13.828  1.00  0.00     0.031 C 
ATOM     68  C   UNL     1       2.556   6.768 -11.560  1.00  0.00     0.034 A 
BRANCH  55  69
ATOM     69  C   UNL     1       1.634   7.150  -5.492  1.00  0.00     0.023 A 
ATOM     70  C   UNL     1       3.010   7.152  -5.178  1.00  0.00     0.031 A 
ATOM     71  C   UNL     1       0.790   7.636  -4.474  1.00  0.00     0.131 A 
ATOM     72  C   UNL     1       3.477   7.497  -3.897  1.00  0.00     0.055 A 
ATOM     73  C   UNL     1       1.244   7.923  -3.179  1.00  0.00     0.041 A 
ATOM     74  F   UNL     1      -0.500   7.916  -4.702  1.00  0.00    -0.206 F 
ATOM     75  C   UNL     1       2.594   7.839  -2.878  1.00  0.00     0.022 A 
BRANCH  72  76
ATOM     76  S   UNL     1       5.263   7.503  -3.582  1.00  0.00     0.124 S 
ATOM     77  O   UNL     1       5.630   6.117  -3.854  1.00  0.00    -0.237 OA
ATOM     78  O   UNL     1       5.742   8.498  -4.535  1.00  0.00    -0.237 OA
ATOM     79  O   UNL     1       5.358   7.901  -2.178  1.00  0.00    -0.744 OA
ENDBRANCH  72  76
ENDBRANCH  55  69
BRANCH  56  80
ATOM     80  C   UNL     1      -0.922   2.161 -13.371  1.00  0.00     0.023 A 
ATOM     81  C   UNL     1      -1.128   0.770 -13.504  1.00  0.00     0.031 A 
ATOM     82  C   UNL     1      -2.034   3.004 -13.493  1.00  0.00     0.131 A 
ATOM     83  C   UNL     1      -2.429   0.253 -13.561  1.00  0.00     0.055 A 
ATOM     84  C   UNL     1      -3.327   2.482 -13.633  1.00  0.00     0.041 A 
ATOM     85  F   UNL     1      -1.907   4.330 -13.338  1.00  0.00    -0.206 F 
ATOM     86  C   UNL     1      -3.535   1.101 -13.620  1.00  0.00     0.022 A 
BRANCH  83  87
ATOM     87  S   UNL     1      -2.644  -1.528 -13.264  1.00  0.00     0.124 S 
ATOM     88  O   UNL     1      -2.198  -2.103 -14.528  1.00  0.00    -0.237 OA
ATOM     89  O   UNL     1      -1.773  -1.759 -12.111  1.00  0.00    -0.237 OA
ATOM     90  O   UNL     1      -4.070  -1.664 -12.981  1.00  0.00    -0.744 OA
ENDBRANCH  83  87
ENDBRANCH  56  80
BRANCH  68  91
ATOM     91  C   UNL     1       3.046   8.162 -11.945  1.00  0.00     0.023 A 
ATOM     92  C   UNL     1       3.090   8.653 -13.257  1.00  0.00     0.031 A 
ATOM     93  C   UNL     1       3.481   9.086 -10.955  1.00  0.00     0.131 A 
ATOM     94  C   UNL     1       3.560   9.950 -13.551  1.00  0.00     0.055 A 
ATOM     95  C   UNL     1       3.912  10.387 -11.242  1.00  0.00     0.041 A 
ATOM     96  F   UNL     1       3.500   8.781  -9.650  1.00  0.00    -0.206 F 
ATOM     97  C   UNL     1       3.960  10.828 -12.550  1.00  0.00     0.022 A 
BRANCH  94  98
ATOM     98  S   UNL     1       3.669  10.448 -15.291  1.00  0.00     0.124 S 
ATOM     99  O   UNL     1       4.595   9.458 -15.833  1.00  0.00    -0.237 OA
ATOM    100  O   UNL     1       2.284  10.328 -15.735  1.00  0.00    -0.237 OA
ATOM    101  O   UNL     1       4.186  11.814 -15.230  1.00  0.00    -0.744 OA
ENDBRANCH  94  98
ENDBRANCH  68  91
ENDBRANCH  42  43
ENDBRANCH  34  37
ENDBRANCH  32  33
ENDBRANCH   1  32
TORSDOF 17
