REMARK SMILES COc1cc([C@H]2c3c(-c4ccccc4)n[nH]c3C(=O)N2c2ccc(C(=O)NCCCCNC(=O)c3ccc(-c4c5nc(c(-c6cc(S(=O)(=O)[O-])ccc6F)c6ccc([nH]6)c(-c6cc(S(=O)(=O)[O-])ccc6F)c6nc(c(-c7cc(S(=O)(=O)[O-])ccc7F)c7ccc4[nH]7)C=C6)C=C5)cc3)cc2)ccc1O
REMARK SMILES IDX 29 1 28 2 27 3 25 4 26 5 24 7 21 8 22 9 99 10 23 11 98 12
REMARK SMILES IDX 20 13 6 14 7 15 8 16 17 17 18 18 15 19 16 20 19 21 5 23 3 24
REMARK SMILES IDX 4 25 102 26 101 27 100 28 2 29 1 30 103 31 9 33 10 34 14 35
REMARK SMILES IDX 11 36 13 37 12 38 30 39 31 40 32 41 33 42 34 44 35 45 36 46
REMARK SMILES IDX 97 47 37 48 96 49 38 50 39 51 40 52 90 53 41 54 95 55 89 56
REMARK SMILES IDX 91 57 42 58 94 59 88 60 87 61 43 63 75 64 55 65 74 66 56 67
REMARK SMILES IDX 59 68 73 69 92 70 57 71 58 72 72 74 93 75 60 76 44 77 45 78
REMARK SMILES IDX 53 79 46 80 52 81 54 82 51 83 47 84 48 85 49 86 50 87 76 88
REMARK SMILES IDX 77 89 85 90 78 91 84 92 86 93 83 94 79 95 80 96 81 97 82 98
REMARK SMILES IDX 61 99 62 100 70 101 63 102 69 103 71 104 68 105 64 106
REMARK SMILES IDX 65 107 66 108 67 109
REMARK H PARENT 27 6 16 22 103 32 32 43 91 62 59 73
REMARK Flexibility Score: inf
ROOT
ATOM      1  C   UNL     1      -7.761  -2.038  -5.415  1.00  0.00     0.023 C 
ENDROOT
BRANCH   1   2
ATOM      2  C   UNL     1      -7.207  -1.921  -3.990  1.00  0.00     0.116 C 
BRANCH   2   3
ATOM      3  N   UNL     1      -7.382  -3.160  -3.256  1.00  0.00    -0.352 N 
ATOM      4  C   UNL     1      -6.582  -4.253  -3.040  1.00  0.00     0.251 C 
ATOM      5  O   UNL     1      -7.058  -5.163  -2.358  1.00  0.00    -0.269 OA
ATOM      6  H   UNL     1      -8.262  -3.232  -2.821  1.00  0.00     0.163 HD
BRANCH   4   7
ATOM      7  C   UNL     1      -5.181  -4.392  -3.543  1.00  0.00     0.039 A 
ATOM      8  C   UNL     1      -2.490  -4.761  -4.303  1.00  0.00     0.045 A 
ATOM      9  C   UNL     1      -3.052  -5.577  -3.326  1.00  0.00     0.027 A 
ATOM     10  C   UNL     1      -3.275  -3.796  -4.931  1.00  0.00     0.027 A 
ATOM     11  C   UNL     1      -4.378  -5.370  -2.928  1.00  0.00     0.016 A 
ATOM     12  C   UNL     1      -4.624  -3.653  -4.588  1.00  0.00     0.016 A 
BRANCH   8  13
ATOM     13  N   UNL     1      -1.153  -4.921  -4.685  1.00  0.00    -0.295 N 
ATOM     14  C   UNL     1      -0.170  -3.801  -4.615  1.00  0.00     0.156 C 
ATOM     15  C   UNL     1       0.985  -4.446  -5.290  1.00  0.00     0.038 A 
ATOM     16  C   UNL     1       2.302  -4.254  -5.742  1.00  0.00     0.099 A 
ATOM     17  C   UNL     1       0.662  -5.720  -5.655  1.00  0.00     0.129 A 
ATOM     18  C   UNL     1      -0.652  -6.100  -5.271  1.00  0.00     0.277 C 
ATOM     19  N   UNL     1       2.721  -5.351  -6.419  1.00  0.00    -0.174 NA
ATOM     20  N   UNL     1       1.700  -6.237  -6.327  1.00  0.00    -0.272 N 
ATOM     21  O   UNL     1      -1.189  -7.163  -5.470  1.00  0.00    -0.267 OA
ATOM     22  H   UNL     1       1.717  -7.145  -6.706  1.00  0.00     0.190 HD
BRANCH  14  23
ATOM     23  C   UNL     1       0.244  -3.463  -3.198  1.00  0.00    -0.016 A 
ATOM     24  C   UNL     1       0.619  -1.732  -1.476  1.00  0.00     0.160 A 
ATOM     25  C   UNL     1       0.211  -2.124  -2.767  1.00  0.00     0.056 A 
ATOM     26  C   UNL     1       1.076  -2.719  -0.602  1.00  0.00     0.157 A 
ATOM     27  C   UNL     1       1.090  -4.059  -1.002  1.00  0.00     0.050 A 
ATOM     28  C   UNL     1       0.668  -4.432  -2.278  1.00  0.00     0.010 A 
BRANCH  24  29
ATOM     29  O   UNL     1       0.529  -0.380  -1.314  1.00  0.00    -0.493 OA
ATOM     30  C   UNL     1       0.786   0.229  -0.062  1.00  0.00     0.278 C 
ENDBRANCH  24  29
BRANCH  26  31
ATOM     31  O   UNL     1       1.572  -2.517   0.653  1.00  0.00    -0.504 OA
ATOM     32  H   UNL     1       1.605  -1.652   1.010  1.00  0.00     0.293 HD
ENDBRANCH  26  31
ENDBRANCH  14  23
BRANCH  16  33
ATOM     33  C   UNL     1       3.177  -3.103  -5.569  1.00  0.00     0.002 A 
ATOM     34  C   UNL     1       3.766  -2.486  -6.679  1.00  0.00     0.010 A 
ATOM     35  C   UNL     1       3.478  -2.630  -4.287  1.00  0.00     0.010 A 
ATOM     36  C   UNL     1       4.626  -1.397  -6.506  1.00  0.00     0.001 A 
ATOM     37  C   UNL     1       4.334  -1.540  -4.115  1.00  0.00     0.001 A 
ATOM     38  C   UNL     1       4.906  -0.924  -5.225  1.00  0.00     0.000 A 
ENDBRANCH  16  33
ENDBRANCH   8  13
ENDBRANCH   4   7
ENDBRANCH   2   3
ENDBRANCH   1   2
BRANCH   1  39
ATOM     39  C   UNL     1      -9.293  -1.964  -5.520  1.00  0.00     0.023 C 
BRANCH  39  40
ATOM     40  C   UNL     1      -9.895  -0.604  -5.178  1.00  0.00     0.116 C 
BRANCH  40  41
ATOM     41  N   UNL     1      -9.436   0.459  -6.072  1.00  0.00    -0.352 N 
ATOM     42  C   UNL     1      -9.533   1.826  -5.889  1.00  0.00     0.251 C 
ATOM     43  H   UNL     1      -9.006   0.165  -6.907  1.00  0.00     0.163 HD
ATOM     44  O   UNL     1      -9.510   2.585  -6.852  1.00  0.00    -0.269 OA
BRANCH  42  45
ATOM     45  C   UNL     1      -9.648   2.350  -4.517  1.00  0.00     0.039 A 
ATOM     46  C   UNL     1     -10.539   3.375  -4.192  1.00  0.00     0.014 A 
ATOM     47  C   UNL     1      -8.859   1.754  -3.535  1.00  0.00     0.014 A 
ATOM     48  C   UNL     1     -10.692   3.732  -2.853  1.00  0.00     0.010 A 
ATOM     49  C   UNL     1      -9.111   2.007  -2.210  1.00  0.00     0.010 A 
ATOM     50  C   UNL     1      -9.991   3.026  -1.860  1.00  0.00    -0.014 A 
BRANCH  50  51
ATOM     51  C   UNL     1     -10.290   3.225  -0.440  1.00  0.00     0.031 A 
ATOM     52  C   UNL     1     -11.724   3.017  -0.104  1.00  0.00     0.074 A 
ATOM     53  C   UNL     1      -9.336   3.321   0.514  1.00  0.00     0.049 A 
ATOM     54  N   UNL     1     -12.611   3.910   0.188  1.00  0.00    -0.248 NA
ATOM     55  C   UNL     1     -12.296   1.674  -0.318  1.00  0.00     0.031 C 
ATOM     56  C   UNL     1      -7.883   3.198   0.331  1.00  0.00     0.029 A 
ATOM     57  N   UNL     1      -9.453   3.426   1.869  1.00  0.00    -0.354 N 
ATOM     58  C   UNL     1     -13.769   3.199   0.497  1.00  0.00     0.074 A 
ATOM     59  C   UNL     1     -13.591   1.904  -0.096  1.00  0.00     0.031 C 
ATOM     60  C   UNL     1      -7.286   2.991   1.524  1.00  0.00     0.029 A 
ATOM     61  C   UNL     1      -8.278   3.152   2.571  1.00  0.00     0.049 A 
ATOM     62  H   UNL     1     -10.296   3.674   2.315  1.00  0.00     0.167 HD
ATOM     63  C   UNL     1     -14.594   3.624   1.497  1.00  0.00     0.034 A 
ATOM     64  C   UNL     1      -8.115   3.056   3.918  1.00  0.00     0.034 A 
ATOM     65  C   UNL     1     -14.258   4.986   1.864  1.00  0.00     0.049 A 
ATOM     66  C   UNL     1      -9.225   3.823   4.526  1.00  0.00     0.074 A 
ATOM     67  C   UNL     1     -14.291   6.221   1.254  1.00  0.00     0.029 A 
ATOM     68  N   UNL     1     -13.411   5.099   2.942  1.00  0.00    -0.354 N 
ATOM     69  N   UNL     1      -9.383   5.108   4.351  1.00  0.00    -0.248 NA
ATOM     70  C   UNL     1     -10.409   3.116   4.992  1.00  0.00     0.031 C 
ATOM     71  C   UNL     1     -13.192   6.949   1.804  1.00  0.00     0.029 A 
ATOM     72  C   UNL     1     -12.573   6.170   2.784  1.00  0.00     0.049 A 
ATOM     73  H   UNL     1     -13.407   4.494   3.718  1.00  0.00     0.167 HD
ATOM     74  C   UNL     1     -10.752   5.286   4.247  1.00  0.00     0.074 A 
ATOM     75  C   UNL     1     -11.327   4.072   4.819  1.00  0.00     0.031 C 
ATOM     76  C   UNL     1     -11.272   6.253   3.433  1.00  0.00     0.034 A 
BRANCH  63  77
ATOM     77  C   UNL     1     -15.311   2.711   2.494  1.00  0.00     0.023 A 
ATOM     78  C   UNL     1     -15.938   3.345   3.590  1.00  0.00     0.031 A 
ATOM     79  C   UNL     1     -15.162   1.312   2.618  1.00  0.00     0.131 A 
ATOM     80  C   UNL     1     -16.232   2.643   4.772  1.00  0.00     0.055 A 
ATOM     81  C   UNL     1     -15.500   0.608   3.780  1.00  0.00     0.041 A 
ATOM     82  F   UNL     1     -14.626   0.543   1.667  1.00  0.00    -0.206 F 
ATOM     83  C   UNL     1     -16.001   1.277   4.881  1.00  0.00     0.022 A 
BRANCH  80  84
ATOM     84  S   UNL     1     -16.751   3.585   6.229  1.00  0.00     0.124 S 
ATOM     85  O   UNL     1     -15.665   4.551   6.352  1.00  0.00    -0.237 OA
ATOM     86  O   UNL     1     -18.042   4.112   5.799  1.00  0.00    -0.237 OA
ATOM     87  O   UNL     1     -16.810   2.573   7.282  1.00  0.00    -0.744 OA
ENDBRANCH  80  84
ENDBRANCH  63  77
BRANCH  64  88
ATOM     88  C   UNL     1      -7.265   2.078   4.659  1.00  0.00     0.023 A 
ATOM     89  C   UNL     1      -6.835   2.263   5.992  1.00  0.00     0.031 A 
ATOM     90  C   UNL     1      -7.066   0.791   4.106  1.00  0.00     0.131 A 
ATOM     91  C   UNL     1      -6.246   1.189   6.709  1.00  0.00     0.055 A 
ATOM     92  C   UNL     1      -6.489  -0.263   4.818  1.00  0.00     0.041 A 
ATOM     93  F   UNL     1      -7.504   0.492   2.872  1.00  0.00    -0.206 F 
ATOM     94  C   UNL     1      -6.085  -0.071   6.128  1.00  0.00     0.022 A 
BRANCH  91  95
ATOM     95  S   UNL     1      -5.733   1.393   8.450  1.00  0.00     0.124 S 
ATOM     96  O   UNL     1      -4.682   2.399   8.350  1.00  0.00    -0.237 OA
ATOM     97  O   UNL     1      -6.973   1.808   9.094  1.00  0.00    -0.237 OA
ATOM     98  O   UNL     1      -5.265   0.058   8.828  1.00  0.00    -0.744 OA
ENDBRANCH  91  95
ENDBRANCH  64  88
BRANCH  76  99
ATOM     99  C   UNL     1     -10.391   7.433   3.081  1.00  0.00     0.023 A 
ATOM    100  C   UNL     1      -9.163   7.374   2.384  1.00  0.00     0.031 A 
ATOM    101  C   UNL     1     -10.883   8.704   3.430  1.00  0.00     0.131 A 
ATOM    102  C   UNL     1      -8.478   8.567   2.069  1.00  0.00     0.055 A 
ATOM    103  C   UNL     1     -10.216   9.880   3.096  1.00  0.00     0.041 A 
ATOM    104  F   UNL     1     -12.051   8.826   4.084  1.00  0.00    -0.206 F 
ATOM    105  C   UNL     1      -9.007   9.815   2.418  1.00  0.00     0.022 A 
BRANCH 102 106
ATOM    106  S   UNL     1      -6.864   8.525   1.222  1.00  0.00     0.124 S 
ATOM    107  O   UNL     1      -6.111   7.522   1.966  1.00  0.00    -0.237 OA
ATOM    108  O   UNL     1      -7.232   8.165  -0.144  1.00  0.00    -0.237 OA
ATOM    109  O   UNL     1      -6.365   9.894   1.373  1.00  0.00    -0.744 OA
ENDBRANCH 102 106
ENDBRANCH  76  99
ENDBRANCH  50  51
ENDBRANCH  42  45
ENDBRANCH  40  41
ENDBRANCH  39  40
ENDBRANCH   1  39
TORSDOF 19
