REMARK SMILES CCCO[C@@H]1CCC[C@]([NH3+])(C(=O)NCCCCNC(=O)c2ccc(-c3c4nc(c(-c5cc(S(=O)(=O)[O-])ccc5F)c5ccc([nH]5)c(-c5cc(S(=O)(=O)[O-])ccc5F)c5nc(c(-c6cc(S(=O)(=O)[O-])ccc6F)c6ccc3[nH]6)C=C5)C=C4)cc2)C1
REMARK SMILES IDX 15 1 14 2 13 3 11 4 12 5 9 7 5 8 6 9 84 10 7 11 8 12 4 13
REMARK SMILES IDX 3 14 2 15 1 16 10 17 16 21 17 22 18 23 19 24 20 26 21 27
REMARK SMILES IDX 22 28 83 29 23 30 82 31 24 32 25 33 26 34 76 35 27 36 81 37
REMARK SMILES IDX 75 38 77 39 28 40 80 41 74 42 73 43 29 45 61 46 41 47 60 48
REMARK SMILES IDX 42 49 45 50 59 51 78 52 43 53 44 54 58 56 79 57 46 58 30 59
REMARK SMILES IDX 31 60 39 61 32 62 38 63 40 64 37 65 33 66 34 67 35 68 36 69
REMARK SMILES IDX 62 70 63 71 71 72 64 73 70 74 72 75 69 76 65 77 66 78 67 79
REMARK SMILES IDX 68 80 47 81 48 82 56 83 49 84 55 85 57 86 54 87 50 88 51 89
REMARK SMILES IDX 52 90 53 91
REMARK H PARENT 13 6 10 18 10 19 10 20 18 25 77 44 45 55
REMARK Flexibility Score: inf
ROOT
ATOM      1  C   UNL     1       2.677   0.151   3.377  1.00  0.00     0.023 C 
ENDROOT
BRANCH   1   2
ATOM      2  C   UNL     1       2.103  -1.184   3.853  1.00  0.00     0.116 C 
BRANCH   2   3
ATOM      3  N   UNL     1       0.690  -1.323   3.553  1.00  0.00    -0.351 N 
ATOM      4  C   UNL     1      -0.022  -1.943   2.572  1.00  0.00     0.281 C 
ATOM      5  O   UNL     1      -1.247  -1.978   2.754  1.00  0.00    -0.268 OA
ATOM      6  H   UNL     1       0.115  -0.865   4.208  1.00  0.00     0.163 HD
BRANCH   4   7
ATOM      7  C   UNL     1       0.576  -2.523   1.252  1.00  0.00     0.176 C 
ATOM      8  C   UNL     1       0.541  -2.173  -1.261  1.00  0.00     0.125 C 
ATOM      9  C   UNL     1       0.109  -3.633  -1.474  1.00  0.00     0.032 C 
ATOM     10  C   UNL     1       0.006  -1.690   0.091  1.00  0.00     0.111 C 
ATOM     11  C   UNL     1       0.511  -4.548  -0.313  1.00  0.00     0.010 C 
ATOM     12  C   UNL     1       0.116  -3.982   1.058  1.00  0.00     0.079 C 
BRANCH   8  13
ATOM     13  O   UNL     1       0.008  -1.383  -2.330  1.00  0.00    -0.378 OA
BRANCH  13  14
ATOM     14  C   UNL     1       0.827  -0.274  -2.722  1.00  0.00     0.160 C 
BRANCH  14  15
ATOM     15  C   UNL     1       0.621   0.960  -1.843  1.00  0.00     0.025 C 
ATOM     16  C   UNL     1       1.743   1.172  -0.832  1.00  0.00     0.006 C 
ENDBRANCH  14  15
ENDBRANCH  13  14
ENDBRANCH   8  13
BRANCH   7  17
ATOM     17  N   UNL     1       2.047  -2.486   1.173  1.00  0.00    -0.345 N 
ATOM     18  H   UNL     1       2.350  -2.882   0.283  1.00  0.00     0.345 HD
ATOM     19  H   UNL     1       2.443  -3.030   1.939  1.00  0.00     0.345 HD
ATOM     20  H   UNL     1       2.367  -1.520   1.241  1.00  0.00     0.345 HD
ENDBRANCH   7  17
ENDBRANCH   4   7
ENDBRANCH   2   3
ENDBRANCH   1   2
BRANCH   1  21
ATOM     21  C   UNL     1       2.540   1.299   4.384  1.00  0.00     0.023 C 
BRANCH  21  22
ATOM     22  C   UNL     1       3.119   1.032   5.772  1.00  0.00     0.116 C 
BRANCH  22  23
ATOM     23  N   UNL     1       4.495   0.568   5.758  1.00  0.00    -0.352 N 
ATOM     24  C   UNL     1       5.435   0.662   6.767  1.00  0.00     0.251 C 
ATOM     25  H   UNL     1       4.795   0.132   4.928  1.00  0.00     0.163 HD
ATOM     26  O   UNL     1       6.582   0.306   6.574  1.00  0.00    -0.269 OA
BRANCH  24  27
ATOM     27  C   UNL     1       5.027   1.256   8.060  1.00  0.00     0.039 A 
ATOM     28  C   UNL     1       5.769   2.321   8.574  1.00  0.00     0.014 A 
ATOM     29  C   UNL     1       3.883   0.804   8.720  1.00  0.00     0.014 A 
ATOM     30  C   UNL     1       5.317   2.986   9.715  1.00  0.00     0.010 A 
ATOM     31  C   UNL     1       3.397   1.511   9.815  1.00  0.00     0.010 A 
ATOM     32  C   UNL     1       4.105   2.613  10.319  1.00  0.00    -0.014 A 
BRANCH  32  33
ATOM     33  C   UNL     1       3.555   3.366  11.475  1.00  0.00     0.031 A 
ATOM     34  C   UNL     1       3.405   2.690  12.809  1.00  0.00     0.074 A 
ATOM     35  C   UNL     1       3.117   4.628  11.300  1.00  0.00     0.049 A 
ATOM     36  N   UNL     1       2.879   3.148  13.916  1.00  0.00    -0.248 NA
ATOM     37  C   UNL     1       3.875   1.301  12.894  1.00  0.00     0.031 C 
ATOM     38  C   UNL     1       3.166   5.373  10.040  1.00  0.00     0.029 A 
ATOM     39  N   UNL     1       2.538   5.506  12.181  1.00  0.00    -0.354 N 
ATOM     40  C   UNL     1       2.936   2.096  14.825  1.00  0.00     0.074 A 
ATOM     41  C   UNL     1       3.487   0.961  14.113  1.00  0.00     0.031 C 
ATOM     42  C   UNL     1       2.670   6.605  10.238  1.00  0.00     0.029 A 
ATOM     43  C   UNL     1       2.230   6.725  11.624  1.00  0.00     0.049 A 
ATOM     44  H   UNL     1       2.361   5.284  13.123  1.00  0.00     0.167 HD
ATOM     45  C   UNL     1       2.583   2.085  16.135  1.00  0.00     0.034 A 
ATOM     46  C   UNL     1       1.655   7.815  12.170  1.00  0.00     0.034 A 
ATOM     47  C   UNL     1       2.052   3.234  16.828  1.00  0.00     0.049 A 
ATOM     48  C   UNL     1       1.255   7.777  13.621  1.00  0.00     0.074 A 
ATOM     49  C   UNL     1       1.738   3.364  18.170  1.00  0.00     0.029 A 
ATOM     50  N   UNL     1       1.745   4.451  16.231  1.00  0.00    -0.354 N 
ATOM     51  N   UNL     1       1.374   6.796  14.487  1.00  0.00    -0.248 NA
ATOM     52  C   UNL     1       0.647   8.996  14.169  1.00  0.00     0.031 C 
ATOM     53  C   UNL     1       1.179   4.632  18.370  1.00  0.00     0.029 A 
ATOM     54  C   UNL     1       1.211   5.323  17.169  1.00  0.00     0.049 A 
ATOM     55  H   UNL     1       1.886   4.663  15.280  1.00  0.00     0.167 HD
ATOM     56  C   UNL     1       0.886   7.294  15.692  1.00  0.00     0.074 A 
ATOM     57  C   UNL     1       0.478   8.662  15.441  1.00  0.00     0.031 C 
ATOM     58  C   UNL     1       0.792   6.679  16.899  1.00  0.00     0.034 A 
BRANCH  45  59
ATOM     59  C   UNL     1       2.735   0.778  16.878  1.00  0.00     0.023 A 
ATOM     60  C   UNL     1       3.986   0.151  17.023  1.00  0.00     0.031 A 
ATOM     61  C   UNL     1       1.608   0.117  17.396  1.00  0.00     0.131 A 
ATOM     62  C   UNL     1       4.066  -1.139  17.570  1.00  0.00     0.055 A 
ATOM     63  C   UNL     1       1.707  -1.127  18.026  1.00  0.00     0.041 A 
ATOM     64  F   UNL     1       0.384   0.654  17.275  1.00  0.00    -0.206 F 
ATOM     65  C   UNL     1       2.938  -1.772  18.096  1.00  0.00     0.022 A 
BRANCH  62  66
ATOM     66  S   UNL     1       5.629  -2.046  17.413  1.00  0.00     0.124 S 
ATOM     67  O   UNL     1       5.839  -2.025  15.967  1.00  0.00    -0.237 OA
ATOM     68  O   UNL     1       6.546  -1.234  18.204  1.00  0.00    -0.237 OA
ATOM     69  O   UNL     1       5.319  -3.361  17.970  1.00  0.00    -0.744 OA
ENDBRANCH  62  66
ENDBRANCH  45  59
BRANCH  46  70
ATOM     70  C   UNL     1       1.436   9.040  11.352  1.00  0.00     0.023 A 
ATOM     71  C   UNL     1       2.149  10.218  11.622  1.00  0.00     0.031 A 
ATOM     72  C   UNL     1       0.498   9.059  10.305  1.00  0.00     0.131 A 
ATOM     73  C   UNL     1       1.888  11.379  10.880  1.00  0.00     0.055 A 
ATOM     74  C   UNL     1       0.273  10.205   9.540  1.00  0.00     0.041 A 
ATOM     75  F   UNL     1      -0.202   7.955  10.000  1.00  0.00    -0.206 F 
ATOM     76  C   UNL     1       0.963  11.378   9.833  1.00  0.00     0.022 A 
BRANCH  73  77
ATOM     77  S   UNL     1       2.741  12.913  11.338  1.00  0.00     0.124 S 
ATOM     78  O   UNL     1       2.284  13.108  12.710  1.00  0.00    -0.237 OA
ATOM     79  O   UNL     1       4.142  12.540  11.175  1.00  0.00    -0.237 OA
ATOM     80  O   UNL     1       2.240  13.883  10.368  1.00  0.00    -0.744 OA
ENDBRANCH  73  77
ENDBRANCH  46  70
BRANCH  58  81
ATOM     81  C   UNL     1       0.264   7.505  18.045  1.00  0.00     0.023 A 
ATOM     82  C   UNL     1      -1.072   7.939  18.092  1.00  0.00     0.031 A 
ATOM     83  C   UNL     1       1.119   7.879  19.097  1.00  0.00     0.131 A 
ATOM     84  C   UNL     1      -1.501   8.765  19.141  1.00  0.00     0.055 A 
ATOM     85  C   UNL     1       0.672   8.653  20.168  1.00  0.00     0.041 A 
ATOM     86  F   UNL     1       2.406   7.495  19.101  1.00  0.00    -0.206 F 
ATOM     87  C   UNL     1      -0.642   9.112  20.188  1.00  0.00     0.022 A 
BRANCH  84  88
ATOM     88  S   UNL     1      -3.177   9.457  19.076  1.00  0.00     0.124 S 
ATOM     89  O   UNL     1      -3.149  10.202  17.821  1.00  0.00    -0.237 OA
ATOM     90  O   UNL     1      -4.010   8.259  19.089  1.00  0.00    -0.237 OA
ATOM     91  O   UNL     1      -3.256  10.279  20.282  1.00  0.00    -0.744 OA
ENDBRANCH  84  88
ENDBRANCH  58  81
ENDBRANCH  32  33
ENDBRANCH  24  27
ENDBRANCH  22  23
ENDBRANCH  21  22
ENDBRANCH   1  21
TORSDOF 18
