REMARK SMILES C=C(C(=O)NCCCCNC(=O)c1ccc(-c2c3nc(c(-c4cc(S(=O)(=O)[O-])ccc4F)c4ccc([nH]4)c(-c4cc(S(=O)(=O)[O-])ccc4F)c4nc(c(-c5cc(S(=O)(=O)[O-])ccc5F)c5ccc2[nH]5)C=C4)C=C3)cc1)[C@@H]1CC[C@]2(C)C[C@@H](O)CC(=C)[C@H]2C1
REMARK SMILES IDX 8 1 7 2 6 3 5 4 3 5 4 6 2 8 1 9 76 10 77 11 88 12 78 13
REMARK SMILES IDX 87 14 79 15 85 16 80 17 81 18 84 19 86 20 82 21 83 22 9 24
REMARK SMILES IDX 10 25 11 26 12 28 13 29 14 30 75 31 15 32 74 33 16 34 17 35
REMARK SMILES IDX 18 36 68 37 19 38 73 39 67 40 69 41 20 42 72 43 66 44 65 45
REMARK SMILES IDX 21 47 53 48 33 49 52 50 34 51 37 52 51 53 70 54 35 55 36 56
REMARK SMILES IDX 50 58 71 59 38 60 22 61 23 62 31 63 24 64 30 65 32 66 29 67
REMARK SMILES IDX 25 68 26 69 27 70 28 71 54 72 55 73 63 74 56 75 62 76 64 77
REMARK SMILES IDX 61 78 57 79 58 80 59 81 60 82 39 83 40 84 48 85 41 86 47 87
REMARK SMILES IDX 49 88 46 89 42 90 43 91 44 92 45 93
REMARK H PARENT 5 7 83 23 10 27 69 46 37 57
REMARK Flexibility Score: inf
ROOT
ATOM      1  C   UNL     1      -2.846  -2.858  -0.458  1.00  0.00     0.023 C 
ENDROOT
BRANCH   1   2
ATOM      2  C   UNL     1      -1.375  -2.445  -0.553  1.00  0.00     0.023 C 
BRANCH   2   3
ATOM      3  C   UNL     1      -1.136  -1.050  -1.139  1.00  0.00     0.116 C 
BRANCH   3   4
ATOM      4  N   UNL     1      -1.587  -0.033  -0.213  1.00  0.00    -0.352 N 
ATOM      5  C   UNL     1      -0.951   0.648   0.775  1.00  0.00     0.246 C 
ATOM      6  O   UNL     1      -1.659   1.311   1.530  1.00  0.00    -0.270 OA
ATOM      7  H   UNL     1      -2.534   0.212  -0.320  1.00  0.00     0.163 HD
BRANCH   5   8
ATOM      8  C   UNL     1       0.540   0.638   0.928  1.00  0.00     0.013 C 
ATOM      9  C   UNL     1       1.246  -0.507   0.856  1.00  0.00     0.018 C 
BRANCH   8  10
ATOM     10  C   UNL     1       1.287   1.910   1.343  1.00  0.00     0.025 C 
ATOM     11  C   UNL     1       0.574   2.889   2.297  1.00  0.00     0.009 C 
ATOM     12  C   UNL     1       1.957   2.613   0.143  1.00  0.00     0.017 C 
ATOM     13  C   UNL     1      -0.207   4.011   1.608  1.00  0.00     0.008 C 
ATOM     14  C   UNL     1       1.093   3.700  -0.519  1.00  0.00     0.021 C 
ATOM     15  C   UNL     1       0.604   4.754   0.519  1.00  0.00    -0.024 C 
ATOM     16  C   UNL     1       1.727   4.402  -1.719  1.00  0.00    -0.071 C 
ATOM     17  C   UNL     1       1.772   5.508   1.202  1.00  0.00     0.012 C 
ATOM     18  C   UNL     1      -0.345   5.776  -0.179  1.00  0.00     0.039 C 
ATOM     19  C   UNL     1       0.773   5.337  -2.437  1.00  0.00     0.062 C 
ATOM     20  C   UNL     1       2.994   4.251  -2.140  1.00  0.00     0.008 C 
ATOM     21  C   UNL     1       0.188   6.388  -1.483  1.00  0.00     0.119 C 
BRANCH  21  22
ATOM     22  O   UNL     1       1.143   7.413  -1.203  1.00  0.00    -0.393 OA
ATOM     23  H   UNL     1       1.906   7.029  -0.745  1.00  0.00     0.210 HD
ENDBRANCH  21  22
ENDBRANCH   8  10
ENDBRANCH   5   8
ENDBRANCH   3   4
ENDBRANCH   2   3
ENDBRANCH   1   2
BRANCH   1  24
ATOM     24  C   UNL     1      -3.591  -2.900  -1.785  1.00  0.00     0.116 C 
BRANCH  24  25
ATOM     25  N   UNL     1      -2.933  -3.737  -2.775  1.00  0.00    -0.352 N 
ATOM     26  C   UNL     1      -3.499  -4.584  -3.695  1.00  0.00     0.251 C 
ATOM     27  H   UNL     1      -1.949  -3.691  -2.787  1.00  0.00     0.163 HD
ATOM     28  O   UNL     1      -2.787  -5.322  -4.370  1.00  0.00    -0.269 OA
BRANCH  26  29
ATOM     29  C   UNL     1      -4.969  -4.620  -3.832  1.00  0.00     0.039 A 
ATOM     30  C   UNL     1      -5.617  -5.857  -3.822  1.00  0.00     0.014 A 
ATOM     31  C   UNL     1      -5.703  -3.434  -3.928  1.00  0.00     0.014 A 
ATOM     32  C   UNL     1      -7.011  -5.901  -3.843  1.00  0.00     0.010 A 
ATOM     33  C   UNL     1      -7.092  -3.479  -3.877  1.00  0.00     0.010 A 
ATOM     34  C   UNL     1      -7.760  -4.713  -3.834  1.00  0.00    -0.014 A 
BRANCH  34  35
ATOM     35  C   UNL     1      -9.243  -4.739  -3.786  1.00  0.00     0.031 A 
ATOM     36  C   UNL     1     -10.039  -4.193  -4.938  1.00  0.00     0.074 A 
ATOM     37  C   UNL     1      -9.866  -5.193  -2.680  1.00  0.00     0.049 A 
ATOM     38  N   UNL     1     -11.334  -4.050  -5.057  1.00  0.00    -0.248 NA
ATOM     39  C   UNL     1      -9.272  -3.715  -6.099  1.00  0.00     0.031 C 
ATOM     40  C   UNL     1      -9.195  -5.704  -1.482  1.00  0.00     0.029 A 
ATOM     41  N   UNL     1     -11.200  -5.288  -2.377  1.00  0.00    -0.354 N 
ATOM     42  C   UNL     1     -11.537  -3.458  -6.298  1.00  0.00     0.074 A 
ATOM     43  C   UNL     1     -10.227  -3.207  -6.862  1.00  0.00     0.031 C 
ATOM     44  C   UNL     1     -10.121  -6.077  -0.585  1.00  0.00     0.029 A 
ATOM     45  C   UNL     1     -11.448  -5.792  -1.121  1.00  0.00     0.049 A 
ATOM     46  H   UNL     1     -11.914  -5.021  -3.001  1.00  0.00     0.167 HD
ATOM     47  C   UNL     1     -12.708  -3.174  -6.921  1.00  0.00     0.034 A 
ATOM     48  C   UNL     1     -12.613  -5.989  -0.471  1.00  0.00     0.034 A 
ATOM     49  C   UNL     1     -14.004  -3.439  -6.345  1.00  0.00     0.049 A 
ATOM     50  C   UNL     1     -13.902  -5.647  -1.175  1.00  0.00     0.074 A 
ATOM     51  C   UNL     1     -15.254  -3.235  -6.902  1.00  0.00     0.029 A 
ATOM     52  N   UNL     1     -14.217  -3.961  -5.075  1.00  0.00    -0.354 N 
ATOM     53  N   UNL     1     -14.079  -5.133  -2.371  1.00  0.00    -0.248 NA
ATOM     54  C   UNL     1     -15.147  -5.925  -0.448  1.00  0.00     0.031 C 
ATOM     55  C   UNL     1     -16.220  -3.571  -5.948  1.00  0.00     0.029 A 
ATOM     56  C   UNL     1     -15.577  -4.060  -4.822  1.00  0.00     0.049 A 
ATOM     57  H   UNL     1     -13.506  -4.223  -4.446  1.00  0.00     0.167 HD
ATOM     58  C   UNL     1     -15.458  -5.055  -2.549  1.00  0.00     0.074 A 
ATOM     59  C   UNL     1     -16.062  -5.590  -1.345  1.00  0.00     0.031 C 
ATOM     60  C   UNL     1     -16.162  -4.587  -3.611  1.00  0.00     0.034 A 
BRANCH  47  61
ATOM     61  C   UNL     1     -12.629  -2.527  -8.284  1.00  0.00     0.023 A 
ATOM     62  C   UNL     1     -12.024  -3.179  -9.374  1.00  0.00     0.031 A 
ATOM     63  C   UNL     1     -13.132  -1.231  -8.491  1.00  0.00     0.131 A 
ATOM     64  C   UNL     1     -11.865  -2.504 -10.594  1.00  0.00     0.055 A 
ATOM     65  C   UNL     1     -13.047  -0.598  -9.733  1.00  0.00     0.041 A 
ATOM     66  F   UNL     1     -13.700  -0.549  -7.484  1.00  0.00    -0.206 F 
ATOM     67  C   UNL     1     -12.396  -1.228 -10.789  1.00  0.00     0.022 A 
BRANCH  64  68
ATOM     68  S   UNL     1     -10.822  -3.261 -11.870  1.00  0.00     0.124 S 
ATOM     69  O   UNL     1      -9.544  -3.381 -11.173  1.00  0.00    -0.237 OA
ATOM     70  O   UNL     1     -11.519  -4.512 -12.147  1.00  0.00    -0.237 OA
ATOM     71  O   UNL     1     -10.842  -2.282 -12.955  1.00  0.00    -0.744 OA
ENDBRANCH  64  68
ENDBRANCH  47  61
BRANCH  48  72
ATOM     72  C   UNL     1     -12.621  -6.523   0.921  1.00  0.00     0.023 A 
ATOM     73  C   UNL     1     -13.192  -7.771   1.214  1.00  0.00     0.031 A 
ATOM     74  C   UNL     1     -12.092  -5.773   1.986  1.00  0.00     0.131 A 
ATOM     75  C   UNL     1     -13.267  -8.211   2.546  1.00  0.00     0.055 A 
ATOM     76  C   UNL     1     -12.120  -6.239   3.302  1.00  0.00     0.041 A 
ATOM     77  F   UNL     1     -11.528  -4.576   1.760  1.00  0.00    -0.206 F 
ATOM     78  C   UNL     1     -12.723  -7.459   3.590  1.00  0.00     0.022 A 
BRANCH  75  79
ATOM     79  S   UNL     1     -14.166  -9.745   2.904  1.00  0.00     0.124 S 
ATOM     80  O   UNL     1     -15.486  -9.450   2.357  1.00  0.00    -0.237 OA
ATOM     81  O   UNL     1     -13.377 -10.734   2.178  1.00  0.00    -0.237 OA
ATOM     82  O   UNL     1     -14.101  -9.845   4.360  1.00  0.00    -0.744 OA
ENDBRANCH  75  79
ENDBRANCH  48  72
BRANCH  60  83
ATOM     83  C   UNL     1     -17.666  -4.681  -3.530  1.00  0.00     0.023 A 
ATOM     84  C   UNL     1     -18.408  -3.922  -2.608  1.00  0.00     0.031 A 
ATOM     85  C   UNL     1     -18.366  -5.553  -4.384  1.00  0.00     0.131 A 
ATOM     86  C   UNL     1     -19.798  -4.090  -2.523  1.00  0.00     0.055 A 
ATOM     87  C   UNL     1     -19.755  -5.670  -4.337  1.00  0.00     0.041 A 
ATOM     88  F   UNL     1     -17.707  -6.303  -5.282  1.00  0.00    -0.206 F 
ATOM     89  C   UNL     1     -20.478  -4.946  -3.393  1.00  0.00     0.022 A 
BRANCH  86  90
ATOM     90  S   UNL     1     -20.699  -3.241  -1.197  1.00  0.00     0.124 S 
ATOM     91  O   UNL     1     -20.042  -3.761  -0.003  1.00  0.00    -0.237 OA
ATOM     92  O   UNL     1     -20.450  -1.835  -1.501  1.00  0.00    -0.237 OA
ATOM     93  O   UNL     1     -22.081  -3.680  -1.386  1.00  0.00    -0.744 OA
ENDBRANCH  86  90
ENDBRANCH  60  83
ENDBRANCH  34  35
ENDBRANCH  26  29
ENDBRANCH  24  25
ENDBRANCH   1  24
TORSDOF 16
