REMARK SMILES C[C@@H](C(=O)NCCCCNC(=O)c1ccc(-c2c3nc(c(-c4cc(S(=O)(=O)[O-])ccc4F)c4ccc([nH]4)c(-c4cc(S(=O)(=O)[O-])ccc4F)c4nc(c(-c5cc(S(=O)(=O)[O-])ccc5F)c5ccc2[nH]5)C=C4)C=C3)cc1)c1ccc2c(c1)[nH]c1ccc(Cl)cc12
REMARK SMILES IDX 8 1 7 2 6 3 5 4 3 5 4 6 2 8 1 9 76 10 77 11 81 12 78 13
REMARK SMILES IDX 80 14 79 15 82 16 89 17 83 18 88 20 84 21 86 22 85 23 87 24
REMARK SMILES IDX 9 25 10 26 11 27 12 29 13 30 14 31 75 32 15 33 74 34 16 35
REMARK SMILES IDX 17 36 18 37 68 38 19 39 73 40 67 41 69 42 20 43 72 44 66 45
REMARK SMILES IDX 65 46 21 48 53 49 33 50 52 51 34 52 37 53 51 54 70 55 35 56
REMARK SMILES IDX 36 57 50 59 71 60 38 61 22 62 23 63 31 64 24 65 30 66 32 67
REMARK SMILES IDX 29 68 25 69 26 70 27 71 28 72 54 73 55 74 63 75 56 76 62 77
REMARK SMILES IDX 64 78 61 79 57 80 58 81 59 82 60 83 39 84 40 85 48 86 41 87
REMARK SMILES IDX 47 88 49 89 46 90 42 91 43 92 44 93 45 94
REMARK H PARENT 5 7 82 19 10 28 69 47 37 58
REMARK Flexibility Score: inf
ROOT
ATOM      1  C   UNL     1       4.971   1.744  -1.915  1.00  0.00     0.023 C 
ENDROOT
BRANCH   1   2
ATOM      2  C   UNL     1       4.150   1.038  -0.842  1.00  0.00     0.023 C 
BRANCH   2   3
ATOM      3  C   UNL     1       3.227   1.945  -0.015  1.00  0.00     0.116 C 
BRANCH   3   4
ATOM      4  N   UNL     1       2.114   2.459  -0.798  1.00  0.00    -0.356 N 
ATOM      5  C   UNL     1       0.799   2.067  -0.846  1.00  0.00     0.227 C 
ATOM      6  O   UNL     1       0.092   2.624  -1.687  1.00  0.00    -0.274 OA
ATOM      7  H   UNL     1       2.341   3.211  -1.391  1.00  0.00     0.163 HD
BRANCH   5   8
ATOM      8  C   UNL     1       0.288   0.982   0.125  1.00  0.00     0.105 C 
ATOM      9  C   UNL     1       0.897  -0.367  -0.296  1.00  0.00     0.023 C 
BRANCH   8  10
ATOM     10  C   UNL     1      -1.238   0.832   0.292  1.00  0.00    -0.034 A 
ATOM     11  C   UNL     1      -2.158   1.856   0.024  1.00  0.00     0.005 A 
ATOM     12  C   UNL     1      -1.745  -0.385   0.794  1.00  0.00     0.031 A 
ATOM     13  C   UNL     1      -3.550   1.662   0.151  1.00  0.00     0.011 A 
ATOM     14  C   UNL     1      -3.124  -0.568   0.907  1.00  0.00     0.047 A 
ATOM     15  C   UNL     1      -4.048   0.417   0.588  1.00  0.00     0.007 A 
ATOM     16  N   UNL     1      -3.818  -1.675   1.320  1.00  0.00    -0.355 N 
ATOM     17  C   UNL     1      -5.349  -0.141   0.820  1.00  0.00     0.009 A 
ATOM     18  C   UNL     1      -5.169  -1.441   1.296  1.00  0.00     0.047 A 
ATOM     19  H   UNL     1      -3.403  -2.524   1.597  1.00  0.00     0.167 HD
ATOM     20  C   UNL     1      -6.668   0.339   0.678  1.00  0.00     0.031 A 
ATOM     21  C   UNL     1      -6.223  -2.284   1.659  1.00  0.00     0.028 A 
ATOM     22  C   UNL     1      -7.734  -0.496   1.035  1.00  0.00     0.041 A 
ATOM     23  C   UNL     1      -7.518  -1.782   1.524  1.00  0.00     0.022 A 
ATOM     24  Cl  UNL     1      -9.351   0.079   0.872  1.00  0.00    -0.084 Cl
ENDBRANCH   8  10
ENDBRANCH   5   8
ENDBRANCH   3   4
ENDBRANCH   2   3
ENDBRANCH   1   2
BRANCH   1  25
ATOM     25  C   UNL     1       6.008   2.717  -1.381  1.00  0.00     0.116 C 
BRANCH  25  26
ATOM     26  N   UNL     1       7.017   2.076  -0.549  1.00  0.00    -0.352 N 
ATOM     27  C   UNL     1       8.378   2.298  -0.540  1.00  0.00     0.251 C 
ATOM     28  H   UNL     1       6.686   1.402   0.087  1.00  0.00     0.163 HD
ATOM     29  O   UNL     1       9.117   1.598   0.135  1.00  0.00    -0.269 OA
BRANCH  27  30
ATOM     30  C   UNL     1       8.918   3.369  -1.403  1.00  0.00     0.039 A 
ATOM     31  C   UNL     1       9.944   3.068  -2.302  1.00  0.00     0.014 A 
ATOM     32  C   UNL     1       8.334   4.638  -1.386  1.00  0.00     0.014 A 
ATOM     33  C   UNL     1      10.325   4.019  -3.252  1.00  0.00     0.010 A 
ATOM     34  C   UNL     1       8.657   5.549  -2.381  1.00  0.00     0.010 A 
ATOM     35  C   UNL     1       9.650   5.248  -3.328  1.00  0.00    -0.014 A 
BRANCH  35  36
ATOM     36  C   UNL     1       9.953   6.255  -4.377  1.00  0.00     0.031 A 
ATOM     37  C   UNL     1      10.441   7.615  -3.968  1.00  0.00     0.074 A 
ATOM     38  C   UNL     1       9.661   5.996  -5.666  1.00  0.00     0.049 A 
ATOM     39  N   UNL     1      10.558   8.706  -4.678  1.00  0.00    -0.248 NA
ATOM     40  C   UNL     1      10.792   7.775  -2.549  1.00  0.00     0.031 C 
ATOM     41  C   UNL     1       9.137   4.729  -6.179  1.00  0.00     0.029 A 
ATOM     42  N   UNL     1       9.729   6.801  -6.776  1.00  0.00    -0.354 N 
ATOM     43  C   UNL     1      10.960   9.694  -3.785  1.00  0.00     0.074 A 
ATOM     44  C   UNL     1      11.004   9.079  -2.475  1.00  0.00     0.031 C 
ATOM     45  C   UNL     1       8.925   4.845  -7.500  1.00  0.00     0.029 A 
ATOM     46  C   UNL     1       9.249   6.205  -7.918  1.00  0.00     0.049 A 
ATOM     47  H   UNL     1      10.086   7.719  -6.755  1.00  0.00     0.167 HD
ATOM     48  C   UNL     1      11.277  10.988  -4.040  1.00  0.00     0.034 A 
ATOM     49  C   UNL     1       9.061   6.705  -9.155  1.00  0.00     0.034 A 
ATOM     50  C   UNL     1      11.244  11.571  -5.359  1.00  0.00     0.049 A 
ATOM     51  C   UNL     1       9.425   8.141  -9.426  1.00  0.00     0.074 A 
ATOM     52  C   UNL     1      11.617  12.845  -5.750  1.00  0.00     0.029 A 
ATOM     53  N   UNL     1      10.804  10.918  -6.505  1.00  0.00    -0.354 N 
ATOM     54  N   UNL     1       9.852   9.055  -8.586  1.00  0.00    -0.248 NA
ATOM     55  C   UNL     1       9.291   8.610 -10.811  1.00  0.00     0.031 C 
ATOM     56  C   UNL     1      11.345  12.982  -7.116  1.00  0.00     0.029 A 
ATOM     57  C   UNL     1      10.870  11.771  -7.596  1.00  0.00     0.049 A 
ATOM     58  H   UNL     1      10.491   9.985  -6.537  1.00  0.00     0.167 HD
ATOM     59  C   UNL     1      10.063  10.201  -9.346  1.00  0.00     0.074 A 
ATOM     60  C   UNL     1       9.719   9.861 -10.713  1.00  0.00     0.031 C 
ATOM     61  C   UNL     1      10.514  11.419  -8.952  1.00  0.00     0.034 A 
BRANCH  48  62
ATOM     62  C   UNL     1      11.645  11.851  -2.855  1.00  0.00     0.023 A 
ATOM     63  C   UNL     1      12.738  11.541  -2.026  1.00  0.00     0.031 A 
ATOM     64  C   UNL     1      10.847  12.954  -2.501  1.00  0.00     0.131 A 
ATOM     65  C   UNL     1      12.935  12.247  -0.830  1.00  0.00     0.055 A 
ATOM     66  C   UNL     1      11.109  13.717  -1.360  1.00  0.00     0.041 A 
ATOM     67  F   UNL     1       9.778  13.291  -3.239  1.00  0.00    -0.206 F 
ATOM     68  C   UNL     1      12.143  13.350  -0.504  1.00  0.00     0.022 A 
BRANCH  65  69
ATOM     69  S   UNL     1      14.107  11.577   0.381  1.00  0.00     0.124 S 
ATOM     70  O   UNL     1      13.587  10.225   0.578  1.00  0.00    -0.237 OA
ATOM     71  O   UNL     1      15.380  11.676  -0.323  1.00  0.00    -0.237 OA
ATOM     72  O   UNL     1      13.957  12.465   1.532  1.00  0.00    -0.744 OA
ENDBRANCH  65  69
ENDBRANCH  48  62
BRANCH  49  73
ATOM     73  C   UNL     1       8.476   5.845 -10.221  1.00  0.00     0.023 A 
ATOM     74  C   UNL     1       9.253   5.398 -11.300  1.00  0.00     0.031 A 
ATOM     75  C   UNL     1       7.128   5.449 -10.164  1.00  0.00     0.131 A 
ATOM     76  C   UNL     1       8.668   4.599 -12.296  1.00  0.00     0.055 A 
ATOM     77  C   UNL     1       6.562   4.622 -11.135  1.00  0.00     0.041 A 
ATOM     78  F   UNL     1       6.349   5.839  -9.142  1.00  0.00    -0.206 F 
ATOM     79  C   UNL     1       7.332   4.198 -12.214  1.00  0.00     0.022 A 
BRANCH  76  80
ATOM     80  S   UNL     1       9.675   4.111 -13.723  1.00  0.00     0.124 S 
ATOM     81  O   UNL     1       9.986   5.404 -14.323  1.00  0.00    -0.237 OA
ATOM     82  O   UNL     1      10.789   3.416 -13.086  1.00  0.00    -0.237 OA
ATOM     83  O   UNL     1       8.776   3.261 -14.500  1.00  0.00    -0.744 OA
ENDBRANCH  76  80
ENDBRANCH  49  73
BRANCH  61  84
ATOM     84  C   UNL     1      10.713  12.460 -10.024  1.00  0.00     0.023 A 
ATOM     85  C   UNL     1       9.631  13.065 -10.685  1.00  0.00     0.031 A 
ATOM     86  C   UNL     1      12.015  12.863 -10.374  1.00  0.00     0.131 A 
ATOM     87  C   UNL     1       9.871  14.017 -11.689  1.00  0.00     0.055 A 
ATOM     88  C   UNL     1      12.246  13.845 -11.337  1.00  0.00     0.041 A 
ATOM     89  F   UNL     1      13.083  12.315  -9.773  1.00  0.00    -0.206 F 
ATOM     90  C   UNL     1      11.171  14.422 -12.007  1.00  0.00     0.022 A 
BRANCH  87  91
ATOM     91  S   UNL     1       8.464  14.681 -12.620  1.00  0.00     0.124 S 
ATOM     92  O   UNL     1       7.913  13.478 -13.236  1.00  0.00    -0.237 OA
ATOM     93  O   UNL     1       7.653  15.290 -11.571  1.00  0.00    -0.237 OA
ATOM     94  O   UNL     1       9.082  15.625 -13.550  1.00  0.00    -0.744 OA
ENDBRANCH  87  91
ENDBRANCH  61  84
ENDBRANCH  35  36
ENDBRANCH  27  30
ENDBRANCH  25  26
ENDBRANCH   1  25
TORSDOF 15
