REMARK SMILES CCCCCCO[C@H](F)C(=O)NCCCCNC(=O)c1ccc(-c2c3nc(c(-c4cc(S(=O)(=O)[O-])ccc4F)c4ccc([nH]4)c(-c4cc(S(=O)(=O)[O-])ccc4F)c4nc(c(-c5cc(S(=O)(=O)[O-])ccc5F)c5ccc2[nH]5)C=C4)C=C3)cc1
REMARK SMILES IDX 13 1 12 2 10 3 11 4 8 6 9 7 7 8 6 9 5 10 4 11 3 12 2 13 1 14
REMARK SMILES IDX 14 15 15 16 16 17 17 18 18 19 19 21 20 22 21 23 82 24 22 25
REMARK SMILES IDX 81 26 23 27 24 28 25 29 75 30 26 31 80 32 74 33 76 34 27 35
REMARK SMILES IDX 79 36 73 37 72 38 28 40 60 41 40 42 59 43 41 44 44 45 58 46
REMARK SMILES IDX 77 47 42 48 43 49 57 51 78 52 45 53 29 54 30 55 38 56 31 57
REMARK SMILES IDX 37 58 39 59 36 60 32 61 33 62 34 63 35 64 61 65 62 66 70 67
REMARK SMILES IDX 63 68 69 69 71 70 68 71 64 72 65 73 66 74 67 75 46 76 47 77
REMARK SMILES IDX 55 78 48 79 54 80 56 81 53 82 49 83 50 84 51 85 52 86
REMARK H PARENT 12 5 17 20 76 39 44 50
REMARK Flexibility Score: inf
ROOT
ATOM      1  C   UNL     1      -1.643   0.100   2.585  1.00  0.00     0.116 C 
ENDROOT
BRANCH   1   2
ATOM      2  N   UNL     1      -0.708   0.985   3.252  1.00  0.00    -0.351 N 
ATOM      3  C   UNL     1       0.137   0.702   4.296  1.00  0.00     0.282 C 
ATOM      4  O   UNL     1       0.920   1.591   4.648  1.00  0.00    -0.269 OA
ATOM      5  H   UNL     1      -0.674   1.908   2.912  1.00  0.00     0.163 HD
BRANCH   3   6
ATOM      6  C   UNL     1       0.145  -0.696   4.977  1.00  0.00     0.387 C 
ATOM      7  F   UNL     1      -1.044  -1.362   4.875  1.00  0.00    -0.205 F 
BRANCH   6   8
ATOM      8  O   UNL     1       1.183  -1.607   4.637  1.00  0.00    -0.341 OA
BRANCH   8   9
ATOM      9  C   UNL     1       1.007  -2.263   3.386  1.00  0.00     0.164 C 
BRANCH   9  10
ATOM     10  C   UNL     1       1.627  -1.463   2.244  1.00  0.00     0.029 C 
BRANCH  10  11
ATOM     11  C   UNL     1       3.145  -1.627   2.141  1.00  0.00     0.002 C 
BRANCH  11  12
ATOM     12  C   UNL     1       3.591  -2.815   1.283  1.00  0.00    -0.000 C 
BRANCH  12  13
ATOM     13  C   UNL     1       3.055  -2.843  -0.155  1.00  0.00    -0.003 C 
ATOM     14  C   UNL     1       3.224  -1.533  -0.913  1.00  0.00     0.004 C 
ENDBRANCH  12  13
ENDBRANCH  11  12
ENDBRANCH  10  11
ENDBRANCH   9  10
ENDBRANCH   8   9
ENDBRANCH   6   8
ENDBRANCH   3   6
ENDBRANCH   1   2
BRANCH   1  15
ATOM     15  C   UNL     1      -2.497   0.797   1.526  1.00  0.00     0.023 C 
BRANCH  15  16
ATOM     16  C   UNL     1      -1.733   1.516   0.409  1.00  0.00     0.023 C 
BRANCH  16  17
ATOM     17  C   UNL     1      -0.749   0.655  -0.379  1.00  0.00     0.116 C 
BRANCH  17  18
ATOM     18  N   UNL     1      -1.410  -0.344  -1.204  1.00  0.00    -0.352 N 
ATOM     19  C   UNL     1      -1.649  -0.355  -2.562  1.00  0.00     0.251 C 
ATOM     20  H   UNL     1      -1.737  -1.135  -0.718  1.00  0.00     0.163 HD
ATOM     21  O   UNL     1      -2.384  -1.212  -3.038  1.00  0.00    -0.269 OA
BRANCH  19  22
ATOM     22  C   UNL     1      -1.051   0.681  -3.437  1.00  0.00     0.039 A 
ATOM     23  C   UNL     1      -1.864   1.339  -4.366  1.00  0.00     0.014 A 
ATOM     24  C   UNL     1       0.305   0.999  -3.352  1.00  0.00     0.014 A 
ATOM     25  C   UNL     1      -1.338   2.381  -5.139  1.00  0.00     0.010 A 
ATOM     26  C   UNL     1       0.810   2.082  -4.071  1.00  0.00     0.010 A 
ATOM     27  C   UNL     1      -0.009   2.796  -4.962  1.00  0.00    -0.014 A 
BRANCH  27  28
ATOM     28  C   UNL     1       0.562   3.966  -5.686  1.00  0.00     0.031 A 
ATOM     29  C   UNL     1       1.725   3.770  -6.622  1.00  0.00     0.074 A 
ATOM     30  C   UNL     1       0.106   5.210  -5.435  1.00  0.00     0.049 A 
ATOM     31  N   UNL     1       2.498   4.662  -7.185  1.00  0.00    -0.248 NA
ATOM     32  C   UNL     1       2.079   2.378  -6.939  1.00  0.00     0.031 C 
ATOM     33  C   UNL     1      -1.014   5.540  -4.551  1.00  0.00     0.029 A 
ATOM     34  N   UNL     1       0.544   6.433  -5.882  1.00  0.00    -0.354 N 
ATOM     35  C   UNL     1       3.444   3.942  -7.908  1.00  0.00     0.074 A 
ATOM     36  C   UNL     1       3.174   2.539  -7.667  1.00  0.00     0.031 C 
ATOM     37  C   UNL     1      -1.179   6.872  -4.529  1.00  0.00     0.029 A 
ATOM     38  C   UNL     1      -0.143   7.499  -5.344  1.00  0.00     0.049 A 
ATOM     39  H   UNL     1       1.280   6.538  -6.527  1.00  0.00     0.167 HD
ATOM     40  C   UNL     1       4.435   4.406  -8.711  1.00  0.00     0.034 A 
ATOM     41  C   UNL     1       0.057   8.827  -5.468  1.00  0.00     0.034 A 
ATOM     42  C   UNL     1       4.687   5.806  -8.953  1.00  0.00     0.049 A 
ATOM     43  C   UNL     1       1.201   9.321  -6.322  1.00  0.00     0.074 A 
ATOM     44  C   UNL     1       5.657   6.383  -9.755  1.00  0.00     0.029 A 
ATOM     45  N   UNL     1       3.961   6.851  -8.397  1.00  0.00    -0.354 N 
ATOM     46  N   UNL     1       2.091   8.627  -6.992  1.00  0.00    -0.248 NA
ATOM     47  C   UNL     1       1.364  10.777  -6.439  1.00  0.00     0.031 C 
ATOM     48  C   UNL     1       5.552   7.773  -9.643  1.00  0.00     0.029 A 
ATOM     49  C   UNL     1       4.470   8.066  -8.829  1.00  0.00     0.049 A 
ATOM     50  H   UNL     1       3.196   6.745  -7.786  1.00  0.00     0.167 HD
ATOM     51  C   UNL     1       2.885   9.563  -7.649  1.00  0.00     0.074 A 
ATOM     52  C   UNL     1       2.373  10.869  -7.293  1.00  0.00     0.031 C 
ATOM     53  C   UNL     1       3.936   9.361  -8.482  1.00  0.00     0.034 A 
BRANCH  40  54
ATOM     54  C   UNL     1       5.332   3.383  -9.364  1.00  0.00     0.023 A 
ATOM     55  C   UNL     1       4.831   2.452 -10.291  1.00  0.00     0.031 A 
ATOM     56  C   UNL     1       6.699   3.318  -9.040  1.00  0.00     0.131 A 
ATOM     57  C   UNL     1       5.670   1.450 -10.800  1.00  0.00     0.055 A 
ATOM     58  C   UNL     1       7.548   2.371  -9.615  1.00  0.00     0.041 A 
ATOM     59  F   UNL     1       7.231   4.168  -8.146  1.00  0.00    -0.206 F 
ATOM     60  C   UNL     1       7.031   1.419 -10.489  1.00  0.00     0.022 A 
BRANCH  57  61
ATOM     61  S   UNL     1       4.924   0.104 -11.759  1.00  0.00     0.124 S 
ATOM     62  O   UNL     1       3.994  -0.467 -10.788  1.00  0.00    -0.237 OA
ATOM     63  O   UNL     1       4.320   0.813 -12.882  1.00  0.00    -0.237 OA
ATOM     64  O   UNL     1       6.062  -0.748 -12.097  1.00  0.00    -0.744 OA
ENDBRANCH  57  61
ENDBRANCH  40  54
BRANCH  41  65
ATOM     65  C   UNL     1      -0.822   9.800  -4.755  1.00  0.00     0.023 A 
ATOM     66  C   UNL     1      -1.617  10.707  -5.473  1.00  0.00     0.031 A 
ATOM     67  C   UNL     1      -0.829   9.887  -3.352  1.00  0.00     0.131 A 
ATOM     68  C   UNL     1      -2.338  11.700  -4.792  1.00  0.00     0.055 A 
ATOM     69  C   UNL     1      -1.594  10.838  -2.675  1.00  0.00     0.041 A 
ATOM     70  F   UNL     1      -0.089   9.043  -2.615  1.00  0.00    -0.206 F 
ATOM     71  C   UNL     1      -2.342  11.764  -3.397  1.00  0.00     0.022 A 
BRANCH  68  72
ATOM     72  S   UNL     1      -3.183  12.977  -5.763  1.00  0.00     0.124 S 
ATOM     73  O   UNL     1      -2.084  13.528  -6.548  1.00  0.00    -0.237 OA
ATOM     74  O   UNL     1      -4.170  12.193  -6.499  1.00  0.00    -0.237 OA
ATOM     75  O   UNL     1      -3.733  13.870  -4.745  1.00  0.00    -0.744 OA
ENDBRANCH  68  72
ENDBRANCH  41  65
BRANCH  53  76
ATOM     76  C   UNL     1       4.545  10.575  -9.138  1.00  0.00     0.023 A 
ATOM     77  C   UNL     1       5.284  11.527  -8.415  1.00  0.00     0.031 A 
ATOM     78  C   UNL     1       4.388  10.769 -10.523  1.00  0.00     0.131 A 
ATOM     79  C   UNL     1       5.806  12.651  -9.074  1.00  0.00     0.055 A 
ATOM     80  C   UNL     1       4.952  11.862 -11.181  1.00  0.00     0.041 A 
ATOM     81  F   UNL     1       3.690   9.890 -11.260  1.00  0.00    -0.206 F 
ATOM     82  C   UNL     1       5.658  12.816 -10.455  1.00  0.00     0.022 A 
BRANCH  79  83
ATOM     83  S   UNL     1       6.635  13.933  -8.095  1.00  0.00     0.124 S 
ATOM     84  O   UNL     1       5.571  14.364  -7.194  1.00  0.00    -0.237 OA
ATOM     85  O   UNL     1       7.732  13.194  -7.477  1.00  0.00    -0.237 OA
ATOM     86  O   UNL     1       7.041  14.920  -9.094  1.00  0.00    -0.744 OA
ENDBRANCH  79  83
ENDBRANCH  53  76
ENDBRANCH  27  28
ENDBRANCH  19  22
ENDBRANCH  17  18
ENDBRANCH  16  17
ENDBRANCH  15  16
ENDBRANCH   1  15
TORSDOF 20
