REMARK SMILES CC(C)([NH2+]C[C@@H]1COc2ccccc21)C(=O)NCCCCNC(=O)c1ccc(-c2c3nc(c(-c4cc(S(=O)(=O)[O-])ccc4F)c4ccc([nH]4)c(-c4cc(S(=O)(=O)[O-])ccc4F)c4nc(c(-c5cc(S(=O)(=O)[O-])ccc5F)c5ccc2[nH]5)C=C4)C=C3)cc1
REMARK SMILES IDX 19 1 18 2 17 3 15 4 16 5 2 7 1 8 3 9 4 10 5 13 6 14 7 15
REMARK SMILES IDX 14 16 8 17 9 18 13 19 10 20 12 21 11 22 20 23 21 24 22 25
REMARK SMILES IDX 23 26 24 28 25 29 26 30 87 31 27 32 86 33 28 34 29 35 30 36
REMARK SMILES IDX 80 37 31 38 85 39 79 40 81 41 32 42 84 43 78 44 77 45 33 47
REMARK SMILES IDX 65 48 45 49 64 50 46 51 49 52 63 53 82 54 47 55 48 56 62 58
REMARK SMILES IDX 83 59 50 60 34 61 35 62 43 63 36 64 42 65 44 66 41 67 37 68
REMARK SMILES IDX 38 69 39 70 40 71 66 72 67 73 75 74 68 75 74 76 76 77 73 78
REMARK SMILES IDX 69 79 70 80 71 81 72 82 51 83 52 84 60 85 53 86 59 87 61 88
REMARK SMILES IDX 58 89 54 90 55 91 56 92 57 93
REMARK H PARENT 17 6 4 11 4 12 22 27 81 46 49 57
REMARK Flexibility Score: inf
ROOT
ATOM      1  C   UNL     1      -2.716   4.316  -4.886  1.00  0.00     0.023 C 
ENDROOT
BRANCH   1   2
ATOM      2  C   UNL     1      -2.874   4.569  -3.382  1.00  0.00     0.116 C 
BRANCH   2   3
ATOM      3  N   UNL     1      -4.143   4.065  -2.911  1.00  0.00    -0.351 N 
ATOM      4  C   UNL     1      -4.514   2.956  -2.217  1.00  0.00     0.280 C 
ATOM      5  O   UNL     1      -5.743   2.800  -2.147  1.00  0.00    -0.268 OA
ATOM      6  H   UNL     1      -4.902   4.649  -3.141  1.00  0.00     0.163 HD
BRANCH   4   7
ATOM      7  C   UNL     1      -3.529   1.969  -1.487  1.00  0.00     0.169 C 
ATOM      8  C   UNL     1      -4.447   1.073  -0.596  1.00  0.00     0.090 C 
ATOM      9  C   UNL     1      -2.596   2.687  -0.505  1.00  0.00     0.090 C 
BRANCH   7  10
ATOM     10  N   UNL     1      -2.888   0.974  -2.391  1.00  0.00    -0.333 N 
ATOM     11  H   UNL     1      -3.625   0.630  -3.006  1.00  0.00     0.347 HD
ATOM     12  H   UNL     1      -2.454   0.332  -1.728  1.00  0.00     0.347 HD
BRANCH  10  13
ATOM     13  C   UNL     1      -1.765   1.324  -3.256  1.00  0.00     0.273 C 
BRANCH  13  14
ATOM     14  C   UNL     1      -0.390   1.497  -2.588  1.00  0.00     0.116 C 
ATOM     15  C   UNL     1       0.340   2.781  -3.028  1.00  0.00     0.244 C 
ATOM     16  C   UNL     1       0.681   0.532  -2.979  1.00  0.00     0.006 A 
ATOM     17  O   UNL     1       1.763   2.572  -2.913  1.00  0.00    -0.492 OA
ATOM     18  C   UNL     1       1.881   1.222  -3.105  1.00  0.00     0.123 A 
ATOM     19  C   UNL     1       0.646  -0.843  -3.131  1.00  0.00     0.008 A 
ATOM     20  C   UNL     1       3.075   0.590  -3.381  1.00  0.00     0.047 A 
ATOM     21  C   UNL     1       1.843  -1.504  -3.428  1.00  0.00     0.001 A 
ATOM     22  C   UNL     1       3.050  -0.793  -3.550  1.00  0.00     0.004 A 
ENDBRANCH  13  14
ENDBRANCH  10  13
ENDBRANCH   7  10
ENDBRANCH   4   7
ENDBRANCH   2   3
ENDBRANCH   1   2
BRANCH   1  23
ATOM     23  C   UNL     1      -2.914   5.544  -5.764  1.00  0.00     0.023 C 
BRANCH  23  24
ATOM     24  C   UNL     1      -1.870   6.634  -5.561  1.00  0.00     0.116 C 
BRANCH  24  25
ATOM     25  N   UNL     1      -0.503   6.214  -5.833  1.00  0.00    -0.352 N 
ATOM     26  C   UNL     1       0.538   6.980  -6.322  1.00  0.00     0.251 C 
ATOM     27  H   UNL     1      -0.295   5.270  -5.647  1.00  0.00     0.163 HD
ATOM     28  O   UNL     1       1.616   6.473  -6.570  1.00  0.00    -0.269 OA
BRANCH  26  29
ATOM     29  C   UNL     1       0.286   8.414  -6.594  1.00  0.00     0.039 A 
ATOM     30  C   UNL     1       0.610   8.929  -7.850  1.00  0.00     0.014 A 
ATOM     31  C   UNL     1      -0.357   9.211  -5.645  1.00  0.00     0.014 A 
ATOM     32  C   UNL     1       0.211  10.226  -8.183  1.00  0.00     0.010 A 
ATOM     33  C   UNL     1      -0.838  10.461  -6.013  1.00  0.00     0.010 A 
ATOM     34  C   UNL     1      -0.555  10.985  -7.284  1.00  0.00    -0.014 A 
BRANCH  34  35
ATOM     35  C   UNL     1      -1.040  12.346  -7.630  1.00  0.00     0.031 A 
ATOM     36  C   UNL     1      -0.590  13.522  -6.805  1.00  0.00     0.074 A 
ATOM     37  C   UNL     1      -1.939  12.513  -8.620  1.00  0.00     0.049 A 
ATOM     38  N   UNL     1      -0.976  14.770  -6.856  1.00  0.00    -0.248 NA
ATOM     39  C   UNL     1       0.392  13.241  -5.746  1.00  0.00     0.031 C 
ATOM     40  C   UNL     1      -2.498  11.443  -9.450  1.00  0.00     0.029 A 
ATOM     41  N   UNL     1      -2.549  13.648  -9.093  1.00  0.00    -0.354 N 
ATOM     42  C   UNL     1      -0.310  15.414  -5.819  1.00  0.00     0.074 A 
ATOM     43  C   UNL     1       0.443  14.400  -5.112  1.00  0.00     0.031 C 
ATOM     44  C   UNL     1      -3.344  11.977 -10.346  1.00  0.00     0.029 A 
ATOM     45  C   UNL     1      -3.418  13.418 -10.134  1.00  0.00     0.049 A 
ATOM     46  H   UNL     1      -2.379  14.544  -8.721  1.00  0.00     0.167 HD
ATOM     47  C   UNL     1      -0.301  16.733  -5.503  1.00  0.00     0.034 A 
ATOM     48  C   UNL     1      -4.186  14.276 -10.835  1.00  0.00     0.034 A 
ATOM     49  C   UNL     1      -1.026  17.733  -6.245  1.00  0.00     0.049 A 
ATOM     50  C   UNL     1      -4.130  15.744 -10.495  1.00  0.00     0.074 A 
ATOM     51  C   UNL     1      -1.049  19.104  -6.055  1.00  0.00     0.029 A 
ATOM     52  N   UNL     1      -1.853  17.469  -7.330  1.00  0.00    -0.354 N 
ATOM     53  N   UNL     1      -3.459  16.346  -9.539  1.00  0.00    -0.248 NA
ATOM     54  C   UNL     1      -4.920  16.649 -11.339  1.00  0.00     0.031 C 
ATOM     55  C   UNL     1      -1.924  19.662  -6.994  1.00  0.00     0.029 A 
ATOM     56  C   UNL     1      -2.398  18.648  -7.812  1.00  0.00     0.049 A 
ATOM     57  H   UNL     1      -2.026  16.574  -7.702  1.00  0.00     0.167 HD
ATOM     58  C   UNL     1      -3.720  17.704  -9.692  1.00  0.00     0.074 A 
ATOM     59  C   UNL     1      -4.599  17.832 -10.836  1.00  0.00     0.031 C 
ATOM     60  C   UNL     1      -3.270  18.753  -8.957  1.00  0.00     0.034 A 
BRANCH  47  61
ATOM     61  C   UNL     1       0.509  17.147  -4.297  1.00  0.00     0.023 A 
ATOM     62  C   UNL     1       1.900  16.947  -4.242  1.00  0.00     0.031 A 
ATOM     63  C   UNL     1      -0.121  17.692  -3.165  1.00  0.00     0.131 A 
ATOM     64  C   UNL     1       2.597  17.194  -3.050  1.00  0.00     0.055 A 
ATOM     65  C   UNL     1       0.595  18.024  -2.013  1.00  0.00     0.041 A 
ATOM     66  F   UNL     1      -1.449  17.889  -3.150  1.00  0.00    -0.206 F 
ATOM     67  C   UNL     1       1.959  17.756  -1.943  1.00  0.00     0.022 A 
BRANCH  64  68
ATOM     68  S   UNL     1       4.309  16.611  -2.916  1.00  0.00     0.124 S 
ATOM     69  O   UNL     1       4.145  15.172  -3.110  1.00  0.00    -0.237 OA
ATOM     70  O   UNL     1       4.974  17.329  -3.997  1.00  0.00    -0.237 OA
ATOM     71  O   UNL     1       4.703  17.009  -1.566  1.00  0.00    -0.744 OA
ENDBRANCH  64  68
ENDBRANCH  47  61
BRANCH  48  72
ATOM     72  C   UNL     1      -5.062  13.783 -11.936  1.00  0.00     0.023 A 
ATOM     73  C   UNL     1      -4.811  14.141 -13.271  1.00  0.00     0.031 A 
ATOM     74  C   UNL     1      -6.186  12.983 -11.668  1.00  0.00     0.131 A 
ATOM     75  C   UNL     1      -5.699  13.742 -14.282  1.00  0.00     0.055 A 
ATOM     76  C   UNL     1      -7.040  12.549 -12.683  1.00  0.00     0.041 A 
ATOM     77  F   UNL     1      -6.464  12.604 -10.411  1.00  0.00    -0.206 F 
ATOM     78  C   UNL     1      -6.807  12.940 -13.998  1.00  0.00     0.022 A 
BRANCH  75  79
ATOM     79  S   UNL     1      -5.428  14.355 -15.967  1.00  0.00     0.124 S 
ATOM     80  O   UNL     1      -5.461  15.800 -15.767  1.00  0.00    -0.237 OA
ATOM     81  O   UNL     1      -4.126  13.781 -16.291  1.00  0.00    -0.237 OA
ATOM     82  O   UNL     1      -6.555  13.802 -16.716  1.00  0.00    -0.744 OA
ENDBRANCH  75  79
ENDBRANCH  48  72
BRANCH  60  83
ATOM     83  C   UNL     1      -3.676  20.131  -9.414  1.00  0.00     0.023 A 
ATOM     84  C   UNL     1      -5.006  20.578  -9.328  1.00  0.00     0.031 A 
ATOM     85  C   UNL     1      -2.714  21.005  -9.951  1.00  0.00     0.131 A 
ATOM     86  C   UNL     1      -5.348  21.846  -9.822  1.00  0.00     0.055 A 
ATOM     87  C   UNL     1      -3.051  22.285 -10.392  1.00  0.00     0.041 A 
ATOM     88  F   UNL     1      -1.430  20.626 -10.055  1.00  0.00    -0.206 F 
ATOM     89  C   UNL     1      -4.376  22.707 -10.340  1.00  0.00     0.022 A 
BRANCH  86  90
ATOM     90  S   UNL     1      -7.097  22.323  -9.859  1.00  0.00     0.124 S 
ATOM     91  O   UNL     1      -7.685  21.263 -10.671  1.00  0.00    -0.237 OA
ATOM     92  O   UNL     1      -7.452  22.312  -8.443  1.00  0.00    -0.237 OA
ATOM     93  O   UNL     1      -7.079  23.645 -10.482  1.00  0.00    -0.744 OA
ENDBRANCH  86  90
ENDBRANCH  60  83
ENDBRANCH  34  35
ENDBRANCH  26  29
ENDBRANCH  24  25
ENDBRANCH  23  24
ENDBRANCH   1  23
TORSDOF 17
