REMARK SMILES O=C(NCCCCNC(=O)c1ccc(-c2c3nc(c(-c4cc(S(=O)(=O)[O-])ccc4F)c4ccc([nH]4)c(-c4cc(S(=O)(=O)[O-])ccc4F)c4nc(c(-c5cc(S(=O)(=O)[O-])ccc5F)c5ccc2[nH]5)C=C4)C=C3)cc1)C1=Cc2cc(Cl)ccc2O[C@@H]1C(F)(F)F
REMARK SMILES IDX 6 1 5 2 4 3 3 4 1 5 2 6 74 8 75 9 84 10 76 11 83 12 77 13
REMARK SMILES IDX 82 14 78 15 81 16 79 17 80 18 85 19 86 20 87 21 88 22 7 23
REMARK SMILES IDX 8 24 9 25 10 27 11 28 12 29 73 30 13 31 72 32 14 33 15 34
REMARK SMILES IDX 16 35 66 36 17 37 71 38 65 39 67 40 18 41 70 42 64 43 63 44
REMARK SMILES IDX 19 46 51 47 31 48 50 49 32 50 35 51 49 52 68 53 33 54 34 55
REMARK SMILES IDX 48 57 69 58 36 59 20 60 21 61 29 62 22 63 28 64 30 65 27 66
REMARK SMILES IDX 23 67 24 68 25 69 26 70 52 71 53 72 61 73 54 74 60 75 62 76
REMARK SMILES IDX 59 77 55 78 56 79 57 80 58 81 37 82 38 83 46 84 39 85 45 86
REMARK SMILES IDX 47 87 44 88 40 89 41 90 42 91 43 92
REMARK H PARENT 3 7 8 26 67 45 35 56
REMARK Flexibility Score: inf
ROOT
ATOM      1  C   UNL     1       3.975  -0.672   4.355  1.00  0.00     0.023 C 
ENDROOT
BRANCH   1   2
ATOM      2  C   UNL     1       4.209   0.324   3.219  1.00  0.00     0.023 C 
BRANCH   2   3
ATOM      3  C   UNL     1       3.695  -0.125   1.851  1.00  0.00     0.116 C 
BRANCH   3   4
ATOM      4  N   UNL     1       2.545   0.641   1.365  1.00  0.00    -0.352 N 
ATOM      5  O   UNL     1       1.115   1.476  -0.184  1.00  0.00    -0.270 OA
ATOM      6  C   UNL     1       2.232   1.053   0.089  1.00  0.00     0.251 C 
ATOM      7  H   UNL     1       1.896   0.901   2.058  1.00  0.00     0.163 HD
BRANCH   6   8
ATOM      8  C   UNL     1       3.235   0.844  -0.976  1.00  0.00     0.067 C 
ATOM      9  C   UNL     1       4.423   1.464  -0.944  1.00  0.00     0.025 C 
ATOM     10  C   UNL     1       2.997  -0.301  -1.915  1.00  0.00     0.314 C 
ATOM     11  C   UNL     1       5.526   0.484  -1.030  1.00  0.00     0.019 A 
ATOM     12  O   UNL     1       4.033  -1.305  -1.807  1.00  0.00    -0.475 OA
ATOM     13  C   UNL     1       6.734   0.798  -0.393  1.00  0.00     0.032 A 
ATOM     14  C   UNL     1       5.251  -0.863  -1.349  1.00  0.00     0.128 A 
ATOM     15  C   UNL     1       7.622  -0.223  -0.046  1.00  0.00     0.041 A 
ATOM     16  C   UNL     1       6.163  -1.870  -1.032  1.00  0.00     0.048 A 
ATOM     17  Cl  UNL     1       9.027   0.155   0.872  1.00  0.00    -0.084 Cl
ATOM     18  C   UNL     1       7.342  -1.552  -0.360  1.00  0.00     0.024 A 
BRANCH  10  19
ATOM     19  C   UNL     1       2.866   0.197  -3.368  1.00  0.00     0.429 C 
ATOM     20  F   UNL     1       2.542  -0.816  -4.208  1.00  0.00    -0.167 F 
ATOM     21  F   UNL     1       1.896   1.134  -3.496  1.00  0.00    -0.167 F 
ATOM     22  F   UNL     1       4.012   0.748  -3.837  1.00  0.00    -0.167 F 
ENDBRANCH  10  19
ENDBRANCH   6   8
ENDBRANCH   3   4
ENDBRANCH   2   3
ENDBRANCH   1   2
BRANCH   1  23
ATOM     23  C   UNL     1       4.548  -2.075   4.162  1.00  0.00     0.116 C 
BRANCH  23  24
ATOM     24  N   UNL     1       5.988  -2.125   3.959  1.00  0.00    -0.352 N 
ATOM     25  C   UNL     1       6.894  -3.022   4.485  1.00  0.00     0.251 C 
ATOM     26  H   UNL     1       6.364  -1.429   3.373  1.00  0.00     0.163 HD
ATOM     27  O   UNL     1       8.093  -2.900   4.240  1.00  0.00    -0.269 OA
BRANCH  25  28
ATOM     28  C   UNL     1       6.420  -4.098   5.386  1.00  0.00     0.039 A 
ATOM     29  C   UNL     1       7.040  -4.265   6.627  1.00  0.00     0.014 A 
ATOM     30  C   UNL     1       5.326  -4.893   5.036  1.00  0.00     0.014 A 
ATOM     31  C   UNL     1       6.505  -5.168   7.551  1.00  0.00     0.010 A 
ATOM     32  C   UNL     1       4.748  -5.730   5.987  1.00  0.00     0.010 A 
ATOM     33  C   UNL     1       5.328  -5.876   7.257  1.00  0.00    -0.014 A 
BRANCH  33  34
ATOM     34  C   UNL     1       4.703  -6.787   8.255  1.00  0.00     0.031 A 
ATOM     35  C   UNL     1       4.588  -8.259   7.956  1.00  0.00     0.074 A 
ATOM     36  C   UNL     1       4.189  -6.289   9.399  1.00  0.00     0.049 A 
ATOM     37  N   UNL     1       4.010  -9.205   8.650  1.00  0.00    -0.248 NA
ATOM     38  C   UNL     1       5.172  -8.717   6.686  1.00  0.00     0.031 C 
ATOM     39  C   UNL     1       4.186  -4.874   9.780  1.00  0.00     0.029 A 
ATOM     40  N   UNL     1       3.564  -6.913  10.450  1.00  0.00    -0.354 N 
ATOM     41  C   UNL     1       4.156 -10.368   7.900  1.00  0.00     0.074 A 
ATOM     42  C   UNL     1       4.804  -9.989   6.663  1.00  0.00     0.031 C 
ATOM     43  C   UNL     1       3.609  -4.744  10.987  1.00  0.00     0.029 A 
ATOM     44  C   UNL     1       3.172  -6.056  11.453  1.00  0.00     0.049 A 
ATOM     45  H   UNL     1       3.410  -7.885  10.483  1.00  0.00     0.167 HD
ATOM     46  C   UNL     1       3.813 -11.640   8.224  1.00  0.00     0.034 A 
ATOM     47  C   UNL     1       2.532  -6.301  12.615  1.00  0.00     0.034 A 
ATOM     48  C   UNL     1       3.178 -12.008   9.465  1.00  0.00     0.049 A 
ATOM     49  C   UNL     1       2.182  -7.728  12.964  1.00  0.00     0.074 A 
ATOM     50  C   UNL     1       2.782 -13.263   9.897  1.00  0.00     0.029 A 
ATOM     51  N   UNL     1       2.856 -11.120  10.483  1.00  0.00    -0.354 N 
ATOM     52  N   UNL     1       2.354  -8.819  12.253  1.00  0.00    -0.248 NA
ATOM     53  C   UNL     1       1.581  -7.959  14.283  1.00  0.00     0.031 C 
ATOM     54  C   UNL     1       2.188 -13.127  11.158  1.00  0.00     0.029 A 
ATOM     55  C   UNL     1       2.272 -11.799  11.541  1.00  0.00     0.049 A 
ATOM     56  H   UNL     1       3.019 -10.149  10.457  1.00  0.00     0.167 HD
ATOM     57  C   UNL     1       1.919  -9.868  13.059  1.00  0.00     0.074 A 
ATOM     58  C   UNL     1       1.498  -9.280  14.313  1.00  0.00     0.031 C 
ATOM     59  C   UNL     1       1.870 -11.198  12.790  1.00  0.00     0.034 A 
BRANCH  46  60
ATOM     60  C   UNL     1       4.123 -12.714   7.208  1.00  0.00     0.023 A 
ATOM     61  C   UNL     1       5.448 -12.999   6.830  1.00  0.00     0.031 A 
ATOM     62  C   UNL     1       3.092 -13.431   6.579  1.00  0.00     0.131 A 
ATOM     63  C   UNL     1       5.702 -13.910   5.795  1.00  0.00     0.055 A 
ATOM     64  C   UNL     1       3.357 -14.402   5.609  1.00  0.00     0.041 A 
ATOM     65  F   UNL     1       1.807 -13.190   6.882  1.00  0.00    -0.206 F 
ATOM     66  C   UNL     1       4.667 -14.634   5.200  1.00  0.00     0.022 A 
BRANCH  63  67
ATOM     67  S   UNL     1       7.389 -14.028   5.142  1.00  0.00     0.124 S 
ATOM     68  O   UNL     1       7.596 -12.677   4.624  1.00  0.00    -0.237 OA
ATOM     69  O   UNL     1       8.164 -14.384   6.324  1.00  0.00    -0.237 OA
ATOM     70  O   UNL     1       7.290 -15.071   4.123  1.00  0.00    -0.744 OA
ENDBRANCH  63  67
ENDBRANCH  46  60
BRANCH  47  71
ATOM     71  C   UNL     1       2.181  -5.188  13.546  1.00  0.00     0.023 A 
ATOM     72  C   UNL     1       2.736  -5.117  14.834  1.00  0.00     0.031 A 
ATOM     73  C   UNL     1       1.228  -4.218  13.187  1.00  0.00     0.131 A 
ATOM     74  C   UNL     1       2.284  -4.146  15.741  1.00  0.00     0.055 A 
ATOM     75  C   UNL     1       0.824  -3.217  14.073  1.00  0.00     0.041 A 
ATOM     76  F   UNL     1       0.672  -4.232  11.965  1.00  0.00    -0.206 F 
ATOM     77  C   UNL     1       1.339  -3.189  15.366  1.00  0.00     0.022 A 
BRANCH  74  78
ATOM     78  S   UNL     1       2.864  -4.226  17.458  1.00  0.00     0.124 S 
ATOM     79  O   UNL     1       2.520  -5.595  17.826  1.00  0.00    -0.237 OA
ATOM     80  O   UNL     1       4.287  -3.940  17.308  1.00  0.00    -0.237 OA
ATOM     81  O   UNL     1       2.087  -3.184  18.128  1.00  0.00    -0.744 OA
ENDBRANCH  74  78
ENDBRANCH  47  71
BRANCH  59  82
ATOM     82  C   UNL     1       1.410 -12.104  13.905  1.00  0.00     0.023 A 
ATOM     83  C   UNL     1       0.097 -12.063  14.403  1.00  0.00     0.031 A 
ATOM     84  C   UNL     1       2.317 -12.999  14.501  1.00  0.00     0.131 A 
ATOM     85  C   UNL     1      -0.255 -12.848  15.512  1.00  0.00     0.055 A 
ATOM     86  C   UNL     1       1.944 -13.823  15.564  1.00  0.00     0.041 A 
ATOM     87  F   UNL     1       3.584 -13.081  14.064  1.00  0.00    -0.206 F 
ATOM     88  C   UNL     1       0.657 -13.737  16.087  1.00  0.00     0.022 A 
BRANCH  85  89
ATOM     89  S   UNL     1      -1.887 -12.606  16.266  1.00  0.00     0.124 S 
ATOM     90  O   UNL     1      -1.888 -11.172  16.537  1.00  0.00    -0.237 OA
ATOM     91  O   UNL     1      -2.786 -13.055  15.209  1.00  0.00    -0.237 OA
ATOM     92  O   UNL     1      -1.847 -13.460  17.451  1.00  0.00    -0.744 OA
ENDBRANCH  85  89
ENDBRANCH  59  82
ENDBRANCH  33  34
ENDBRANCH  25  28
ENDBRANCH  23  24
ENDBRANCH   1  23
TORSDOF 15
