REMARK SMILES CC1=C[C@@H]([C@@H]2N=N[C@H](S)N2/N=C/c2ccc(C(=O)NCCCCNC(=O)c3ccc(-c4c5nc(c(-c6cc(S(=O)(=O)[O-])ccc6F)c6ccc([nH]6)c(-c6cc(S(=O)(=O)[O-])ccc6F)c6nc(c(-c7cc(S(=O)(=O)[O-])ccc7F)c7ccc4[nH]7)C=C6)C=C5)cc3)cc2)N=N1
REMARK SMILES IDX 21 1 20 2 19 3 17 4 18 5 16 7 13 8 14 9 91 10 15 11 90 12
REMARK SMILES IDX 12 13 11 14 10 15 5 16 6 17 7 18 8 19 4 20 1 21 2 22 3 23
REMARK SMILES IDX 93 24 92 25 9 26 22 28 23 29 24 30 25 31 26 33 27 34 28 35
REMARK SMILES IDX 89 36 29 37 88 38 30 39 31 40 32 41 82 42 33 43 87 44 81 45
REMARK SMILES IDX 83 46 34 47 86 48 80 49 79 50 35 52 67 53 47 54 66 55 48 56
REMARK SMILES IDX 51 57 65 58 84 59 49 60 50 61 64 63 85 64 52 65 36 66 37 67
REMARK SMILES IDX 45 68 38 69 44 70 46 71 43 72 39 73 40 74 41 75 42 76 68 77
REMARK SMILES IDX 69 78 77 79 70 80 76 81 78 82 75 83 71 84 72 85 73 86 74 87
REMARK SMILES IDX 53 88 54 89 62 90 55 91 61 92 63 93 60 94 56 95 57 96 58 97
REMARK SMILES IDX 59 98
REMARK H PARENT 19 6 9 27 24 32 83 51 51 62
REMARK Flexibility Score: inf
ROOT
ATOM      1  C   UNL     1       5.076   5.176   0.434  1.00  0.00     0.023 C 
ENDROOT
BRANCH   1   2
ATOM      2  C   UNL     1       4.411   4.151  -0.494  1.00  0.00     0.116 C 
BRANCH   2   3
ATOM      3  N   UNL     1       5.395   3.250  -1.068  1.00  0.00    -0.352 N 
ATOM      4  C   UNL     1       5.833   1.994  -0.730  1.00  0.00     0.251 C 
ATOM      5  O   UNL     1       6.701   1.488  -1.444  1.00  0.00    -0.269 OA
ATOM      6  H   UNL     1       5.840   3.616  -1.866  1.00  0.00     0.163 HD
BRANCH   4   7
ATOM      7  C   UNL     1       5.299   1.196   0.413  1.00  0.00     0.039 A 
ATOM      8  C   UNL     1       4.238  -0.485   2.403  1.00  0.00    -0.005 A 
ATOM      9  C   UNL     1       4.933  -1.044   1.332  1.00  0.00     0.010 A 
ATOM     10  C   UNL     1       4.130   0.900   2.521  1.00  0.00     0.010 A 
ATOM     11  C   UNL     1       5.449  -0.203   0.338  1.00  0.00     0.014 A 
ATOM     12  C   UNL     1       4.686   1.734   1.546  1.00  0.00     0.014 A 
BRANCH   8  13
ATOM     13  C   UNL     1       3.554  -1.369   3.365  1.00  0.00     0.141 C 
ATOM     14  N   UNL     1       2.620  -0.907   4.138  1.00  0.00    -0.180 NA
BRANCH  14  15
ATOM     15  N   UNL     1       1.987  -1.824   4.898  1.00  0.00    -0.233 NA
ATOM     16  C   UNL     1       0.628  -1.611   5.400  1.00  0.00     0.274 C 
ATOM     17  N   UNL     1       0.437  -2.512   6.565  1.00  0.00    -0.161 NA
ATOM     18  N   UNL     1       1.490  -3.155   6.800  1.00  0.00    -0.153 NA
ATOM     19  C   UNL     1       2.564  -2.760   5.860  1.00  0.00     0.298 C 
BRANCH  16  20
ATOM     20  C   UNL     1       0.266  -0.150   5.768  1.00  0.00     0.201 C 
ATOM     21  C   UNL     1       0.396   1.469   9.106  1.00  0.00     0.068 C 
ATOM     22  C   UNL     1       0.137   0.812   7.800  1.00  0.00     0.058 C 
ATOM     23  C   UNL     1       1.037   0.487   6.873  1.00  0.00     0.031 C 
ATOM     24  N   UNL     1      -1.138   0.459   7.440  1.00  0.00    -0.160 NA
ATOM     25  N   UNL     1      -1.134  -0.088   6.300  1.00  0.00    -0.177 NA
ENDBRANCH  16  20
BRANCH  19  26
ATOM     26  S   UNL     1       4.072  -2.132   6.678  1.00  0.00    -0.128 SA
ATOM     27  H   UNL     1       3.771  -1.008   7.382  1.00  0.00     0.106 HD
ENDBRANCH  19  26
ENDBRANCH  14  15
ENDBRANCH   8  13
ENDBRANCH   4   7
ENDBRANCH   2   3
ENDBRANCH   1   2
BRANCH   1  28
ATOM     28  C   UNL     1       5.838   6.301  -0.284  1.00  0.00     0.023 C 
BRANCH  28  29
ATOM     29  C   UNL     1       4.957   7.284  -1.052  1.00  0.00     0.116 C 
BRANCH  29  30
ATOM     30  N   UNL     1       4.032   8.008  -0.184  1.00  0.00    -0.352 N 
ATOM     31  C   UNL     1       2.935   8.768  -0.552  1.00  0.00     0.251 C 
ATOM     32  H   UNL     1       4.211   7.949   0.782  1.00  0.00     0.163 HD
ATOM     33  O   UNL     1       2.515   9.644   0.186  1.00  0.00    -0.269 OA
BRANCH  31  34
ATOM     34  C   UNL     1       2.279   8.485  -1.844  1.00  0.00     0.039 A 
ATOM     35  C   UNL     1       1.856   9.516  -2.687  1.00  0.00     0.014 A 
ATOM     36  C   UNL     1       2.114   7.151  -2.212  1.00  0.00     0.014 A 
ATOM     37  C   UNL     1       1.347   9.192  -3.945  1.00  0.00     0.010 A 
ATOM     38  C   UNL     1       1.720   6.837  -3.491  1.00  0.00     0.010 A 
ATOM     39  C   UNL     1       1.302   7.848  -4.352  1.00  0.00    -0.014 A 
BRANCH  39  40
ATOM     40  C   UNL     1       0.996   7.490  -5.740  1.00  0.00     0.031 A 
ATOM     41  C   UNL     1       1.910   8.119  -6.736  1.00  0.00     0.074 A 
ATOM     42  C   UNL     1       0.163   6.480  -6.077  1.00  0.00     0.049 A 
ATOM     43  N   UNL     1       1.632   9.028  -7.610  1.00  0.00    -0.248 NA
ATOM     44  C   UNL     1       3.352   7.836  -6.625  1.00  0.00     0.031 C 
ATOM     45  C   UNL     1      -0.549   5.569  -5.172  1.00  0.00     0.029 A 
ATOM     46  N   UNL     1      -0.133   5.962  -7.303  1.00  0.00    -0.354 N 
ATOM     47  C   UNL     1       2.802   9.223  -8.343  1.00  0.00     0.074 A 
ATOM     48  C   UNL     1       3.854   8.670  -7.537  1.00  0.00     0.031 C 
ATOM     49  C   UNL     1      -0.985   4.490  -5.859  1.00  0.00     0.029 A 
ATOM     50  C   UNL     1      -0.735   4.702  -7.275  1.00  0.00     0.049 A 
ATOM     51  H   UNL     1       0.062   6.439  -8.143  1.00  0.00     0.167 HD
ATOM     52  C   UNL     1       2.753   9.551  -9.667  1.00  0.00     0.034 A 
ATOM     53  C   UNL     1      -0.993   3.875  -8.326  1.00  0.00     0.034 A 
ATOM     54  C   UNL     1       1.423  10.008 -10.023  1.00  0.00     0.049 A 
ATOM     55  C   UNL     1      -0.985   4.721  -9.543  1.00  0.00     0.074 A 
ATOM     56  C   UNL     1       0.590  11.017  -9.576  1.00  0.00     0.029 A 
ATOM     57  N   UNL     1       0.604   9.137 -10.710  1.00  0.00    -0.354 N 
ATOM     58  N   UNL     1      -1.863   5.660  -9.766  1.00  0.00    -0.248 NA
ATOM     59  C   UNL     1       0.271   4.867 -10.263  1.00  0.00     0.031 C 
ATOM     60  C   UNL     1      -0.716  10.441  -9.574  1.00  0.00     0.029 A 
ATOM     61  C   UNL     1      -0.630   9.155 -10.112  1.00  0.00     0.049 A 
ATOM     62  H   UNL     1       0.860   8.597 -11.493  1.00  0.00     0.167 HD
ATOM     63  C   UNL     1      -1.131   6.721 -10.275  1.00  0.00     0.074 A 
ATOM     64  C   UNL     1       0.156   6.139 -10.658  1.00  0.00     0.031 C 
ATOM     65  C   UNL     1      -1.524   8.013 -10.067  1.00  0.00     0.034 A 
BRANCH  52  66
ATOM     66  C   UNL     1       3.731   9.053 -10.726  1.00  0.00     0.023 A 
ATOM     67  C   UNL     1       3.389   9.329 -12.065  1.00  0.00     0.031 A 
ATOM     68  C   UNL     1       4.756   8.097 -10.553  1.00  0.00     0.131 A 
ATOM     69  C   UNL     1       3.889   8.547 -13.119  1.00  0.00     0.055 A 
ATOM     70  C   UNL     1       5.303   7.367 -11.615  1.00  0.00     0.041 A 
ATOM     71  F   UNL     1       5.250   7.757  -9.360  1.00  0.00    -0.206 F 
ATOM     72  C   UNL     1       4.835   7.554 -12.903  1.00  0.00     0.022 A 
BRANCH  69  73
ATOM     73  S   UNL     1       3.098   8.712 -14.739  1.00  0.00     0.124 S 
ATOM     74  O   UNL     1       1.699   8.486 -14.393  1.00  0.00    -0.237 OA
ATOM     75  O   UNL     1       3.461  10.075 -15.109  1.00  0.00    -0.237 OA
ATOM     76  O   UNL     1       3.729   7.659 -15.530  1.00  0.00    -0.744 OA
ENDBRANCH  69  73
ENDBRANCH  52  66
BRANCH  53  77
ATOM     77  C   UNL     1      -0.941   2.382  -8.363  1.00  0.00     0.023 A 
ATOM     78  C   UNL     1      -1.595   1.599  -9.343  1.00  0.00     0.031 A 
ATOM     79  C   UNL     1      -0.011   1.708  -7.540  1.00  0.00     0.131 A 
ATOM     80  C   UNL     1      -1.307   0.215  -9.465  1.00  0.00     0.055 A 
ATOM     81  C   UNL     1       0.271   0.345  -7.665  1.00  0.00     0.041 A 
ATOM     82  F   UNL     1       0.724   2.376  -6.636  1.00  0.00    -0.206 F 
ATOM     83  C   UNL     1      -0.371  -0.406  -8.636  1.00  0.00     0.022 A 
BRANCH  80  84
ATOM     84  S   UNL     1      -2.095  -0.800 -10.764  1.00  0.00     0.124 S 
ATOM     85  O   UNL     1      -3.498  -0.780 -10.369  1.00  0.00    -0.237 OA
ATOM     86  O   UNL     1      -1.750  -0.075 -11.981  1.00  0.00    -0.237 OA
ATOM     87  O   UNL     1      -1.440  -2.102 -10.625  1.00  0.00    -0.744 OA
ENDBRANCH  80  84
ENDBRANCH  53  77
BRANCH  65  88
ATOM     88  C   UNL     1      -2.935   8.271  -9.575  1.00  0.00     0.023 A 
ATOM     89  C   UNL     1      -3.487   7.775  -8.371  1.00  0.00     0.031 A 
ATOM     90  C   UNL     1      -3.711   9.171 -10.326  1.00  0.00     0.131 A 
ATOM     91  C   UNL     1      -4.777   8.182  -7.970  1.00  0.00     0.055 A 
ATOM     92  C   UNL     1      -4.974   9.588  -9.915  1.00  0.00     0.041 A 
ATOM     93  F   UNL     1      -3.232   9.696 -11.466  1.00  0.00    -0.206 F 
ATOM     94  C   UNL     1      -5.515   9.090  -8.736  1.00  0.00     0.022 A 
BRANCH  91  95
ATOM     95  S   UNL     1      -5.535   7.525  -6.447  1.00  0.00     0.124 S 
ATOM     96  O   UNL     1      -5.309   6.088  -6.544  1.00  0.00    -0.237 OA
ATOM     97  O   UNL     1      -4.792   8.220  -5.399  1.00  0.00    -0.237 OA
ATOM     98  O   UNL     1      -6.938   7.930  -6.564  1.00  0.00    -0.744 OA
ENDBRANCH  91  95
ENDBRANCH  65  88
ENDBRANCH  39  40
ENDBRANCH  31  34
ENDBRANCH  29  30
ENDBRANCH  28  29
ENDBRANCH   1  28
TORSDOF 18
