REMARK SMILES Cc1ccccc1N[C@H](C(=O)NCCCCNC(=O)c1ccc(-c2c3nc(c(-c4cc(S(=O)(=O)[O-])ccc4F)c4ccc([nH]4)c(-c4cc(S(=O)(=O)[O-])ccc4F)c4nc(c(-c5cc(S(=O)(=O)[O-])ccc5F)c5ccc2[nH]5)C=C4)C=C3)cc1)c1cccc(C2CC2)c1
REMARK SMILES IDX 15 1 14 2 13 3 12 4 10 5 11 6 9 8 8 9 7 11 1 12 2 13 3 14
REMARK SMILES IDX 4 15 6 16 5 17 83 18 84 19 91 20 85 21 87 22 86 23 88 24
REMARK SMILES IDX 89 25 90 26 16 27 17 28 18 29 19 31 20 32 21 33 82 34 22 35
REMARK SMILES IDX 81 36 23 37 24 38 25 39 75 40 26 41 80 42 74 43 76 44 27 45
REMARK SMILES IDX 79 46 73 47 72 48 28 50 60 51 40 52 59 53 41 54 44 55 58 56
REMARK SMILES IDX 77 57 42 58 43 59 57 61 78 62 45 63 29 64 30 65 38 66 31 67
REMARK SMILES IDX 37 68 39 69 36 70 32 71 33 72 34 73 35 74 61 75 62 76 70 77
REMARK SMILES IDX 63 78 69 79 71 80 68 81 64 82 65 83 66 84 67 85 46 86 47 87
REMARK SMILES IDX 55 88 48 89 54 90 56 91 53 92 49 93 50 94 51 95 52 96
REMARK H PARENT 12 7 8 10 17 30 76 49 44 60
REMARK Flexibility Score: inf
ROOT
ATOM      1  C   UNL     1       3.308   2.983   4.195  1.00  0.00     0.023 C 
ENDROOT
BRANCH   1   2
ATOM      2  C   UNL     1       2.031   3.727   3.805  1.00  0.00     0.023 C 
BRANCH   2   3
ATOM      3  C   UNL     1       1.849   3.864   2.295  1.00  0.00     0.116 C 
BRANCH   3   4
ATOM      4  N   UNL     1       1.374   2.630   1.675  1.00  0.00    -0.354 N 
ATOM      5  C   UNL     1       0.532   2.493   0.597  1.00  0.00     0.247 C 
ATOM      6  O   UNL     1       0.321   1.343   0.186  1.00  0.00    -0.272 OA
ATOM      7  H   UNL     1       1.697   1.792   2.079  1.00  0.00     0.163 HD
BRANCH   5   8
ATOM      8  C   UNL     1      -0.150   3.732  -0.087  1.00  0.00     0.200 C 
BRANCH   8   9
ATOM      9  N   UNL     1      -1.229   4.196   0.812  1.00  0.00    -0.370 N 
ATOM     10  H   UNL     1      -2.029   3.627   0.736  1.00  0.00     0.161 HD
BRANCH   9  11
ATOM     11  C   UNL     1      -1.417   5.207   1.727  1.00  0.00     0.038 A 
ATOM     12  C   UNL     1      -2.841   3.675   3.219  1.00  0.00     0.046 C 
ATOM     13  C   UNL     1      -2.324   5.027   2.800  1.00  0.00    -0.028 A 
ATOM     14  C   UNL     1      -2.723   6.120   3.603  1.00  0.00     0.005 A 
ATOM     15  C   UNL     1      -2.163   7.376   3.427  1.00  0.00     0.000 A 
ATOM     16  C   UNL     1      -0.767   6.442   1.697  1.00  0.00     0.026 A 
ATOM     17  C   UNL     1      -1.148   7.522   2.503  1.00  0.00     0.002 A 
ENDBRANCH   9  11
ENDBRANCH   8   9
BRANCH   8  18
ATOM     18  C   UNL     1       0.826   4.712  -0.710  1.00  0.00    -0.016 A 
ATOM     19  C   UNL     1       0.461   5.979  -1.164  1.00  0.00     0.006 A 
ATOM     20  C   UNL     1       2.178   4.346  -0.826  1.00  0.00     0.010 A 
ATOM     21  C   UNL     1       1.451   6.932  -1.398  1.00  0.00     0.001 A 
ATOM     22  C   UNL     1       3.201   5.275  -0.999  1.00  0.00    -0.045 A 
ATOM     23  C   UNL     1       2.798   6.588  -1.257  1.00  0.00     0.004 A 
BRANCH  22  24
ATOM     24  C   UNL     1       4.644   4.908  -0.740  1.00  0.00     0.019 C 
ATOM     25  C   UNL     1       5.133   3.475  -0.684  1.00  0.00     0.009 C 
ATOM     26  C   UNL     1       5.503   4.345  -1.844  1.00  0.00     0.009 C 
ENDBRANCH  22  24
ENDBRANCH   8  18
ENDBRANCH   5   8
ENDBRANCH   3   4
ENDBRANCH   2   3
ENDBRANCH   1   2
BRANCH   1  27
ATOM     27  C   UNL     1       4.596   3.769   3.947  1.00  0.00     0.116 C 
BRANCH  27  28
ATOM     28  N   UNL     1       5.007   4.618   5.055  1.00  0.00    -0.352 N 
ATOM     29  C   UNL     1       6.134   5.412   5.202  1.00  0.00     0.251 C 
ATOM     30  H   UNL     1       4.388   4.631   5.821  1.00  0.00     0.163 HD
ATOM     31  O   UNL     1       6.353   5.974   6.263  1.00  0.00    -0.269 OA
BRANCH  29  32
ATOM     32  C   UNL     1       7.037   5.665   4.043  1.00  0.00     0.039 A 
ATOM     33  C   UNL     1       7.512   6.973   3.855  1.00  0.00     0.014 A 
ATOM     34  C   UNL     1       7.309   4.698   3.084  1.00  0.00     0.014 A 
ATOM     35  C   UNL     1       8.054   7.350   2.623  1.00  0.00     0.010 A 
ATOM     36  C   UNL     1       7.759   5.085   1.836  1.00  0.00     0.010 A 
ATOM     37  C   UNL     1       8.066   6.423   1.580  1.00  0.00    -0.014 A 
BRANCH  37  38
ATOM     38  C   UNL     1       8.136   6.802   0.171  1.00  0.00     0.031 A 
ATOM     39  C   UNL     1       9.228   6.383  -0.731  1.00  0.00     0.074 A 
ATOM     40  C   UNL     1       7.051   7.387  -0.387  1.00  0.00     0.049 A 
ATOM     41  N   UNL     1       9.542   7.027  -1.807  1.00  0.00    -0.248 NA
ATOM     42  C   UNL     1      10.046   5.196  -0.513  1.00  0.00     0.031 C 
ATOM     43  C   UNL     1       6.748   7.508  -1.812  1.00  0.00     0.029 A 
ATOM     44  N   UNL     1       6.027   8.104   0.224  1.00  0.00    -0.354 N 
ATOM     45  C   UNL     1      10.316   6.188  -2.570  1.00  0.00     0.074 A 
ATOM     46  C   UNL     1      10.684   5.104  -1.685  1.00  0.00     0.031 C 
ATOM     47  C   UNL     1       5.827   8.466  -1.979  1.00  0.00     0.029 A 
ATOM     48  C   UNL     1       5.614   9.082  -0.683  1.00  0.00     0.049 A 
ATOM     49  H   UNL     1       5.663   7.950   1.126  1.00  0.00     0.167 HD
ATOM     50  C   UNL     1      10.435   6.390  -3.913  1.00  0.00     0.034 A 
ATOM     51  C   UNL     1       5.628  10.418  -0.426  1.00  0.00     0.034 A 
ATOM     52  C   UNL     1       9.605   7.498  -4.387  1.00  0.00     0.049 A 
ATOM     53  C   UNL     1       6.485  11.156  -1.428  1.00  0.00     0.074 A 
ATOM     54  C   UNL     1       8.411   7.544  -5.090  1.00  0.00     0.029 A 
ATOM     55  N   UNL     1       9.835   8.790  -3.926  1.00  0.00    -0.354 N 
ATOM     56  N   UNL     1       7.325  10.554  -2.224  1.00  0.00    -0.248 NA
ATOM     57  C   UNL     1       6.480  12.599  -1.624  1.00  0.00     0.031 C 
ATOM     58  C   UNL     1       7.910   8.869  -5.024  1.00  0.00     0.029 A 
ATOM     59  C   UNL     1       8.808   9.635  -4.301  1.00  0.00     0.049 A 
ATOM     60  H   UNL     1      10.622   9.065  -3.403  1.00  0.00     0.167 HD
ATOM     61  C   UNL     1       7.938  11.462  -3.041  1.00  0.00     0.074 A 
ATOM     62  C   UNL     1       7.378  12.736  -2.619  1.00  0.00     0.031 C 
ATOM     63  C   UNL     1       8.846  11.060  -3.982  1.00  0.00     0.034 A 
BRANCH  50  64
ATOM     64  C   UNL     1      11.083   5.386  -4.835  1.00  0.00     0.023 A 
ATOM     65  C   UNL     1      10.580   5.180  -6.135  1.00  0.00     0.031 A 
ATOM     66  C   UNL     1      12.207   4.612  -4.485  1.00  0.00     0.131 A 
ATOM     67  C   UNL     1      11.118   4.195  -6.983  1.00  0.00     0.055 A 
ATOM     68  C   UNL     1      12.713   3.596  -5.307  1.00  0.00     0.041 A 
ATOM     69  F   UNL     1      12.876   4.835  -3.343  1.00  0.00    -0.206 F 
ATOM     70  C   UNL     1      12.161   3.375  -6.561  1.00  0.00     0.022 A 
BRANCH  67  71
ATOM     71  S   UNL     1      10.448   4.016  -8.661  1.00  0.00     0.124 S 
ATOM     72  O   UNL     1       9.053   3.675  -8.401  1.00  0.00    -0.237 OA
ATOM     73  O   UNL     1      10.694   5.333  -9.236  1.00  0.00    -0.237 OA
ATOM     74  O   UNL     1      11.250   2.935  -9.232  1.00  0.00    -0.744 OA
ENDBRANCH  67  71
ENDBRANCH  50  64
BRANCH  51  75
ATOM     75  C   UNL     1       5.422  10.747   1.009  1.00  0.00     0.023 A 
ATOM     76  C   UNL     1       4.163  10.407   1.551  1.00  0.00     0.031 A 
ATOM     77  C   UNL     1       6.500  10.897   1.891  1.00  0.00     0.131 A 
ATOM     78  C   UNL     1       4.045  10.069   2.906  1.00  0.00     0.055 A 
ATOM     79  C   UNL     1       6.366  10.601   3.255  1.00  0.00     0.041 A 
ATOM     80  F   UNL     1       7.731  11.155   1.425  1.00  0.00    -0.206 F 
ATOM     81  C   UNL     1       5.148  10.143   3.759  1.00  0.00     0.022 A 
BRANCH  78  82
ATOM     82  S   UNL     1       2.517   9.267   3.486  1.00  0.00     0.124 S 
ATOM     83  O   UNL     1       1.764  10.399   4.015  1.00  0.00    -0.237 OA
ATOM     84  O   UNL     1       1.983   8.670   2.266  1.00  0.00    -0.237 OA
ATOM     85  O   UNL     1       3.002   8.309   4.476  1.00  0.00    -0.744 OA
ENDBRANCH  78  82
ENDBRANCH  51  75
BRANCH  63  86
ATOM     86  C   UNL     1       9.783  11.953  -4.768  1.00  0.00     0.023 A 
ATOM     87  C   UNL     1       9.985  13.306  -4.472  1.00  0.00     0.031 A 
ATOM     88  C   UNL     1      10.589  11.433  -5.814  1.00  0.00     0.131 A 
ATOM     89  C   UNL     1      10.876  14.094  -5.223  1.00  0.00     0.055 A 
ATOM     90  C   UNL     1      11.528  12.198  -6.511  1.00  0.00     0.041 A 
ATOM     91  F   UNL     1      10.517  10.150  -6.200  1.00  0.00    -0.206 F 
ATOM     92  C   UNL     1      11.668  13.546  -6.226  1.00  0.00     0.022 A 
BRANCH  89  93
ATOM     93  S   UNL     1      10.932  15.871  -4.882  1.00  0.00     0.124 S 
ATOM     94  O   UNL     1       9.575  16.285  -5.227  1.00  0.00    -0.237 OA
ATOM     95  O   UNL     1      11.262  15.907  -3.461  1.00  0.00    -0.237 OA
ATOM     96  O   UNL     1      11.979  16.361  -5.777  1.00  0.00    -0.744 OA
ENDBRANCH  89  93
ENDBRANCH  63  86
ENDBRANCH  37  38
ENDBRANCH  29  32
ENDBRANCH  27  28
ENDBRANCH   1  27
TORSDOF 18
