REMARK SMILES Cc1cccc(O[C@H]2CC[C@@]([NH2+]C(C)C)(C(=O)NCCCCNC(=O)c3ccc(-c4c5nc(c(-c6cc(S(=O)(=O)[O-])ccc6F)c6ccc([nH]6)c(-c6cc(S(=O)(=O)[O-])ccc6F)c6nc(c(-c7cc(S(=O)(=O)[O-])ccc7F)c7ccc4[nH]7)C=C6)C=C5)cc3)C2)c1
REMARK SMILES IDX 21 1 20 2 19 3 18 4 16 5 17 6 11 8 8 9 9 10 89 11 10 12 7 13
REMARK SMILES IDX 6 14 1 15 2 16 3 17 90 18 4 19 5 20 12 21 13 24 14 25 15 26
REMARK SMILES IDX 22 27 23 28 24 29 25 31 26 32 27 33 88 34 28 35 87 36 29 37
REMARK SMILES IDX 30 38 31 39 81 40 32 41 86 42 80 43 82 44 33 45 85 46 79 47
REMARK SMILES IDX 78 48 34 50 66 51 46 52 65 53 47 54 50 55 64 56 83 57 48 58
REMARK SMILES IDX 49 59 63 61 84 62 51 63 35 64 36 65 44 66 37 67 43 68 45 69
REMARK SMILES IDX 42 70 38 71 39 72 40 73 41 74 67 75 68 76 76 77 69 78 75 79
REMARK SMILES IDX 77 80 74 81 70 82 71 83 72 84 73 85 52 86 53 87 61 88 54 89
REMARK SMILES IDX 60 90 62 91 59 92 55 93 56 94 57 95 58 96
REMARK H PARENT 18 7 12 22 12 23 23 30 82 49 50 60
REMARK Flexibility Score: inf
ROOT
ATOM      1  C   UNL     1       1.522   9.498  -0.705  1.00  0.00     0.023 C 
ENDROOT
BRANCH   1   2
ATOM      2  C   UNL     1       2.220   8.137  -0.658  1.00  0.00     0.023 C 
BRANCH   2   3
ATOM      3  C   UNL     1       2.247   7.452   0.719  1.00  0.00     0.116 C 
BRANCH   3   4
ATOM      4  N   UNL     1       0.920   7.274   1.303  1.00  0.00    -0.351 N 
ATOM      5  C   UNL     1       0.167   6.146   1.496  1.00  0.00     0.281 C 
ATOM      6  O   UNL     1      -0.895   6.287   2.113  1.00  0.00    -0.268 OA
ATOM      7  H   UNL     1       0.494   8.107   1.609  1.00  0.00     0.163 HD
BRANCH   5   8
ATOM      8  C   UNL     1       0.650   4.747   0.989  1.00  0.00     0.179 C 
ATOM      9  C   UNL     1      -1.101   3.542  -0.259  1.00  0.00     0.180 C 
ATOM     10  C   UNL     1       0.106   3.691  -1.175  1.00  0.00     0.052 C 
ATOM     11  C   UNL     1      -0.446   3.652   1.121  1.00  0.00     0.124 C 
ATOM     12  C   UNL     1       0.897   4.823  -0.539  1.00  0.00     0.083 C 
BRANCH   9  13
ATOM     13  O   UNL     1      -2.028   4.618  -0.394  1.00  0.00    -0.490 OA
BRANCH  13  14
ATOM     14  C   UNL     1      -2.938   4.590  -1.411  1.00  0.00     0.119 A 
ATOM     15  C   UNL     1      -5.938   6.788  -2.256  1.00  0.00     0.044 C 
ATOM     16  C   UNL     1      -4.895   5.714  -2.334  1.00  0.00    -0.047 A 
ATOM     17  C   UNL     1      -4.868   4.838  -3.424  1.00  0.00     0.003 A 
ATOM     18  C   UNL     1      -3.916   5.588  -1.339  1.00  0.00     0.049 A 
ATOM     19  C   UNL     1      -3.900   3.837  -3.497  1.00  0.00     0.004 A 
ATOM     20  C   UNL     1      -2.944   3.705  -2.486  1.00  0.00     0.046 A 
ENDBRANCH  13  14
ENDBRANCH   9  13
BRANCH   8  21
ATOM     21  N   UNL     1       1.896   4.343   1.683  1.00  0.00    -0.332 N 
ATOM     22  H   UNL     1       2.639   4.959   1.354  1.00  0.00     0.347 HD
ATOM     23  H   UNL     1       2.003   3.354   1.454  1.00  0.00     0.347 HD
BRANCH  21  24
ATOM     24  C   UNL     1       1.916   4.381   3.150  1.00  0.00     0.176 C 
ATOM     25  C   UNL     1       1.266   3.159   3.802  1.00  0.00     0.075 C 
ATOM     26  C   UNL     1       3.388   4.448   3.574  1.00  0.00     0.075 C 
ENDBRANCH  21  24
ENDBRANCH   8  21
ENDBRANCH   5   8
ENDBRANCH   3   4
ENDBRANCH   2   3
ENDBRANCH   1   2
BRANCH   1  27
ATOM     27  C   UNL     1       2.265  10.600   0.036  1.00  0.00     0.116 C 
BRANCH  27  28
ATOM     28  N   UNL     1       3.155  11.407  -0.789  1.00  0.00    -0.352 N 
ATOM     29  C   UNL     1       4.012  12.437  -0.413  1.00  0.00     0.251 C 
ATOM     30  H   UNL     1       3.150  11.192  -1.750  1.00  0.00     0.163 HD
ATOM     31  O   UNL     1       4.592  13.102  -1.244  1.00  0.00    -0.269 OA
BRANCH  29  32
ATOM     32  C   UNL     1       4.290  12.644   1.034  1.00  0.00     0.039 A 
ATOM     33  C   UNL     1       5.629  12.727   1.437  1.00  0.00     0.014 A 
ATOM     34  C   UNL     1       3.279  12.534   1.982  1.00  0.00     0.014 A 
ATOM     35  C   UNL     1       5.963  12.450   2.762  1.00  0.00     0.010 A 
ATOM     36  C   UNL     1       3.613  12.140   3.259  1.00  0.00     0.010 A 
ATOM     37  C   UNL     1       4.957  12.040   3.634  1.00  0.00    -0.014 A 
BRANCH  37  38
ATOM     38  C   UNL     1       5.205  11.361   4.901  1.00  0.00     0.031 A 
ATOM     39  C   UNL     1       4.856  12.004   6.184  1.00  0.00     0.074 A 
ATOM     40  C   UNL     1       5.621  10.075   4.882  1.00  0.00     0.049 A 
ATOM     41  N   UNL     1       5.303  11.633   7.334  1.00  0.00    -0.248 NA
ATOM     42  C   UNL     1       3.994  13.176   6.261  1.00  0.00     0.031 C 
ATOM     43  C   UNL     1       5.596   9.117   5.982  1.00  0.00     0.029 A 
ATOM     44  N   UNL     1       6.378   9.449   3.892  1.00  0.00    -0.354 N 
ATOM     45  C   UNL     1       4.581  12.292   8.304  1.00  0.00     0.074 A 
ATOM     46  C   UNL     1       3.840  13.298   7.582  1.00  0.00     0.031 C 
ATOM     47  C   UNL     1       6.489   8.147   5.734  1.00  0.00     0.029 A 
ATOM     48  C   UNL     1       7.224   8.534   4.544  1.00  0.00     0.049 A 
ATOM     49  H   UNL     1       6.329   9.615   2.923  1.00  0.00     0.167 HD
ATOM     50  C   UNL     1       4.596  11.811   9.582  1.00  0.00     0.034 A 
ATOM     51  C   UNL     1       8.580   8.672   4.480  1.00  0.00     0.034 A 
ATOM     52  C   UNL     1       5.566  10.719   9.722  1.00  0.00     0.049 A 
ATOM     53  C   UNL     1       9.232   8.897   5.826  1.00  0.00     0.074 A 
ATOM     54  C   UNL     1       5.439   9.341   9.794  1.00  0.00     0.029 A 
ATOM     55  N   UNL     1       6.920  10.976   9.525  1.00  0.00    -0.354 N 
ATOM     56  N   UNL     1       8.593   9.267   6.902  1.00  0.00    -0.248 NA
ATOM     57  C   UNL     1      10.661   8.720   6.060  1.00  0.00     0.031 C 
ATOM     58  C   UNL     1       6.721   8.770   9.572  1.00  0.00     0.029 A 
ATOM     59  C   UNL     1       7.632   9.798   9.400  1.00  0.00     0.049 A 
ATOM     60  H   UNL     1       7.317  11.876   9.481  1.00  0.00     0.167 HD
ATOM     61  C   UNL     1       9.478   9.398   7.945  1.00  0.00     0.074 A 
ATOM     62  C   UNL     1      10.756   9.016   7.368  1.00  0.00     0.031 C 
ATOM     63  C   UNL     1       9.076   9.817   9.186  1.00  0.00     0.034 A 
BRANCH  50  64
ATOM     64  C   UNL     1       3.541  12.114  10.635  1.00  0.00     0.023 A 
ATOM     65  C   UNL     1       3.325  11.181  11.675  1.00  0.00     0.031 A 
ATOM     66  C   UNL     1       2.679  13.228  10.655  1.00  0.00     0.131 A 
ATOM     67  C   UNL     1       2.255  11.316  12.584  1.00  0.00     0.055 A 
ATOM     68  C   UNL     1       1.585  13.340  11.526  1.00  0.00     0.041 A 
ATOM     69  F   UNL     1       2.880  14.299   9.881  1.00  0.00    -0.206 F 
ATOM     70  C   UNL     1       1.359  12.374  12.490  1.00  0.00     0.022 A 
BRANCH  67  71
ATOM     71  S   UNL     1       2.044  10.080  13.895  1.00  0.00     0.124 S 
ATOM     72  O   UNL     1       1.857   8.849  13.134  1.00  0.00    -0.237 OA
ATOM     73  O   UNL     1       3.294  10.200  14.637  1.00  0.00    -0.237 OA
ATOM     74  O   UNL     1       0.857  10.546  14.612  1.00  0.00    -0.744 OA
ENDBRANCH  67  71
ENDBRANCH  50  64
BRANCH  51  75
ATOM     75  C   UNL     1       9.049   9.222   3.177  1.00  0.00     0.023 A 
ATOM     76  C   UNL     1       8.782   8.455   2.023  1.00  0.00     0.031 A 
ATOM     77  C   UNL     1       9.341  10.582   3.008  1.00  0.00     0.131 A 
ATOM     78  C   UNL     1       8.660   9.077   0.772  1.00  0.00     0.055 A 
ATOM     79  C   UNL     1       9.269  11.190   1.747  1.00  0.00     0.041 A 
ATOM     80  F   UNL     1       9.562  11.370   4.071  1.00  0.00    -0.206 F 
ATOM     81  C   UNL     1       8.885  10.447   0.629  1.00  0.00     0.022 A 
BRANCH  78  82
ATOM     82  S   UNL     1       7.960   8.116  -0.604  1.00  0.00     0.124 S 
ATOM     83  O   UNL     1       9.116   7.352  -1.059  1.00  0.00    -0.237 OA
ATOM     84  O   UNL     1       6.905   7.344   0.052  1.00  0.00    -0.237 OA
ATOM     85  O   UNL     1       7.477   9.138  -1.528  1.00  0.00    -0.744 OA
ENDBRANCH  78  82
ENDBRANCH  51  75
BRANCH  63  86
ATOM     86  C   UNL     1       9.984  10.199  10.345  1.00  0.00     0.023 A 
ATOM     87  C   UNL     1      11.366  10.401  10.221  1.00  0.00     0.031 A 
ATOM     88  C   UNL     1       9.454  10.445  11.638  1.00  0.00     0.131 A 
ATOM     89  C   UNL     1      12.164  10.733  11.333  1.00  0.00     0.055 A 
ATOM     90  C   UNL     1      10.236  10.853  12.725  1.00  0.00     0.041 A 
ATOM     91  F   UNL     1       8.147  10.314  11.907  1.00  0.00    -0.206 F 
ATOM     92  C   UNL     1      11.606  10.982  12.582  1.00  0.00     0.022 A 
BRANCH  89  93
ATOM     93  S   UNL     1      13.964  10.767  11.116  1.00  0.00     0.124 S 
ATOM     94  O   UNL     1      14.246   9.385  10.736  1.00  0.00    -0.237 OA
ATOM     95  O   UNL     1      14.134  11.760  10.061  1.00  0.00    -0.237 OA
ATOM     96  O   UNL     1      14.464  11.163  12.431  1.00  0.00    -0.744 OA
ENDBRANCH  89  93
ENDBRANCH  63  86
ENDBRANCH  37  38
ENDBRANCH  29  32
ENDBRANCH  27  28
ENDBRANCH   1  27
TORSDOF 18
