REMARK SMILES Cc1ccc(Cl)c(Nc2ccccc2C(=O)N[C@@H](C)C(=O)NCCCCNC(=O)c2ccc(-c3c4nc(c(-c5cc(S(=O)(=O)[O-])ccc5F)c5ccc([nH]5)c(-c5cc(S(=O)(=O)[O-])ccc5F)c5nc(c(-c6cc(S(=O)(=O)[O-])ccc6F)c6ccc3[nH]6)C=C5)C=C4)cc2)c1Cl
REMARK SMILES IDX 24 1 23 2 22 3 20 4 21 5 18 7 19 8 17 9 15 10 16 11 14 13
REMARK SMILES IDX 9 14 10 15 11 16 13 17 12 18 8 19 7 21 1 22 2 23 3 24 93 25
REMARK SMILES IDX 4 26 94 27 5 28 6 29 25 30 26 31 27 32 28 33 29 35 30 36
REMARK SMILES IDX 31 37 92 38 32 39 91 40 33 41 34 42 35 43 85 44 36 45 90 46
REMARK SMILES IDX 84 47 86 48 37 49 89 50 83 51 82 52 38 54 70 55 50 56 69 57
REMARK SMILES IDX 51 58 54 59 68 60 87 61 52 62 53 63 67 65 88 66 55 67 39 68
REMARK SMILES IDX 40 69 48 70 41 71 47 72 49 73 46 74 42 75 43 76 44 77 45 78
REMARK SMILES IDX 71 79 72 80 80 81 73 82 79 83 81 84 78 85 74 86 75 87 76 88
REMARK SMILES IDX 77 89 56 90 57 91 65 92 58 93 64 94 66 95 63 96 59 97 60 98
REMARK SMILES IDX 61 99 62 100
REMARK H PARENT 22 6 17 12 8 20 27 34 86 53 54 64
REMARK Flexibility Score: inf
ROOT
ATOM      1  C   UNL     1      -0.303   2.460   3.661  1.00  0.00     0.023 C 
ENDROOT
BRANCH   1   2
ATOM      2  C   UNL     1      -1.546   1.618   3.337  1.00  0.00     0.116 C 
BRANCH   2   3
ATOM      3  N   UNL     1      -1.563   1.133   1.972  1.00  0.00    -0.354 N 
ATOM      4  C   UNL     1      -0.652   0.168   1.653  1.00  0.00     0.242 C 
ATOM      5  O   UNL     1       0.470   0.547   1.322  1.00  0.00    -0.273 OA
ATOM      6  H   UNL     1      -2.201   1.482   1.308  1.00  0.00     0.163 HD
BRANCH   4   7
ATOM      7  C   UNL     1      -1.042  -1.323   1.774  1.00  0.00     0.168 C 
ATOM      8  C   UNL     1      -2.359  -1.621   2.473  1.00  0.00     0.041 C 
BRANCH   7   9
ATOM      9  N   UNL     1       0.098  -1.923   2.446  1.00  0.00    -0.340 N 
ATOM     10  C   UNL     1       1.293  -2.305   1.875  1.00  0.00     0.254 C 
ATOM     11  O   UNL     1       2.303  -2.080   2.551  1.00  0.00    -0.269 OA
ATOM     12  H   UNL     1       0.007  -2.072   3.415  1.00  0.00     0.164 HD
BRANCH  10  13
ATOM     13  C   UNL     1       1.409  -3.219   0.690  1.00  0.00     0.063 A 
ATOM     14  C   UNL     1       0.774  -3.202  -0.571  1.00  0.00     0.051 A 
ATOM     15  C   UNL     1       0.993  -4.301  -1.440  1.00  0.00     0.027 A 
ATOM     16  C   UNL     1       1.868  -5.341  -1.131  1.00  0.00     0.002 A 
ATOM     17  C   UNL     1       2.313  -4.279   0.966  1.00  0.00     0.016 A 
ATOM     18  C   UNL     1       2.552  -5.316   0.069  1.00  0.00     0.001 A 
BRANCH  14  19
ATOM     19  N   UNL     1       0.016  -2.168  -1.155  1.00  0.00    -0.352 N 
ATOM     20  H   UNL     1      -0.873  -2.469  -1.454  1.00  0.00     0.167 HD
BRANCH  19  21
ATOM     21  C   UNL     1       0.246  -0.789  -1.410  1.00  0.00     0.077 A 
ATOM     22  C   UNL     1       2.825   2.007  -0.920  1.00  0.00     0.046 C 
ATOM     23  C   UNL     1       1.558   1.286  -1.301  1.00  0.00    -0.030 A 
ATOM     24  C   UNL     1       0.403   2.042  -1.553  1.00  0.00     0.006 A 
ATOM     25  C   UNL     1       1.488  -0.130  -1.292  1.00  0.00     0.069 A 
ATOM     26  C   UNL     1      -0.814   1.410  -1.772  1.00  0.00     0.023 A 
ATOM     27  Cl  UNL     1       2.978  -1.019  -1.205  1.00  0.00    -0.082 Cl
ATOM     28  C   UNL     1      -0.890   0.019  -1.685  1.00  0.00     0.066 A 
ATOM     29  Cl  UNL     1      -2.463  -0.700  -1.862  1.00  0.00    -0.082 Cl
ENDBRANCH  19  21
ENDBRANCH  14  19
ENDBRANCH  10  13
ENDBRANCH   7   9
ENDBRANCH   4   7
ENDBRANCH   2   3
ENDBRANCH   1   2
BRANCH   1  30
ATOM     30  C   UNL     1      -0.139   3.732   2.825  1.00  0.00     0.023 C 
BRANCH  30  31
ATOM     31  C   UNL     1      -1.389   4.598   2.734  1.00  0.00     0.116 C 
BRANCH  31  32
ATOM     32  N   UNL     1      -2.010   4.807   4.033  1.00  0.00    -0.352 N 
ATOM     33  C   UNL     1      -2.435   5.966   4.629  1.00  0.00     0.251 C 
ATOM     34  H   UNL     1      -2.145   3.991   4.566  1.00  0.00     0.163 HD
ATOM     35  O   UNL     1      -2.790   5.955   5.798  1.00  0.00    -0.269 OA
BRANCH  33  36
ATOM     36  C   UNL     1      -2.426   7.216   3.850  1.00  0.00     0.039 A 
ATOM     37  C   UNL     1      -1.865   8.356   4.425  1.00  0.00     0.014 A 
ATOM     38  C   UNL     1      -2.947   7.247   2.554  1.00  0.00     0.014 A 
ATOM     39  C   UNL     1      -1.777   9.526   3.673  1.00  0.00     0.010 A 
ATOM     40  C   UNL     1      -2.787   8.390   1.782  1.00  0.00     0.010 A 
ATOM     41  C   UNL     1      -2.206   9.540   2.336  1.00  0.00    -0.014 A 
BRANCH  41  42
ATOM     42  C   UNL     1      -2.075  10.758   1.501  1.00  0.00     0.031 A 
ATOM     43  C   UNL     1      -3.311  11.435   0.981  1.00  0.00     0.074 A 
ATOM     44  C   UNL     1      -0.850  11.204   1.162  1.00  0.00     0.049 A 
ATOM     45  N   UNL     1      -3.417  12.438   0.150  1.00  0.00    -0.248 NA
ATOM     46  C   UNL     1      -4.600  10.887   1.432  1.00  0.00     0.031 C 
ATOM     47  C   UNL     1       0.416  10.605   1.592  1.00  0.00     0.029 A 
ATOM     48  N   UNL     1      -0.467  12.256   0.371  1.00  0.00    -0.354 N 
ATOM     49  C   UNL     1      -4.782  12.632  -0.034  1.00  0.00     0.074 A 
ATOM     50  C   UNL     1      -5.459  11.601   0.722  1.00  0.00     0.031 C 
ATOM     51  C   UNL     1       1.433  11.313   1.077  1.00  0.00     0.029 A 
ATOM     52  C   UNL     1       0.896  12.379   0.238  1.00  0.00     0.049 A 
ATOM     53  H   UNL     1      -1.108  12.866  -0.060  1.00  0.00     0.167 HD
ATOM     54  C   UNL     1      -5.409  13.598  -0.749  1.00  0.00     0.034 A 
ATOM     55  C   UNL     1       1.628  13.242  -0.495  1.00  0.00     0.034 A 
ATOM     56  C   UNL     1      -4.708  14.621  -1.486  1.00  0.00     0.049 A 
ATOM     57  C   UNL     1       0.908  14.283  -1.315  1.00  0.00     0.074 A 
ATOM     58  C   UNL     1      -5.237  15.675  -2.211  1.00  0.00     0.029 A 
ATOM     59  N   UNL     1      -3.326  14.715  -1.600  1.00  0.00    -0.354 N 
ATOM     60  N   UNL     1      -0.384  14.479  -1.452  1.00  0.00    -0.248 NA
ATOM     61  C   UNL     1       1.743  15.225  -2.071  1.00  0.00     0.031 C 
ATOM     62  C   UNL     1      -4.181  16.357  -2.824  1.00  0.00     0.029 A 
ATOM     63  C   UNL     1      -2.987  15.789  -2.409  1.00  0.00     0.049 A 
ATOM     64  H   UNL     1      -2.682  14.108  -1.169  1.00  0.00     0.167 HD
ATOM     65  C   UNL     1      -0.513  15.593  -2.277  1.00  0.00     0.074 A 
ATOM     66  C   UNL     1       0.831  16.027  -2.599  1.00  0.00     0.031 C 
ATOM     67  C   UNL     1      -1.640  16.207  -2.721  1.00  0.00     0.034 A 
BRANCH  54  68
ATOM     68  C   UNL     1      -6.918  13.567  -0.789  1.00  0.00     0.023 A 
ATOM     69  C   UNL     1      -7.692  13.705   0.377  1.00  0.00     0.031 A 
ATOM     70  C   UNL     1      -7.594  13.367  -2.005  1.00  0.00     0.131 A 
ATOM     71  C   UNL     1      -9.086  13.561   0.315  1.00  0.00     0.055 A 
ATOM     72  C   UNL     1      -8.988  13.315  -2.074  1.00  0.00     0.041 A 
ATOM     73  F   UNL     1      -6.911  13.203  -3.149  1.00  0.00    -0.206 F 
ATOM     74  C   UNL     1      -9.742  13.396  -0.907  1.00  0.00     0.022 A 
BRANCH  71  75
ATOM     75  S   UNL     1     -10.014  13.436   1.868  1.00  0.00     0.124 S 
ATOM     76  O   UNL     1      -9.385  12.275   2.493  1.00  0.00    -0.237 OA
ATOM     77  O   UNL     1      -9.748  14.723   2.499  1.00  0.00    -0.237 OA
ATOM     78  O   UNL     1     -11.392  13.227   1.429  1.00  0.00    -0.744 OA
ENDBRANCH  71  75
ENDBRANCH  54  68
BRANCH  55  79
ATOM     79  C   UNL     1       3.117  13.155  -0.501  1.00  0.00     0.023 A 
ATOM     80  C   UNL     1       3.903  14.210  -0.013  1.00  0.00     0.031 A 
ATOM     81  C   UNL     1       3.777  12.034  -1.034  1.00  0.00     0.131 A 
ATOM     82  C   UNL     1       5.302  14.146  -0.116  1.00  0.00     0.055 A 
ATOM     83  C   UNL     1       5.170  11.948  -1.077  1.00  0.00     0.041 A 
ATOM     84  F   UNL     1       3.074  10.994  -1.510  1.00  0.00    -0.206 F 
ATOM     85  C   UNL     1       5.941  13.016  -0.630  1.00  0.00     0.022 A 
BRANCH  82  86
ATOM     86  S   UNL     1       6.272  15.608   0.344  1.00  0.00     0.124 S 
ATOM     87  O   UNL     1       5.708  16.625  -0.536  1.00  0.00    -0.237 OA
ATOM     88  O   UNL     1       5.961  15.743   1.764  1.00  0.00    -0.237 OA
ATOM     89  O   UNL     1       7.646  15.213   0.043  1.00  0.00    -0.744 OA
ENDBRANCH  82  86
ENDBRANCH  55  79
BRANCH  67  90
ATOM     90  C   UNL     1      -1.463  17.456  -3.550  1.00  0.00     0.023 A 
ATOM     91  C   UNL     1      -0.888  17.426  -4.832  1.00  0.00     0.031 A 
ATOM     92  C   UNL     1      -1.887  18.698  -3.043  1.00  0.00     0.131 A 
ATOM     93  C   UNL     1      -0.706  18.622  -5.542  1.00  0.00     0.055 A 
ATOM     94  C   UNL     1      -1.763  19.875  -3.782  1.00  0.00     0.041 A 
ATOM     95  F   UNL     1      -2.440  18.786  -1.823  1.00  0.00    -0.206 F 
ATOM     96  C   UNL     1      -1.158  19.843  -5.034  1.00  0.00     0.022 A 
BRANCH  93  97
ATOM     97  S   UNL     1       0.212  18.576  -7.106  1.00  0.00     0.124 S 
ATOM     98  O   UNL     1       1.496  18.022  -6.687  1.00  0.00    -0.237 OA
ATOM     99  O   UNL     1      -0.619  17.706  -7.931  1.00  0.00    -0.237 OA
ATOM    100  O   UNL     1       0.248  19.976  -7.524  1.00  0.00    -0.744 OA
ENDBRANCH  93  97
ENDBRANCH  67  90
ENDBRANCH  41  42
ENDBRANCH  33  36
ENDBRANCH  31  32
ENDBRANCH  30  31
ENDBRANCH   1  30
TORSDOF 18
