REMARK SMILES O=C(NCCCCNC(=O)c1cc2nn[nH]n2n1)c1ccc(-c2c3nc(c(-c4cc(S(=O)(=O)[O-])ccc4F)c4ccc([nH]4)c(-c4cc(S(=O)(=O)[O-])ccc4F)c4nc(c(-c5cc(S(=O)(=O)[O-])ccc5F)c5ccc2[nH]5)C=C4)C=C3)cc1
REMARK SMILES IDX 4 1 3 2 1 3 2 4 19 6 20 7 81 8 21 9 80 10 22 11 23 12 24 13
REMARK SMILES IDX 74 14 25 15 79 16 73 17 75 18 26 19 78 20 72 21 71 22 27 24
REMARK SMILES IDX 59 25 39 26 58 27 40 28 43 29 57 30 76 31 41 32 42 33 56 35
REMARK SMILES IDX 77 36 44 37 28 38 29 39 37 40 30 41 36 42 38 43 35 44 31 45
REMARK SMILES IDX 32 46 33 47 34 48 60 49 61 50 69 51 62 52 68 53 70 54 67 55
REMARK SMILES IDX 63 56 64 57 65 58 66 59 45 60 46 61 54 62 47 63 53 64 55 65
REMARK SMILES IDX 52 66 48 67 49 68 50 69 51 70 5 71 6 72 7 73 8 74 9 75 10 77
REMARK SMILES IDX 11 78 12 79 18 80 13 81 17 82 14 83 16 84 15 85
REMARK H PARENT 3 5 75 23 43 34 8 76 16 86
REMARK Flexibility Score: inf
ROOT
ATOM      1  C   UNL     1       4.749   0.703   0.838  1.00  0.00     0.116 C 
ENDROOT
BRANCH   1   2
ATOM      2  N   UNL     1       3.355   0.331   0.968  1.00  0.00    -0.352 N 
ATOM      3  O   UNL     1       1.264  -0.249   0.570  1.00  0.00    -0.269 OA
ATOM      4  C   UNL     1       2.316   0.181   0.088  1.00  0.00     0.251 C 
ATOM      5  H   UNL     1       3.097   0.142   1.899  1.00  0.00     0.163 HD
BRANCH   4   6
ATOM      6  C   UNL     1       2.357   0.527  -1.361  1.00  0.00     0.039 A 
ATOM      7  C   UNL     1       3.514   0.705  -2.119  1.00  0.00     0.014 A 
ATOM      8  C   UNL     1       1.111   0.652  -2.006  1.00  0.00     0.014 A 
ATOM      9  C   UNL     1       3.434   1.048  -3.469  1.00  0.00     0.010 A 
ATOM     10  C   UNL     1       1.026   0.973  -3.361  1.00  0.00     0.010 A 
ATOM     11  C   UNL     1       2.192   1.186  -4.094  1.00  0.00    -0.014 A 
BRANCH  11  12
ATOM     12  C   UNL     1       2.174   1.392  -5.546  1.00  0.00     0.031 A 
ATOM     13  C   UNL     1       2.715   0.269  -6.372  1.00  0.00     0.074 A 
ATOM     14  C   UNL     1       1.558   2.420  -6.164  1.00  0.00     0.049 A 
ATOM     15  N   UNL     1       3.646   0.300  -7.271  1.00  0.00    -0.248 NA
ATOM     16  C   UNL     1       2.177  -1.077  -6.121  1.00  0.00     0.031 C 
ATOM     17  C   UNL     1       0.704   3.441  -5.558  1.00  0.00     0.029 A 
ATOM     18  N   UNL     1       1.476   2.692  -7.502  1.00  0.00    -0.354 N 
ATOM     19  C   UNL     1       3.688  -0.976  -7.835  1.00  0.00     0.074 A 
ATOM     20  C   UNL     1       2.849  -1.807  -7.010  1.00  0.00     0.031 C 
ATOM     21  C   UNL     1       0.021   4.080  -6.534  1.00  0.00     0.029 A 
ATOM     22  C   UNL     1       0.477   3.600  -7.829  1.00  0.00     0.049 A 
ATOM     23  H   UNL     1       2.071   2.283  -8.171  1.00  0.00     0.167 HD
ATOM     24  C   UNL     1       4.280  -1.228  -9.037  1.00  0.00     0.034 A 
ATOM     25  C   UNL     1      -0.003   3.889  -9.066  1.00  0.00     0.034 A 
ATOM     26  C   UNL     1       5.220  -0.197  -9.396  1.00  0.00     0.049 A 
ATOM     27  C   UNL     1       1.024   3.495 -10.058  1.00  0.00     0.074 A 
ATOM     28  C   UNL     1       6.351   0.331  -8.802  1.00  0.00     0.029 A 
ATOM     29  N   UNL     1       4.889   0.690 -10.393  1.00  0.00    -0.354 N 
ATOM     30  N   UNL     1       2.184   4.077 -10.175  1.00  0.00    -0.248 NA
ATOM     31  C   UNL     1       0.926   2.183 -10.678  1.00  0.00     0.031 C 
ATOM     32  C   UNL     1       6.317   1.721  -9.116  1.00  0.00     0.029 A 
ATOM     33  C   UNL     1       5.195   1.941  -9.917  1.00  0.00     0.049 A 
ATOM     34  H   UNL     1       4.507   0.471 -11.273  1.00  0.00     0.167 HD
ATOM     35  C   UNL     1       3.066   3.060 -10.499  1.00  0.00     0.074 A 
ATOM     36  C   UNL     1       2.219   1.946 -10.913  1.00  0.00     0.031 C 
ATOM     37  C   UNL     1       4.383   3.121 -10.143  1.00  0.00     0.034 A 
BRANCH  24  38
ATOM     38  C   UNL     1       3.820  -2.281 -10.021  1.00  0.00     0.023 A 
ATOM     39  C   UNL     1       4.592  -2.498 -11.181  1.00  0.00     0.031 A 
ATOM     40  C   UNL     1       2.539  -2.880 -10.017  1.00  0.00     0.131 A 
ATOM     41  C   UNL     1       4.073  -3.214 -12.276  1.00  0.00     0.055 A 
ATOM     42  C   UNL     1       2.056  -3.652 -11.078  1.00  0.00     0.041 A 
ATOM     43  F   UNL     1       1.653  -2.671  -9.036  1.00  0.00    -0.206 F 
ATOM     44  C   UNL     1       2.812  -3.802 -12.227  1.00  0.00     0.022 A 
BRANCH  41  45
ATOM     45  S   UNL     1       4.997  -3.207 -13.836  1.00  0.00     0.124 S 
ATOM     46  O   UNL     1       5.234  -1.782 -14.036  1.00  0.00    -0.237 OA
ATOM     47  O   UNL     1       6.164  -4.014 -13.498  1.00  0.00    -0.237 OA
ATOM     48  O   UNL     1       4.068  -3.821 -14.783  1.00  0.00    -0.744 OA
ENDBRANCH  41  45
ENDBRANCH  24  38
BRANCH  25  49
ATOM     49  C   UNL     1      -1.406   4.223  -9.426  1.00  0.00     0.023 A 
ATOM     50  C   UNL     1      -1.747   4.885 -10.622  1.00  0.00     0.031 A 
ATOM     51  C   UNL     1      -2.472   3.679  -8.673  1.00  0.00     0.131 A 
ATOM     52  C   UNL     1      -3.102   4.993 -11.011  1.00  0.00     0.055 A 
ATOM     53  C   UNL     1      -3.809   3.804  -9.053  1.00  0.00     0.041 A 
ATOM     54  F   UNL     1      -2.243   2.931  -7.582  1.00  0.00    -0.206 F 
ATOM     55  C   UNL     1      -4.130   4.458 -10.230  1.00  0.00     0.022 A 
BRANCH  52  56
ATOM     56  S   UNL     1      -3.541   5.744 -12.611  1.00  0.00     0.124 S 
ATOM     57  O   UNL     1      -3.259   7.155 -12.379  1.00  0.00    -0.237 OA
ATOM     58  O   UNL     1      -2.655   5.048 -13.538  1.00  0.00    -0.237 OA
ATOM     59  O   UNL     1      -4.960   5.417 -12.762  1.00  0.00    -0.744 OA
ENDBRANCH  52  56
ENDBRANCH  25  49
BRANCH  37  60
ATOM     60  C   UNL     1       4.957   4.447  -9.688  1.00  0.00     0.023 A 
ATOM     61  C   UNL     1       4.441   5.220  -8.624  1.00  0.00     0.031 A 
ATOM     62  C   UNL     1       6.156   4.880 -10.284  1.00  0.00     0.131 A 
ATOM     63  C   UNL     1       5.112   6.385  -8.206  1.00  0.00     0.055 A 
ATOM     64  C   UNL     1       6.829   6.024  -9.854  1.00  0.00     0.041 A 
ATOM     65  F   UNL     1       6.718   4.172 -11.279  1.00  0.00    -0.206 F 
ATOM     66  C   UNL     1       6.305   6.785  -8.816  1.00  0.00     0.022 A 
BRANCH  63  67
ATOM     67  S   UNL     1       4.436   7.405  -6.858  1.00  0.00     0.124 S 
ATOM     68  O   UNL     1       3.032   7.564  -7.219  1.00  0.00    -0.237 OA
ATOM     69  O   UNL     1       4.706   6.588  -5.678  1.00  0.00    -0.237 OA
ATOM     70  O   UNL     1       5.226   8.636  -6.935  1.00  0.00    -0.744 OA
ENDBRANCH  63  67
ENDBRANCH  37  60
ENDBRANCH  11  12
ENDBRANCH   4   6
ENDBRANCH   1   2
BRANCH   1  71
ATOM     71  C   UNL     1       4.996   2.199   0.654  1.00  0.00     0.023 C 
BRANCH  71  72
ATOM     72  C   UNL     1       4.460   3.094   1.776  1.00  0.00     0.023 C 
BRANCH  72  73
ATOM     73  C   UNL     1       4.873   2.707   3.194  1.00  0.00     0.116 C 
BRANCH  73  74
ATOM     74  N   UNL     1       6.311   2.755   3.398  1.00  0.00    -0.351 N 
ATOM     75  C   UNL     1       7.032   3.435   4.356  1.00  0.00     0.271 C 
ATOM     76  H   UNL     1       6.846   2.227   2.762  1.00  0.00     0.163 HD
ATOM     77  O   UNL     1       8.255   3.403   4.317  1.00  0.00    -0.267 OA
BRANCH  75  78
ATOM     78  C   UNL     1       6.292   4.149   5.405  1.00  0.00     0.154 A 
ATOM     79  C   UNL     1       5.324   3.593   6.322  1.00  0.00     0.089 A 
ATOM     80  N   UNL     1       6.467   5.479   5.617  1.00  0.00    -0.143 NA
ATOM     81  C   UNL     1       4.902   4.673   7.043  1.00  0.00     0.199 A 
ATOM     82  N   UNL     1       5.612   5.707   6.589  1.00  0.00    -0.135 N 
ATOM     83  N   UNL     1       4.057   5.103   8.009  1.00  0.00    -0.109 NA
ATOM     84  N   UNL     1       5.199   6.756   7.261  1.00  0.00    -0.177 N 
ATOM     85  N   UNL     1       4.221   6.369   8.143  1.00  0.00    -0.050 NA
ATOM     86  H   UNL     1       5.538   7.673   7.151  1.00  0.00     0.216 HD
ENDBRANCH  75  78
ENDBRANCH  73  74
ENDBRANCH  72  73
ENDBRANCH  71  72
ENDBRANCH   1  71
TORSDOF 14
