REMARK SMILES Cc1cc2c(c(C)c1Br)C=C(C(=O)NCCCCNC(=O)c1ccc(-c3c4nc(c(-c5cc(S(=O)(=O)[O-])ccc5F)c5ccc([nH]5)c(-c5cc(S(=O)(=O)[O-])ccc5F)c5nc(c(-c6cc(S(=O)(=O)[O-])ccc6F)c6ccc3[nH]6)C=C5)C=C4)cc1)[C@@H](C(F)(F)F)O2
REMARK SMILES IDX 17 1 16 2 15 3 14 4 12 5 13 6 11 8 1 9 2 10 3 11 8 12 4 13
REMARK SMILES IDX 6 14 9 15 5 16 90 17 7 18 10 19 85 20 86 21 87 22 88 23
REMARK SMILES IDX 89 24 18 25 19 26 20 27 21 29 22 30 23 31 84 32 24 33 83 34
REMARK SMILES IDX 25 35 26 36 27 37 77 38 28 39 82 40 76 41 78 42 29 43 81 44
REMARK SMILES IDX 75 45 74 46 30 48 62 49 42 50 61 51 43 52 46 53 60 54 79 55
REMARK SMILES IDX 44 56 45 57 59 59 80 60 47 61 31 62 32 63 40 64 33 65 39 66
REMARK SMILES IDX 41 67 38 68 34 69 35 70 36 71 37 72 63 73 64 74 72 75 65 76
REMARK SMILES IDX 71 77 73 78 70 79 66 80 67 81 68 82 69 83 48 84 49 85 57 86
REMARK SMILES IDX 50 87 56 88 58 89 55 90 51 91 52 92 53 93 54 94
REMARK H PARENT 14 7 19 28 78 47 46 58
REMARK Flexibility Score: inf
ROOT
ATOM      1  C   UNL     1      -5.740   6.944  -5.653  1.00  0.00     0.023 C 
ENDROOT
BRANCH   1   2
ATOM      2  C   UNL     1      -4.938   5.767  -5.087  1.00  0.00     0.023 C 
BRANCH   2   3
ATOM      3  C   UNL     1      -3.468   5.755  -5.497  1.00  0.00     0.116 C 
BRANCH   3   4
ATOM      4  N   UNL     1      -2.653   6.573  -4.616  1.00  0.00    -0.352 N 
ATOM      5  C   UNL     1      -1.770   6.370  -3.611  1.00  0.00     0.251 C 
ATOM      6  O   UNL     1      -1.300   7.397  -3.109  1.00  0.00    -0.270 OA
ATOM      7  H   UNL     1      -2.776   7.532  -4.799  1.00  0.00     0.163 HD
BRANCH   5   8
ATOM      8  C   UNL     1      -1.339   5.038  -3.088  1.00  0.00     0.067 C 
ATOM      9  C   UNL     1       1.156  -0.035   0.150  1.00  0.00     0.046 C 
ATOM     10  C   UNL     1       0.773   1.325  -0.368  1.00  0.00    -0.033 A 
ATOM     11  C   UNL     1      -0.195   1.397  -1.375  1.00  0.00     0.051 A 
ATOM     12  C   UNL     1       1.331   2.524   0.127  1.00  0.00     0.024 A 
ATOM     13  C   UNL     1      -0.590   2.626  -1.893  1.00  0.00     0.128 A 
ATOM     14  C   UNL     1       0.937   3.784  -0.394  1.00  0.00    -0.026 A 
ATOM     15  Br  UNL     1       2.621   2.405   1.538  1.00  0.00    -0.050 Br
ATOM     16  C   UNL     1      -0.047   3.821  -1.414  1.00  0.00     0.021 A 
ATOM     17  O   UNL     1      -1.562   2.574  -2.851  1.00  0.00    -0.475 OA
ATOM     18  C   UNL     1       1.517   5.086   0.110  1.00  0.00     0.046 C 
ATOM     19  C   UNL     1      -0.570   5.069  -1.983  1.00  0.00     0.026 C 
ATOM     20  C   UNL     1      -1.666   3.725  -3.733  1.00  0.00     0.314 C 
BRANCH  20  21
ATOM     21  C   UNL     1      -0.846   3.463  -5.009  1.00  0.00     0.429 C 
ATOM     22  F   UNL     1      -1.375   2.426  -5.707  1.00  0.00    -0.167 F 
ATOM     23  F   UNL     1      -0.835   4.524  -5.848  1.00  0.00    -0.167 F 
ATOM     24  F   UNL     1       0.444   3.154  -4.744  1.00  0.00    -0.167 F 
ENDBRANCH  20  21
ENDBRANCH   5   8
ENDBRANCH   3   4
ENDBRANCH   2   3
ENDBRANCH   1   2
BRANCH   1  25
ATOM     25  C   UNL     1      -5.712   7.090  -7.175  1.00  0.00     0.116 C 
BRANCH  25  26
ATOM     26  N   UNL     1      -6.053   5.868  -7.889  1.00  0.00    -0.352 N 
ATOM     27  C   UNL     1      -6.639   5.747  -9.126  1.00  0.00     0.251 C 
ATOM     28  H   UNL     1      -5.837   5.025  -7.428  1.00  0.00     0.163 HD
ATOM     29  O   UNL     1      -6.940   4.640  -9.563  1.00  0.00    -0.269 OA
BRANCH  27  30
ATOM     30  C   UNL     1      -6.943   6.970  -9.893  1.00  0.00     0.039 A 
ATOM     31  C   UNL     1      -8.259   7.198 -10.303  1.00  0.00     0.014 A 
ATOM     32  C   UNL     1      -5.944   7.916 -10.139  1.00  0.00     0.014 A 
ATOM     33  C   UNL     1      -8.592   8.419 -10.890  1.00  0.00     0.010 A 
ATOM     34  C   UNL     1      -6.288   9.151 -10.679  1.00  0.00     0.010 A 
ATOM     35  C   UNL     1      -7.618   9.419 -11.043  1.00  0.00    -0.014 A 
BRANCH  35  36
ATOM     36  C   UNL     1      -7.966  10.763 -11.562  1.00  0.00     0.031 A 
ATOM     37  C   UNL     1      -7.428  11.216 -12.888  1.00  0.00     0.074 A 
ATOM     38  C   UNL     1      -8.707  11.597 -10.806  1.00  0.00     0.049 A 
ATOM     39  N   UNL     1      -7.499  12.394 -13.450  1.00  0.00    -0.248 NA
ATOM     40  C   UNL     1      -6.689  10.214 -13.671  1.00  0.00     0.031 C 
ATOM     41  C   UNL     1      -9.273  11.274  -9.494  1.00  0.00     0.029 A 
ATOM     42  N   UNL     1      -9.103  12.891 -11.029  1.00  0.00    -0.354 N 
ATOM     43  C   UNL     1      -6.804  12.282 -14.648  1.00  0.00     0.074 A 
ATOM     44  C   UNL     1      -6.284  10.932 -14.708  1.00  0.00     0.031 C 
ATOM     45  C   UNL     1      -9.963  12.332  -9.041  1.00  0.00     0.029 A 
ATOM     46  C   UNL     1      -9.852  13.422 -10.005  1.00  0.00     0.049 A 
ATOM     47  H   UNL     1      -8.874  13.392 -11.844  1.00  0.00     0.167 HD
ATOM     48  C   UNL     1      -6.629  13.217 -15.614  1.00  0.00     0.034 A 
ATOM     49  C   UNL     1     -10.378  14.653  -9.855  1.00  0.00     0.034 A 
ATOM     50  C   UNL     1      -7.161  14.554 -15.546  1.00  0.00     0.049 A 
ATOM     51  C   UNL     1     -10.155  15.680 -10.931  1.00  0.00     0.074 A 
ATOM     52  C   UNL     1      -7.050  15.576 -16.474  1.00  0.00     0.029 A 
ATOM     53  N   UNL     1      -7.911  15.057 -14.491  1.00  0.00    -0.354 N 
ATOM     54  N   UNL     1      -9.469  15.570 -12.044  1.00  0.00    -0.248 NA
ATOM     55  C   UNL     1     -10.776  16.996 -10.729  1.00  0.00     0.031 C 
ATOM     56  C   UNL     1      -7.697  16.706 -15.962  1.00  0.00     0.029 A 
ATOM     57  C   UNL     1      -8.261  16.374 -14.740  1.00  0.00     0.049 A 
ATOM     58  H   UNL     1      -8.159  14.551 -13.684  1.00  0.00     0.167 HD
ATOM     59  C   UNL     1      -9.592  16.797 -12.687  1.00  0.00     0.074 A 
ATOM     60  C   UNL     1     -10.420  17.631 -11.838  1.00  0.00     0.031 C 
ATOM     61  C   UNL     1      -9.073  17.195 -13.875  1.00  0.00     0.034 A 
BRANCH  48  62
ATOM     62  C   UNL     1      -5.805  12.820 -16.811  1.00  0.00     0.023 A 
ATOM     63  C   UNL     1      -6.256  11.848 -17.721  1.00  0.00     0.031 A 
ATOM     64  C   UNL     1      -4.544  13.401 -17.032  1.00  0.00     0.131 A 
ATOM     65  C   UNL     1      -5.425  11.441 -18.775  1.00  0.00     0.055 A 
ATOM     66  C   UNL     1      -3.752  13.041 -18.123  1.00  0.00     0.041 A 
ATOM     67  F   UNL     1      -4.057  14.319 -16.182  1.00  0.00    -0.206 F 
ATOM     68  C   UNL     1      -4.186  12.047 -18.997  1.00  0.00     0.022 A 
BRANCH  65  69
ATOM     69  S   UNL     1      -5.943  10.034 -19.794  1.00  0.00     0.124 S 
ATOM     70  O   UNL     1      -5.912   8.943 -18.823  1.00  0.00    -0.237 OA
ATOM     71  O   UNL     1      -7.265  10.442 -20.253  1.00  0.00    -0.237 OA
ATOM     72  O   UNL     1      -4.916   9.967 -20.832  1.00  0.00    -0.744 OA
ENDBRANCH  65  69
ENDBRANCH  48  62
BRANCH  49  73
ATOM     73  C   UNL     1     -11.162  14.982  -8.636  1.00  0.00     0.023 A 
ATOM     74  C   UNL     1     -12.556  15.134  -8.700  1.00  0.00     0.031 A 
ATOM     75  C   UNL     1     -10.531  15.140  -7.390  1.00  0.00     0.131 A 
ATOM     76  C   UNL     1     -13.274  15.456  -7.539  1.00  0.00     0.055 A 
ATOM     77  C   UNL     1     -11.254  15.430  -6.233  1.00  0.00     0.041 A 
ATOM     78  F   UNL     1      -9.202  14.988  -7.280  1.00  0.00    -0.206 F 
ATOM     79  C   UNL     1     -12.634  15.595  -6.304  1.00  0.00     0.022 A 
BRANCH  76  80
ATOM     80  S   UNL     1     -15.067  15.702  -7.664  1.00  0.00     0.124 S 
ATOM     81  O   UNL     1     -15.144  16.910  -8.479  1.00  0.00    -0.237 OA
ATOM     82  O   UNL     1     -15.502  14.466  -8.305  1.00  0.00    -0.237 OA
ATOM     83  O   UNL     1     -15.486  15.858  -6.273  1.00  0.00    -0.744 OA
ENDBRANCH  76  80
ENDBRANCH  49  73
BRANCH  61  84
ATOM     84  C   UNL     1      -9.418  18.584 -14.341  1.00  0.00     0.023 A 
ATOM     85  C   UNL     1      -8.861  19.723 -13.737  1.00  0.00     0.031 A 
ATOM     86  C   UNL     1     -10.307  18.764 -15.416  1.00  0.00     0.131 A 
ATOM     87  C   UNL     1      -9.228  20.999 -14.191  1.00  0.00     0.055 A 
ATOM     88  C   UNL     1     -10.634  20.034 -15.890  1.00  0.00     0.041 A 
ATOM     89  F   UNL     1     -10.864  17.705 -16.025  1.00  0.00    -0.206 F 
ATOM     90  C   UNL     1     -10.099  21.161 -15.272  1.00  0.00     0.022 A 
BRANCH  87  91
ATOM     91  S   UNL     1      -8.585  22.453 -13.318  1.00  0.00     0.124 S 
ATOM     92  O   UNL     1      -9.172  22.292 -11.991  1.00  0.00    -0.237 OA
ATOM     93  O   UNL     1      -7.142  22.260 -13.404  1.00  0.00    -0.237 OA
ATOM     94  O   UNL     1      -9.106  23.577 -14.094  1.00  0.00    -0.744 OA
ENDBRANCH  87  91
ENDBRANCH  61  84
ENDBRANCH  35  36
ENDBRANCH  27  30
ENDBRANCH  25  26
ENDBRANCH   1  25
TORSDOF 15
