REMARK SMILES O=C(NCCCCNC(=O)c1cnccc1C(=O)N1CCC(Cc2ccccc2)CC1)c1ccc(-c2c3nc(c(-c4cc(S(=O)(=O)[O-])ccc4F)c4ccc([nH]4)c(-c4cc(S(=O)(=O)[O-])ccc4F)c4nc(c(-c5cc(S(=O)(=O)[O-])ccc5F)c5ccc2[nH]5)C=C4)C=C3)cc1
REMARK SMILES IDX 5 1 4 2 3 3 1 4 2 5 32 7 33 8 94 9 34 10 93 11 35 12 36 13
REMARK SMILES IDX 37 14 87 15 38 16 92 17 86 18 88 19 39 20 91 21 85 22 84 23
REMARK SMILES IDX 40 25 72 26 52 27 71 28 53 29 56 30 70 31 89 32 54 33 55 34
REMARK SMILES IDX 69 36 90 37 57 38 41 39 42 40 50 41 43 42 49 43 51 44 48 45
REMARK SMILES IDX 44 46 45 47 46 48 47 49 73 50 74 51 82 52 75 53 81 54 83 55
REMARK SMILES IDX 80 56 76 57 77 58 78 59 79 60 58 61 59 62 67 63 60 64 66 65
REMARK SMILES IDX 68 66 65 67 61 68 62 69 63 70 64 71 6 72 7 73 8 74 9 75
REMARK SMILES IDX 10 77 11 78 12 79 16 80 13 81 15 82 14 83 17 84 18 85 19 86
REMARK SMILES IDX 20 87 31 88 21 89 30 90 22 91 23 92 24 93 25 94 29 95 26 96
REMARK SMILES IDX 28 97 27 98
REMARK H PARENT 3 6 88 24 56 35 8 76
REMARK Flexibility Score: inf
ROOT
ATOM      1  C   UNL     1       4.875   3.005   0.347  1.00  0.00     0.023 C 
ENDROOT
BRANCH   1   2
ATOM      2  C   UNL     1       4.625   1.499   0.388  1.00  0.00     0.116 C 
BRANCH   2   3
ATOM      3  N   UNL     1       3.218   1.143   0.446  1.00  0.00    -0.352 N 
ATOM      4  O   UNL     1       1.264   0.259  -0.223  1.00  0.00    -0.269 OA
ATOM      5  C   UNL     1       2.485   0.301  -0.361  1.00  0.00     0.251 C 
ATOM      6  H   UNL     1       2.710   1.569   1.174  1.00  0.00     0.163 HD
BRANCH   5   7
ATOM      7  C   UNL     1       3.134  -0.535  -1.402  1.00  0.00     0.039 A 
ATOM      8  C   UNL     1       4.301  -1.255  -1.137  1.00  0.00     0.014 A 
ATOM      9  C   UNL     1       2.517  -0.660  -2.655  1.00  0.00     0.014 A 
ATOM     10  C   UNL     1       4.896  -2.019  -2.143  1.00  0.00     0.010 A 
ATOM     11  C   UNL     1       3.091  -1.462  -3.651  1.00  0.00     0.010 A 
ATOM     12  C   UNL     1       4.293  -2.138  -3.404  1.00  0.00    -0.014 A 
BRANCH  12  13
ATOM     13  C   UNL     1       4.897  -3.047  -4.413  1.00  0.00     0.031 A 
ATOM     14  C   UNL     1       5.742  -2.505  -5.524  1.00  0.00     0.074 A 
ATOM     15  C   UNL     1       4.718  -4.375  -4.279  1.00  0.00     0.049 A 
ATOM     16  N   UNL     1       6.378  -3.156  -6.462  1.00  0.00    -0.248 NA
ATOM     17  C   UNL     1       5.883  -1.044  -5.598  1.00  0.00     0.031 C 
ATOM     18  C   UNL     1       3.902  -4.991  -3.237  1.00  0.00     0.029 A 
ATOM     19  N   UNL     1       5.214  -5.443  -4.983  1.00  0.00    -0.354 N 
ATOM     20  C   UNL     1       6.972  -2.188  -7.261  1.00  0.00     0.074 A 
ATOM     21  C   UNL     1       6.628  -0.903  -6.687  1.00  0.00     0.031 C 
ATOM     22  C   UNL     1       4.011  -6.326  -3.318  1.00  0.00     0.029 A 
ATOM     23  C   UNL     1       4.828  -6.666  -4.478  1.00  0.00     0.049 A 
ATOM     24  H   UNL     1       5.791  -5.345  -5.775  1.00  0.00     0.167 HD
ATOM     25  C   UNL     1       7.715  -2.364  -8.382  1.00  0.00     0.034 A 
ATOM     26  C   UNL     1       5.077  -7.917  -4.920  1.00  0.00     0.034 A 
ATOM     27  C   UNL     1       8.034  -3.657  -8.939  1.00  0.00     0.049 A 
ATOM     28  C   UNL     1       5.885  -8.074  -6.185  1.00  0.00     0.074 A 
ATOM     29  C   UNL     1       8.806  -3.947 -10.051  1.00  0.00     0.029 A 
ATOM     30  N   UNL     1       7.581  -4.873  -8.444  1.00  0.00    -0.354 N 
ATOM     31  N   UNL     1       6.466  -7.145  -6.911  1.00  0.00    -0.248 NA
ATOM     32  C   UNL     1       6.045  -9.436  -6.710  1.00  0.00     0.031 C 
ATOM     33  C   UNL     1       8.757  -5.328 -10.271  1.00  0.00     0.029 A 
ATOM     34  C   UNL     1       8.013  -5.910  -9.257  1.00  0.00     0.049 A 
ATOM     35  H   UNL     1       7.033  -4.983  -7.634  1.00  0.00     0.167 HD
ATOM     36  C   UNL     1       7.046  -7.813  -7.984  1.00  0.00     0.074 A 
ATOM     37  C   UNL     1       6.790  -9.224  -7.785  1.00  0.00     0.031 C 
ATOM     38  C   UNL     1       7.715  -7.307  -9.052  1.00  0.00     0.034 A 
BRANCH  25  39
ATOM     39  C   UNL     1       8.155  -1.131  -9.126  1.00  0.00     0.023 A 
ATOM     40  C   UNL     1       9.110  -0.242  -8.605  1.00  0.00     0.031 A 
ATOM     41  C   UNL     1       7.595  -0.840 -10.383  1.00  0.00     0.131 A 
ATOM     42  C   UNL     1       9.441   0.921  -9.319  1.00  0.00     0.055 A 
ATOM     43  C   UNL     1       7.975   0.285 -11.116  1.00  0.00     0.041 A 
ATOM     44  F   UNL     1       6.662  -1.644 -10.917  1.00  0.00    -0.206 F 
ATOM     45  C   UNL     1       8.896   1.179 -10.580  1.00  0.00     0.022 A 
BRANCH  42  46
ATOM     46  S   UNL     1      10.518   2.149  -8.531  1.00  0.00     0.124 S 
ATOM     47  O   UNL     1       9.740   2.510  -7.348  1.00  0.00    -0.237 OA
ATOM     48  O   UNL     1      11.738   1.389  -8.284  1.00  0.00    -0.237 OA
ATOM     49  O   UNL     1      10.633   3.202  -9.538  1.00  0.00    -0.744 OA
ENDBRANCH  42  46
ENDBRANCH  25  39
BRANCH  26  50
ATOM     50  C   UNL     1       4.493  -9.111  -4.234  1.00  0.00     0.023 A 
ATOM     51  C   UNL     1       5.309 -10.143  -3.742  1.00  0.00     0.031 A 
ATOM     52  C   UNL     1       3.099  -9.275  -4.126  1.00  0.00     0.131 A 
ATOM     53  C   UNL     1       4.727 -11.309  -3.215  1.00  0.00     0.055 A 
ATOM     54  C   UNL     1       2.527 -10.403  -3.536  1.00  0.00     0.041 A 
ATOM     55  F   UNL     1       2.264  -8.333  -4.593  1.00  0.00    -0.206 F 
ATOM     56  C   UNL     1       3.342 -11.437  -3.091  1.00  0.00     0.022 A 
BRANCH  53  57
ATOM     57  S   UNL     1       5.801 -12.716  -2.812  1.00  0.00     0.124 S 
ATOM     58  O   UNL     1       6.518 -12.911  -4.068  1.00  0.00    -0.237 OA
ATOM     59  O   UNL     1       6.586 -12.189  -1.700  1.00  0.00    -0.237 OA
ATOM     60  O   UNL     1       4.858 -13.775  -2.462  1.00  0.00    -0.744 OA
ENDBRANCH  53  57
ENDBRANCH  26  50
BRANCH  38  61
ATOM     61  C   UNL     1       8.198  -8.299 -10.078  1.00  0.00     0.023 A 
ATOM     62  C   UNL     1       7.295  -8.989 -10.906  1.00  0.00     0.031 A 
ATOM     63  C   UNL     1       9.571  -8.559 -10.230  1.00  0.00     0.131 A 
ATOM     64  C   UNL     1       7.772  -9.938 -11.821  1.00  0.00     0.055 A 
ATOM     65  C   UNL     1      10.044  -9.466 -11.179  1.00  0.00     0.041 A 
ATOM     66  F   UNL     1      10.474  -7.928  -9.463  1.00  0.00    -0.206 F 
ATOM     67  C   UNL     1       9.142 -10.168 -11.975  1.00  0.00     0.022 A 
BRANCH  64  68
ATOM     68  S   UNL     1       6.574 -10.914 -12.771  1.00  0.00     0.124 S 
ATOM     69  O   UNL     1       5.877 -11.646 -11.719  1.00  0.00    -0.237 OA
ATOM     70  O   UNL     1       5.798  -9.883 -13.453  1.00  0.00    -0.237 OA
ATOM     71  O   UNL     1       7.415 -11.732 -13.644  1.00  0.00    -0.744 OA
ENDBRANCH  64  68
ENDBRANCH  38  61
ENDBRANCH  12  13
ENDBRANCH   5   7
ENDBRANCH   2   3
ENDBRANCH   1   2
BRANCH   1  72
ATOM     72  C   UNL     1       4.332   3.869   1.494  1.00  0.00     0.023 C 
BRANCH  72  73
ATOM     73  C   UNL     1       4.771   3.552   2.925  1.00  0.00     0.116 C 
BRANCH  73  74
ATOM     74  N   UNL     1       6.184   3.265   3.073  1.00  0.00    -0.352 N 
ATOM     75  C   UNL     1       6.952   3.251   4.205  1.00  0.00     0.253 C 
ATOM     76  H   UNL     1       6.659   3.049   2.238  1.00  0.00     0.163 HD
ATOM     77  O   UNL     1       8.151   2.981   4.131  1.00  0.00    -0.269 OA
BRANCH  75  78
ATOM     78  C   UNL     1       6.419   3.608   5.519  1.00  0.00     0.070 A 
ATOM     79  C   UNL     1       6.971   4.757   6.081  1.00  0.00     0.125 A 
ATOM     80  C   UNL     1       5.471   2.911   6.265  1.00  0.00     0.055 A 
ATOM     81  N   UNL     1       6.598   5.287   7.272  1.00  0.00    -0.264 NA
ATOM     82  C   UNL     1       5.073   3.447   7.504  1.00  0.00     0.035 A 
ATOM     83  C   UNL     1       5.647   4.623   7.953  1.00  0.00     0.112 A 
BRANCH  80  84
ATOM     84  C   UNL     1       4.649   1.781   5.777  1.00  0.00     0.254 C 
ATOM     85  O   UNL     1       3.442   1.889   6.013  1.00  0.00    -0.269 OA
ATOM     86  N   UNL     1       5.150   0.715   5.038  1.00  0.00    -0.339 N 
ATOM     87  C   UNL     1       4.214   0.104   4.104  1.00  0.00     0.120 C 
ATOM     88  C   UNL     1       6.545   0.274   4.936  1.00  0.00     0.120 C 
ATOM     89  C   UNL     1       4.335  -1.396   3.988  1.00  0.00     0.025 C 
ATOM     90  C   UNL     1       6.671  -1.253   4.839  1.00  0.00     0.025 C 
ATOM     91  C   UNL     1       5.782  -1.822   3.716  1.00  0.00    -0.003 C 
BRANCH  91  92
ATOM     92  C   UNL     1       5.916  -3.354   3.619  1.00  0.00     0.039 C 
BRANCH  92  93
ATOM     93  C   UNL     1       5.106  -3.959   2.495  1.00  0.00    -0.048 A 
ATOM     94  C   UNL     1       3.756  -4.294   2.692  1.00  0.00     0.004 A 
ATOM     95  C   UNL     1       5.678  -4.175   1.237  1.00  0.00     0.004 A 
ATOM     96  C   UNL     1       2.986  -4.803   1.649  1.00  0.00     0.000 A 
ATOM     97  C   UNL     1       4.916  -4.725   0.206  1.00  0.00     0.000 A 
ATOM     98  C   UNL     1       3.570  -5.027   0.408  1.00  0.00     0.000 A 
ENDBRANCH  92  93
ENDBRANCH  91  92
ENDBRANCH  80  84
ENDBRANCH  75  78
ENDBRANCH  73  74
ENDBRANCH  72  73
ENDBRANCH   1  72
TORSDOF 17
