REMARK SMILES CCOc1ccc(NC(=O)N(C)CCCC(=O)NCCCCNC(=O)c2ccc(-c3c4nc(c(-c5cc(S(=O)(=O)[O-])ccc5F)c5ccc([nH]5)c(-c5cc(S(=O)(=O)[O-])ccc5F)c5nc(c(-c6cc(S(=O)(=O)[O-])ccc6F)c6ccc3[nH]6)C=C5)C=C4)cc2)cn1
REMARK SMILES IDX 16 1 17 2 18 3 15 5 14 6 13 7 11 8 12 9 9 10 8 11 10 13 7 14
REMARK SMILES IDX 4 15 5 16 90 17 6 18 89 19 3 20 2 21 1 22 19 23 20 24 21 25
REMARK SMILES IDX 22 26 23 27 24 28 25 30 26 31 27 32 88 33 28 34 87 35 29 36
REMARK SMILES IDX 30 37 31 38 81 39 32 40 86 41 80 42 82 43 33 44 85 45 79 46
REMARK SMILES IDX 78 47 34 49 66 50 46 51 65 52 47 53 50 54 64 55 83 56 48 57
REMARK SMILES IDX 49 58 63 60 84 61 51 62 35 63 36 64 44 65 37 66 43 67 45 68
REMARK SMILES IDX 42 69 38 70 39 71 40 72 41 73 67 74 68 75 76 76 69 77 75 78
REMARK SMILES IDX 77 79 74 80 70 81 71 82 72 83 73 84 52 85 53 86 61 87 54 88
REMARK SMILES IDX 60 89 62 90 59 91 55 92 56 93 57 94 58 95
REMARK H PARENT 18 4 8 12 23 29 82 48 50 59
REMARK Flexibility Score: inf
ROOT
ATOM      1  C   UNL     1       9.757  -2.887  -6.947  1.00  0.00     0.220 C 
ATOM      2  O   UNL     1      10.607  -2.936  -7.840  1.00  0.00    -0.275 OA
ATOM      3  N   UNL     1       9.316  -4.064  -6.423  1.00  0.00    -0.356 N 
ATOM      4  H   UNL     1       9.811  -4.860  -6.723  1.00  0.00     0.163 HD
ENDROOT
BRANCH   1   5
ATOM      5  C   UNL     1       9.291  -1.549  -6.403  1.00  0.00     0.102 C 
BRANCH   5   6
ATOM      6  C   UNL     1       8.008  -0.931  -6.981  1.00  0.00     0.031 C 
BRANCH   6   7
ATOM      7  C   UNL     1       6.628  -1.502  -6.619  1.00  0.00     0.121 C 
BRANCH   7   8
ATOM      8  N   UNL     1       5.934  -1.052  -5.394  1.00  0.00    -0.328 N 
ATOM      9  C   UNL     1       4.639  -0.427  -5.619  1.00  0.00     0.148 C 
BRANCH   8  10
ATOM     10  C   UNL     1       6.524  -1.181  -4.175  1.00  0.00     0.321 C 
ATOM     11  N   UNL     1       5.880  -1.200  -2.998  1.00  0.00    -0.306 N 
ATOM     12  H   UNL     1       6.498  -0.990  -2.262  1.00  0.00     0.171 HD
ATOM     13  O   UNL     1       7.746  -1.237  -4.035  1.00  0.00    -0.248 OA
BRANCH  11  14
ATOM     14  C   UNL     1       4.595  -1.431  -2.508  1.00  0.00     0.061 A 
ATOM     15  C   UNL     1       2.090  -1.584  -1.438  1.00  0.00     0.213 A 
ATOM     16  C   UNL     1       3.126  -1.192  -0.612  1.00  0.00     0.070 A 
ATOM     17  N   UNL     1       2.255  -2.010  -2.706  1.00  0.00    -0.220 NA
ATOM     18  C   UNL     1       4.393  -1.100  -1.166  1.00  0.00     0.033 A 
ATOM     19  C   UNL     1       3.520  -1.971  -3.195  1.00  0.00     0.141 A 
BRANCH  15  20
ATOM     20  O   UNL     1       0.802  -1.519  -0.972  1.00  0.00    -0.478 OA
BRANCH  20  21
ATOM     21  C   UNL     1       0.328  -0.167  -1.022  1.00  0.00     0.228 C 
ATOM     22  C   UNL     1       0.341   0.447   0.371  1.00  0.00     0.049 C 
ENDBRANCH  20  21
ENDBRANCH  15  20
ENDBRANCH  11  14
ENDBRANCH   8  10
ENDBRANCH   7   8
ENDBRANCH   6   7
ENDBRANCH   5   6
ENDBRANCH   1   5
BRANCH   3  23
ATOM     23  C   UNL     1       8.235  -4.332  -5.496  1.00  0.00     0.116 C 
BRANCH  23  24
ATOM     24  C   UNL     1       7.045  -4.951  -6.239  1.00  0.00     0.023 C 
BRANCH  24  25
ATOM     25  C   UNL     1       7.090  -6.469  -6.338  1.00  0.00     0.023 C 
BRANCH  25  26
ATOM     26  C   UNL     1       6.837  -7.176  -5.015  1.00  0.00     0.116 C 
BRANCH  26  27
ATOM     27  N   UNL     1       5.496  -6.957  -4.484  1.00  0.00    -0.352 N 
ATOM     28  C   UNL     1       4.691  -7.861  -3.829  1.00  0.00     0.251 C 
ATOM     29  H   UNL     1       5.123  -6.054  -4.610  1.00  0.00     0.163 HD
ATOM     30  O   UNL     1       3.543  -7.564  -3.516  1.00  0.00    -0.269 OA
BRANCH  28  31
ATOM     31  C   UNL     1       5.224  -9.213  -3.567  1.00  0.00     0.039 A 
ATOM     32  C   UNL     1       4.509 -10.322  -4.019  1.00  0.00     0.014 A 
ATOM     33  C   UNL     1       6.487  -9.365  -2.989  1.00  0.00     0.014 A 
ATOM     34  C   UNL     1       5.106 -11.583  -3.978  1.00  0.00     0.010 A 
ATOM     35  C   UNL     1       7.112 -10.604  -3.033  1.00  0.00     0.010 A 
ATOM     36  C   UNL     1       6.431 -11.725  -3.534  1.00  0.00    -0.014 A 
BRANCH  36  37
ATOM     37  C   UNL     1       7.132 -13.035  -3.583  1.00  0.00     0.031 A 
ATOM     38  C   UNL     1       7.622 -13.664  -2.308  1.00  0.00     0.074 A 
ATOM     39  C   UNL     1       7.403 -13.608  -4.773  1.00  0.00     0.049 A 
ATOM     40  N   UNL     1       8.348 -14.738  -2.139  1.00  0.00    -0.248 NA
ATOM     41  C   UNL     1       7.283 -12.964  -1.060  1.00  0.00     0.031 C 
ATOM     42  C   UNL     1       7.032 -13.063  -6.082  1.00  0.00     0.029 A 
ATOM     43  N   UNL     1       8.066 -14.771  -5.077  1.00  0.00    -0.354 N 
ATOM     44  C   UNL     1       8.575 -14.828  -0.770  1.00  0.00     0.074 A 
ATOM     45  C   UNL     1       7.966 -13.662  -0.167  1.00  0.00     0.031 C 
ATOM     46  C   UNL     1       7.448 -13.903  -7.043  1.00  0.00     0.029 A 
ATOM     47  C   UNL     1       8.152 -15.023  -6.428  1.00  0.00     0.049 A 
ATOM     48  H   UNL     1       8.444 -15.369  -4.393  1.00  0.00     0.167 HD
ATOM     49  C   UNL     1       9.206 -15.808  -0.076  1.00  0.00     0.034 A 
ATOM     50  C   UNL     1       8.739 -16.038  -7.093  1.00  0.00     0.034 A 
ATOM     51  C   UNL     1       9.782 -16.977  -0.693  1.00  0.00     0.049 A 
ATOM     52  C   UNL     1       9.426 -17.122  -6.302  1.00  0.00     0.074 A 
ATOM     53  C   UNL     1      10.390 -18.062  -0.086  1.00  0.00     0.029 A 
ATOM     54  N   UNL     1       9.822 -17.215  -2.061  1.00  0.00    -0.354 N 
ATOM     55  N   UNL     1       9.586 -17.221  -5.002  1.00  0.00    -0.248 NA
ATOM     56  C   UNL     1      10.001 -18.236  -7.066  1.00  0.00     0.031 C 
ATOM     57  C   UNL     1      10.845 -18.927  -1.088  1.00  0.00     0.029 A 
ATOM     58  C   UNL     1      10.463 -18.417  -2.318  1.00  0.00     0.049 A 
ATOM     59  H   UNL     1       9.450 -16.616  -2.748  1.00  0.00     0.167 HD
ATOM     60  C   UNL     1      10.253 -18.425  -4.793  1.00  0.00     0.074 A 
ATOM     61  C   UNL     1      10.453 -19.020  -6.099  1.00  0.00     0.031 C 
ATOM     62  C   UNL     1      10.658 -18.992  -3.628  1.00  0.00     0.034 A 
BRANCH  49  63
ATOM     63  C   UNL     1       9.316 -15.633   1.420  1.00  0.00     0.023 A 
ATOM     64  C   UNL     1       8.174 -15.564   2.239  1.00  0.00     0.031 A 
ATOM     65  C   UNL     1      10.572 -15.486   2.032  1.00  0.00     0.131 A 
ATOM     66  C   UNL     1       8.306 -15.261   3.602  1.00  0.00     0.055 A 
ATOM     67  C   UNL     1      10.701 -15.274   3.406  1.00  0.00     0.041 A 
ATOM     68  F   UNL     1      11.698 -15.524   1.301  1.00  0.00    -0.206 F 
ATOM     69  C   UNL     1       9.563 -15.141   4.197  1.00  0.00     0.022 A 
BRANCH  66  70
ATOM     70  S   UNL     1       6.810 -14.869   4.548  1.00  0.00     0.124 S 
ATOM     71  O   UNL     1       6.293 -13.715   3.815  1.00  0.00    -0.237 OA
ATOM     72  O   UNL     1       6.033 -16.097   4.435  1.00  0.00    -0.237 OA
ATOM     73  O   UNL     1       7.318 -14.571   5.885  1.00  0.00    -0.744 OA
ENDBRANCH  66  70
ENDBRANCH  49  63
BRANCH  50  74
ATOM     74  C   UNL     1       8.707 -16.087  -8.582  1.00  0.00     0.023 A 
ATOM     75  C   UNL     1       8.003 -17.098  -9.256  1.00  0.00     0.031 A 
ATOM     76  C   UNL     1       9.411 -15.146  -9.354  1.00  0.00     0.131 A 
ATOM     77  C   UNL     1       8.056 -17.173 -10.656  1.00  0.00     0.055 A 
ATOM     78  C   UNL     1       9.420 -15.196 -10.749  1.00  0.00     0.041 A 
ATOM     79  F   UNL     1      10.092 -14.153  -8.760  1.00  0.00    -0.206 F 
ATOM     80  C   UNL     1       8.750 -16.223 -11.408  1.00  0.00     0.022 A 
BRANCH  77  81
ATOM     81  S   UNL     1       7.262 -18.581 -11.481  1.00  0.00     0.124 S 
ATOM     82  O   UNL     1       7.951 -19.711 -10.868  1.00  0.00    -0.237 OA
ATOM     83  O   UNL     1       5.863 -18.401 -11.106  1.00  0.00    -0.237 OA
ATOM     84  O   UNL     1       7.559 -18.359 -12.894  1.00  0.00    -0.744 OA
ENDBRANCH  77  81
ENDBRANCH  50  74
BRANCH  62  85
ATOM     85  C   UNL     1      11.312 -20.347  -3.718  1.00  0.00     0.023 A 
ATOM     86  C   UNL     1      12.579 -20.521  -4.301  1.00  0.00     0.031 A 
ATOM     87  C   UNL     1      10.651 -21.482  -3.216  1.00  0.00     0.131 A 
ATOM     88  C   UNL     1      13.124 -21.809  -4.414  1.00  0.00     0.055 A 
ATOM     89  C   UNL     1      11.222 -22.753  -3.281  1.00  0.00     0.041 A 
ATOM     90  F   UNL     1       9.438 -21.371  -2.650  1.00  0.00    -0.206 F 
ATOM     91  C   UNL     1      12.460 -22.923  -3.894  1.00  0.00     0.022 A 
BRANCH  88  92
ATOM     92  S   UNL     1      14.678 -22.021  -5.324  1.00  0.00     0.124 S 
ATOM     93  O   UNL     1      14.332 -21.501  -6.642  1.00  0.00    -0.237 OA
ATOM     94  O   UNL     1      15.609 -21.212  -4.544  1.00  0.00    -0.237 OA
ATOM     95  O   UNL     1      14.915 -23.462  -5.268  1.00  0.00    -0.744 OA
ENDBRANCH  88  92
ENDBRANCH  62  85
ENDBRANCH  36  37
ENDBRANCH  28  31
ENDBRANCH  26  27
ENDBRANCH  25  26
ENDBRANCH  24  25
ENDBRANCH  23  24
ENDBRANCH   3  23
TORSDOF 21
