REMARK SMILES O=C(NCCCCNC(=O)c1noc(-c2ccccc2Cl)n1)c1ccc(-c2c3nc(c(-c4cc(S(=O)(=O)[O-])ccc4F)c4ccc([nH]4)c(-c4cc(S(=O)(=O)[O-])ccc4F)c4nc(c(-c5cc(S(=O)(=O)[O-])ccc5F)c5ccc2[nH]5)C=C4)C=C3)cc1
REMARK SMILES IDX 4 1 3 2 1 3 2 4 23 6 24 7 85 8 25 9 84 10 26 11 27 12 28 13
REMARK SMILES IDX 78 14 29 15 83 16 77 17 79 18 30 19 82 20 76 21 75 22 31 24
REMARK SMILES IDX 63 25 43 26 62 27 44 28 47 29 61 30 80 31 45 32 46 33 60 35
REMARK SMILES IDX 81 36 48 37 32 38 33 39 41 40 34 41 40 42 42 43 39 44 35 45
REMARK SMILES IDX 36 46 37 47 38 48 64 49 65 50 73 51 66 52 72 53 74 54 71 55
REMARK SMILES IDX 67 56 68 57 69 58 70 59 49 60 50 61 58 62 51 63 57 64 59 65
REMARK SMILES IDX 56 66 52 67 53 68 54 69 55 70 5 71 6 72 7 73 8 74 9 75 10 77
REMARK SMILES IDX 11 78 12 79 22 80 13 81 14 82 15 83 16 84 20 85 17 86 19 87
REMARK SMILES IDX 21 88 18 89
REMARK H PARENT 3 5 79 23 47 34 8 76
REMARK Flexibility Score: inf
ROOT
ATOM      1  C   UNL     1       4.676  -0.829   1.006  1.00  0.00     0.116 C 
ENDROOT
BRANCH   1   2
ATOM      2  N   UNL     1       3.250  -0.935   0.739  1.00  0.00    -0.352 N 
ATOM      3  O   UNL     1       1.222  -0.279   0.016  1.00  0.00    -0.269 OA
ATOM      4  C   UNL     1       2.439  -0.115  -0.008  1.00  0.00     0.251 C 
ATOM      5  H   UNL     1       2.801  -1.706   1.153  1.00  0.00     0.163 HD
BRANCH   4   6
ATOM      6  C   UNL     1       3.027   0.973  -0.819  1.00  0.00     0.039 A 
ATOM      7  C   UNL     1       4.139   0.742  -1.634  1.00  0.00     0.014 A 
ATOM      8  C   UNL     1       2.441   2.240  -0.773  1.00  0.00     0.014 A 
ATOM      9  C   UNL     1       4.740   1.805  -2.306  1.00  0.00     0.010 A 
ATOM     10  C   UNL     1       3.006   3.291  -1.499  1.00  0.00     0.010 A 
ATOM     11  C   UNL     1       4.177   3.088  -2.248  1.00  0.00    -0.014 A 
BRANCH  11  12
ATOM     12  C   UNL     1       4.800   4.215  -2.988  1.00  0.00     0.031 A 
ATOM     13  C   UNL     1       5.399   5.376  -2.245  1.00  0.00     0.074 A 
ATOM     14  C   UNL     1       4.797   4.202  -4.334  1.00  0.00     0.049 A 
ATOM     15  N   UNL     1       5.895   6.493  -2.713  1.00  0.00    -0.248 NA
ATOM     16  C   UNL     1       5.433   5.268  -0.780  1.00  0.00     0.031 C 
ATOM     17  C   UNL     1       4.248   3.127  -5.163  1.00  0.00     0.029 A 
ATOM     18  N   UNL     1       5.255   5.123  -5.241  1.00  0.00    -0.354 N 
ATOM     19  C   UNL     1       6.281   7.234  -1.601  1.00  0.00     0.074 A 
ATOM     20  C   UNL     1       5.928   6.448  -0.436  1.00  0.00     0.031 C 
ATOM     21  C   UNL     1       4.401   3.449  -6.456  1.00  0.00     0.029 A 
ATOM     22  C   UNL     1       5.001   4.777  -6.547  1.00  0.00     0.049 A 
ATOM     23  H   UNL     1       5.720   5.951  -4.982  1.00  0.00     0.167 HD
ATOM     24  C   UNL     1       6.879   8.452  -1.560  1.00  0.00     0.034 A 
ATOM     25  C   UNL     1       5.189   5.465  -7.689  1.00  0.00     0.034 A 
ATOM     26  C   UNL     1       7.218   9.219  -2.736  1.00  0.00     0.049 A 
ATOM     27  C   UNL     1       5.802   6.836  -7.623  1.00  0.00     0.074 A 
ATOM     28  C   UNL     1       7.855  10.446  -2.814  1.00  0.00     0.029 A 
ATOM     29  N   UNL     1       6.933   8.841  -4.043  1.00  0.00    -0.354 N 
ATOM     30  N   UNL     1       6.173   7.521  -6.567  1.00  0.00    -0.248 NA
ATOM     31  C   UNL     1       6.026   7.524  -8.900  1.00  0.00     0.031 C 
ATOM     32  C   UNL     1       7.895  10.838  -4.158  1.00  0.00     0.029 A 
ATOM     33  C   UNL     1       7.351   9.823  -4.929  1.00  0.00     0.049 A 
ATOM     34  H   UNL     1       6.497   7.997  -4.303  1.00  0.00     0.167 HD
ATOM     35  C   UNL     1       6.699   8.713  -7.054  1.00  0.00     0.074 A 
ATOM     36  C   UNL     1       6.597   8.652  -8.499  1.00  0.00     0.031 C 
ATOM     37  C   UNL     1       7.231   9.755  -6.367  1.00  0.00     0.034 A 
BRANCH  24  38
ATOM     38  C   UNL     1       7.149   9.043  -0.195  1.00  0.00     0.023 A 
ATOM     39  C   UNL     1       8.013   8.422   0.724  1.00  0.00     0.031 A 
ATOM     40  C   UNL     1       6.494  10.219   0.213  1.00  0.00     0.131 A 
ATOM     41  C   UNL     1       8.126   8.923   2.030  1.00  0.00     0.055 A 
ATOM     42  C   UNL     1       6.679  10.762   1.486  1.00  0.00     0.041 A 
ATOM     43  F   UNL     1       5.643  10.849  -0.612  1.00  0.00    -0.206 F 
ATOM     44  C   UNL     1       7.483  10.103   2.410  1.00  0.00     0.022 A 
BRANCH  41  45
ATOM     45  S   UNL     1       8.982   7.915   3.272  1.00  0.00     0.124 S 
ATOM     46  O   UNL     1       8.263   6.646   3.171  1.00  0.00    -0.237 OA
ATOM     47  O   UNL     1      10.355   7.912   2.783  1.00  0.00    -0.237 OA
ATOM     48  O   UNL     1       8.763   8.646   4.518  1.00  0.00    -0.744 OA
ENDBRANCH  41  45
ENDBRANCH  24  38
BRANCH  25  49
ATOM     49  C   UNL     1       4.744   4.875  -8.980  1.00  0.00     0.023 A 
ATOM     50  C   UNL     1       5.668   4.458  -9.948  1.00  0.00     0.031 A 
ATOM     51  C   UNL     1       3.374   4.698  -9.249  1.00  0.00     0.131 A 
ATOM     52  C   UNL     1       5.210   3.900 -11.152  1.00  0.00     0.055 A 
ATOM     53  C   UNL     1       2.925   4.104 -10.429  1.00  0.00     0.041 A 
ATOM     54  F   UNL     1       2.452   5.071  -8.347  1.00  0.00    -0.206 F 
ATOM     55  C   UNL     1       3.847   3.707 -11.392  1.00  0.00     0.022 A 
BRANCH  52  56
ATOM     56  S   UNL     1       6.426   3.453 -12.421  1.00  0.00     0.124 S 
ATOM     57  O   UNL     1       7.031   4.746 -12.721  1.00  0.00    -0.237 OA
ATOM     58  O   UNL     1       7.270   2.498 -11.711  1.00  0.00    -0.237 OA
ATOM     59  O   UNL     1       5.608   2.883 -13.490  1.00  0.00    -0.744 OA
ENDBRANCH  52  56
ENDBRANCH  25  49
BRANCH  37  60
ATOM     60  C   UNL     1       7.796  10.894  -7.178  1.00  0.00     0.023 A 
ATOM     61  C   UNL     1       6.971  11.783  -7.889  1.00  0.00     0.031 A 
ATOM     62  C   UNL     1       9.187  11.094  -7.228  1.00  0.00     0.131 A 
ATOM     63  C   UNL     1       7.548  12.812  -8.649  1.00  0.00     0.055 A 
ATOM     64  C   UNL     1       9.752  12.147  -7.946  1.00  0.00     0.041 A 
ATOM     65  F   UNL     1      10.018  10.271  -6.569  1.00  0.00    -0.206 F 
ATOM     66  C   UNL     1       8.932  13.009  -8.668  1.00  0.00     0.022 A 
BRANCH  63  67
ATOM     67  S   UNL     1       6.471  13.865  -9.659  1.00  0.00     0.124 S 
ATOM     68  O   UNL     1       5.886  12.900 -10.585  1.00  0.00    -0.237 OA
ATOM     69  O   UNL     1       5.562  14.429  -8.667  1.00  0.00    -0.237 OA
ATOM     70  O   UNL     1       7.396  14.822 -10.264  1.00  0.00    -0.744 OA
ENDBRANCH  63  67
ENDBRANCH  37  60
ENDBRANCH  11  12
ENDBRANCH   4   6
ENDBRANCH   1   2
BRANCH   1  71
ATOM     71  C   UNL     1       4.993  -0.780   2.498  1.00  0.00     0.023 C 
BRANCH  71  72
ATOM     72  C   UNL     1       4.525  -1.991   3.303  1.00  0.00     0.023 C 
BRANCH  72  73
ATOM     73  C   UNL     1       5.046  -3.340   2.810  1.00  0.00     0.116 C 
BRANCH  73  74
ATOM     74  N   UNL     1       6.487  -3.457   2.963  1.00  0.00    -0.349 N 
ATOM     75  C   UNL     1       7.200  -4.421   3.651  1.00  0.00     0.292 C 
ATOM     76  H   UNL     1       7.023  -2.761   2.519  1.00  0.00     0.163 HD
ATOM     77  O   UNL     1       8.410  -4.253   3.810  1.00  0.00    -0.266 OA
BRANCH  75  78
ATOM     78  C   UNL     1       6.484  -5.596   4.161  1.00  0.00     0.260 A 
ATOM     79  N   UNL     1       6.745  -6.145   5.363  1.00  0.00    -0.051 NA
ATOM     80  N   UNL     1       5.464  -6.226   3.470  1.00  0.00    -0.182 NA
ATOM     81  O   UNL     1       5.795  -7.163   5.472  1.00  0.00    -0.333 OA
ATOM     82  C   UNL     1       5.081  -7.156   4.311  1.00  0.00     0.259 A 
BRANCH  82  83
ATOM     83  C   UNL     1       3.986  -8.098   4.207  1.00  0.00     0.058 A 
ATOM     84  C   UNL     1       2.965  -8.068   5.174  1.00  0.00     0.015 A 
ATOM     85  C   UNL     1       3.876  -8.996   3.136  1.00  0.00     0.053 A 
ATOM     86  C   UNL     1       1.855  -8.908   5.065  1.00  0.00     0.001 A 
ATOM     87  C   UNL     1       2.765  -9.841   3.034  1.00  0.00     0.021 A 
ATOM     88  Cl  UNL     1       5.095  -9.136   1.916  1.00  0.00    -0.083 Cl
ATOM     89  C   UNL     1       1.754  -9.792   3.994  1.00  0.00     0.002 A 
ENDBRANCH  82  83
ENDBRANCH  75  78
ENDBRANCH  73  74
ENDBRANCH  72  73
ENDBRANCH  71  72
ENDBRANCH   1  71
TORSDOF 15
