REMARK SMILES Nc1c(CC(=O)NCCCCNC(=O)c2ccc(-c3c4nc(c(-c5cc(S(=O)(=O)[O-])ccc5F)c5ccc([nH]5)c(-c5cc(S(=O)(=O)[O-])ccc5F)c5nc(c(-c6cc(S(=O)(=O)[O-])ccc6F)c6ccc3[nH]6)C=C5)C=C4)cc2)cccc1C(=O)c1ccc(Br)cc1
REMARK SMILES IDX 9 1 8 2 7 3 5 4 6 5 4 7 3 8 2 9 81 10 78 11 80 12 79 13 1 14
REMARK SMILES IDX 82 17 83 18 84 19 85 20 90 21 86 22 89 23 87 24 88 25 10 26
REMARK SMILES IDX 11 27 12 28 13 29 14 31 15 32 16 33 77 34 17 35 76 36 18 37
REMARK SMILES IDX 19 38 20 39 70 40 21 41 75 42 69 43 71 44 22 45 74 46 68 47
REMARK SMILES IDX 67 48 23 50 55 51 35 52 54 53 36 54 39 55 53 56 72 57 37 58
REMARK SMILES IDX 38 59 52 61 73 62 40 63 24 64 25 65 33 66 26 67 32 68 34 69
REMARK SMILES IDX 31 70 27 71 28 72 29 73 30 74 56 75 57 76 65 77 58 78 64 79
REMARK SMILES IDX 66 80 63 81 59 82 60 83 61 84 62 85 41 86 42 87 50 88 43 89
REMARK SMILES IDX 49 90 51 91 48 92 44 93 45 94 46 95 47 96
REMARK H PARENT 7 6 1 15 1 16 12 30 71 49 39 60
REMARK Flexibility Score: inf
ROOT
ATOM      1  C   UNL     1       0.633  -0.699   3.348  1.00  0.00     0.023 C 
ENDROOT
BRANCH   1   2
ATOM      2  C   UNL     1       1.583  -1.768   2.808  1.00  0.00     0.116 C 
BRANCH   2   3
ATOM      3  N   UNL     1       0.875  -2.979   2.446  1.00  0.00    -0.356 N 
ATOM      4  C   UNL     1       0.446  -3.387   1.216  1.00  0.00     0.224 C 
ATOM      5  O   UNL     1      -0.213  -4.426   1.140  1.00  0.00    -0.275 OA
ATOM      6  H   UNL     1       0.677  -3.593   3.190  1.00  0.00     0.163 HD
BRANCH   4   7
ATOM      7  C   UNL     1       0.835  -2.617  -0.037  1.00  0.00     0.137 C 
BRANCH   7   8
ATOM      8  C   UNL     1       0.229  -1.228  -0.149  1.00  0.00    -0.015 A 
ATOM      9  C   UNL     1       1.015  -0.043  -0.186  1.00  0.00     0.046 A 
ATOM     10  C   UNL     1       0.356   1.216  -0.188  1.00  0.00     0.046 A 
ATOM     11  C   UNL     1      -1.176  -1.142  -0.159  1.00  0.00     0.006 A 
ATOM     12  C   UNL     1      -1.053   1.256  -0.172  1.00  0.00     0.014 A 
ATOM     13  C   UNL     1      -1.812   0.090  -0.165  1.00  0.00     0.001 A 
BRANCH   9  14
ATOM     14  N   UNL     1       2.401  -0.162  -0.167  1.00  0.00    -0.398 N 
ATOM     15  H   UNL     1       2.818  -1.054  -0.166  1.00  0.00     0.156 HD
ATOM     16  H   UNL     1       2.964   0.645  -0.154  1.00  0.00     0.156 HD
ENDBRANCH   9  14
BRANCH  10  17
ATOM     17  C   UNL     1       1.020   2.567  -0.165  1.00  0.00     0.195 C 
ATOM     18  O   UNL     1       0.356   3.587   0.019  1.00  0.00    -0.289 OA
BRANCH  17  19
ATOM     19  C   UNL     1       2.475   2.758  -0.300  1.00  0.00     0.023 A 
ATOM     20  C   UNL     1       3.168   3.329   0.774  1.00  0.00     0.013 A 
ATOM     21  C   UNL     1       3.159   2.347  -1.449  1.00  0.00     0.013 A 
ATOM     22  C   UNL     1       4.561   3.418   0.730  1.00  0.00     0.016 A 
ATOM     23  C   UNL     1       4.553   2.425  -1.483  1.00  0.00     0.016 A 
ATOM     24  C   UNL     1       5.246   2.949  -0.390  1.00  0.00     0.018 A 
ATOM     25  Br  UNL     1       7.136   3.001  -0.421  1.00  0.00    -0.051 Br
ENDBRANCH  17  19
ENDBRANCH  10  17
ENDBRANCH   7   8
ENDBRANCH   4   7
ENDBRANCH   2   3
ENDBRANCH   1   2
BRANCH   1  26
ATOM     26  C   UNL     1       0.107  -0.990   4.756  1.00  0.00     0.023 C 
BRANCH  26  27
ATOM     27  C   UNL     1       1.184  -1.135   5.824  1.00  0.00     0.116 C 
BRANCH  27  28
ATOM     28  N   UNL     1       2.009   0.054   5.960  1.00  0.00    -0.352 N 
ATOM     29  C   UNL     1       2.531   0.608   7.102  1.00  0.00     0.251 C 
ATOM     30  H   UNL     1       2.221   0.524   5.121  1.00  0.00     0.163 HD
ATOM     31  O   UNL     1       3.083   1.705   7.044  1.00  0.00    -0.269 OA
BRANCH  29  32
ATOM     32  C   UNL     1       2.393  -0.099   8.394  1.00  0.00     0.039 A 
ATOM     33  C   UNL     1       2.033   0.634   9.527  1.00  0.00     0.014 A 
ATOM     34  C   UNL     1       2.611  -1.476   8.492  1.00  0.00     0.014 A 
ATOM     35  C   UNL     1       1.849  -0.022  10.745  1.00  0.00     0.010 A 
ATOM     36  C   UNL     1       2.343  -2.140   9.686  1.00  0.00     0.010 A 
ATOM     37  C   UNL     1       1.976  -1.419  10.831  1.00  0.00    -0.014 A 
BRANCH  37  38
ATOM     38  C   UNL     1       1.758  -2.125  12.122  1.00  0.00     0.031 A 
ATOM     39  C   UNL     1       2.890  -2.874  12.775  1.00  0.00     0.074 A 
ATOM     40  C   UNL     1       0.538  -2.109  12.694  1.00  0.00     0.049 A 
ATOM     41  N   UNL     1       2.898  -3.550  13.896  1.00  0.00    -0.248 NA
ATOM     42  C   UNL     1       4.175  -2.891  12.058  1.00  0.00     0.031 C 
ATOM     43  C   UNL     1      -0.649  -1.458  12.133  1.00  0.00     0.029 A 
ATOM     44  N   UNL     1       0.091  -2.649  13.873  1.00  0.00    -0.354 N 
ATOM     45  C   UNL     1       4.182  -4.074  14.015  1.00  0.00     0.074 A 
ATOM     46  C   UNL     1       4.898  -3.702  12.814  1.00  0.00     0.031 C 
ATOM     47  C   UNL     1      -1.674  -1.601  12.987  1.00  0.00     0.029 A 
ATOM     48  C   UNL     1      -1.236  -2.390  14.134  1.00  0.00     0.049 A 
ATOM     49  H   UNL     1       0.665  -3.173  14.478  1.00  0.00     0.167 HD
ATOM     50  C   UNL     1       4.723  -4.775  15.043  1.00  0.00     0.034 A 
ATOM     51  C   UNL     1      -2.011  -2.750  15.176  1.00  0.00     0.034 A 
ATOM     52  C   UNL     1       3.995  -5.131  16.237  1.00  0.00     0.049 A 
ATOM     53  C   UNL     1      -1.393  -3.550  16.296  1.00  0.00     0.074 A 
ATOM     54  C   UNL     1       4.456  -5.794  17.361  1.00  0.00     0.029 A 
ATOM     55  N   UNL     1       2.650  -4.864  16.460  1.00  0.00    -0.354 N 
ATOM     56  N   UNL     1      -0.160  -3.983  16.422  1.00  0.00    -0.248 NA
ATOM     57  C   UNL     1      -2.270  -3.893  17.422  1.00  0.00     0.031 C 
ATOM     58  C   UNL     1       3.375  -5.997  18.225  1.00  0.00     0.029 A 
ATOM     59  C   UNL     1       2.257  -5.381  17.686  1.00  0.00     0.049 A 
ATOM     60  H   UNL     1       2.061  -4.379  15.838  1.00  0.00     0.167 HD
ATOM     61  C   UNL     1      -0.107  -4.624  17.657  1.00  0.00     0.074 A 
ATOM     62  C   UNL     1      -1.425  -4.494  18.245  1.00  0.00     0.031 C 
ATOM     63  C   UNL     1       0.933  -5.262  18.254  1.00  0.00     0.034 A 
BRANCH  50  64
ATOM     64  C   UNL     1       6.162  -5.218  14.902  1.00  0.00     0.023 A 
ATOM     65  C   UNL     1       7.212  -4.293  14.764  1.00  0.00     0.031 A 
ATOM     66  C   UNL     1       6.488  -6.586  14.879  1.00  0.00     0.131 A 
ATOM     67  C   UNL     1       8.519  -4.744  14.528  1.00  0.00     0.055 A 
ATOM     68  C   UNL     1       7.805  -7.028  14.735  1.00  0.00     0.041 A 
ATOM     69  F   UNL     1       5.529  -7.520  14.983  1.00  0.00    -0.206 F 
ATOM     70  C   UNL     1       8.828  -6.105  14.541  1.00  0.00     0.022 A 
BRANCH  67  71
ATOM     71  S   UNL     1       9.780  -3.531  14.047  1.00  0.00     0.124 S 
ATOM     72  O   UNL     1       9.187  -2.951  12.844  1.00  0.00    -0.237 OA
ATOM     73  O   UNL     1       9.841  -2.659  15.214  1.00  0.00    -0.237 OA
ATOM     74  O   UNL     1      10.970  -4.347  13.815  1.00  0.00    -0.744 OA
ENDBRANCH  67  71
ENDBRANCH  50  64
BRANCH  51  75
ATOM     75  C   UNL     1      -3.453  -2.367  15.218  1.00  0.00     0.023 A 
ATOM     76  C   UNL     1      -3.955  -1.533  16.230  1.00  0.00     0.031 A 
ATOM     77  C   UNL     1      -4.363  -2.874  14.273  1.00  0.00     0.131 A 
ATOM     78  C   UNL     1      -5.333  -1.275  16.307  1.00  0.00     0.055 A 
ATOM     79  C   UNL     1      -5.724  -2.564  14.317  1.00  0.00     0.041 A 
ATOM     80  F   UNL     1      -3.939  -3.674  13.282  1.00  0.00    -0.206 F 
ATOM     81  C   UNL     1      -6.218  -1.772  15.348  1.00  0.00     0.022 A 
BRANCH  78  82
ATOM     82  S   UNL     1      -5.967  -0.360  17.739  1.00  0.00     0.124 S 
ATOM     83  O   UNL     1      -5.511  -1.191  18.848  1.00  0.00    -0.237 OA
ATOM     84  O   UNL     1      -5.304   0.932  17.591  1.00  0.00    -0.237 OA
ATOM     85  O   UNL     1      -7.412  -0.346  17.521  1.00  0.00    -0.744 OA
ENDBRANCH  78  82
ENDBRANCH  51  75
BRANCH  63  86
ATOM     86  C   UNL     1       0.688  -5.831  19.632  1.00  0.00     0.023 A 
ATOM     87  C   UNL     1      -0.247  -6.859  19.853  1.00  0.00     0.031 A 
ATOM     88  C   UNL     1       1.372  -5.314  20.746  1.00  0.00     0.131 A 
ATOM     89  C   UNL     1      -0.529  -7.279  21.161  1.00  0.00     0.055 A 
ATOM     90  C   UNL     1       1.144  -5.792  22.038  1.00  0.00     0.041 A 
ATOM     91  F   UNL     1       2.274  -4.330  20.600  1.00  0.00    -0.206 F 
ATOM     92  C   UNL     1       0.175  -6.766  22.253  1.00  0.00     0.022 A 
BRANCH  89  93
ATOM     93  S   UNL     1      -1.923  -8.409  21.428  1.00  0.00     0.124 S 
ATOM     94  O   UNL     1      -3.028  -7.675  20.821  1.00  0.00    -0.237 OA
ATOM     95  O   UNL     1      -1.490  -9.610  20.720  1.00  0.00    -0.237 OA
ATOM     96  O   UNL     1      -1.987  -8.537  22.883  1.00  0.00    -0.744 OA
ENDBRANCH  89  93
ENDBRANCH  63  86
ENDBRANCH  37  38
ENDBRANCH  29  32
ENDBRANCH  27  28
ENDBRANCH  26  27
ENDBRANCH   1  26
TORSDOF 18
