REMARK SMILES COC(CNS(=O)(=O)c1ccc(Cl)c(C(=O)NCCCCNC(=O)c2ccc(-c3c4nc(c(-c5cc(S(=O)(=O)[O-])ccc5F)c5ccc([nH]5)c(-c5cc(S(=O)(=O)[O-])ccc5F)c5nc(c(-c6cc(S(=O)(=O)[O-])ccc6F)c6ccc3[nH]6)C=C5)C=C4)cc2)c1Cl)OC
REMARK SMILES IDX 18 1 17 2 15 3 16 4 14 6 9 7 10 8 88 9 11 10 89 11 12 12
REMARK SMILES IDX 13 13 6 14 7 15 8 16 5 17 4 19 3 20 2 21 1 22 90 23 91 24
REMARK SMILES IDX 19 25 20 26 21 27 22 28 23 29 24 31 25 32 26 33 87 34 27 35
REMARK SMILES IDX 86 36 28 37 29 38 30 39 80 40 31 41 85 42 79 43 81 44 32 45
REMARK SMILES IDX 84 46 78 47 77 48 33 50 65 51 45 52 64 53 46 54 49 55 63 56
REMARK SMILES IDX 82 57 47 58 48 59 62 61 83 62 50 63 34 64 35 65 43 66 36 67
REMARK SMILES IDX 42 68 44 69 41 70 37 71 38 72 39 73 40 74 66 75 67 76 75 77
REMARK SMILES IDX 68 78 74 79 76 80 73 81 69 82 70 83 71 84 72 85 51 86 52 87
REMARK SMILES IDX 60 88 53 89 59 90 61 91 58 92 54 93 55 94 56 95 57 96
REMARK H PARENT 17 5 5 18 22 30 81 49 49 60
REMARK Flexibility Score: inf
ROOT
ATOM      1  C   UNL     1       3.456   9.419  -0.801  1.00  0.00     0.116 C 
ENDROOT
BRANCH   1   2
ATOM      2  N   UNL     1       3.824   8.024  -0.744  1.00  0.00    -0.352 N 
ATOM      3  C   UNL     1       3.404   6.892  -0.106  1.00  0.00     0.254 C 
ATOM      4  O   UNL     1       4.031   5.907  -0.511  1.00  0.00    -0.269 OA
ATOM      5  H   UNL     1       4.594   7.837  -1.328  1.00  0.00     0.163 HD
BRANCH   3   6
ATOM      6  C   UNL     1       2.248   6.690   0.857  1.00  0.00     0.078 A 
ATOM      7  C   UNL     1       0.656   4.998   1.696  1.00  0.00     0.101 A 
ATOM      8  C   UNL     1      -0.286   5.989   1.956  1.00  0.00     0.025 A 
ATOM      9  C   UNL     1       1.933   5.338   1.212  1.00  0.00     0.075 A 
ATOM     10  C   UNL     1       0.088   7.313   1.835  1.00  0.00     0.023 A 
ATOM     11  Cl  UNL     1       3.197   4.135   1.349  1.00  0.00    -0.082 Cl
ATOM     12  C   UNL     1       1.354   7.664   1.337  1.00  0.00     0.055 A 
ATOM     13  Cl  UNL     1       1.737   9.295   1.734  1.00  0.00    -0.083 Cl
BRANCH   7  14
ATOM     14  S   UNL     1       0.133   3.336   2.025  1.00  0.00     0.242 S 
ATOM     15  O   UNL     1      -1.307   3.292   1.851  1.00  0.00    -0.207 OA
ATOM     16  O   UNL     1       0.744   2.929   3.266  1.00  0.00    -0.207 OA
BRANCH  14  17
ATOM     17  N   UNL     1       0.771   2.380   0.830  1.00  0.00    -0.206 NA
ATOM     18  H   UNL     1       1.770   2.583   0.804  1.00  0.00     0.141 HD
BRANCH  17  19
ATOM     19  C   UNL     1       0.299   2.458  -0.557  1.00  0.00     0.161 C 
BRANCH  19  20
ATOM     20  C   UNL     1       0.991   1.464  -1.534  1.00  0.00     0.263 C 
BRANCH  20  21
ATOM     21  O   UNL     1       0.594   0.093  -1.485  1.00  0.00    -0.355 OA
ATOM     22  C   UNL     1       0.516  -0.533  -0.222  1.00  0.00     0.198 C 
ENDBRANCH  20  21
BRANCH  20  23
ATOM     23  O   UNL     1       2.384   1.702  -1.730  1.00  0.00    -0.355 OA
ATOM     24  C   UNL     1       3.289   1.114  -0.822  1.00  0.00     0.198 C 
ENDBRANCH  20  23
ENDBRANCH  19  20
ENDBRANCH  17  19
ENDBRANCH  14  17
ENDBRANCH   7  14
ENDBRANCH   3   6
ENDBRANCH   1   2
BRANCH   1  25
ATOM     25  C   UNL     1       4.252  10.223   0.229  1.00  0.00     0.023 C 
BRANCH  25  26
ATOM     26  C   UNL     1       5.567  10.801  -0.285  1.00  0.00     0.023 C 
BRANCH  26  27
ATOM     27  C   UNL     1       5.416  11.774  -1.444  1.00  0.00     0.116 C 
BRANCH  27  28
ATOM     28  N   UNL     1       4.463  12.847  -1.185  1.00  0.00    -0.352 N 
ATOM     29  C   UNL     1       4.516  14.146  -1.631  1.00  0.00     0.251 C 
ATOM     30  H   UNL     1       3.689  12.612  -0.624  1.00  0.00     0.163 HD
ATOM     31  O   UNL     1       3.702  14.975  -1.243  1.00  0.00    -0.269 OA
BRANCH  29  32
ATOM     32  C   UNL     1       5.606  14.517  -2.552  1.00  0.00     0.039 A 
ATOM     33  C   UNL     1       6.444  15.579  -2.215  1.00  0.00     0.014 A 
ATOM     34  C   UNL     1       5.856  13.734  -3.682  1.00  0.00     0.014 A 
ATOM     35  C   UNL     1       7.584  15.813  -2.983  1.00  0.00     0.010 A 
ATOM     36  C   UNL     1       7.038  13.912  -4.386  1.00  0.00     0.010 A 
ATOM     37  C   UNL     1       7.913  14.955  -4.046  1.00  0.00    -0.014 A 
BRANCH  37  38
ATOM     38  C   UNL     1       9.164  15.139  -4.824  1.00  0.00     0.031 A 
ATOM     39  C   UNL     1       9.087  15.444  -6.295  1.00  0.00     0.074 A 
ATOM     40  C   UNL     1      10.359  14.979  -4.220  1.00  0.00     0.049 A 
ATOM     41  N   UNL     1      10.055  15.575  -7.163  1.00  0.00    -0.248 NA
ATOM     42  C   UNL     1       7.740  15.590  -6.870  1.00  0.00     0.031 C 
ATOM     43  C   UNL     1      10.554  14.642  -2.808  1.00  0.00     0.029 A 
ATOM     44  N   UNL     1      11.635  15.074  -4.715  1.00  0.00    -0.354 N 
ATOM     45  C   UNL     1       9.436  15.810  -8.386  1.00  0.00     0.074 A 
ATOM     46  C   UNL     1       8.010  15.728  -8.158  1.00  0.00     0.031 C 
ATOM     47  C   UNL     1      11.870  14.594  -2.545  1.00  0.00     0.029 A 
ATOM     48  C   UNL     1      12.614  14.841  -3.776  1.00  0.00     0.049 A 
ATOM     49  H   UNL     1      11.832  15.288  -5.656  1.00  0.00     0.167 HD
ATOM     50  C   UNL     1      10.005  16.097  -9.582  1.00  0.00     0.034 A 
ATOM     51  C   UNL     1      13.956  14.816  -3.898  1.00  0.00     0.034 A 
ATOM     52  C   UNL     1      11.430  16.183  -9.787  1.00  0.00     0.049 A 
ATOM     53  C   UNL     1      14.565  15.095  -5.250  1.00  0.00     0.074 A 
ATOM     54  C   UNL     1      12.114  16.512 -10.943  1.00  0.00     0.029 A 
ATOM     55  N   UNL     1      12.390  15.929  -8.816  1.00  0.00    -0.354 N 
ATOM     56  N   UNL     1      13.965  15.367  -6.387  1.00  0.00    -0.248 NA
ATOM     57  C   UNL     1      16.031  15.075  -5.334  1.00  0.00     0.031 C 
ATOM     58  C   UNL     1      13.483  16.378 -10.694  1.00  0.00     0.029 A 
ATOM     59  C   UNL     1      13.660  16.058  -9.357  1.00  0.00     0.049 A 
ATOM     60  H   UNL     1      12.198  15.691  -7.880  1.00  0.00     0.167 HD
ATOM     61  C   UNL     1      14.984  15.587  -7.311  1.00  0.00     0.074 A 
ATOM     62  C   UNL     1      16.233  15.431  -6.594  1.00  0.00     0.031 C 
ATOM     63  C   UNL     1      14.897  15.894  -8.630  1.00  0.00     0.034 A 
BRANCH  50  64
ATOM     64  C   UNL     1       9.083  16.315 -10.758  1.00  0.00     0.023 A 
ATOM     65  C   UNL     1       8.146  17.363 -10.778  1.00  0.00     0.031 A 
ATOM     66  C   UNL     1       9.127  15.452 -11.867  1.00  0.00     0.131 A 
ATOM     67  C   UNL     1       7.244  17.477 -11.846  1.00  0.00     0.055 A 
ATOM     68  C   UNL     1       8.285  15.624 -12.967  1.00  0.00     0.041 A 
ATOM     69  F   UNL     1       9.982  14.417 -11.895  1.00  0.00    -0.206 F 
ATOM     70  C   UNL     1       7.326  16.632 -12.955  1.00  0.00     0.022 A 
BRANCH  67  71
ATOM     71  S   UNL     1       5.869  18.650 -11.697  1.00  0.00     0.124 S 
ATOM     72  O   UNL     1       5.199  18.166 -10.491  1.00  0.00    -0.237 OA
ATOM     73  O   UNL     1       6.556  19.930 -11.575  1.00  0.00    -0.237 OA
ATOM     74  O   UNL     1       5.119  18.458 -12.936  1.00  0.00    -0.744 OA
ENDBRANCH  67  71
ENDBRANCH  50  64
BRANCH  51  75
ATOM     75  C   UNL     1      14.822  14.504  -2.723  1.00  0.00     0.023 A 
ATOM     76  C   UNL     1      15.750  15.440  -2.238  1.00  0.00     0.031 A 
ATOM     77  C   UNL     1      14.778  13.242  -2.103  1.00  0.00     0.131 A 
ATOM     78  C   UNL     1      16.635  15.082  -1.208  1.00  0.00     0.055 A 
ATOM     79  C   UNL     1      15.617  12.913  -1.036  1.00  0.00     0.041 A 
ATOM     80  F   UNL     1      13.911  12.307  -2.524  1.00  0.00    -0.206 F 
ATOM     81  C   UNL     1      16.564  13.830  -0.594  1.00  0.00     0.022 A 
BRANCH  78  82
ATOM     82  S   UNL     1      17.958  16.239  -0.760  1.00  0.00     0.124 S 
ATOM     83  O   UNL     1      18.640  16.418  -2.036  1.00  0.00    -0.237 OA
ATOM     84  O   UNL     1      17.202  17.387  -0.269  1.00  0.00    -0.237 OA
ATOM     85  O   UNL     1      18.714  15.512   0.257  1.00  0.00    -0.744 OA
ENDBRANCH  78  82
ENDBRANCH  51  75
BRANCH  63  86
ATOM     86  C   UNL     1      16.191  16.136  -9.369  1.00  0.00     0.023 A 
ATOM     87  C   UNL     1      17.134  15.114  -9.572  1.00  0.00     0.031 A 
ATOM     88  C   UNL     1      16.484  17.416  -9.876  1.00  0.00     0.131 A 
ATOM     89  C   UNL     1      18.350  15.402 -10.211  1.00  0.00     0.055 A 
ATOM     90  C   UNL     1      17.664  17.679 -10.573  1.00  0.00     0.041 A 
ATOM     91  F   UNL     1      15.623  18.432  -9.708  1.00  0.00    -0.206 F 
ATOM     92  C   UNL     1      18.611  16.672 -10.732  1.00  0.00     0.022 A 
BRANCH  89  93
ATOM     93  S   UNL     1      19.631  14.119 -10.265  1.00  0.00     0.124 S 
ATOM     94  O   UNL     1      19.833  13.834  -8.848  1.00  0.00    -0.237 OA
ATOM     95  O   UNL     1      18.985  13.065 -11.041  1.00  0.00    -0.237 OA
ATOM     96  O   UNL     1      20.751  14.780 -10.931  1.00  0.00    -0.744 OA
ENDBRANCH  89  93
ENDBRANCH  63  86
ENDBRANCH  37  38
ENDBRANCH  29  32
ENDBRANCH  27  28
ENDBRANCH  26  27
ENDBRANCH  25  26
ENDBRANCH   1  25
TORSDOF 20
