REMARK SMILES [NH3+][C@@H](C[NH+]1CCCCC1)C(=O)NCCCCNC(=O)c1ccc(-c2c3nc(c(-c4cc(S(=O)(=O)[O-])ccc4F)c4ccc([nH]4)c(-c4cc(S(=O)(=O)[O-])ccc4F)c4nc(c(-c5cc(S(=O)(=O)[O-])ccc5F)c5ccc2[nH]5)C=C4)C=C3)cc1
REMARK SMILES IDX 15 1 14 2 13 3 12 4 10 5 11 6 2 8 1 9 3 13 4 14 5 15 9 16
REMARK SMILES IDX 6 18 8 19 7 20 16 21 17 22 18 23 19 25 20 26 21 27 82 28
REMARK SMILES IDX 22 29 81 30 23 31 24 32 25 33 75 34 26 35 80 36 74 37 76 38
REMARK SMILES IDX 27 39 79 40 73 41 72 42 28 44 60 45 40 46 59 47 41 48 44 49
REMARK SMILES IDX 58 50 77 51 42 52 43 53 57 55 78 56 45 57 29 58 30 59 38 60
REMARK SMILES IDX 31 61 37 62 39 63 36 64 32 65 33 66 34 67 35 68 61 69 62 70
REMARK SMILES IDX 70 71 63 72 69 73 71 74 68 75 64 76 65 77 66 78 67 79 46 80
REMARK SMILES IDX 47 81 55 82 48 83 54 84 56 85 53 86 49 87 50 88 51 89 52 90
REMARK H PARENT 12 7 1 10 1 11 1 12 4 17 17 24 76 43 44 54
REMARK Flexibility Score: inf
ROOT
ATOM      1  C   UNL     1      -3.333   1.365  -2.431  1.00  0.00     0.023 C 
ENDROOT
BRANCH   1   2
ATOM      2  C   UNL     1      -1.871   0.973  -2.256  1.00  0.00     0.023 C 
BRANCH   2   3
ATOM      3  C   UNL     1      -1.194   1.503  -1.000  1.00  0.00     0.116 C 
BRANCH   3   4
ATOM      4  N   UNL     1      -1.636   0.880   0.228  1.00  0.00    -0.351 N 
ATOM      5  C   UNL     1      -0.916   0.623   1.363  1.00  0.00     0.284 C 
ATOM      6  O   UNL     1      -1.553   0.328   2.382  1.00  0.00    -0.268 OA
ATOM      7  H   UNL     1      -2.581   0.604   0.249  1.00  0.00     0.163 HD
BRANCH   5   8
ATOM      8  C   UNL     1       0.633   0.672   1.396  1.00  0.00     0.326 C 
BRANCH   8   9
ATOM      9  N   UNL     1       1.233  -0.291   0.444  1.00  0.00    -0.343 N 
ATOM     10  H   UNL     1       2.249  -0.230   0.494  1.00  0.00     0.345 HD
ATOM     11  H   UNL     1       0.925  -0.069  -0.503  1.00  0.00     0.345 HD
ATOM     12  H   UNL     1       0.937  -1.237   0.685  1.00  0.00     0.345 HD
ENDBRANCH   8   9
BRANCH   8  13
ATOM     13  C   UNL     1       1.235   2.109   1.456  1.00  0.00     0.338 C 
BRANCH  13  14
ATOM     14  N   UNL     1       1.092   2.997   0.287  1.00  0.00    -0.330 N 
ATOM     15  C   UNL     1       1.141   4.414   0.692  1.00  0.00     0.262 C 
ATOM     16  C   UNL     1       2.074   2.754  -0.778  1.00  0.00     0.262 C 
ATOM     17  H   UNL     1       0.176   2.775  -0.104  1.00  0.00     0.348 HD
ATOM     18  C   UNL     1       0.762   5.322  -0.479  1.00  0.00     0.062 C 
ATOM     19  C   UNL     1       1.711   3.579  -2.019  1.00  0.00     0.062 C 
ATOM     20  C   UNL     1       1.638   5.067  -1.701  1.00  0.00     0.012 C 
ENDBRANCH  13  14
ENDBRANCH   8  13
ENDBRANCH   5   8
ENDBRANCH   3   4
ENDBRANCH   2   3
ENDBRANCH   1   2
BRANCH   1  21
ATOM     21  C   UNL     1      -3.641   2.854  -2.307  1.00  0.00     0.116 C 
BRANCH  21  22
ATOM     22  N   UNL     1      -2.886   3.692  -3.226  1.00  0.00    -0.352 N 
ATOM     23  C   UNL     1      -3.335   4.623  -4.145  1.00  0.00     0.251 C 
ATOM     24  H   UNL     1      -1.909   3.579  -3.189  1.00  0.00     0.163 HD
ATOM     25  O   UNL     1      -2.544   5.170  -4.894  1.00  0.00    -0.269 OA
BRANCH  23  26
ATOM     26  C   UNL     1      -4.786   4.910  -4.239  1.00  0.00     0.039 A 
ATOM     27  C   UNL     1      -5.398   4.891  -5.494  1.00  0.00     0.014 A 
ATOM     28  C   UNL     1      -5.547   5.141  -3.091  1.00  0.00     0.014 A 
ATOM     29  C   UNL     1      -6.790   4.993  -5.587  1.00  0.00     0.010 A 
ATOM     30  C   UNL     1      -6.936   5.154  -3.177  1.00  0.00     0.010 A 
ATOM     31  C   UNL     1      -7.575   5.066  -4.424  1.00  0.00    -0.014 A 
BRANCH  31  32
ATOM     32  C   UNL     1      -9.061   5.027  -4.482  1.00  0.00     0.031 A 
ATOM     33  C   UNL     1      -9.867   6.185  -3.958  1.00  0.00     0.074 A 
ATOM     34  C   UNL     1      -9.686   3.914  -4.918  1.00  0.00     0.049 A 
ATOM     35  N   UNL     1     -11.162   6.295  -3.809  1.00  0.00    -0.248 NA
ATOM     36  C   UNL     1      -9.108   7.360  -3.504  1.00  0.00     0.031 C 
ATOM     37  C   UNL     1      -9.020   2.703  -5.403  1.00  0.00     0.029 A 
ATOM     38  N   UNL     1     -11.023   3.613  -5.011  1.00  0.00    -0.354 N 
ATOM     39  C   UNL     1     -11.372   7.538  -3.221  1.00  0.00     0.074 A 
ATOM     40  C   UNL     1     -10.065   8.116  -2.989  1.00  0.00     0.031 C 
ATOM     41  C   UNL     1      -9.949   1.802  -5.764  1.00  0.00     0.029 A 
ATOM     42  C   UNL     1     -11.274   2.349  -5.495  1.00  0.00     0.049 A 
ATOM     43  H   UNL     1     -11.735   4.242  -4.755  1.00  0.00     0.167 HD
ATOM     44  C   UNL     1     -12.546   8.150  -2.923  1.00  0.00     0.034 A 
ATOM     45  C   UNL     1     -12.439   1.699  -5.688  1.00  0.00     0.034 A 
ATOM     46  C   UNL     1     -13.841   7.574  -3.186  1.00  0.00     0.049 A 
ATOM     47  C   UNL     1     -13.731   2.399  -5.351  1.00  0.00     0.074 A 
ATOM     48  C   UNL     1     -15.091   8.136  -2.991  1.00  0.00     0.029 A 
ATOM     49  N   UNL     1     -14.056   6.300  -3.696  1.00  0.00    -0.354 N 
ATOM     50  N   UNL     1     -13.913   3.597  -4.846  1.00  0.00    -0.248 NA
ATOM     51  C   UNL     1     -14.973   1.663  -5.620  1.00  0.00     0.031 C 
ATOM     52  C   UNL     1     -16.060   7.183  -3.329  1.00  0.00     0.029 A 
ATOM     53  C   UNL     1     -15.416   6.050  -3.798  1.00  0.00     0.049 A 
ATOM     54  H   UNL     1     -13.346   5.666  -3.949  1.00  0.00     0.167 HD
ATOM     55  C   UNL     1     -15.293   3.767  -4.765  1.00  0.00     0.074 A 
ATOM     56  C   UNL     1     -15.892   2.555  -5.285  1.00  0.00     0.031 C 
ATOM     57  C   UNL     1     -16.000   4.832  -4.310  1.00  0.00     0.034 A 
BRANCH  44  58
ATOM     58  C   UNL     1     -12.470   9.504  -2.258  1.00  0.00     0.023 A 
ATOM     59  C   UNL     1     -11.887  10.611  -2.901  1.00  0.00     0.031 A 
ATOM     60  C   UNL     1     -12.953   9.684  -0.950  1.00  0.00     0.131 A 
ATOM     61  C   UNL     1     -11.724  11.819  -2.207  1.00  0.00     0.055 A 
ATOM     62  C   UNL     1     -12.864  10.914  -0.295  1.00  0.00     0.041 A 
ATOM     63  F   UNL     1     -13.503   8.661  -0.278  1.00  0.00    -0.206 F 
ATOM     64  C   UNL     1     -12.231  11.986  -0.917  1.00  0.00     0.022 A 
BRANCH  61  65
ATOM     65  S   UNL     1     -10.706  13.117  -2.961  1.00  0.00     0.124 S 
ATOM     66  O   UNL     1      -9.424  12.433  -3.116  1.00  0.00    -0.237 OA
ATOM     67  O   UNL     1     -11.428  13.409  -4.194  1.00  0.00    -0.237 OA
ATOM     68  O   UNL     1     -10.717  14.184  -1.962  1.00  0.00    -0.744 OA
ENDBRANCH  61  65
ENDBRANCH  44  58
BRANCH  45  69
ATOM     69  C   UNL     1     -12.450   0.308  -6.223  1.00  0.00     0.023 A 
ATOM     70  C   UNL     1     -12.993   0.027  -7.487  1.00  0.00     0.031 A 
ATOM     71  C   UNL     1     -11.958  -0.767  -5.462  1.00  0.00     0.131 A 
ATOM     72  C   UNL     1     -13.073  -1.300  -7.935  1.00  0.00     0.055 A 
ATOM     73  C   UNL     1     -11.997  -2.081  -5.932  1.00  0.00     0.041 A 
ATOM     74  F   UNL     1     -11.422  -0.551  -4.250  1.00  0.00    -0.206 F 
ATOM     75  C   UNL     1     -12.569  -2.355  -7.171  1.00  0.00     0.022 A 
BRANCH  72  76
ATOM     76  S   UNL     1     -13.918  -1.637  -9.504  1.00  0.00     0.124 S 
ATOM     77  O   UNL     1     -15.247  -1.091  -9.250  1.00  0.00    -0.237 OA
ATOM     78  O   UNL     1     -13.093  -0.900 -10.456  1.00  0.00    -0.237 OA
ATOM     79  O   UNL     1     -13.852  -3.092  -9.621  1.00  0.00    -0.744 OA
ENDBRANCH  72  76
ENDBRANCH  45  69
BRANCH  57  80
ATOM     80  C   UNL     1     -17.503   4.744  -4.402  1.00  0.00     0.023 A 
ATOM     81  C   UNL     1     -18.242   3.849  -3.611  1.00  0.00     0.031 A 
ATOM     82  C   UNL     1     -18.201   5.561  -5.309  1.00  0.00     0.131 A 
ATOM     83  C   UNL     1     -19.632   3.754  -3.778  1.00  0.00     0.055 A 
ATOM     84  C   UNL     1     -19.590   5.501  -5.432  1.00  0.00     0.041 A 
ATOM     85  F   UNL     1     -17.543   6.432  -6.091  1.00  0.00    -0.206 F 
ATOM     86  C   UNL     1     -20.312   4.585  -4.673  1.00  0.00     0.022 A 
BRANCH  83  87
ATOM     87  S   UNL     1     -20.535   2.470  -2.868  1.00  0.00     0.124 S 
ATOM     88  O   UNL     1     -19.885   1.251  -3.338  1.00  0.00    -0.237 OA
ATOM     89  O   UNL     1     -20.279   2.834  -1.478  1.00  0.00    -0.237 OA
ATOM     90  O   UNL     1     -21.918   2.645  -3.308  1.00  0.00    -0.744 OA
ENDBRANCH  83  87
ENDBRANCH  57  80
ENDBRANCH  31  32
ENDBRANCH  23  26
ENDBRANCH  21  22
ENDBRANCH   1  21
TORSDOF 17
