REMARK SMILES Cc1sc(-c2ccco2)nc1C(=O)N[C@@H](C(=O)NCCCCNC(=O)c1ccc(-c2c3nc(c(-c4cc(S(=O)(=O)[O-])ccc4F)c4ccc([nH]4)c(-c4cc(S(=O)(=O)[O-])ccc4F)c4nc(c(-c5cc(S(=O)(=O)[O-])ccc5F)c5ccc2[nH]5)C=C4)C=C3)cc1)C(C)C
REMARK SMILES IDX 20 1 19 2 18 3 16 4 17 5 15 7 14 8 12 9 13 10 11 12 1 13
REMARK SMILES IDX 2 14 3 15 4 16 10 17 5 18 6 19 9 20 7 21 8 22 89 23 90 24
REMARK SMILES IDX 91 25 21 26 22 27 23 28 24 29 25 31 26 32 27 33 88 34 28 35
REMARK SMILES IDX 87 36 29 37 30 38 31 39 81 40 32 41 86 42 80 43 82 44 33 45
REMARK SMILES IDX 85 46 79 47 78 48 34 50 66 51 46 52 65 53 47 54 50 55 64 56
REMARK SMILES IDX 83 57 48 58 49 59 63 61 84 62 51 63 35 64 36 65 44 66 37 67
REMARK SMILES IDX 43 68 45 69 42 70 38 71 39 72 40 73 41 74 67 75 68 76 76 77
REMARK SMILES IDX 69 78 75 79 77 80 74 81 70 82 71 83 72 84 73 85 52 86 53 87
REMARK SMILES IDX 61 88 54 89 60 90 62 91 59 92 55 93 56 94 57 95 58 96
REMARK H PARENT 18 6 14 11 23 30 82 49 50 60
REMARK Flexibility Score: inf
ROOT
ATOM      1  C   UNL     1       0.988  -3.231   3.402  1.00  0.00     0.023 C 
ENDROOT
BRANCH   1   2
ATOM      2  C   UNL     1       1.867  -2.166   2.755  1.00  0.00     0.116 C 
BRANCH   2   3
ATOM      3  N   UNL     1       3.149  -2.710   2.351  1.00  0.00    -0.354 N 
ATOM      4  C   UNL     1       3.648  -2.986   1.108  1.00  0.00     0.242 C 
ATOM      5  O   UNL     1       4.765  -3.506   1.056  1.00  0.00    -0.273 OA
ATOM      6  H   UNL     1       3.761  -2.915   3.094  1.00  0.00     0.163 HD
BRANCH   4   7
ATOM      7  C   UNL     1       2.902  -2.505  -0.167  1.00  0.00     0.174 C 
BRANCH   7   8
ATOM      8  N   UNL     1       1.549  -3.021  -0.217  1.00  0.00    -0.339 N 
ATOM      9  C   UNL     1       0.304  -2.448  -0.253  1.00  0.00     0.271 C 
ATOM     10  O   UNL     1      -0.604  -3.289  -0.301  1.00  0.00    -0.267 OA
ATOM     11  H   UNL     1       1.516  -4.005  -0.229  1.00  0.00     0.164 HD
BRANCH   9  12
ATOM     12  C   UNL     1      -0.035  -0.989  -0.225  1.00  0.00     0.142 A 
ATOM     13  C   UNL     1       2.088   0.627   0.195  1.00  0.00     0.059 C 
ATOM     14  C   UNL     1       0.686   0.209  -0.098  1.00  0.00     0.035 A 
ATOM     15  S   UNL     1      -0.374   1.561  -0.356  1.00  0.00    -0.115 S 
ATOM     16  C   UNL     1      -1.714   0.534  -0.272  1.00  0.00     0.160 A 
ATOM     17  N   UNL     1      -1.434  -0.742  -0.236  1.00  0.00    -0.227 NA
BRANCH  16  18
ATOM     18  C   UNL     1      -3.032   1.078  -0.171  1.00  0.00     0.162 A 
ATOM     19  C   UNL     1      -4.000   0.807   0.782  1.00  0.00     0.053 A 
ATOM     20  O   UNL     1      -3.496   2.069  -1.000  1.00  0.00    -0.462 OA
ATOM     21  C   UNL     1      -5.080   1.689   0.539  1.00  0.00     0.043 A 
ATOM     22  C   UNL     1      -4.732   2.420  -0.569  1.00  0.00     0.196 A 
ENDBRANCH  16  18
ENDBRANCH   9  12
ENDBRANCH   7   8
BRANCH   7  23
ATOM     23  C   UNL     1       3.690  -2.764  -1.475  1.00  0.00     0.015 C 
ATOM     24  C   UNL     1       2.824  -2.571  -2.727  1.00  0.00     0.010 C 
ATOM     25  C   UNL     1       4.886  -1.801  -1.569  1.00  0.00     0.010 C 
ENDBRANCH   7  23
ENDBRANCH   4   7
ENDBRANCH   2   3
ENDBRANCH   1   2
BRANCH   1  26
ATOM     26  C   UNL     1       1.411  -3.574   4.831  1.00  0.00     0.023 C 
BRANCH  26  27
ATOM     27  C   UNL     1       1.343  -2.407   5.812  1.00  0.00     0.116 C 
BRANCH  27  28
ATOM     28  N   UNL     1      -0.002  -1.877   5.973  1.00  0.00    -0.352 N 
ATOM     29  C   UNL     1      -0.647  -1.528   7.136  1.00  0.00     0.251 C 
ATOM     30  H   UNL     1      -0.516  -1.752   5.143  1.00  0.00     0.163 HD
ATOM     31  O   UNL     1      -1.838  -1.231   7.114  1.00  0.00    -0.269 OA
BRANCH  29  32
ATOM     32  C   UNL     1       0.099  -1.554   8.412  1.00  0.00     0.039 A 
ATOM     33  C   UNL     1      -0.458  -2.215   9.508  1.00  0.00     0.014 A 
ATOM     34  C   UNL     1       1.366  -0.969   8.509  1.00  0.00     0.014 A 
ATOM     35  C   UNL     1       0.287  -2.350  10.682  1.00  0.00     0.010 A 
ATOM     36  C   UNL     1       2.135  -1.175   9.650  1.00  0.00     0.010 A 
ATOM     37  C   UNL     1       1.605  -1.868  10.750  1.00  0.00    -0.014 A 
BRANCH  37  38
ATOM     38  C   UNL     1       2.442  -2.080  11.961  1.00  0.00     0.031 A 
ATOM     39  C   UNL     1       2.937  -0.899  12.752  1.00  0.00     0.074 A 
ATOM     40  C   UNL     1       2.801  -3.330  12.316  1.00  0.00     0.049 A 
ATOM     41  N   UNL     1       3.728  -0.873  13.793  1.00  0.00    -0.248 NA
ATOM     42  C   UNL     1       2.508   0.430  12.290  1.00  0.00     0.031 C 
ATOM     43  C   UNL     1       2.418  -4.553  11.606  1.00  0.00     0.029 A 
ATOM     44  N   UNL     1       3.574  -3.783  13.357  1.00  0.00    -0.354 N 
ATOM     45  C   UNL     1       3.899   0.471  14.106  1.00  0.00     0.074 A 
ATOM     46  C   UNL     1       3.185   1.228  13.100  1.00  0.00     0.031 C 
ATOM     47  C   UNL     1       2.931  -5.614  12.248  1.00  0.00     0.029 A 
ATOM     48  C   UNL     1       3.722  -5.151  13.383  1.00  0.00     0.049 A 
ATOM     49  H   UNL     1       3.983  -3.184  14.022  1.00  0.00     0.167 HD
ATOM     50  C   UNL     1       4.567   1.022  15.150  1.00  0.00     0.034 A 
ATOM     51  C   UNL     1       4.426  -5.942  14.218  1.00  0.00     0.034 A 
ATOM     52  C   UNL     1       5.269   0.252  16.149  1.00  0.00     0.049 A 
ATOM     53  C   UNL     1       5.192  -5.304  15.351  1.00  0.00     0.074 A 
ATOM     54  C   UNL     1       5.936   0.704  17.274  1.00  0.00     0.029 A 
ATOM     55  N   UNL     1       5.404  -1.131  16.139  1.00  0.00    -0.354 N 
ATOM     56  N   UNL     1       5.301  -4.033  15.662  1.00  0.00    -0.248 NA
ATOM     57  C   UNL     1       5.920  -6.209  16.250  1.00  0.00     0.031 C 
ATOM     58  C   UNL     1       6.538  -0.394  17.898  1.00  0.00     0.029 A 
ATOM     59  C   UNL     1       6.173  -1.543  17.217  1.00  0.00     0.049 A 
ATOM     60  H   UNL     1       5.011  -1.732  15.464  1.00  0.00     0.167 HD
ATOM     61  C   UNL     1       6.083  -3.991  16.815  1.00  0.00     0.074 A 
ATOM     62  C   UNL     1       6.401  -5.364  17.149  1.00  0.00     0.031 C 
ATOM     63  C   UNL     1       6.495  -2.916  17.534  1.00  0.00     0.034 A 
BRANCH  50  64
ATOM     64  C   UNL     1       4.588   2.531  15.245  1.00  0.00     0.023 A 
ATOM     65  C   UNL     1       3.407   3.278  15.398  1.00  0.00     0.031 A 
ATOM     66  C   UNL     1       5.802   3.235  15.155  1.00  0.00     0.131 A 
ATOM     67  C   UNL     1       3.455   4.680  15.376  1.00  0.00     0.055 A 
ATOM     68  C   UNL     1       5.853   4.629  15.223  1.00  0.00     0.041 A 
ATOM     69  F   UNL     1       6.962   2.580  14.985  1.00  0.00    -0.206 F 
ATOM     70  C   UNL     1       4.673   5.361  15.318  1.00  0.00     0.022 A 
BRANCH  67  71
ATOM     71  S   UNL     1       1.895   5.598  15.265  1.00  0.00     0.124 S 
ATOM     72  O   UNL     1       1.323   5.059  14.032  1.00  0.00    -0.237 OA
ATOM     73  O   UNL     1       1.219   5.221  16.500  1.00  0.00    -0.237 OA
ATOM     74  O   UNL     1       2.322   6.993  15.186  1.00  0.00    -0.744 OA
ENDBRANCH  67  71
ENDBRANCH  50  64
BRANCH  51  75
ATOM     75  C   UNL     1       4.458  -7.420  14.014  1.00  0.00     0.023 A 
ATOM     76  C   UNL     1       3.938  -8.296  14.980  1.00  0.00     0.031 A 
ATOM     77  C   UNL     1       5.053  -7.981  12.870  1.00  0.00     0.131 A 
ATOM     78  C   UNL     1       4.069  -9.684  14.811  1.00  0.00     0.055 A 
ATOM     79  C   UNL     1       5.127  -9.362  12.677  1.00  0.00     0.041 A 
ATOM     80  F   UNL     1       5.564  -7.190  11.913  1.00  0.00    -0.206 F 
ATOM     81  C   UNL     1       4.646 -10.222  13.659  1.00  0.00     0.022 A 
BRANCH  78  82
ATOM     82  S   UNL     1       3.561 -10.777  16.166  1.00  0.00     0.124 S 
ATOM     83  O   UNL     1       4.387 -10.290  17.265  1.00  0.00    -0.237 OA
ATOM     84  O   UNL     1       2.132 -10.494  16.263  1.00  0.00    -0.237 OA
ATOM     85  O   UNL     1       3.898 -12.110  15.673  1.00  0.00    -0.744 OA
ENDBRANCH  78  82
ENDBRANCH  51  75
BRANCH  63  86
ATOM     86  C   UNL     1       7.297  -3.191  18.785  1.00  0.00     0.023 A 
ATOM     87  C   UNL     1       8.576  -3.771  18.735  1.00  0.00     0.031 A 
ATOM     88  C   UNL     1       6.763  -2.876  20.048  1.00  0.00     0.131 A 
ATOM     89  C   UNL     1       9.254  -4.074  19.927  1.00  0.00     0.055 A 
ATOM     90  C   UNL     1       7.471  -3.117  21.227  1.00  0.00     0.041 A 
ATOM     91  F   UNL     1       5.544  -2.325  20.158  1.00  0.00    -0.206 F 
ATOM     92  C   UNL     1       8.717  -3.733  21.171  1.00  0.00     0.022 A 
BRANCH  89  93
ATOM     93  S   UNL     1      10.802  -5.014  19.833  1.00  0.00     0.124 S 
ATOM     94  O   UNL     1      10.379  -6.226  19.140  1.00  0.00    -0.237 OA
ATOM     95  O   UNL     1      11.668  -4.116  19.077  1.00  0.00    -0.237 OA
ATOM     96  O   UNL     1      11.175  -5.200  21.235  1.00  0.00    -0.744 OA
ENDBRANCH  89  93
ENDBRANCH  63  86
ENDBRANCH  37  38
ENDBRANCH  29  32
ENDBRANCH  27  28
ENDBRANCH  26  27
ENDBRANCH   1  26
TORSDOF 18
