REMARK SMILES CC(C)CSc1cc2c(cc1Cl)C=C(C(=O)NCCCCNC(=O)c1ccc(-c3c4nc(c(-c5cc(S(=O)(=O)[O-])ccc5F)c5ccc([nH]5)c(-c5cc(S(=O)(=O)[O-])ccc5F)c5nc(c(-c6cc(S(=O)(=O)[O-])ccc6F)c6ccc3[nH]6)C=C5)C=C4)cc1)[C@H](C(F)(F)F)O2
REMARK SMILES IDX 19 1 18 2 17 3 15 4 16 5 14 7 6 8 7 9 11 10 8 11 10 12 12 13
REMARK SMILES IDX 9 14 93 15 13 16 88 17 5 18 4 19 2 20 1 21 3 22 89 23 90 24
REMARK SMILES IDX 91 25 92 26 20 27 21 28 22 29 23 30 24 32 25 33 26 34 87 35
REMARK SMILES IDX 27 36 86 37 28 38 29 39 30 40 80 41 31 42 85 43 79 44 81 45
REMARK SMILES IDX 32 46 84 47 78 48 77 49 33 51 65 52 45 53 64 54 46 55 49 56
REMARK SMILES IDX 63 57 82 58 47 59 48 60 62 62 83 63 50 64 34 65 35 66 43 67
REMARK SMILES IDX 36 68 42 69 44 70 41 71 37 72 38 73 39 74 40 75 66 76 67 77
REMARK SMILES IDX 75 78 68 79 74 80 76 81 73 82 69 83 70 84 71 85 72 86 51 87
REMARK SMILES IDX 52 88 60 89 53 90 59 91 61 92 58 93 54 94 55 95 56 96 57 97
REMARK H PARENT 17 6 22 31 81 50 49 61
REMARK Flexibility Score: inf
ROOT
ATOM      1  C   UNL     1      -0.003   6.792  -5.062  1.00  0.00     0.023 C 
ENDROOT
BRANCH   1   2
ATOM      2  C   UNL     1      -0.951   5.882  -5.841  1.00  0.00     0.116 C 
BRANCH   2   3
ATOM      3  N   UNL     1      -0.237   4.812  -6.512  1.00  0.00    -0.352 N 
ATOM      4  C   UNL     1      -0.007   3.497  -6.298  1.00  0.00     0.251 C 
ATOM      5  O   UNL     1       0.611   2.916  -7.197  1.00  0.00    -0.270 OA
ATOM      6  H   UNL     1       0.194   5.126  -7.340  1.00  0.00     0.163 HD
BRANCH   4   7
ATOM      7  C   UNL     1      -0.428   2.727  -5.090  1.00  0.00     0.067 C 
ATOM      8  C   UNL     1      -1.159  -0.972  -1.740  1.00  0.00     0.030 A 
ATOM      9  C   UNL     1      -1.554   0.370  -1.818  1.00  0.00     0.063 A 
ATOM     10  C   UNL     1      -0.535  -1.553  -2.861  1.00  0.00     0.055 A 
ATOM     11  C   UNL     1      -1.246   1.132  -2.943  1.00  0.00     0.129 A 
ATOM     12  C   UNL     1      -0.269  -0.791  -4.007  1.00  0.00     0.033 A 
ATOM     13  Cl  UNL     1      -0.036  -3.212  -2.894  1.00  0.00    -0.083 Cl
ATOM     14  C   UNL     1      -0.610   0.561  -4.042  1.00  0.00     0.019 A 
ATOM     15  O   UNL     1      -1.613   2.449  -2.916  1.00  0.00    -0.475 OA
ATOM     16  C   UNL     1      -0.329   1.388  -5.206  1.00  0.00     0.025 C 
ATOM     17  C   UNL     1      -0.826   3.333  -3.771  1.00  0.00     0.314 C 
BRANCH   8  18
ATOM     18  S   UNL     1      -1.466  -1.896  -0.234  1.00  0.00    -0.124 SA
BRANCH  18  19
ATOM     19  C   UNL     1      -0.837  -0.768   1.070  1.00  0.00     0.078 C 
BRANCH  19  20
ATOM     20  C   UNL     1       0.693  -0.750   1.245  1.00  0.00    -0.007 C 
ATOM     21  C   UNL     1       1.426   0.010   0.138  1.00  0.00     0.008 C 
ATOM     22  C   UNL     1       1.034  -0.104   2.594  1.00  0.00     0.008 C 
ENDBRANCH  19  20
ENDBRANCH  18  19
ENDBRANCH   8  18
BRANCH  17  23
ATOM     23  C   UNL     1       0.354   3.922  -2.977  1.00  0.00     0.429 C 
ATOM     24  F   UNL     1       0.806   3.083  -2.016  1.00  0.00    -0.167 F 
ATOM     25  F   UNL     1       1.413   4.226  -3.760  1.00  0.00    -0.167 F 
ATOM     26  F   UNL     1      -0.025   5.069  -2.358  1.00  0.00    -0.167 F 
ENDBRANCH  17  23
ENDBRANCH   4   7
ENDBRANCH   2   3
ENDBRANCH   1   2
BRANCH   1  27
ATOM     27  C   UNL     1       0.632   7.905  -5.897  1.00  0.00     0.023 C 
BRANCH  27  28
ATOM     28  C   UNL     1      -0.349   8.906  -6.494  1.00  0.00     0.116 C 
BRANCH  28  29
ATOM     29  N   UNL     1      -1.218   9.546  -5.516  1.00  0.00    -0.352 N 
ATOM     30  C   UNL     1      -1.792  10.801  -5.594  1.00  0.00     0.251 C 
ATOM     31  H   UNL     1      -1.421   9.024  -4.705  1.00  0.00     0.163 HD
ATOM     32  O   UNL     1      -2.465  11.245  -4.684  1.00  0.00    -0.269 OA
BRANCH  30  33
ATOM     33  C   UNL     1      -1.499  11.604  -6.801  1.00  0.00     0.039 A 
ATOM     34  C   UNL     1      -1.759  11.070  -8.064  1.00  0.00     0.014 A 
ATOM     35  C   UNL     1      -0.796  12.801  -6.655  1.00  0.00     0.014 A 
ATOM     36  C   UNL     1      -1.145  11.635  -9.174  1.00  0.00     0.010 A 
ATOM     37  C   UNL     1      -0.248  13.409  -7.785  1.00  0.00     0.010 A 
ATOM     38  C   UNL     1      -0.359  12.792  -9.041  1.00  0.00    -0.014 A 
BRANCH  38  39
ATOM     39  C   UNL     1       0.386  13.308 -10.217  1.00  0.00     0.031 A 
ATOM     40  C   UNL     1       1.892  13.280 -10.241  1.00  0.00     0.074 A 
ATOM     41  C   UNL     1      -0.300  13.740 -11.291  1.00  0.00     0.049 A 
ATOM     42  N   UNL     1       2.707  13.691 -11.177  1.00  0.00    -0.248 NA
ATOM     43  C   UNL     1       2.573  12.715  -9.063  1.00  0.00     0.031 C 
ATOM     44  C   UNL     1      -1.759  13.776 -11.386  1.00  0.00     0.029 A 
ATOM     45  N   UNL     1       0.127  14.203 -12.509  1.00  0.00    -0.354 N 
ATOM     46  C   UNL     1       3.991  13.461 -10.696  1.00  0.00     0.074 A 
ATOM     47  C   UNL     1       3.850  12.894  -9.373  1.00  0.00     0.031 C 
ATOM     48  C   UNL     1      -2.107  14.181 -12.615  1.00  0.00     0.029 A 
ATOM     49  C   UNL     1      -0.900  14.509 -13.370  1.00  0.00     0.049 A 
ATOM     50  H   UNL     1       1.078  14.305 -12.744  1.00  0.00     0.167 HD
ATOM     51  C   UNL     1       5.177  13.693 -11.308  1.00  0.00     0.034 A 
ATOM     52  C   UNL     1      -0.878  15.013 -14.621  1.00  0.00     0.034 A 
ATOM     53  C   UNL     1       5.301  14.231 -12.638  1.00  0.00     0.049 A 
ATOM     54  C   UNL     1       0.453  15.296 -15.265  1.00  0.00     0.074 A 
ATOM     55  C   UNL     1       6.458  14.493 -13.350  1.00  0.00     0.029 A 
ATOM     56  N   UNL     1       4.239  14.576 -13.461  1.00  0.00    -0.354 N 
ATOM     57  N   UNL     1       1.657  15.073 -14.795  1.00  0.00    -0.248 NA
ATOM     58  C   UNL     1       0.434  15.908 -16.600  1.00  0.00     0.031 C 
ATOM     59  C   UNL     1       6.098  15.032 -14.585  1.00  0.00     0.029 A 
ATOM     60  C   UNL     1       4.714  15.063 -14.666  1.00  0.00     0.049 A 
ATOM     61  H   UNL     1       3.287  14.487 -13.223  1.00  0.00     0.167 HD
ATOM     62  C   UNL     1       2.539  15.509 -15.778  1.00  0.00     0.074 A 
ATOM     63  C   UNL     1       1.730  15.983 -16.881  1.00  0.00     0.031 C 
ATOM     64  C   UNL     1       3.896  15.524 -15.762  1.00  0.00     0.034 A 
BRANCH  51  65
ATOM     65  C   UNL     1       6.447  13.366 -10.566  1.00  0.00     0.023 A 
ATOM     66  C   UNL     1       7.324  14.397 -10.180  1.00  0.00     0.031 A 
ATOM     67  C   UNL     1       6.845  12.035 -10.348  1.00  0.00     0.131 A 
ATOM     68  C   UNL     1       8.566  14.079  -9.617  1.00  0.00     0.055 A 
ATOM     69  C   UNL     1       8.073  11.725  -9.761  1.00  0.00     0.041 A 
ATOM     70  F   UNL     1       6.040  11.018 -10.695  1.00  0.00    -0.206 F 
ATOM     71  C   UNL     1       8.944  12.749  -9.403  1.00  0.00     0.022 A 
BRANCH  68  72
ATOM     72  S   UNL     1       9.762  15.374  -9.186  1.00  0.00     0.124 S 
ATOM     73  O   UNL     1       9.922  15.165  -7.749  1.00  0.00    -0.237 OA
ATOM     74  O   UNL     1      10.916  15.009 -10.003  1.00  0.00    -0.237 OA
ATOM     75  O   UNL     1       9.089  16.612  -9.562  1.00  0.00    -0.744 OA
ENDBRANCH  68  72
ENDBRANCH  51  65
BRANCH  52  76
ATOM     76  C   UNL     1      -2.170  15.235 -15.331  1.00  0.00     0.023 A 
ATOM     77  C   UNL     1      -3.133  16.122 -14.815  1.00  0.00     0.031 A 
ATOM     78  C   UNL     1      -2.513  14.464 -16.453  1.00  0.00     0.131 A 
ATOM     79  C   UNL     1      -4.420  16.149 -15.366  1.00  0.00     0.055 A 
ATOM     80  C   UNL     1      -3.774  14.550 -17.045  1.00  0.00     0.041 A 
ATOM     81  F   UNL     1      -1.630  13.598 -16.973  1.00  0.00    -0.206 F 
ATOM     82  C   UNL     1      -4.742  15.379 -16.487  1.00  0.00     0.022 A 
BRANCH  79  83
ATOM     83  S   UNL     1      -5.759  17.059 -14.545  1.00  0.00     0.124 S 
ATOM     84  O   UNL     1      -6.097  18.068 -15.543  1.00  0.00    -0.237 OA
ATOM     85  O   UNL     1      -6.756  16.009 -14.344  1.00  0.00    -0.237 OA
ATOM     86  O   UNL     1      -5.136  17.559 -13.324  1.00  0.00    -0.744 OA
ENDBRANCH  79  83
ENDBRANCH  52  76
BRANCH  64  87
ATOM     87  C   UNL     1       4.620  16.076 -16.962  1.00  0.00     0.023 A 
ATOM     88  C   UNL     1       5.414  15.229 -17.758  1.00  0.00     0.031 A 
ATOM     89  C   UNL     1       4.646  17.457 -17.219  1.00  0.00     0.131 A 
ATOM     90  C   UNL     1       6.234  15.779 -18.750  1.00  0.00     0.055 A 
ATOM     91  C   UNL     1       5.437  17.996 -18.234  1.00  0.00     0.041 A 
ATOM     92  F   UNL     1       3.910  18.301 -16.478  1.00  0.00    -0.206 F 
ATOM     93  C   UNL     1       6.246  17.157 -18.996  1.00  0.00     0.022 A 
BRANCH  90  94
ATOM     94  S   UNL     1       7.370  14.739 -19.708  1.00  0.00     0.124 S 
ATOM     95  O   UNL     1       6.920  14.982 -21.077  1.00  0.00    -0.237 OA
ATOM     96  O   UNL     1       8.670  15.311 -19.369  1.00  0.00    -0.237 OA
ATOM     97  O   UNL     1       7.125  13.392 -19.204  1.00  0.00    -0.744 OA
ENDBRANCH  90  94
ENDBRANCH  64  87
ENDBRANCH  38  39
ENDBRANCH  30  33
ENDBRANCH  28  29
ENDBRANCH  27  28
ENDBRANCH   1  27
TORSDOF 18
