REMARK SMILES Cc1c(NC(=O)c2ccc(Br)cc2N)cccc1C(=O)NCCCCNC(=O)c1ccc(-c2c3nc(c(-c4cc(S(=O)(=O)[O-])ccc4F)c4ccc([nH]4)c(-c4cc(S(=O)(=O)[O-])ccc4F)c4nc(c(-c5cc(S(=O)(=O)[O-])ccc5F)c5ccc2[nH]5)C=C4)C=C3)cc1
REMARK SMILES IDX 23 1 22 2 21 3 19 4 20 5 18 7 1 8 2 9 3 10 15 11 17 12 16 13
REMARK SMILES IDX 4 14 5 15 6 17 7 18 8 19 13 20 9 21 12 22 10 23 11 24 14 25
REMARK SMILES IDX 24 28 25 29 26 30 27 31 28 33 29 34 30 35 91 36 31 37 90 38
REMARK SMILES IDX 32 39 33 40 34 41 84 42 35 43 89 44 83 45 85 46 36 47 88 48
REMARK SMILES IDX 82 49 81 50 37 52 69 53 49 54 68 55 50 56 53 57 67 58 86 59
REMARK SMILES IDX 51 60 52 61 66 63 87 64 54 65 38 66 39 67 47 68 40 69 46 70
REMARK SMILES IDX 48 71 45 72 41 73 42 74 43 75 44 76 70 77 71 78 79 79 72 80
REMARK SMILES IDX 78 81 80 82 77 83 73 84 74 85 75 86 76 87 55 88 56 89 64 90
REMARK SMILES IDX 57 91 63 92 65 93 62 94 58 95 59 96 60 97 61 98
REMARK H PARENT 21 6 4 16 14 26 14 27 26 32 85 51 53 62
REMARK Flexibility Score: inf
ROOT
ATOM      1  C   UNL     1       4.229   1.267  -1.185  1.00  0.00     0.023 C 
ENDROOT
BRANCH   1   2
ATOM      2  C   UNL     1       3.499   1.788   0.070  1.00  0.00     0.116 C 
BRANCH   2   3
ATOM      3  N   UNL     1       2.265   2.458  -0.305  1.00  0.00    -0.352 N 
ATOM      4  C   UNL     1       0.944   2.111  -0.375  1.00  0.00     0.251 C 
ATOM      5  O   UNL     1       0.206   3.000  -0.823  1.00  0.00    -0.269 OA
ATOM      6  H   UNL     1       2.418   3.393  -0.574  1.00  0.00     0.163 HD
BRANCH   4   7
ATOM      7  C   UNL     1       0.287   0.825   0.060  1.00  0.00     0.044 A 
ATOM      8  C   UNL     1       2.070  -0.882  -0.644  1.00  0.00     0.047 C 
ATOM      9  C   UNL     1       0.755  -0.508  -0.027  1.00  0.00    -0.015 A 
ATOM     10  C   UNL     1      -0.118  -1.581   0.311  1.00  0.00     0.045 A 
ATOM     11  C   UNL     1      -1.448  -1.351   0.663  1.00  0.00     0.026 A 
ATOM     12  C   UNL     1      -1.061   1.015   0.455  1.00  0.00     0.014 A 
ATOM     13  C   UNL     1      -1.920  -0.049   0.736  1.00  0.00     0.003 A 
BRANCH  10  14
ATOM     14  N   UNL     1       0.394  -2.892   0.279  1.00  0.00    -0.322 N 
ATOM     15  C   UNL     1      -0.155  -4.064  -0.183  1.00  0.00     0.257 C 
ATOM     16  H   UNL     1       1.300  -2.985   0.652  1.00  0.00     0.170 HD
ATOM     17  O   UNL     1       0.355  -5.139   0.136  1.00  0.00    -0.269 OA
BRANCH  15  18
ATOM     18  C   UNL     1      -1.311  -4.091  -1.121  1.00  0.00     0.063 A 
ATOM     19  C   UNL     1      -2.221  -5.142  -0.905  1.00  0.00     0.017 A 
ATOM     20  C   UNL     1      -1.486  -3.226  -2.224  1.00  0.00     0.045 A 
ATOM     21  C   UNL     1      -3.318  -5.323  -1.745  1.00  0.00     0.016 A 
ATOM     22  C   UNL     1      -2.611  -3.412  -3.044  1.00  0.00     0.042 A 
ATOM     23  C   UNL     1      -3.515  -4.446  -2.804  1.00  0.00     0.020 A 
ATOM     24  Br  UNL     1      -4.989  -4.691  -3.962  1.00  0.00    -0.051 Br
BRANCH  20  25
ATOM     25  N   UNL     1      -0.529  -2.318  -2.664  1.00  0.00    -0.398 N 
ATOM     26  H   UNL     1       0.278  -2.153  -2.124  1.00  0.00     0.156 HD
ATOM     27  H   UNL     1      -0.658  -1.841  -3.515  1.00  0.00     0.156 HD
ENDBRANCH  20  25
ENDBRANCH  15  18
ENDBRANCH  10  14
ENDBRANCH   4   7
ENDBRANCH   2   3
ENDBRANCH   1   2
BRANCH   1  28
ATOM     28  C   UNL     1       5.086   2.295  -1.915  1.00  0.00     0.023 C 
BRANCH  28  29
ATOM     29  C   UNL     1       6.425   2.513  -1.238  1.00  0.00     0.116 C 
BRANCH  29  30
ATOM     30  N   UNL     1       7.545   1.784  -1.825  1.00  0.00    -0.352 N 
ATOM     31  C   UNL     1       8.863   1.766  -1.396  1.00  0.00     0.251 C 
ATOM     32  H   UNL     1       7.341   1.241  -2.621  1.00  0.00     0.163 HD
ATOM     33  O   UNL     1       9.748   1.211  -2.043  1.00  0.00    -0.269 OA
BRANCH  31  34
ATOM     34  C   UNL     1       9.168   2.333  -0.061  1.00  0.00     0.039 A 
ATOM     35  C   UNL     1       9.702   1.463   0.896  1.00  0.00     0.014 A 
ATOM     36  C   UNL     1       8.626   3.557   0.316  1.00  0.00     0.014 A 
ATOM     37  C   UNL     1       9.446   1.702   2.243  1.00  0.00     0.010 A 
ATOM     38  C   UNL     1       8.253   3.721   1.635  1.00  0.00     0.010 A 
ATOM     39  C   UNL     1       8.605   2.759   2.591  1.00  0.00    -0.014 A 
BRANCH  39  40
ATOM     40  C   UNL     1       7.911   2.827   3.876  1.00  0.00     0.031 A 
ATOM     41  C   UNL     1       8.174   3.926   4.827  1.00  0.00     0.074 A 
ATOM     42  C   UNL     1       6.967   1.907   4.181  1.00  0.00     0.049 A 
ATOM     43  N   UNL     1       7.969   3.857   6.100  1.00  0.00    -0.248 NA
ATOM     44  C   UNL     1       8.751   5.198   4.414  1.00  0.00     0.031 C 
ATOM     45  C   UNL     1       5.999   1.956   5.273  1.00  0.00     0.029 A 
ATOM     46  N   UNL     1       6.866   0.608   3.691  1.00  0.00    -0.354 N 
ATOM     47  C   UNL     1       8.074   5.130   6.613  1.00  0.00     0.074 A 
ATOM     48  C   UNL     1       8.650   5.905   5.541  1.00  0.00     0.031 C 
ATOM     49  C   UNL     1       5.592   0.708   5.549  1.00  0.00     0.029 A 
ATOM     50  C   UNL     1       6.377  -0.199   4.732  1.00  0.00     0.049 A 
ATOM     51  H   UNL     1       7.095   0.309   2.781  1.00  0.00     0.167 HD
ATOM     52  C   UNL     1       7.520   5.408   7.830  1.00  0.00     0.034 A 
ATOM     53  C   UNL     1       7.101  -1.257   5.199  1.00  0.00     0.034 A 
ATOM     54  C   UNL     1       7.018   4.193   8.482  1.00  0.00     0.049 A 
ATOM     55  C   UNL     1       7.499  -1.125   6.652  1.00  0.00     0.074 A 
ATOM     56  C   UNL     1       5.746   3.674   8.667  1.00  0.00     0.029 A 
ATOM     57  N   UNL     1       7.906   3.176   8.825  1.00  0.00    -0.354 N 
ATOM     58  N   UNL     1       7.393  -0.022   7.343  1.00  0.00    -0.248 NA
ATOM     59  C   UNL     1       8.067  -2.216   7.439  1.00  0.00     0.031 C 
ATOM     60  C   UNL     1       5.877   2.314   9.057  1.00  0.00     0.029 A 
ATOM     61  C   UNL     1       7.226   2.015   9.140  1.00  0.00     0.049 A 
ATOM     62  H   UNL     1       8.885   3.272   8.841  1.00  0.00     0.167 HD
ATOM     63  C   UNL     1       7.887  -0.215   8.608  1.00  0.00     0.074 A 
ATOM     64  C   UNL     1       8.266  -1.617   8.627  1.00  0.00     0.031 C 
ATOM     65  C   UNL     1       7.951   0.805   9.519  1.00  0.00     0.034 A 
BRANCH  52  66
ATOM     66  C   UNL     1       7.136   6.810   8.282  1.00  0.00     0.023 A 
ATOM     67  C   UNL     1       6.069   6.971   9.195  1.00  0.00     0.031 A 
ATOM     68  C   UNL     1       7.700   8.014   7.819  1.00  0.00     0.131 A 
ATOM     69  C   UNL     1       5.539   8.241   9.499  1.00  0.00     0.055 A 
ATOM     70  C   UNL     1       7.138   9.274   8.071  1.00  0.00     0.041 A 
ATOM     71  F   UNL     1       8.862   8.044   7.157  1.00  0.00    -0.206 F 
ATOM     72  C   UNL     1       6.038   9.392   8.902  1.00  0.00     0.022 A 
BRANCH  69  73
ATOM     73  S   UNL     1       4.179   8.370  10.693  1.00  0.00     0.124 S 
ATOM     74  O   UNL     1       3.142   7.554  10.072  1.00  0.00    -0.237 OA
ATOM     75  O   UNL     1       4.785   7.835  11.907  1.00  0.00    -0.237 OA
ATOM     76  O   UNL     1       3.895   9.805  10.729  1.00  0.00    -0.744 OA
ENDBRANCH  69  73
ENDBRANCH  52  66
BRANCH  53  77
ATOM     77  C   UNL     1       7.877  -1.943   4.127  1.00  0.00     0.023 A 
ATOM     78  C   UNL     1       7.133  -2.450   3.038  1.00  0.00     0.031 A 
ATOM     79  C   UNL     1       9.251  -1.743   3.946  1.00  0.00     0.131 A 
ATOM     80  C   UNL     1       7.719  -2.565   1.772  1.00  0.00     0.055 A 
ATOM     81  C   UNL     1       9.853  -1.937   2.695  1.00  0.00     0.041 A 
ATOM     82  F   UNL     1      10.003  -1.227   4.930  1.00  0.00    -0.206 F 
ATOM     83  C   UNL     1       9.078  -2.303   1.590  1.00  0.00     0.022 A 
BRANCH  80  84
ATOM     84  S   UNL     1       6.629  -2.771   0.328  1.00  0.00     0.124 S 
ATOM     85  O   UNL     1       6.560  -4.222   0.205  1.00  0.00    -0.237 OA
ATOM     86  O   UNL     1       5.394  -2.107   0.747  1.00  0.00    -0.237 OA
ATOM     87  O   UNL     1       7.345  -2.076  -0.738  1.00  0.00    -0.744 OA
ENDBRANCH  80  84
ENDBRANCH  53  77
BRANCH  65  88
ATOM     88  C   UNL     1       8.626   0.750  10.877  1.00  0.00     0.023 A 
ATOM     89  C   UNL     1       9.571  -0.221  11.240  1.00  0.00     0.031 A 
ATOM     90  C   UNL     1       8.380   1.753  11.849  1.00  0.00     0.131 A 
ATOM     91  C   UNL     1      10.157  -0.227  12.521  1.00  0.00     0.055 A 
ATOM     92  C   UNL     1       9.022   1.790  13.091  1.00  0.00     0.041 A 
ATOM     93  F   UNL     1       7.507   2.748  11.634  1.00  0.00    -0.206 F 
ATOM     94  C   UNL     1       9.907   0.785  13.442  1.00  0.00     0.022 A 
BRANCH  91  95
ATOM     95  S   UNL     1      11.210  -1.630  12.980  1.00  0.00     0.124 S 
ATOM     96  O   UNL     1      10.274  -2.748  12.897  1.00  0.00    -0.237 OA
ATOM     97  O   UNL     1      12.246  -1.594  11.953  1.00  0.00    -0.237 OA
ATOM     98  O   UNL     1      11.661  -1.298  14.330  1.00  0.00    -0.744 OA
ENDBRANCH  91  95
ENDBRANCH  65  88
ENDBRANCH  39  40
ENDBRANCH  31  34
ENDBRANCH  29  30
ENDBRANCH  28  29
ENDBRANCH   1  28
TORSDOF 17
