REMARK SMILES O=C(NCCCCNC(=O)c1ccc([C@@H]2CC(O)=Nc3c2ncn3-c2cccc(Cl)c2)cc1)c1ccc(-c2c3nc(c(-c4cc(S(=O)(=O)[O-])ccc4F)c4ccc([nH]4)c(-c4cc(S(=O)(=O)[O-])ccc4F)c4nc(c(-c5cc(S(=O)(=O)[O-])ccc5F)c5ccc2[nH]5)C=C4)C=C3)cc1
REMARK SMILES IDX 5 1 4 2 3 3 1 4 2 5 34 7 35 8 96 9 36 10 95 11 37 12 38 13
REMARK SMILES IDX 39 14 89 15 40 16 94 17 88 18 90 19 41 20 93 21 87 22 86 23
REMARK SMILES IDX 42 25 74 26 54 27 73 28 55 29 58 30 72 31 91 32 56 33 57 34
REMARK SMILES IDX 71 36 92 37 59 38 43 39 44 40 52 41 45 42 51 43 53 44 50 45
REMARK SMILES IDX 46 46 47 47 48 48 49 49 75 50 76 51 84 52 77 53 83 54 85 55
REMARK SMILES IDX 82 56 78 57 79 58 80 59 81 60 60 61 61 62 69 63 62 64 68 65
REMARK SMILES IDX 70 66 67 67 63 68 64 69 65 70 66 71 6 72 7 73 8 74 9 75
REMARK SMILES IDX 10 77 11 78 12 79 33 80 13 81 32 82 14 83 15 84 16 85 21 86
REMARK SMILES IDX 17 87 20 88 22 89 19 90 24 91 23 92 18 93 25 95 26 96 31 97
REMARK SMILES IDX 27 98 29 99 28 100 30 101
REMARK H PARENT 3 6 90 24 58 35 8 76 18 94
REMARK Flexibility Score: inf
ROOT
ATOM      1  C   UNL     1       5.048  -0.468   2.124  1.00  0.00     0.023 C 
ENDROOT
BRANCH   1   2
ATOM      2  C   UNL     1       4.799  -0.817   0.659  1.00  0.00     0.116 C 
BRANCH   2   3
ATOM      3  N   UNL     1       3.415  -1.042   0.299  1.00  0.00    -0.352 N 
ATOM      4  O   UNL     1       1.360  -0.781  -0.467  1.00  0.00    -0.269 OA
ATOM      5  C   UNL     1       2.362  -0.224  -0.008  1.00  0.00     0.251 C 
ATOM      6  H   UNL     1       3.178  -1.998   0.270  1.00  0.00     0.163 HD
BRANCH   5   7
ATOM      7  C   UNL     1       2.319   1.243   0.240  1.00  0.00     0.039 A 
ATOM      8  C   UNL     1       3.426   2.075   0.416  1.00  0.00     0.014 A 
ATOM      9  C   UNL     1       1.033   1.811   0.310  1.00  0.00     0.014 A 
ATOM     10  C   UNL     1       3.251   3.419   0.748  1.00  0.00     0.010 A 
ATOM     11  C   UNL     1       0.854   3.153   0.626  1.00  0.00     0.010 A 
ATOM     12  C   UNL     1       1.965   3.952   0.877  1.00  0.00    -0.014 A 
BRANCH  12  13
ATOM     13  C   UNL     1       1.820   5.394   1.087  1.00  0.00     0.031 A 
ATOM     14  C   UNL     1       2.264   6.232  -0.065  1.00  0.00     0.074 A 
ATOM     15  C   UNL     1       1.181   5.946   2.140  1.00  0.00     0.049 A 
ATOM     16  N   UNL     1       3.202   7.120  -0.095  1.00  0.00    -0.248 NA
ATOM     17  C   UNL     1       1.663   5.962  -1.382  1.00  0.00     0.031 C 
ATOM     18  C   UNL     1       0.445   5.256   3.201  1.00  0.00     0.029 A 
ATOM     19  N   UNL     1       0.960   7.265   2.424  1.00  0.00    -0.354 N 
ATOM     20  C   UNL     1       3.175   7.673  -1.375  1.00  0.00     0.074 A 
ATOM     21  C   UNL     1       2.331   6.813  -2.161  1.00  0.00     0.031 C 
ATOM     22  C   UNL     1      -0.321   6.151   3.868  1.00  0.00     0.029 A 
ATOM     23  C   UNL     1      -0.040   7.488   3.368  1.00  0.00     0.049 A 
ATOM     24  H   UNL     1       1.464   7.994   1.997  1.00  0.00     0.167 HD
ATOM     25  C   UNL     1       3.686   8.910  -1.634  1.00  0.00     0.034 A 
ATOM     26  C   UNL     1      -0.646   8.671   3.672  1.00  0.00     0.034 A 
ATOM     27  C   UNL     1       4.570   9.341  -0.578  1.00  0.00     0.049 A 
ATOM     28  C   UNL     1       0.265   9.755   3.229  1.00  0.00     0.074 A 
ATOM     29  C   UNL     1       5.739   8.849  -0.029  1.00  0.00     0.029 A 
ATOM     30  N   UNL     1       4.101  10.266   0.326  1.00  0.00    -0.354 N 
ATOM     31  N   UNL     1       1.431   9.978   3.768  1.00  0.00    -0.248 NA
ATOM     32  C   UNL     1       0.093  10.288   1.885  1.00  0.00     0.031 C 
ATOM     33  C   UNL     1       5.620   9.107   1.368  1.00  0.00     0.029 A 
ATOM     34  C   UNL     1       4.429   9.805   1.576  1.00  0.00     0.049 A 
ATOM     35  H   UNL     1       3.623  11.101   0.116  1.00  0.00     0.167 HD
ATOM     36  C   UNL     1       2.267  10.271   2.703  1.00  0.00     0.074 A 
ATOM     37  C   UNL     1       1.369  10.544   1.582  1.00  0.00     0.031 C 
ATOM     38  C   UNL     1       3.604   9.994   2.752  1.00  0.00     0.034 A 
BRANCH  25  39
ATOM     39  C   UNL     1       3.139   9.885  -2.655  1.00  0.00     0.023 A 
ATOM     40  C   UNL     1       3.800  11.123  -2.787  1.00  0.00     0.031 A 
ATOM     41  C   UNL     1       1.866   9.803  -3.263  1.00  0.00     0.131 A 
ATOM     42  C   UNL     1       3.163  12.226  -3.381  1.00  0.00     0.055 A 
ATOM     43  C   UNL     1       1.266  10.883  -3.918  1.00  0.00     0.041 A 
ATOM     44  F   UNL     1       1.091   8.716  -3.175  1.00  0.00    -0.206 F 
ATOM     45  C   UNL     1       1.898  12.114  -3.949  1.00  0.00     0.022 A 
BRANCH  42  46
ATOM     46  S   UNL     1       3.938  13.856  -3.221  1.00  0.00     0.124 S 
ATOM     47  O   UNL     1       4.115  13.955  -1.776  1.00  0.00    -0.237 OA
ATOM     48  O   UNL     1       5.153  13.690  -4.010  1.00  0.00    -0.237 OA
ATOM     49  O   UNL     1       2.943  14.761  -3.791  1.00  0.00    -0.744 OA
ENDBRANCH  42  46
ENDBRANCH  25  39
BRANCH  26  50
ATOM     50  C   UNL     1      -2.084   8.896   4.008  1.00  0.00     0.023 A 
ATOM     51  C   UNL     1      -2.561  10.064   4.645  1.00  0.00     0.031 A 
ATOM     52  C   UNL     1      -3.062   8.030   3.468  1.00  0.00     0.131 A 
ATOM     53  C   UNL     1      -3.955  10.317   4.725  1.00  0.00     0.055 A 
ATOM     54  C   UNL     1      -4.433   8.282   3.554  1.00  0.00     0.041 A 
ATOM     55  F   UNL     1      -2.716   6.946   2.756  1.00  0.00    -0.206 F 
ATOM     56  C   UNL     1      -4.886   9.432   4.176  1.00  0.00     0.022 A 
BRANCH  53  57
ATOM     57  S   UNL     1      -4.587  11.858   5.471  1.00  0.00     0.124 S 
ATOM     58  O   UNL     1      -4.259  11.681   6.880  1.00  0.00    -0.237 OA
ATOM     59  O   UNL     1      -3.838  12.885   4.753  1.00  0.00    -0.237 OA
ATOM     60  O   UNL     1      -6.018  11.825   5.165  1.00  0.00    -0.744 OA
ENDBRANCH  53  57
ENDBRANCH  26  50
BRANCH  38  61
ATOM     61  C   UNL     1       4.226   9.642   4.087  1.00  0.00     0.023 A 
ATOM     62  C   UNL     1       3.816   8.572   4.915  1.00  0.00     0.031 A 
ATOM     63  C   UNL     1       5.377  10.356   4.467  1.00  0.00     0.131 A 
ATOM     64  C   UNL     1       4.547   8.263   6.079  1.00  0.00     0.055 A 
ATOM     65  C   UNL     1       6.111  10.032   5.606  1.00  0.00     0.041 A 
ATOM     66  F   UNL     1       5.833  11.365   3.706  1.00  0.00    -0.206 F 
ATOM     67  C   UNL     1       5.695   8.987   6.421  1.00  0.00     0.022 A 
BRANCH  64  68
ATOM     68  S   UNL     1       4.014   6.914   7.183  1.00  0.00     0.124 S 
ATOM     69  O   UNL     1       2.591   7.167   7.370  1.00  0.00    -0.237 OA
ATOM     70  O   UNL     1       4.357   5.721   6.413  1.00  0.00    -0.237 OA
ATOM     71  O   UNL     1       4.830   7.115   8.383  1.00  0.00    -0.744 OA
ENDBRANCH  64  68
ENDBRANCH  38  61
ENDBRANCH  12  13
ENDBRANCH   5   7
ENDBRANCH   2   3
ENDBRANCH   1   2
BRANCH   1  72
ATOM     72  C   UNL     1       4.553  -1.496   3.145  1.00  0.00     0.023 C 
BRANCH  72  73
ATOM     73  C   UNL     1       4.979  -2.941   2.905  1.00  0.00     0.116 C 
BRANCH  73  74
ATOM     74  N   UNL     1       6.421  -3.124   2.901  1.00  0.00    -0.352 N 
ATOM     75  C   UNL     1       7.178  -4.071   3.550  1.00  0.00     0.251 C 
ATOM     76  H   UNL     1       6.928  -2.480   2.356  1.00  0.00     0.163 HD
ATOM     77  O   UNL     1       8.401  -4.030   3.503  1.00  0.00    -0.269 OA
BRANCH  75  78
ATOM     78  C   UNL     1       6.516  -5.144   4.324  1.00  0.00     0.039 A 
ATOM     79  C   UNL     1       6.938  -5.373   5.635  1.00  0.00     0.014 A 
ATOM     80  C   UNL     1       5.512  -5.935   3.760  1.00  0.00     0.014 A 
ATOM     81  C   UNL     1       6.313  -6.359   6.401  1.00  0.00     0.005 A 
ATOM     82  C   UNL     1       4.878  -6.908   4.532  1.00  0.00     0.005 A 
ATOM     83  C   UNL     1       5.269  -7.133   5.864  1.00  0.00    -0.038 A 
BRANCH  83  84
ATOM     84  C   UNL     1       4.621  -8.205   6.723  1.00  0.00     0.081 C 
ATOM     85  C   UNL     1       4.674  -9.601   6.064  1.00  0.00     0.111 C 
ATOM     86  C   UNL     1       3.224  -7.775   6.986  1.00  0.00     0.093 A 
ATOM     87  C   UNL     1       3.326 -10.264   5.832  1.00  0.00     0.188 C 
ATOM     88  C   UNL     1       2.158  -8.615   6.755  1.00  0.00     0.164 A 
ATOM     89  N   UNL     1       2.815  -6.561   7.465  1.00  0.00    -0.238 NA
ATOM     90  N   UNL     1       2.156  -9.843   6.184  1.00  0.00    -0.198 NA
ATOM     91  N   UNL     1       1.037  -7.888   7.114  1.00  0.00    -0.283 N 
ATOM     92  C   UNL     1       1.498  -6.639   7.478  1.00  0.00     0.206 A 
BRANCH  87  93
ATOM     93  O   UNL     1       3.408 -11.446   5.187  1.00  0.00    -0.496 OA
ATOM     94  H   UNL     1       4.243 -11.777   4.919  1.00  0.00     0.294 HD
ENDBRANCH  87  93
BRANCH  91  95
ATOM     95  C   UNL     1      -0.306  -8.332   7.121  1.00  0.00     0.050 A 
ATOM     96  C   UNL     1      -1.335  -7.475   6.715  1.00  0.00     0.027 A 
ATOM     97  C   UNL     1      -0.595  -9.639   7.535  1.00  0.00     0.047 A 
ATOM     98  C   UNL     1      -2.649  -7.948   6.680  1.00  0.00     0.004 A 
ATOM     99  C   UNL     1      -1.915 -10.081   7.544  1.00  0.00     0.043 A 
ATOM    100  C   UNL     1      -2.941  -9.247   7.102  1.00  0.00     0.020 A 
ATOM    101  Cl  UNL     1      -2.284 -11.660   8.120  1.00  0.00    -0.084 Cl
ENDBRANCH  91  95
ENDBRANCH  83  84
ENDBRANCH  75  78
ENDBRANCH  73  74
ENDBRANCH  72  73
ENDBRANCH   1  72
TORSDOF 17
