REMARK SMILES O=C(NCCCCNC(=O)c1ccc(S(=O)(=O)NC[C@H]2CCS(=O)(=O)C2)cc1)c1ccc(-c2c3nc(c(-c4cc(S(=O)(=O)[O-])ccc4F)c4ccc([nH]4)c(-c4cc(S(=O)(=O)[O-])ccc4F)c4nc(c(-c5cc(S(=O)(=O)[O-])ccc5F)c5ccc2[nH]5)C=C4)C=C3)cc1
REMARK SMILES IDX 6 1 5 2 4 3 3 4 1 5 2 6 29 8 30 9 91 10 31 11 90 12 32 13
REMARK SMILES IDX 33 14 34 15 84 16 35 17 89 18 83 19 85 20 36 21 88 22 82 23
REMARK SMILES IDX 81 24 37 26 69 27 49 28 68 29 50 30 53 31 67 32 86 33 51 34
REMARK SMILES IDX 52 35 66 37 87 38 54 39 38 40 39 41 47 42 40 43 46 44 48 45
REMARK SMILES IDX 45 46 41 47 42 48 43 49 44 50 70 51 71 52 79 53 72 54 78 55
REMARK SMILES IDX 80 56 77 57 73 58 74 59 75 60 76 61 55 62 56 63 64 64 57 65
REMARK SMILES IDX 63 66 65 67 62 68 58 69 59 70 60 71 61 72 7 73 8 74 9 75
REMARK SMILES IDX 10 77 11 78 12 79 28 80 13 81 27 82 14 83 15 84 16 85 17 86
REMARK SMILES IDX 18 87 19 89 20 90 21 91 26 92 22 93 23 94 24 95 25 96
REMARK H PARENT 3 7 85 25 53 36 8 76 18 88
REMARK Flexibility Score: inf
ROOT
ATOM      1  C   UNL     1       8.395 -15.137  -9.498  1.00  0.00     0.023 C 
ENDROOT
BRANCH   1   2
ATOM      2  C   UNL     1       8.292 -16.148 -10.635  1.00  0.00     0.023 C 
BRANCH   2   3
ATOM      3  C   UNL     1       6.991 -16.113 -11.425  1.00  0.00     0.116 C 
BRANCH   3   4
ATOM      4  N   UNL     1       6.732 -14.825 -12.052  1.00  0.00    -0.352 N 
ATOM      5  O   UNL     1       6.357 -13.384 -13.746  1.00  0.00    -0.269 OA
ATOM      6  C   UNL     1       6.438 -14.548 -13.367  1.00  0.00     0.251 C 
ATOM      7  H   UNL     1       6.774 -14.045 -11.453  1.00  0.00     0.163 HD
BRANCH   6   8
ATOM      8  C   UNL     1       6.251 -15.662 -14.321  1.00  0.00     0.039 A 
ATOM      9  C   UNL     1       5.438 -16.748 -13.989  1.00  0.00     0.014 A 
ATOM     10  C   UNL     1       6.923 -15.632 -15.545  1.00  0.00     0.014 A 
ATOM     11  C   UNL     1       5.419 -17.869 -14.810  1.00  0.00     0.010 A 
ATOM     12  C   UNL     1       6.833 -16.727 -16.410  1.00  0.00     0.010 A 
ATOM     13  C   UNL     1       6.109 -17.869 -16.034  1.00  0.00    -0.014 A 
BRANCH  13  14
ATOM     14  C   UNL     1       6.018 -19.058 -16.919  1.00  0.00     0.031 A 
ATOM     15  C   UNL     1       7.228 -19.898 -17.221  1.00  0.00     0.074 A 
ATOM     16  C   UNL     1       4.814 -19.394 -17.423  1.00  0.00     0.049 A 
ATOM     17  N   UNL     1       7.323 -20.970 -17.966  1.00  0.00    -0.248 NA
ATOM     18  C   UNL     1       8.499 -19.474 -16.616  1.00  0.00     0.031 C 
ATOM     19  C   UNL     1       3.572 -18.648 -17.198  1.00  0.00     0.029 A 
ATOM     20  N   UNL     1       4.429 -20.448 -18.209  1.00  0.00    -0.354 N 
ATOM     21  C   UNL     1       8.663 -21.342 -17.935  1.00  0.00     0.074 A 
ATOM     22  C   UNL     1       9.348 -20.359 -17.121  1.00  0.00     0.031 C 
ATOM     23  C   UNL     1       2.559 -19.292 -17.794  1.00  0.00     0.029 A 
ATOM     24  C   UNL     1       3.085 -20.455 -18.498  1.00  0.00     0.049 A 
ATOM     25  H   UNL     1       5.055 -21.135 -18.535  1.00  0.00     0.167 HD
ATOM     26  C   UNL     1       9.261 -22.407 -18.527  1.00  0.00     0.034 A 
ATOM     27  C   UNL     1       2.358 -21.289 -19.264  1.00  0.00     0.034 A 
ATOM     28  C   UNL     1       8.558 -23.380 -19.331  1.00  0.00     0.049 A 
ATOM     29  C   UNL     1       3.050 -22.443 -19.934  1.00  0.00     0.074 A 
ATOM     30  C   UNL     1       9.059 -24.514 -19.950  1.00  0.00     0.029 A 
ATOM     31  N   UNL     1       7.203 -23.331 -19.638  1.00  0.00    -0.354 N 
ATOM     32  N   UNL     1       4.317 -22.784 -19.886  1.00  0.00    -0.248 NA
ATOM     33  C   UNL     1       2.215 -23.322 -20.760  1.00  0.00     0.031 C 
ATOM     34  C   UNL     1       8.024 -25.113 -20.678  1.00  0.00     0.029 A 
ATOM     35  C   UNL     1       6.859 -24.394 -20.460  1.00  0.00     0.049 A 
ATOM     36  H   UNL     1       6.578 -22.641 -19.318  1.00  0.00     0.167 HD
ATOM     37  C   UNL     1       4.428 -23.928 -20.669  1.00  0.00     0.074 A 
ATOM     38  C   UNL     1       3.096 -24.229 -21.155  1.00  0.00     0.031 C 
ATOM     39  C   UNL     1       5.531 -24.664 -20.959  1.00  0.00     0.034 A 
BRANCH  26  40
ATOM     40  C   UNL     1      10.756 -22.547 -18.362  1.00  0.00     0.023 A 
ATOM     41  C   UNL     1      11.347 -22.788 -17.109  1.00  0.00     0.031 A 
ATOM     42  C   UNL     1      11.606 -22.420 -19.476  1.00  0.00     0.131 A 
ATOM     43  C   UNL     1      12.745 -22.830 -16.990  1.00  0.00     0.055 A 
ATOM     44  C   UNL     1      12.993 -22.535 -19.362  1.00  0.00     0.041 A 
ATOM     45  F   UNL     1      11.102 -22.170 -20.695  1.00  0.00    -0.206 F 
ATOM     46  C   UNL     1      13.572 -22.728 -18.111  1.00  0.00     0.022 A 
BRANCH  43  47
ATOM     47  S   UNL     1      13.473 -22.886 -15.329  1.00  0.00     0.124 S 
ATOM     48  O   UNL     1      12.913 -21.682 -14.719  1.00  0.00    -0.237 OA
ATOM     49  O   UNL     1      12.976 -24.155 -14.810  1.00  0.00    -0.237 OA
ATOM     50  O   UNL     1      14.911 -22.836 -15.582  1.00  0.00    -0.744 OA
ENDBRANCH  43  47
ENDBRANCH  26  40
BRANCH  27  51
ATOM     51  C   UNL     1       0.904 -21.039 -19.465  1.00  0.00     0.023 A 
ATOM     52  C   UNL     1      -0.060 -21.934 -18.979  1.00  0.00     0.031 A 
ATOM     53  C   UNL     1       0.461 -19.898 -20.158  1.00  0.00     0.131 A 
ATOM     54  C   UNL     1      -1.421 -21.690 -19.220  1.00  0.00     0.055 A 
ATOM     55  C   UNL     1      -0.895 -19.635 -20.354  1.00  0.00     0.041 A 
ATOM     56  F   UNL     1       1.345 -19.008 -20.636  1.00  0.00    -0.206 F 
ATOM     57  C   UNL     1      -1.845 -20.540 -19.892  1.00  0.00     0.022 A 
BRANCH  54  58
ATOM     58  S   UNL     1      -2.632 -22.933 -18.697  1.00  0.00     0.124 S 
ATOM     59  O   UNL     1      -2.170 -24.119 -19.410  1.00  0.00    -0.237 OA
ATOM     60  O   UNL     1      -2.449 -22.943 -17.249  1.00  0.00    -0.237 OA
ATOM     61  O   UNL     1      -3.905 -22.383 -19.158  1.00  0.00    -0.744 OA
ENDBRANCH  54  58
ENDBRANCH  27  51
BRANCH  39  62
ATOM     62  C   UNL     1       5.320 -25.879 -21.826  1.00  0.00     0.023 A 
ATOM     63  C   UNL     1       4.962 -25.761 -23.180  1.00  0.00     0.031 A 
ATOM     64  C   UNL     1       5.444 -27.168 -21.281  1.00  0.00     0.131 A 
ATOM     65  C   UNL     1       4.683 -26.913 -23.930  1.00  0.00     0.055 A 
ATOM     66  C   UNL     1       5.219 -28.312 -22.047  1.00  0.00     0.041 A 
ATOM     67  F   UNL     1       5.780 -27.335 -19.992  1.00  0.00    -0.206 F 
ATOM     68  C   UNL     1       4.823 -28.188 -23.376  1.00  0.00     0.022 A 
BRANCH  65  69
ATOM     69  S   UNL     1       4.045 -26.720 -25.617  1.00  0.00     0.124 S 
ATOM     70  O   UNL     1       2.823 -25.954 -25.393  1.00  0.00    -0.237 OA
ATOM     71  O   UNL     1       5.131 -26.009 -26.283  1.00  0.00    -0.237 OA
ATOM     72  O   UNL     1       3.840 -28.096 -26.066  1.00  0.00    -0.744 OA
ENDBRANCH  65  69
ENDBRANCH  39  62
ENDBRANCH  13  14
ENDBRANCH   6   8
ENDBRANCH   3   4
ENDBRANCH   2   3
ENDBRANCH   1   2
BRANCH   1  73
ATOM     73  C   UNL     1       7.204 -15.100  -8.549  1.00  0.00     0.116 C 
BRANCH  73  74
ATOM     74  N   UNL     1       6.961 -16.366  -7.877  1.00  0.00    -0.352 N 
ATOM     75  C   UNL     1       6.862 -16.629  -6.533  1.00  0.00     0.251 C 
ATOM     76  H   UNL     1       6.852 -17.145  -8.469  1.00  0.00     0.163 HD
ATOM     77  O   UNL     1       6.740 -17.776  -6.118  1.00  0.00    -0.269 OA
BRANCH  75  78
ATOM     78  C   UNL     1       6.933 -15.513  -5.570  1.00  0.00     0.039 A 
ATOM     79  C   UNL     1       7.859 -15.587  -4.527  1.00  0.00     0.015 A 
ATOM     80  C   UNL     1       6.108 -14.391  -5.712  1.00  0.00     0.015 A 
ATOM     81  C   UNL     1       7.999 -14.505  -3.659  1.00  0.00     0.022 A 
ATOM     82  C   UNL     1       6.287 -13.288  -4.880  1.00  0.00     0.022 A 
ATOM     83  C   UNL     1       7.224 -13.352  -3.848  1.00  0.00     0.082 A 
BRANCH  83  84
ATOM     84  S   UNL     1       7.478 -12.014  -2.717  1.00  0.00     0.240 S 
ATOM     85  O   UNL     1       7.329 -12.551  -1.380  1.00  0.00    -0.207 OA
ATOM     86  O   UNL     1       8.688 -11.350  -3.131  1.00  0.00    -0.207 OA
BRANCH  84  87
ATOM     87  N   UNL     1       6.273 -10.892  -2.963  1.00  0.00    -0.211 NA
ATOM     88  H   UNL     1       6.425 -10.579  -3.922  1.00  0.00     0.141 HD
BRANCH  87  89
ATOM     89  C   UNL     1       4.822 -10.995  -2.859  1.00  0.00     0.103 C 
BRANCH  89  90
ATOM     90  C   UNL     1       4.175 -11.791  -1.738  1.00  0.00     0.020 C 
ATOM     91  C   UNL     1       4.223 -13.318  -1.867  1.00  0.00     0.022 C 
ATOM     92  C   UNL     1       4.611 -11.436  -0.317  1.00  0.00     0.142 C 
ATOM     93  C   UNL     1       3.518 -13.865  -0.631  1.00  0.00     0.137 C 
ATOM     94  S   UNL     1       3.936 -12.746   0.700  1.00  0.00     0.150 S 
ATOM     95  O   UNL     1       2.702 -12.268   1.292  1.00  0.00    -0.229 OA
ATOM     96  O   UNL     1       4.991 -13.331   1.499  1.00  0.00    -0.229 OA
ENDBRANCH  89  90
ENDBRANCH  87  89
ENDBRANCH  84  87
ENDBRANCH  83  84
ENDBRANCH  75  78
ENDBRANCH  73  74
ENDBRANCH   1  73
TORSDOF 18
