REMARK SMILES O=C(NCCCCNC(=O)C1CCN(c2ccc(C(F)(F)F)cc2[N+](=O)[O-])CC1)c1ccc(-c2c3nc(c(-c4cc(S(=O)(=O)[O-])ccc4F)c4ccc([nH]4)c(-c4cc(S(=O)(=O)[O-])ccc4F)c4nc(c(-c5cc(S(=O)(=O)[O-])ccc5F)c5ccc2[nH]5)C=C4)C=C3)cc1
REMARK SMILES IDX 5 1 4 2 3 3 1 4 2 5 30 7 31 8 92 9 32 10 91 11 33 12 34 13
REMARK SMILES IDX 35 14 85 15 36 16 90 17 84 18 86 19 37 20 89 21 83 22 82 23
REMARK SMILES IDX 38 25 70 26 50 27 69 28 51 29 54 30 68 31 87 32 52 33 53 34
REMARK SMILES IDX 67 36 88 37 55 38 39 39 40 40 48 41 41 42 47 43 49 44 46 45
REMARK SMILES IDX 42 46 43 47 44 48 45 49 71 50 72 51 80 52 73 53 79 54 81 55
REMARK SMILES IDX 78 56 74 57 75 58 76 59 77 60 56 61 57 62 65 63 58 64 64 65
REMARK SMILES IDX 66 66 63 67 59 68 60 69 61 70 62 71 6 72 7 73 8 74 9 75
REMARK SMILES IDX 10 77 11 78 12 79 29 80 13 81 28 82 14 83 15 84 16 85 24 86
REMARK SMILES IDX 17 87 23 88 18 89 25 90 26 91 27 92 19 93 20 94 21 95 22 96
REMARK H PARENT 3 6 86 24 54 35 8 76
REMARK Flexibility Score: inf
ROOT
ATOM      1  C   UNL     1       5.015  -2.280   1.385  1.00  0.00     0.023 C 
ENDROOT
BRANCH   1   2
ATOM      2  C   UNL     1       4.603  -1.214   0.377  1.00  0.00     0.116 C 
BRANCH   2   3
ATOM      3  N   UNL     1       3.166  -1.149   0.145  1.00  0.00    -0.352 N 
ATOM      4  O   UNL     1       1.156  -0.149  -0.107  1.00  0.00    -0.269 OA
ATOM      5  C   UNL     1       2.373  -0.034  -0.001  1.00  0.00     0.251 C 
ATOM      6  H   UNL     1       2.701  -2.015   0.085  1.00  0.00     0.163 HD
BRANCH   5   7
ATOM      7  C   UNL     1       3.006   1.300   0.009  1.00  0.00     0.039 A 
ATOM      8  C   UNL     1       4.133   1.547  -0.778  1.00  0.00     0.014 A 
ATOM      9  C   UNL     1       2.499   2.291   0.853  1.00  0.00     0.014 A 
ATOM     10  C   UNL     1       4.843   2.728  -0.605  1.00  0.00     0.010 A 
ATOM     11  C   UNL     1       3.167   3.513   0.959  1.00  0.00     0.010 A 
ATOM     12  C   UNL     1       4.364   3.727   0.258  1.00  0.00    -0.014 A 
BRANCH  12  13
ATOM     13  C   UNL     1       5.114   5.003   0.370  1.00  0.00     0.031 A 
ATOM     14  C   UNL     1       5.771   5.409   1.659  1.00  0.00     0.074 A 
ATOM     15  C   UNL     1       5.226   5.778  -0.726  1.00  0.00     0.049 A 
ATOM     16  N   UNL     1       6.473   6.482   1.925  1.00  0.00    -0.248 NA
ATOM     17  C   UNL     1       5.612   4.498   2.801  1.00  0.00     0.031 C 
ATOM     18  C   UNL     1       4.625   5.478  -2.030  1.00  0.00     0.029 A 
ATOM     19  N   UNL     1       5.892   6.956  -0.932  1.00  0.00    -0.354 N 
ATOM     20  C   UNL     1       6.826   6.387   3.267  1.00  0.00     0.074 A 
ATOM     21  C   UNL     1       6.230   5.165   3.767  1.00  0.00     0.031 C 
ATOM     22  C   UNL     1       4.991   6.420  -2.909  1.00  0.00     0.029 A 
ATOM     23  C   UNL     1       5.789   7.427  -2.219  1.00  0.00     0.049 A 
ATOM     24  H   UNL     1       6.396   7.422  -0.226  1.00  0.00     0.167 HD
ATOM     25  C   UNL     1       7.582   7.238   4.006  1.00  0.00     0.034 A 
ATOM     26  C   UNL     1       6.263   8.554  -2.780  1.00  0.00     0.034 A 
ATOM     27  C   UNL     1       8.167   8.452   3.483  1.00  0.00     0.049 A 
ATOM     28  C   UNL     1       7.061   9.501  -1.930  1.00  0.00     0.074 A 
ATOM     29  C   UNL     1       8.976   9.370   4.131  1.00  0.00     0.029 A 
ATOM     30  N   UNL     1       7.996   8.926   2.187  1.00  0.00    -0.354 N 
ATOM     31  N   UNL     1       7.394   9.392  -0.665  1.00  0.00    -0.248 NA
ATOM     32  C   UNL     1       7.545  10.722  -2.583  1.00  0.00     0.031 C 
ATOM     33  C   UNL     1       9.238  10.427   3.250  1.00  0.00     0.029 A 
ATOM     34  C   UNL     1       8.655  10.137   2.028  1.00  0.00     0.049 A 
ATOM     35  H   UNL     1       7.482   8.468   1.483  1.00  0.00     0.167 HD
ATOM     36  C   UNL     1       8.139  10.529  -0.372  1.00  0.00     0.074 A 
ATOM     37  C   UNL     1       8.224  11.296  -1.600  1.00  0.00     0.031 C 
ATOM     38  C   UNL     1       8.702  10.905   0.804  1.00  0.00     0.034 A 
BRANCH  25  39
ATOM     39  C   UNL     1       7.773   6.908   5.469  1.00  0.00     0.023 A 
ATOM     40  C   UNL     1       8.453   5.750   5.887  1.00  0.00     0.031 A 
ATOM     41  C   UNL     1       7.241   7.750   6.462  1.00  0.00     0.131 A 
ATOM     42  C   UNL     1       8.517   5.428   7.252  1.00  0.00     0.055 A 
ATOM     43  C   UNL     1       7.377   7.465   7.822  1.00  0.00     0.041 A 
ATOM     44  F   UNL     1       6.564   8.860   6.126  1.00  0.00    -0.206 F 
ATOM     45  C   UNL     1       8.005   6.290   8.224  1.00  0.00     0.022 A 
BRANCH  42  46
ATOM     46  S   UNL     1       9.149   3.796   7.730  1.00  0.00     0.124 S 
ATOM     47  O   UNL     1       8.268   2.905   6.978  1.00  0.00    -0.237 OA
ATOM     48  O   UNL     1      10.535   3.850   7.281  1.00  0.00    -0.237 OA
ATOM     49  O   UNL     1       8.961   3.765   9.179  1.00  0.00    -0.744 OA
ENDBRANCH  42  46
ENDBRANCH  25  39
BRANCH  26  50
ATOM     50  C   UNL     1       5.960   8.858  -4.206  1.00  0.00     0.023 A 
ATOM     51  C   UNL     1       6.977   8.896  -5.170  1.00  0.00     0.031 A 
ATOM     52  C   UNL     1       4.641   9.113  -4.622  1.00  0.00     0.131 A 
ATOM     53  C   UNL     1       6.662   9.210  -6.502  1.00  0.00     0.055 A 
ATOM     54  C   UNL     1       4.326   9.376  -5.955  1.00  0.00     0.041 A 
ATOM     55  F   UNL     1       3.631   9.079  -3.737  1.00  0.00    -0.206 F 
ATOM     56  C   UNL     1       5.342   9.435  -6.902  1.00  0.00     0.022 A 
BRANCH  53  57
ATOM     57  S   UNL     1       8.014   9.373  -7.698  1.00  0.00     0.124 S 
ATOM     58  O   UNL     1       8.815  10.435  -7.100  1.00  0.00    -0.237 OA
ATOM     59  O   UNL     1       8.601   8.037  -7.676  1.00  0.00    -0.237 OA
ATOM     60  O   UNL     1       7.329   9.729  -8.939  1.00  0.00    -0.744 OA
ENDBRANCH  53  57
ENDBRANCH  26  50
BRANCH  38  61
ATOM     61  C   UNL     1       9.477  12.198   0.795  1.00  0.00     0.023 A 
ATOM     62  C   UNL     1       8.837  13.437   0.620  1.00  0.00     0.031 A 
ATOM     63  C   UNL     1      10.877  12.187   0.926  1.00  0.00     0.131 A 
ATOM     64  C   UNL     1       9.601  14.610   0.521  1.00  0.00     0.055 A 
ATOM     65  C   UNL     1      11.626  13.363   0.884  1.00  0.00     0.041 A 
ATOM     66  F   UNL     1      11.538  11.030   1.091  1.00  0.00    -0.206 F 
ATOM     67  C   UNL     1      10.990  14.582   0.666  1.00  0.00     0.022 A 
BRANCH  64  68
ATOM     68  S   UNL     1       8.762  16.162   0.102  1.00  0.00     0.124 S 
ATOM     69  O   UNL     1       8.155  15.841  -1.186  1.00  0.00    -0.237 OA
ATOM     70  O   UNL     1       7.837  16.329   1.218  1.00  0.00    -0.237 OA
ATOM     71  O   UNL     1       9.850  17.137   0.048  1.00  0.00    -0.744 OA
ENDBRANCH  64  68
ENDBRANCH  38  61
ENDBRANCH  12  13
ENDBRANCH   5   7
ENDBRANCH   2   3
ENDBRANCH   1   2
BRANCH   1  72
ATOM     72  C   UNL     1       4.504  -3.688   1.093  1.00  0.00     0.023 C 
BRANCH  72  73
ATOM     73  C   UNL     1       4.817  -4.212  -0.306  1.00  0.00     0.116 C 
BRANCH  73  74
ATOM     74  N   UNL     1       6.205  -4.622  -0.470  1.00  0.00    -0.356 N 
ATOM     75  C   UNL     1       6.708  -5.876  -0.719  1.00  0.00     0.223 C 
ATOM     76  H   UNL     1       6.873  -3.904  -0.391  1.00  0.00     0.163 HD
ATOM     77  O   UNL     1       7.913  -6.025  -0.904  1.00  0.00    -0.275 OA
BRANCH  75  78
ATOM     78  C   UNL     1       5.740  -7.050  -0.691  1.00  0.00     0.082 C 
ATOM     79  C   UNL     1       5.412  -7.372   0.775  1.00  0.00     0.035 C 
ATOM     80  C   UNL     1       6.183  -8.245  -1.556  1.00  0.00     0.035 C 
ATOM     81  C   UNL     1       6.294  -8.466   1.355  1.00  0.00     0.117 C 
ATOM     82  C   UNL     1       6.903  -9.380  -0.828  1.00  0.00     0.117 C 
ATOM     83  N   UNL     1       6.260  -9.620   0.463  1.00  0.00    -0.366 N 
BRANCH  83  84
ATOM     84  C   UNL     1       5.500 -10.735   0.760  1.00  0.00     0.116 A 
ATOM     85  C   UNL     1       4.224 -10.577   1.339  1.00  0.00     0.034 A 
ATOM     86  C   UNL     1       5.895 -12.071   0.561  1.00  0.00     0.293 A 
ATOM     87  C   UNL     1       3.403 -11.657   1.696  1.00  0.00     0.016 A 
ATOM     88  C   UNL     1       5.084 -13.174   0.916  1.00  0.00     0.101 A 
ATOM     89  C   UNL     1       3.828 -12.971   1.496  1.00  0.00     0.062 A 
BRANCH  86  90
ATOM     90  N   UNL     1       7.217 -12.399   0.056  1.00  0.00     0.064 N 
ATOM     91  O   UNL     1       7.260 -13.127  -0.949  1.00  0.00    -0.258 OA
ATOM     92  O   UNL     1       8.202 -12.001   0.691  1.00  0.00    -0.258 OA
ENDBRANCH  86  90
BRANCH  89  93
ATOM     93  C   UNL     1       2.949 -14.119   1.925  1.00  0.00     0.416 C 
ATOM     94  F   UNL     1       2.674 -14.091   3.258  1.00  0.00    -0.166 F 
ATOM     95  F   UNL     1       1.742 -14.115   1.294  1.00  0.00    -0.166 F 
ATOM     96  F   UNL     1       3.495 -15.342   1.681  1.00  0.00    -0.166 F 
ENDBRANCH  89  93
ENDBRANCH  83  84
ENDBRANCH  75  78
ENDBRANCH  73  74
ENDBRANCH  72  73
ENDBRANCH   1  72
TORSDOF 17
