REMARK SMILES Cc1cc(C(=O)NCCCCNC(=O)c2ccc(-c3c4nc(c(-c5cc(S(=O)(=O)[O-])ccc5F)c5ccc([nH]5)c(-c5cc(S(=O)(=O)[O-])ccc5F)c5nc(c(-c6cc(S(=O)(=O)[O-])ccc6F)c6ccc3[nH]6)C=C5)C=C4)cc2)ccc1NC(=O)c1ccc(=O)n(CCOc2ccccc2)n1
REMARK SMILES IDX 8 1 7 2 5 3 6 4 4 6 1 7 2 8 3 9 80 10 79 11 78 12 81 13
REMARK SMILES IDX 82 14 83 16 84 17 85 18 99 19 86 20 89 21 87 22 88 23 90 24
REMARK SMILES IDX 91 25 92 26 93 27 94 28 98 29 95 30 97 31 96 32 9 33 10 34
REMARK SMILES IDX 11 35 12 36 13 37 14 39 15 40 16 41 77 42 17 43 76 44 18 45
REMARK SMILES IDX 19 46 20 47 70 48 21 49 75 50 69 51 71 52 22 53 74 54 68 55
REMARK SMILES IDX 67 56 23 58 55 59 35 60 54 61 36 62 39 63 53 64 72 65 37 66
REMARK SMILES IDX 38 67 52 69 73 70 40 71 24 72 25 73 33 74 26 75 32 76 34 77
REMARK SMILES IDX 31 78 27 79 28 80 29 81 30 82 56 83 57 84 65 85 58 86 64 87
REMARK SMILES IDX 66 88 63 89 59 90 60 91 61 92 62 93 41 94 42 95 50 96 43 97
REMARK SMILES IDX 49 98 51 99 48 100 44 101 45 102 46 103 47 104
REMARK H PARENT 7 5 81 15 12 38 71 57 39 68
REMARK Flexibility Score: inf
ROOT
ATOM      1  C   UNL     1      -3.909  -1.434  -0.015  1.00  0.00     0.116 C 
ENDROOT
BRANCH   1   2
ATOM      2  N   UNL     1      -2.968  -2.542  -0.232  1.00  0.00    -0.352 N 
ATOM      3  C   UNL     1      -1.591  -2.595  -0.247  1.00  0.00     0.251 C 
ATOM      4  O   UNL     1      -1.035  -3.694  -0.232  1.00  0.00    -0.269 OA
ATOM      5  H   UNL     1      -3.404  -3.409  -0.396  1.00  0.00     0.163 HD
BRANCH   3   6
ATOM      6  C   UNL     1      -0.743  -1.375  -0.282  1.00  0.00     0.040 A 
ATOM      7  C   UNL     1       2.776  -0.368   0.762  1.00  0.00     0.046 C 
ATOM      8  C   UNL     1       1.352  -0.215   0.304  1.00  0.00    -0.027 A 
ATOM      9  C   UNL     1       0.543  -1.382   0.280  1.00  0.00     0.019 A 
ATOM     10  C   UNL     1       0.814   0.987  -0.179  1.00  0.00     0.044 A 
ATOM     11  C   UNL     1      -0.343   0.899  -0.946  1.00  0.00     0.027 A 
ATOM     12  C   UNL     1      -1.123  -0.252  -0.989  1.00  0.00     0.016 A 
BRANCH  10  13
ATOM     13  N   UNL     1       1.420   2.235   0.102  1.00  0.00    -0.320 N 
ATOM     14  C   UNL     1       0.846   3.498   0.199  1.00  0.00     0.276 C 
ATOM     15  H   UNL     1       2.393   2.204   0.252  1.00  0.00     0.170 HD
ATOM     16  O   UNL     1       1.520   4.501   0.412  1.00  0.00    -0.267 OA
BRANCH  14  17
ATOM     17  C   UNL     1      -0.654   3.652   0.032  1.00  0.00     0.149 A 
ATOM     18  C   UNL     1      -1.084   4.169  -1.284  1.00  0.00     0.042 A 
ATOM     19  N   UNL     1      -1.459   3.273   0.981  1.00  0.00    -0.164 NA
ATOM     20  C   UNL     1      -2.292   3.760  -1.673  1.00  0.00     0.076 A 
ATOM     21  N   UNL     1      -2.790   3.097   0.586  1.00  0.00    -0.226 N 
ATOM     22  C   UNL     1      -3.098   2.918  -0.759  1.00  0.00     0.266 A 
ATOM     23  O   UNL     1      -3.941   2.175  -1.242  1.00  0.00    -0.268 OA
BRANCH  21  24
ATOM     24  C   UNL     1      -3.778   2.793   1.630  1.00  0.00     0.190 C 
BRANCH  24  25
ATOM     25  C   UNL     1      -4.301   4.067   2.325  1.00  0.00     0.253 C 
BRANCH  25  26
ATOM     26  O   UNL     1      -5.581   4.527   1.859  1.00  0.00    -0.492 OA
BRANCH  26  27
ATOM     27  C   UNL     1      -5.493   5.441   0.848  1.00  0.00     0.119 A 
ATOM     28  C   UNL     1      -5.665   6.795   1.115  1.00  0.00     0.046 A 
ATOM     29  C   UNL     1      -5.386   5.014  -0.470  1.00  0.00     0.046 A 
ATOM     30  C   UNL     1      -5.619   7.721   0.067  1.00  0.00     0.004 A 
ATOM     31  C   UNL     1      -5.287   5.933  -1.513  1.00  0.00     0.004 A 
ATOM     32  C   UNL     1      -5.393   7.293  -1.242  1.00  0.00     0.000 A 
ENDBRANCH  26  27
ENDBRANCH  25  26
ENDBRANCH  24  25
ENDBRANCH  21  24
ENDBRANCH  14  17
ENDBRANCH  10  13
ENDBRANCH   3   6
ENDBRANCH   1   2
BRANCH   1  33
ATOM     33  C   UNL     1      -4.646  -0.985  -1.290  1.00  0.00     0.023 C 
BRANCH  33  34
ATOM     34  C   UNL     1      -5.545  -2.034  -1.945  1.00  0.00     0.023 C 
BRANCH  34  35
ATOM     35  C   UNL     1      -6.859  -2.258  -1.204  1.00  0.00     0.116 C 
BRANCH  35  36
ATOM     36  N   UNL     1      -8.038  -1.734  -1.891  1.00  0.00    -0.352 N 
ATOM     37  C   UNL     1      -9.378  -1.873  -1.542  1.00  0.00     0.251 C 
ATOM     38  H   UNL     1      -7.861  -1.214  -2.708  1.00  0.00     0.163 HD
ATOM     39  O   UNL     1     -10.281  -1.510  -2.272  1.00  0.00    -0.269 OA
BRANCH  37  40
ATOM     40  C   UNL     1      -9.684  -2.402  -0.192  1.00  0.00     0.039 A 
ATOM     41  C   UNL     1     -10.368  -1.562   0.694  1.00  0.00     0.014 A 
ATOM     42  C   UNL     1      -9.062  -3.560   0.260  1.00  0.00     0.014 A 
ATOM     43  C   UNL     1     -10.211  -1.752   2.064  1.00  0.00     0.010 A 
ATOM     44  C   UNL     1      -8.805  -3.676   1.610  1.00  0.00     0.010 A 
ATOM     45  C   UNL     1      -9.318  -2.728   2.504  1.00  0.00    -0.014 A 
BRANCH  45  46
ATOM     46  C   UNL     1      -8.722  -2.719   3.838  1.00  0.00     0.031 A 
ATOM     47  C   UNL     1      -9.016  -3.811   4.799  1.00  0.00     0.074 A 
ATOM     48  C   UNL     1      -7.810  -1.768   4.150  1.00  0.00     0.049 A 
ATOM     49  N   UNL     1      -8.827  -3.743   6.074  1.00  0.00    -0.248 NA
ATOM     50  C   UNL     1      -9.604  -5.081   4.386  1.00  0.00     0.031 C 
ATOM     51  C   UNL     1      -6.905  -1.759   5.300  1.00  0.00     0.029 A 
ATOM     52  N   UNL     1      -7.588  -0.512   3.587  1.00  0.00    -0.354 N 
ATOM     53  C   UNL     1      -8.951  -5.014   6.592  1.00  0.00     0.074 A 
ATOM     54  C   UNL     1      -9.528  -5.786   5.518  1.00  0.00     0.031 C 
ATOM     55  C   UNL     1      -6.519  -0.493   5.533  1.00  0.00     0.029 A 
ATOM     56  C   UNL     1      -7.314   0.349   4.657  1.00  0.00     0.049 A 
ATOM     57  H   UNL     1      -7.618  -0.278   2.632  1.00  0.00     0.167 HD
ATOM     58  C   UNL     1      -8.408  -5.292   7.814  1.00  0.00     0.034 A 
ATOM     59  C   UNL     1      -8.145   1.348   5.090  1.00  0.00     0.034 A 
ATOM     60  C   UNL     1      -7.914  -4.073   8.463  1.00  0.00     0.049 A 
ATOM     61  C   UNL     1      -8.500   1.229   6.569  1.00  0.00     0.074 A 
ATOM     62  C   UNL     1      -6.646  -3.542   8.638  1.00  0.00     0.029 A 
ATOM     63  N   UNL     1      -8.809  -3.060   8.800  1.00  0.00    -0.354 N 
ATOM     64  N   UNL     1      -8.402   0.122   7.256  1.00  0.00    -0.248 NA
ATOM     65  C   UNL     1      -9.017   2.332   7.375  1.00  0.00     0.031 C 
ATOM     66  C   UNL     1      -6.787  -2.177   9.006  1.00  0.00     0.029 A 
ATOM     67  C   UNL     1      -8.139  -1.888   9.092  1.00  0.00     0.049 A 
ATOM     68  H   UNL     1      -9.788  -3.166   8.826  1.00  0.00     0.167 HD
ATOM     69  C   UNL     1      -8.832   0.331   8.543  1.00  0.00     0.074 A 
ATOM     70  C   UNL     1      -9.186   1.739   8.571  1.00  0.00     0.031 C 
ATOM     71  C   UNL     1      -8.870  -0.681   9.465  1.00  0.00     0.034 A 
BRANCH  58  72
ATOM     72  C   UNL     1      -8.026  -6.690   8.284  1.00  0.00     0.023 A 
ATOM     73  C   UNL     1      -6.978  -6.839   9.220  1.00  0.00     0.031 A 
ATOM     74  C   UNL     1      -8.571  -7.902   7.815  1.00  0.00     0.131 A 
ATOM     75  C   UNL     1      -6.447  -8.103   9.547  1.00  0.00     0.055 A 
ATOM     76  C   UNL     1      -8.010  -9.157   8.095  1.00  0.00     0.041 A 
ATOM     77  F   UNL     1      -9.709  -7.946   7.115  1.00  0.00    -0.206 F 
ATOM     78  C   UNL     1      -6.930  -9.263   8.953  1.00  0.00     0.022 A 
BRANCH  75  79
ATOM     79  S   UNL     1      -5.106  -8.215  10.764  1.00  0.00     0.124 S 
ATOM     80  O   UNL     1      -4.057  -7.410  10.147  1.00  0.00    -0.237 OA
ATOM     81  O   UNL     1      -5.728  -7.661  11.961  1.00  0.00    -0.237 OA
ATOM     82  O   UNL     1      -4.824  -9.649  10.827  1.00  0.00    -0.744 OA
ENDBRANCH  75  79
ENDBRANCH  58  72
BRANCH  59  83
ATOM     83  C   UNL     1      -9.060   1.907   4.053  1.00  0.00     0.023 A 
ATOM     84  C   UNL     1      -8.485   2.397   2.863  1.00  0.00     0.031 A 
ATOM     85  C   UNL     1     -10.439   1.649   4.054  1.00  0.00     0.131 A 
ATOM     86  C   UNL     1      -9.236   2.432   1.681  1.00  0.00     0.055 A 
ATOM     87  C   UNL     1     -11.204   1.766   2.886  1.00  0.00     0.041 A 
ATOM     88  F   UNL     1     -11.045   1.163   5.146  1.00  0.00    -0.206 F 
ATOM     89  C   UNL     1     -10.594   2.115   1.683  1.00  0.00     0.022 A 
BRANCH  86  90
ATOM     90  S   UNL     1      -8.369   2.568   0.089  1.00  0.00     0.124 S 
ATOM     91  O   UNL     1      -8.459   3.996  -0.184  1.00  0.00    -0.237 OA
ATOM     92  O   UNL     1      -7.046   2.036   0.404  1.00  0.00    -0.237 OA
ATOM     93  O   UNL     1      -9.160   1.711  -0.788  1.00  0.00    -0.744 OA
ENDBRANCH  86  90
ENDBRANCH  59  83
BRANCH  71  94
ATOM     94  C   UNL     1      -9.527  -0.616  10.832  1.00  0.00     0.023 A 
ATOM     95  C   UNL     1     -10.462   0.363  11.199  1.00  0.00     0.031 A 
ATOM     96  C   UNL     1      -9.287  -1.621  11.804  1.00  0.00     0.131 A 
ATOM     97  C   UNL     1     -11.043   0.377  12.482  1.00  0.00     0.055 A 
ATOM     98  C   UNL     1      -9.927  -1.653  13.047  1.00  0.00     0.041 A 
ATOM     99  F   UNL     1      -8.424  -2.624  11.587  1.00  0.00    -0.206 F 
ATOM    100  C   UNL     1     -10.801  -0.639  13.402  1.00  0.00     0.022 A 
BRANCH  97 101
ATOM    101  S   UNL     1     -12.074   1.794  12.944  1.00  0.00     0.124 S 
ATOM    102  O   UNL     1     -11.122   2.898  12.857  1.00  0.00    -0.237 OA
ATOM    103  O   UNL     1     -13.114   1.773  11.921  1.00  0.00    -0.237 OA
ATOM    104  O   UNL     1     -12.525   1.469  14.296  1.00  0.00    -0.744 OA
ENDBRANCH  97 101
ENDBRANCH  71  94
ENDBRANCH  45  46
ENDBRANCH  37  40
ENDBRANCH  35  36
ENDBRANCH  34  35
ENDBRANCH  33  34
ENDBRANCH   1  33
TORSDOF 20
