REMARK SMILES O=C(NCCCCNC(=O)c1ccc(OCc2sccc2Br)cn1)c1ccc(-c2c3nc(c(-c4cc(S(=O)(=O)[O-])ccc4F)c4ccc([nH]4)c(-c4cc(S(=O)(=O)[O-])ccc4F)c4nc(c(-c5cc(S(=O)(=O)[O-])ccc5F)c5ccc2[nH]5)C=C4)C=C3)cc1
REMARK SMILES IDX 5 1 4 2 3 3 1 4 2 5 25 7 26 8 87 9 27 10 86 11 28 12 29 13
REMARK SMILES IDX 30 14 80 15 31 16 85 17 79 18 81 19 32 20 84 21 78 22 77 23
REMARK SMILES IDX 33 25 65 26 45 27 64 28 46 29 49 30 63 31 82 32 47 33 48 34
REMARK SMILES IDX 62 36 83 37 50 38 34 39 35 40 43 41 36 42 42 43 44 44 41 45
REMARK SMILES IDX 37 46 38 47 39 48 40 49 66 50 67 51 75 52 68 53 74 54 76 55
REMARK SMILES IDX 73 56 69 57 70 58 71 59 72 60 51 61 52 62 60 63 53 64 59 65
REMARK SMILES IDX 61 66 58 67 54 68 55 69 56 70 57 71 6 72 7 73 8 74 9 75
REMARK SMILES IDX 10 77 11 78 12 79 24 80 13 81 23 82 14 83 15 84 16 85 17 86
REMARK SMILES IDX 18 87 21 88 19 89 20 90 22 91
REMARK H PARENT 3 6 81 24 49 35 8 76
REMARK Flexibility Score: inf
ROOT
ATOM      1  C   UNL     1       4.870  -1.140  -2.382  1.00  0.00     0.023 C 
ENDROOT
BRANCH   1   2
ATOM      2  C   UNL     1       4.546  -0.129  -1.289  1.00  0.00     0.116 C 
BRANCH   2   3
ATOM      3  N   UNL     1       3.118   0.079  -1.103  1.00  0.00    -0.352 N 
ATOM      4  O   UNL     1       1.150   0.102  -0.001  1.00  0.00    -0.269 OA
ATOM      5  C   UNL     1       2.374   0.013   0.054  1.00  0.00     0.251 C 
ATOM      6  H   UNL     1       2.612   0.298  -1.919  1.00  0.00     0.163 HD
BRANCH   5   7
ATOM      7  C   UNL     1       3.049  -0.191   1.356  1.00  0.00     0.039 A 
ATOM      8  C   UNL     1       4.191   0.540   1.690  1.00  0.00     0.014 A 
ATOM      9  C   UNL     1       2.536  -1.135   2.252  1.00  0.00     0.014 A 
ATOM     10  C   UNL     1       4.902   0.223   2.843  1.00  0.00     0.010 A 
ATOM     11  C   UNL     1       3.208  -1.393   3.452  1.00  0.00     0.010 A 
ATOM     12  C   UNL     1       4.416  -0.741   3.742  1.00  0.00    -0.014 A 
BRANCH  12  13
ATOM     13  C   UNL     1       5.174  -1.014   4.992  1.00  0.00     0.031 A 
ATOM     14  C   UNL     1       5.816  -2.353   5.237  1.00  0.00     0.074 A 
ATOM     15  C   UNL     1       5.319  -0.019   5.890  1.00  0.00     0.049 A 
ATOM     16  N   UNL     1       6.530  -2.751   6.260  1.00  0.00    -0.248 NA
ATOM     17  C   UNL     1       5.625  -3.381   4.204  1.00  0.00     0.031 C 
ATOM     18  C   UNL     1       4.739   1.320   5.760  1.00  0.00     0.029 A 
ATOM     19  N   UNL     1       6.010   0.034   7.073  1.00  0.00    -0.354 N 
ATOM     20  C   UNL     1       6.871  -4.074   6.000  1.00  0.00     0.074 A 
ATOM     21  C   UNL     1       6.247  -4.422   4.740  1.00  0.00     0.031 C 
ATOM     22  C   UNL     1       5.135   2.074   6.795  1.00  0.00     0.029 A 
ATOM     23  C   UNL     1       5.941   1.259   7.696  1.00  0.00     0.049 A 
ATOM     24  H   UNL     1       6.508  -0.731   7.442  1.00  0.00     0.167 HD
ATOM     25  C   UNL     1       7.640  -4.914   6.738  1.00  0.00     0.034 A 
ATOM     26  C   UNL     1       6.451   1.677   8.870  1.00  0.00     0.034 A 
ATOM     27  C   UNL     1       8.251  -4.552   7.997  1.00  0.00     0.049 A 
ATOM     28  C   UNL     1       7.267   0.713   9.688  1.00  0.00     0.074 A 
ATOM     29  C   UNL     1       9.052  -5.323   8.823  1.00  0.00     0.029 A 
ATOM     30  N   UNL     1       8.127  -3.314   8.616  1.00  0.00    -0.354 N 
ATOM     31  N   UNL     1       7.579  -0.535   9.423  1.00  0.00    -0.248 NA
ATOM     32  C   UNL     1       7.803   1.214  10.958  1.00  0.00     0.031 C 
ATOM     33  C   UNL     1       9.362  -4.574   9.964  1.00  0.00     0.029 A 
ATOM     34  C   UNL     1       8.814  -3.309   9.821  1.00  0.00     0.049 A 
ATOM     35  H   UNL     1       7.623  -2.550   8.251  1.00  0.00     0.167 HD
ATOM     36  C   UNL     1       8.363  -0.962  10.490  1.00  0.00     0.074 A 
ATOM     37  C   UNL     1       8.497   0.170  11.385  1.00  0.00     0.031 C 
ATOM     38  C   UNL     1       8.921  -2.179  10.712  1.00  0.00     0.034 A 
BRANCH  25  39
ATOM     39  C   UNL     1       7.831  -6.320   6.218  1.00  0.00     0.023 A 
ATOM     40  C   UNL     1       8.520  -6.577   5.019  1.00  0.00     0.031 A 
ATOM     41  C   UNL     1       7.307  -7.418   6.923  1.00  0.00     0.131 A 
ATOM     42  C   UNL     1       8.611  -7.890   4.530  1.00  0.00     0.055 A 
ATOM     43  C   UNL     1       7.464  -8.730   6.469  1.00  0.00     0.041 A 
ATOM     44  F   UNL     1       6.623  -7.235   8.064  1.00  0.00    -0.206 F 
ATOM     45  C   UNL     1       8.108  -8.971   5.259  1.00  0.00     0.022 A 
BRANCH  42  46
ATOM     46  S   UNL     1       9.282  -8.152   2.866  1.00  0.00     0.124 S 
ATOM     47  O   UNL     1       8.370  -7.353   2.050  1.00  0.00    -0.237 OA
ATOM     48  O   UNL     1      10.642  -7.642   2.990  1.00  0.00    -0.237 OA
ATOM     49  O   UNL     1       9.173  -9.597   2.675  1.00  0.00    -0.744 OA
ENDBRANCH  42  46
ENDBRANCH  25  39
BRANCH  26  50
ATOM     50  C   UNL     1       6.176   3.057   9.359  1.00  0.00     0.023 A 
ATOM     51  C   UNL     1       7.213   3.986   9.537  1.00  0.00     0.031 A 
ATOM     52  C   UNL     1       4.868   3.456   9.688  1.00  0.00     0.131 A 
ATOM     53  C   UNL     1       6.930   5.253  10.070  1.00  0.00     0.055 A 
ATOM     54  C   UNL     1       4.584   4.735  10.165  1.00  0.00     0.041 A 
ATOM     55  F   UNL     1       3.839   2.606   9.532  1.00  0.00    -0.206 F 
ATOM     56  C   UNL     1       5.621   5.638  10.372  1.00  0.00     0.022 A 
BRANCH  53  57
ATOM     57  S   UNL     1       8.312   6.364  10.449  1.00  0.00     0.124 S 
ATOM     58  O   UNL     1       9.126   5.537  11.333  1.00  0.00    -0.237 OA
ATOM     59  O   UNL     1       8.864   6.620   9.123  1.00  0.00    -0.237 OA
ATOM     60  O   UNL     1       7.664   7.508  11.085  1.00  0.00    -0.744 OA
ENDBRANCH  53  57
ENDBRANCH  26  50
BRANCH  38  61
ATOM     61  C   UNL     1       9.751  -2.321  11.963  1.00  0.00     0.023 A 
ATOM     62  C   UNL     1       9.170  -2.269  13.242  1.00  0.00     0.031 A 
ATOM     63  C   UNL     1      11.146  -2.471  11.874  1.00  0.00     0.131 A 
ATOM     64  C   UNL     1       9.986  -2.301  14.382  1.00  0.00     0.055 A 
ATOM     65  C   UNL     1      11.948  -2.560  13.012  1.00  0.00     0.041 A 
ATOM     66  F   UNL     1      11.752  -2.524  10.677  1.00  0.00    -0.206 F 
ATOM     67  C   UNL     1      11.371  -2.461  14.275  1.00  0.00     0.022 A 
BRANCH  64  68
ATOM     68  S   UNL     1       9.225  -2.034  16.007  1.00  0.00     0.124 S 
ATOM     69  O   UNL     1       8.614  -0.719  15.843  1.00  0.00    -0.237 OA
ATOM     70  O   UNL     1       8.300  -3.158  16.107  1.00  0.00    -0.237 OA
ATOM     71  O   UNL     1      10.358  -2.080  16.929  1.00  0.00    -0.744 OA
ENDBRANCH  64  68
ENDBRANCH  38  61
ENDBRANCH  12  13
ENDBRANCH   5   7
ENDBRANCH   2   3
ENDBRANCH   1   2
BRANCH   1  72
ATOM     72  C   UNL     1       4.406  -0.765  -3.789  1.00  0.00     0.023 C 
BRANCH  72  73
ATOM     73  C   UNL     1       4.841   0.613  -4.278  1.00  0.00     0.116 C 
BRANCH  73  74
ATOM     74  N   UNL     1       6.285   0.780  -4.314  1.00  0.00    -0.351 N 
ATOM     75  C   UNL     1       7.073   1.169  -5.378  1.00  0.00     0.269 C 
ATOM     76  H   UNL     1       6.761   0.591  -3.473  1.00  0.00     0.163 HD
ATOM     77  O   UNL     1       8.287   1.286  -5.250  1.00  0.00    -0.268 OA
BRANCH  75  78
ATOM     78  C   UNL     1       6.415   1.478  -6.672  1.00  0.00     0.128 A 
ATOM     79  C   UNL     1       5.628   2.619  -6.776  1.00  0.00     0.038 A 
ATOM     80  N   UNL     1       6.542   0.552  -7.650  1.00  0.00    -0.247 NA
ATOM     81  C   UNL     1       4.873   2.796  -7.935  1.00  0.00     0.050 A 
ATOM     82  C   UNL     1       5.808   0.765  -8.764  1.00  0.00     0.158 A 
ATOM     83  C   UNL     1       4.935   1.836  -8.942  1.00  0.00     0.138 A 
BRANCH  83  84
ATOM     84  O   UNL     1       4.193   1.810 -10.087  1.00  0.00    -0.486 OA
BRANCH  84  85
ATOM     85  C   UNL     1       3.034   2.650 -10.177  1.00  0.00     0.277 C 
BRANCH  85  86
ATOM     86  C   UNL     1       1.954   2.216  -9.223  1.00  0.00     0.056 A 
ATOM     87  S   UNL     1       1.602   0.547  -8.981  1.00  0.00    -0.144 S 
ATOM     88  C   UNL     1       1.104   2.995  -8.466  1.00  0.00     0.035 A 
ATOM     89  C   UNL     1       0.405   0.894  -7.810  1.00  0.00     0.066 A 
ATOM     90  C   UNL     1       0.222   2.249  -7.644  1.00  0.00     0.028 A 
ATOM     91  Br  UNL     1       1.052   4.886  -8.453  1.00  0.00    -0.049 Br
ENDBRANCH  85  86
ENDBRANCH  84  85
ENDBRANCH  83  84
ENDBRANCH  75  78
ENDBRANCH  73  74
ENDBRANCH  72  73
ENDBRANCH   1  72
TORSDOF 17
