REMARK SMILES O=C(NCCCCNC(=O)c1ccccc1C(=O)Nc1ccc(N2C(=O)[C@H]3[C@@H]4CC[C@@H](C4)[C@@H]3C2=O)cc1)c1ccc(-c2c3nc(c(-c4cc(S(=O)(=O)[O-])ccc4F)c4ccc([nH]4)c(-c4cc(S(=O)(=O)[O-])ccc4F)c4nc(c(-c5cc(S(=O)(=O)[O-])ccc5F)c5ccc2[nH]5)C=C4)C=C3)cc1
REMARK SMILES IDX 5 1 4 2 3 3 1 4 2 5 38 7 39 8 100 9 40 10 99 11 41 12 42 13
REMARK SMILES IDX 43 14 93 15 44 16 98 17 92 18 94 19 45 20 97 21 91 22 90 23
REMARK SMILES IDX 46 25 78 26 58 27 77 28 59 29 62 30 76 31 95 32 60 33 61 34
REMARK SMILES IDX 75 36 96 37 63 38 47 39 48 40 56 41 49 42 55 43 57 44 54 45
REMARK SMILES IDX 50 46 51 47 52 48 53 49 79 50 80 51 88 52 81 53 87 54 89 55
REMARK SMILES IDX 86 56 82 57 83 58 84 59 85 60 64 61 65 62 73 63 66 64 72 65
REMARK SMILES IDX 74 66 71 67 67 68 68 69 69 70 70 71 6 72 7 73 8 74 9 75
REMARK SMILES IDX 10 77 11 78 12 79 16 80 13 81 15 82 14 83 17 84 18 85 19 86
REMARK SMILES IDX 20 88 21 89 37 90 22 91 36 92 23 93 24 94 25 95 34 96 26 97
REMARK SMILES IDX 27 98 33 99 35 100 28 101 31 102 29 103 32 104 30 105
REMARK H PARENT 3 6 94 24 62 35 8 76 19 87
REMARK Flexibility Score: inf
ROOT
ATOM      1  C   UNL     1       4.504  -1.986  -1.793  1.00  0.00     0.023 C 
ENDROOT
BRANCH   1   2
ATOM      2  C   UNL     1       4.274  -0.527  -1.407  1.00  0.00     0.116 C 
BRANCH   2   3
ATOM      3  N   UNL     1       2.884  -0.226  -1.116  1.00  0.00    -0.352 N 
ATOM      4  O   UNL     1       1.038   0.120   0.121  1.00  0.00    -0.269 OA
ATOM      5  C   UNL     1       2.264   0.035   0.082  1.00  0.00     0.251 C 
ATOM      6  H   UNL     1       2.291  -0.206  -1.902  1.00  0.00     0.163 HD
BRANCH   5   7
ATOM      7  C   UNL     1       3.051   0.193   1.327  1.00  0.00     0.039 A 
ATOM      8  C   UNL     1       4.200   0.987   1.366  1.00  0.00     0.014 A 
ATOM      9  C   UNL     1       2.600  -0.431   2.494  1.00  0.00     0.014 A 
ATOM     10  C   UNL     1       4.967   1.044   2.529  1.00  0.00     0.010 A 
ATOM     11  C   UNL     1       3.326  -0.303   3.683  1.00  0.00     0.010 A 
ATOM     12  C   UNL     1       4.532   0.414   3.706  1.00  0.00    -0.014 A 
BRANCH  12  13
ATOM     13  C   UNL     1       5.315   0.569   4.963  1.00  0.00     0.031 A 
ATOM     14  C   UNL     1       5.950  -0.619   5.636  1.00  0.00     0.074 A 
ATOM     15  C   UNL     1       5.451   1.798   5.500  1.00  0.00     0.049 A 
ATOM     16  N   UNL     1       6.644  -0.666   6.745  1.00  0.00    -0.248 NA
ATOM     17  C   UNL     1       5.774  -1.925   4.984  1.00  0.00     0.031 C 
ATOM     18  C   UNL     1       4.871   3.025   4.946  1.00  0.00     0.029 A 
ATOM     19  N   UNL     1       6.118   2.226   6.620  1.00  0.00    -0.354 N 
ATOM     20  C   UNL     1       6.976  -2.004   6.935  1.00  0.00     0.074 A 
ATOM     21  C   UNL     1       6.375  -2.739   5.841  1.00  0.00     0.031 C 
ATOM     22  C   UNL     1       5.234   4.067   5.707  1.00  0.00     0.029 A 
ATOM     23  C   UNL     1       6.011   3.580   6.841  1.00  0.00     0.049 A 
ATOM     24  H   UNL     1       6.625   1.622   7.209  1.00  0.00     0.167 HD
ATOM     25  C   UNL     1       7.717  -2.562   7.926  1.00  0.00     0.034 A 
ATOM     26  C   UNL     1       6.460   4.344   7.856  1.00  0.00     0.034 A 
ATOM     27  C   UNL     1       8.308  -1.812   9.011  1.00  0.00     0.049 A 
ATOM     28  C   UNL     1       7.242   3.694   8.965  1.00  0.00     0.074 A 
ATOM     29  C   UNL     1       9.110  -2.275  10.041  1.00  0.00     0.029 A 
ATOM     30  N   UNL     1       8.151  -0.447   9.220  1.00  0.00    -0.354 N 
ATOM     31  N   UNL     1       7.571   2.431   9.112  1.00  0.00    -0.248 NA
ATOM     32  C   UNL     1       7.720   4.572  10.039  1.00  0.00     0.031 C 
ATOM     33  C   UNL     1       9.372  -1.210  10.910  1.00  0.00     0.029 A 
ATOM     34  C   UNL     1       8.809  -0.061  10.380  1.00  0.00     0.049 A 
ATOM     35  H   UNL     1       7.646   0.158   8.630  1.00  0.00     0.167 HD
ATOM     36  C   UNL     1       8.315   2.369  10.287  1.00  0.00     0.074 A 
ATOM     37  C   UNL     1       8.403   3.723  10.794  1.00  0.00     0.031 C 
ATOM     38  C   UNL     1       8.876   1.290  10.889  1.00  0.00     0.034 A 
BRANCH  25  39
ATOM     39  C   UNL     1       7.895  -4.063   7.908  1.00  0.00     0.023 A 
ATOM     40  C   UNL     1       8.584  -4.719   6.872  1.00  0.00     0.031 A 
ATOM     41  C   UNL     1       7.366  -4.853   8.945  1.00  0.00     0.131 A 
ATOM     42  C   UNL     1       8.671  -6.120   6.864  1.00  0.00     0.055 A 
ATOM     43  C   UNL     1       7.522  -6.240   8.971  1.00  0.00     0.041 A 
ATOM     44  F   UNL     1       6.681  -4.288   9.952  1.00  0.00    -0.206 F 
ATOM     45  C   UNL     1       8.166  -6.883   7.919  1.00  0.00     0.022 A 
BRANCH  42  46
ATOM     46  S   UNL     1       9.338  -6.940   5.389  1.00  0.00     0.124 S 
ATOM     47  O   UNL     1       8.441  -6.448   4.345  1.00  0.00    -0.237 OA
ATOM     48  O   UNL     1      10.707  -6.441   5.341  1.00  0.00    -0.237 OA
ATOM     49  O   UNL     1       9.202  -8.363   5.696  1.00  0.00    -0.744 OA
ENDBRANCH  42  46
ENDBRANCH  25  39
BRANCH  26  50
ATOM     50  C   UNL     1       6.145   5.801   7.890  1.00  0.00     0.023 A 
ATOM     51  C   UNL     1       7.160   6.767   7.820  1.00  0.00     0.031 A 
ATOM     52  C   UNL     1       4.817   6.248   8.021  1.00  0.00     0.131 A 
ATOM     53  C   UNL     1       6.836   8.129   7.921  1.00  0.00     0.055 A 
ATOM     54  C   UNL     1       4.495   7.604   8.062  1.00  0.00     0.041 A 
ATOM     55  F   UNL     1       3.808   5.365   8.090  1.00  0.00    -0.206 F 
ATOM     56  C   UNL     1       5.510   8.554   8.025  1.00  0.00     0.022 A 
BRANCH  53  57
ATOM     57  S   UNL     1       8.185   9.338   7.998  1.00  0.00     0.124 S 
ATOM     58  O   UNL     1       8.929   8.879   9.166  1.00  0.00    -0.237 OA
ATOM     59  O   UNL     1       8.836   9.148   6.707  1.00  0.00    -0.237 OA
ATOM     60  O   UNL     1       7.490  10.613   8.162  1.00  0.00    -0.744 OA
ENDBRANCH  53  57
ENDBRANCH  26  50
BRANCH  38  61
ATOM     61  C   UNL     1       9.672   1.546  12.147  1.00  0.00     0.023 A 
ATOM     62  C   UNL     1       9.064   2.009  13.328  1.00  0.00     0.031 A 
ATOM     63  C   UNL     1      11.064   1.346  12.155  1.00  0.00     0.131 A 
ATOM     64  C   UNL     1       9.854   2.315  14.447  1.00  0.00     0.055 A 
ATOM     65  C   UNL     1      11.835   1.589  13.292  1.00  0.00     0.041 A 
ATOM     66  F   UNL     1      11.698   0.910  11.055  1.00  0.00    -0.206 F 
ATOM     67  C   UNL     1      11.233   2.091  14.442  1.00  0.00     0.022 A 
BRANCH  64  68
ATOM     68  S   UNL     1       9.069   3.108  15.877  1.00  0.00     0.124 S 
ATOM     69  O   UNL     1       8.507   4.317  15.283  1.00  0.00    -0.237 OA
ATOM     70  O   UNL     1       8.105   2.099  16.304  1.00  0.00    -0.237 OA
ATOM     71  O   UNL     1      10.181   3.330  16.800  1.00  0.00    -0.744 OA
ENDBRANCH  64  68
ENDBRANCH  38  61
ENDBRANCH  12  13
ENDBRANCH   5   7
ENDBRANCH   2   3
ENDBRANCH   1   2
BRANCH   1  72
ATOM     72  C   UNL     1       3.940  -2.388  -3.160  1.00  0.00     0.023 C 
BRANCH  72  73
ATOM     73  C   UNL     1       4.574  -1.670  -4.351  1.00  0.00     0.116 C 
BRANCH  73  74
ATOM     74  N   UNL     1       5.976  -1.994  -4.514  1.00  0.00    -0.352 N 
ATOM     75  C   UNL     1       6.785  -1.799  -5.600  1.00  0.00     0.252 C 
ATOM     76  H   UNL     1       6.408  -2.413  -3.735  1.00  0.00     0.163 HD
ATOM     77  O   UNL     1       7.904  -2.312  -5.635  1.00  0.00    -0.269 OA
BRANCH  75  78
ATOM     78  C   UNL     1       6.309  -1.102  -6.809  1.00  0.00     0.052 A 
ATOM     79  C   UNL     1       6.440  -1.903  -7.969  1.00  0.00     0.014 A 
ATOM     80  C   UNL     1       5.762   0.186  -6.908  1.00  0.00     0.052 A 
ATOM     81  C   UNL     1       5.952  -1.484  -9.203  1.00  0.00     0.001 A 
ATOM     82  C   UNL     1       5.250   0.573  -8.171  1.00  0.00     0.014 A 
ATOM     83  C   UNL     1       5.331  -0.251  -9.299  1.00  0.00     0.001 A 
BRANCH  80  84
ATOM     84  C   UNL     1       5.510   1.194  -5.833  1.00  0.00     0.256 C 
ATOM     85  O   UNL     1       4.465   1.851  -5.922  1.00  0.00    -0.269 OA
ATOM     86  N   UNL     1       6.264   1.413  -4.706  1.00  0.00    -0.322 N 
ATOM     87  H   UNL     1       5.857   2.047  -4.073  1.00  0.00     0.170 HD
BRANCH  86  88
ATOM     88  C   UNL     1       7.493   0.909  -4.287  1.00  0.00     0.041 A 
ATOM     89  C   UNL     1       7.563   0.478  -2.959  1.00  0.00     0.028 A 
ATOM     90  C   UNL     1       8.586   0.752  -5.130  1.00  0.00     0.028 A 
ATOM     91  C   UNL     1       8.595  -0.365  -2.562  1.00  0.00     0.029 A 
ATOM     92  C   UNL     1       9.690   0.020  -4.684  1.00  0.00     0.029 A 
ATOM     93  C   UNL     1       9.641  -0.634  -3.443  1.00  0.00     0.052 A 
BRANCH  93  94
ATOM     94  N   UNL     1      10.534  -1.687  -3.177  1.00  0.00    -0.250 N 
ATOM     95  C   UNL     1      11.894  -1.656  -3.504  1.00  0.00     0.237 C 
ATOM     96  C   UNL     1      10.091  -2.986  -2.845  1.00  0.00     0.237 C 
ATOM     97  O   UNL     1      12.628  -0.715  -3.740  1.00  0.00    -0.274 OA
ATOM     98  C   UNL     1      12.207  -3.094  -3.727  1.00  0.00     0.095 C 
ATOM     99  C   UNL     1      11.369  -3.733  -2.633  1.00  0.00     0.095 C 
ATOM    100  O   UNL     1       8.961  -3.422  -2.698  1.00  0.00    -0.274 OA
ATOM    101  C   UNL     1      13.476  -3.945  -3.712  1.00  0.00     0.002 C 
ATOM    102  C   UNL     1      11.850  -5.177  -2.724  1.00  0.00     0.002 C 
ATOM    103  C   UNL     1      13.200  -5.035  -4.771  1.00  0.00     0.005 C 
ATOM    104  C   UNL     1      13.343  -4.848  -2.463  1.00  0.00     0.009 C 
ATOM    105  C   UNL     1      11.954  -5.748  -4.168  1.00  0.00     0.005 C 
ENDBRANCH  93  94
ENDBRANCH  86  88
ENDBRANCH  80  84
ENDBRANCH  75  78
ENDBRANCH  73  74
ENDBRANCH  72  73
ENDBRANCH   1  72
TORSDOF 17
