REMARK SMILES O=C(Cc1ccc(S(=O)(=O)CC(=O)NCC2CC2)cc1)NCCCCNC(=O)c1ccc(-c2c3nc(c(-c4cc(S(=O)(=O)[O-])ccc4F)c4ccc([nH]4)c(-c4cc(S(=O)(=O)[O-])ccc4F)c4nc(c(-c5cc(S(=O)(=O)[O-])ccc5F)c5ccc2[nH]5)C=C4)C=C3)cc1
REMARK SMILES IDX 22 1 21 2 1 3 2 4 3 6 4 7 5 8 20 9 6 10 19 11 7 12 8 13 9 14
REMARK SMILES IDX 10 15 11 16 12 17 13 18 14 19 15 21 16 22 17 23 18 24 23 25
REMARK SMILES IDX 24 26 25 27 26 28 27 29 28 31 29 32 30 33 91 34 31 35 90 36
REMARK SMILES IDX 32 37 33 38 34 39 84 40 35 41 89 42 83 43 85 44 36 45 88 46
REMARK SMILES IDX 82 47 81 48 37 50 69 51 49 52 68 53 50 54 53 55 67 56 86 57
REMARK SMILES IDX 51 58 52 59 66 61 87 62 54 63 38 64 39 65 47 66 40 67 46 68
REMARK SMILES IDX 48 69 45 70 41 71 42 72 43 73 44 74 70 75 71 76 79 77 72 78
REMARK SMILES IDX 78 79 80 80 77 81 73 82 74 83 75 84 76 85 55 86 56 87 64 88
REMARK SMILES IDX 57 89 63 90 65 91 62 92 58 93 59 94 60 95 61 96
REMARK H PARENT 21 5 14 20 26 30 85 49 53 60
REMARK Flexibility Score: inf
ROOT
ATOM      1  C   UNL     1       1.984   1.377   1.887  1.00  0.00     0.116 C 
ENDROOT
BRANCH   1   2
ATOM      2  N   UNL     1       2.669   0.506   0.955  1.00  0.00    -0.356 N 
ATOM      3  O   UNL     1       0.781  -0.412   0.011  1.00  0.00    -0.275 OA
ATOM      4  C   UNL     1       1.999  -0.255   0.016  1.00  0.00     0.224 C 
ATOM      5  H   UNL     1       3.651   0.453   0.991  1.00  0.00     0.163 HD
BRANCH   4   6
ATOM      6  C   UNL     1       2.902  -0.889  -1.033  1.00  0.00     0.135 C 
BRANCH   6   7
ATOM      7  C   UNL     1       3.747   0.088  -1.831  1.00  0.00    -0.039 A 
ATOM      8  C   UNL     1       4.835  -0.396  -2.571  1.00  0.00     0.005 A 
ATOM      9  C   UNL     1       3.484   1.468  -1.852  1.00  0.00     0.005 A 
ATOM     10  C   UNL     1       5.657   0.484  -3.281  1.00  0.00     0.020 A 
ATOM     11  C   UNL     1       4.339   2.355  -2.504  1.00  0.00     0.020 A 
ATOM     12  C   UNL     1       5.410   1.861  -3.238  1.00  0.00     0.067 A 
BRANCH  12  13
ATOM     13  S   UNL     1       6.513   2.941  -4.108  1.00  0.00     0.187 S 
ATOM     14  O   UNL     1       7.500   3.347  -3.127  1.00  0.00    -0.223 OA
ATOM     15  O   UNL     1       6.942   2.212  -5.292  1.00  0.00    -0.223 OA
BRANCH  13  16
ATOM     16  C   UNL     1       5.695   4.396  -4.660  1.00  0.00     0.241 C 
BRANCH  16  17
ATOM     17  C   UNL     1       4.268   4.228  -5.068  1.00  0.00     0.235 C 
ATOM     18  O   UNL     1       3.354   4.583  -4.316  1.00  0.00    -0.274 OA
ATOM     19  N   UNL     1       3.907   3.782  -6.295  1.00  0.00    -0.355 N 
ATOM     20  H   UNL     1       2.938   3.795  -6.471  1.00  0.00     0.163 HD
BRANCH  19  21
ATOM     21  C   UNL     1       4.714   3.289  -7.387  1.00  0.00     0.119 C 
BRANCH  21  22
ATOM     22  C   UNL     1       4.179   1.959  -7.825  1.00  0.00     0.008 C 
ATOM     23  C   UNL     1       5.018   0.711  -7.694  1.00  0.00     0.006 C 
ATOM     24  C   UNL     1       3.809   0.885  -6.824  1.00  0.00     0.006 C 
ENDBRANCH  21  22
ENDBRANCH  19  21
ENDBRANCH  16  17
ENDBRANCH  13  16
ENDBRANCH  12  13
ENDBRANCH   6   7
ENDBRANCH   4   6
ENDBRANCH   1   2
BRANCH   1  25
ATOM     25  C   UNL     1       2.401   1.132   3.332  1.00  0.00     0.023 C 
BRANCH  25  26
ATOM     26  C   UNL     1       3.891   1.336   3.623  1.00  0.00     0.023 C 
BRANCH  26  27
ATOM     27  C   UNL     1       4.440   2.729   3.324  1.00  0.00     0.116 C 
BRANCH  27  28
ATOM     28  N   UNL     1       3.844   3.760   4.157  1.00  0.00    -0.352 N 
ATOM     29  C   UNL     1       4.446   4.678   4.987  1.00  0.00     0.251 C 
ATOM     30  H   UNL     1       2.861   3.809   4.123  1.00  0.00     0.163 HD
ATOM     31  O   UNL     1       3.748   5.358   5.736  1.00  0.00    -0.269 OA
BRANCH  29  32
ATOM     32  C   UNL     1       5.921   4.828   5.007  1.00  0.00     0.039 A 
ATOM     33  C   UNL     1       6.568   4.955   6.240  1.00  0.00     0.014 A 
ATOM     34  C   UNL     1       6.667   4.854   3.826  1.00  0.00     0.014 A 
ATOM     35  C   UNL     1       7.964   5.031   6.291  1.00  0.00     0.010 A 
ATOM     36  C   UNL     1       8.062   4.854   3.883  1.00  0.00     0.010 A 
ATOM     37  C   UNL     1       8.727   4.938   5.116  1.00  0.00    -0.014 A 
BRANCH  37  38
ATOM     38  C   UNL     1      10.216   4.915   5.161  1.00  0.00     0.031 A 
ATOM     39  C   UNL     1      11.016   6.009   4.504  1.00  0.00     0.074 A 
ATOM     40  C   UNL     1      10.851   3.876   5.742  1.00  0.00     0.049 A 
ATOM     41  N   UNL     1      12.313   6.125   4.376  1.00  0.00    -0.248 NA
ATOM     42  C   UNL     1      10.252   7.105   3.889  1.00  0.00     0.031 C 
ATOM     43  C   UNL     1      10.192   2.738   6.386  1.00  0.00     0.029 A 
ATOM     44  N   UNL     1      12.190   3.602   5.880  1.00  0.00    -0.354 N 
ATOM     45  C   UNL     1      12.523   7.296   3.654  1.00  0.00     0.074 A 
ATOM     46  C   UNL     1      11.214   7.821   3.325  1.00  0.00     0.031 C 
ATOM     47  C   UNL     1      11.126   1.906   6.874  1.00  0.00     0.029 A 
ATOM     48  C   UNL     1      12.450   2.418   6.533  1.00  0.00     0.049 A 
ATOM     49  H   UNL     1      12.899   4.197   5.544  1.00  0.00     0.167 HD
ATOM     50  C   UNL     1      13.695   7.887   3.314  1.00  0.00     0.034 A 
ATOM     51  C   UNL     1      13.618   1.804   6.812  1.00  0.00     0.034 A 
ATOM     52  C   UNL     1      14.993   7.355   3.656  1.00  0.00     0.049 A 
ATOM     53  C   UNL     1      14.908   2.460   6.386  1.00  0.00     0.074 A 
ATOM     54  C   UNL     1      16.241   7.904   3.411  1.00  0.00     0.029 A 
ATOM     55  N   UNL     1      15.216   6.145   4.302  1.00  0.00    -0.354 N 
ATOM     56  N   UNL     1      15.087   3.595   5.750  1.00  0.00    -0.248 NA
ATOM     57  C   UNL     1      16.152   1.757   6.722  1.00  0.00     0.031 C 
ATOM     58  C   UNL     1      17.214   6.994   3.835  1.00  0.00     0.029 A 
ATOM     59  C   UNL     1      16.578   5.915   4.428  1.00  0.00     0.049 A 
ATOM     60  H   UNL     1      14.509   5.540   4.624  1.00  0.00     0.167 HD
ATOM     61  C   UNL     1      16.467   3.757   5.645  1.00  0.00     0.074 A 
ATOM     62  C   UNL     1      17.069   2.611   6.295  1.00  0.00     0.031 C 
ATOM     63  C   UNL     1      17.172   4.764   5.069  1.00  0.00     0.034 A 
BRANCH  50  64
ATOM     64  C   UNL     1      13.627   9.161   2.503  1.00  0.00     0.023 A 
ATOM     65  C   UNL     1      13.018  10.327   3.002  1.00  0.00     0.031 A 
ATOM     66  C   UNL     1      14.166   9.208   1.204  1.00  0.00     0.131 A 
ATOM     67  C   UNL     1      12.897  11.460   2.184  1.00  0.00     0.055 A 
ATOM     68  C   UNL     1      14.118  10.367   0.427  1.00  0.00     0.041 A 
ATOM     69  F   UNL     1      14.742   8.123   0.663  1.00  0.00    -0.206 F 
ATOM     70  C   UNL     1      13.467  11.498   0.910  1.00  0.00     0.022 A 
BRANCH  67  71
ATOM     71  S   UNL     1      11.857  12.833   2.754  1.00  0.00     0.124 S 
ATOM     72  O   UNL     1      10.571  12.168   2.946  1.00  0.00    -0.237 OA
ATOM     73  O   UNL     1      12.541  13.265   3.967  1.00  0.00    -0.237 OA
ATOM     74  O   UNL     1      11.900  13.780   1.642  1.00  0.00    -0.744 OA
ENDBRANCH  67  71
ENDBRANCH  50  64
BRANCH  51  75
ATOM     75  C   UNL     1      13.635   0.489   7.519  1.00  0.00     0.023 A 
ATOM     76  C   UNL     1      14.240   0.354   8.779  1.00  0.00     0.031 A 
ATOM     77  C   UNL     1      13.097  -0.665   6.921  1.00  0.00     0.131 A 
ATOM     78  C   UNL     1      14.341  -0.912   9.376  1.00  0.00     0.055 A 
ATOM     79  C   UNL     1      13.145  -1.912   7.547  1.00  0.00     0.041 A 
ATOM     80  F   UNL     1      12.506  -0.595   5.718  1.00  0.00    -0.206 F 
ATOM     81  C   UNL     1      13.784  -2.043   8.776  1.00  0.00     0.022 A 
BRANCH  78  82
ATOM     82  S   UNL     1      15.301  -1.076  10.906  1.00  0.00     0.124 S 
ATOM     83  O   UNL     1      16.606  -0.573  10.492  1.00  0.00    -0.237 OA
ATOM     84  O   UNL     1      14.550  -0.231  11.828  1.00  0.00    -0.237 OA
ATOM     85  O   UNL     1      15.245  -2.508  11.191  1.00  0.00    -0.744 OA
ENDBRANCH  78  82
ENDBRANCH  51  75
BRANCH  63  86
ATOM     86  C   UNL     1      18.678   4.696   5.166  1.00  0.00     0.023 A 
ATOM     87  C   UNL     1      19.420   3.687   4.527  1.00  0.00     0.031 A 
ATOM     88  C   UNL     1      19.380   5.653   5.921  1.00  0.00     0.131 A 
ATOM     89  C   UNL     1      20.811   3.623   4.703  1.00  0.00     0.055 A 
ATOM     90  C   UNL     1      20.771   5.624   6.037  1.00  0.00     0.041 A 
ATOM     91  F   UNL     1      18.725   6.637   6.558  1.00  0.00    -0.206 F 
ATOM     92  C   UNL     1      21.493   4.597   5.438  1.00  0.00     0.022 A 
BRANCH  89  93
ATOM     93  S   UNL     1      21.710   2.193   4.042  1.00  0.00     0.124 S 
ATOM     94  O   UNL     1      21.044   1.080   4.710  1.00  0.00    -0.237 OA
ATOM     95  O   UNL     1      21.471   2.310   2.607  1.00  0.00    -0.237 OA
ATOM     96  O   UNL     1      23.091   2.432   4.460  1.00  0.00    -0.744 OA
ENDBRANCH  89  93
ENDBRANCH  63  86
ENDBRANCH  37  38
ENDBRANCH  29  32
ENDBRANCH  27  28
ENDBRANCH  26  27
ENDBRANCH  25  26
ENDBRANCH   1  25
TORSDOF 20
