REMARK SMILES CC(C)[C@H]([NH2+]C[C@H]1CC[C@@H](C(=O)NCCCCNC(=O)c2ccc(-c3c4nc(c(-c5cc(S(=O)(=O)[O-])ccc5F)c5ccc([nH]5)c(-c5cc(S(=O)(=O)[O-])ccc5F)c5nc(c(-c6cc(S(=O)(=O)[O-])ccc6F)c6ccc3[nH]6)C=C5)C=C4)cc2)CC1)c1ccccc1
REMARK SMILES IDX 15 1 14 2 13 3 11 4 12 5 10 7 7 8 8 9 85 10 9 11 84 12 6 13
REMARK SMILES IDX 5 14 4 17 2 18 1 19 3 20 86 21 87 22 91 23 88 24 90 25 89 26
REMARK SMILES IDX 16 27 17 28 18 29 19 30 20 32 21 33 22 34 83 35 23 36 82 37
REMARK SMILES IDX 24 38 25 39 26 40 76 41 27 42 81 43 75 44 77 45 28 46 80 47
REMARK SMILES IDX 74 48 73 49 29 51 61 52 41 53 60 54 42 55 45 56 59 57 78 58
REMARK SMILES IDX 43 59 44 60 58 62 79 63 46 64 30 65 31 66 39 67 32 68 38 69
REMARK SMILES IDX 40 70 37 71 33 72 34 73 35 74 36 75 62 76 63 77 71 78 64 79
REMARK SMILES IDX 70 80 72 81 69 82 65 83 66 84 67 85 68 86 47 87 48 88 56 89
REMARK SMILES IDX 49 90 55 91 57 92 54 93 50 94 51 95 52 96 53 97
REMARK H PARENT 13 6 5 15 5 16 18 31 77 50 45 61
REMARK Flexibility Score: inf
ROOT
ATOM      1  C   UNL     1       1.525  -2.658   2.166  1.00  0.00     0.023 C 
ENDROOT
BRANCH   1   2
ATOM      2  C   UNL     1       2.185  -1.438   2.802  1.00  0.00     0.116 C 
BRANCH   2   3
ATOM      3  N   UNL     1       3.528  -1.696   3.264  1.00  0.00    -0.356 N 
ATOM      4  C   UNL     1       4.739  -1.252   2.847  1.00  0.00     0.223 C 
ATOM      5  O   UNL     1       5.707  -1.622   3.524  1.00  0.00    -0.275 OA
ATOM      6  H   UNL     1       3.573  -2.313   4.029  1.00  0.00     0.163 HD
BRANCH   4   7
ATOM      7  C   UNL     1       4.987  -0.347   1.628  1.00  0.00     0.078 C 
ATOM      8  C   UNL     1       2.820   0.844  -0.123  1.00  0.00     0.044 C 
ATOM      9  C   UNL     1       3.193   1.475   1.230  1.00  0.00     0.010 C 
ATOM     10  C   UNL     1       3.326  -0.602  -0.331  1.00  0.00     0.010 C 
ATOM     11  C   UNL     1       4.572   1.114   1.763  1.00  0.00     0.014 C 
ATOM     12  C   UNL     1       4.683  -0.944   0.259  1.00  0.00     0.014 C 
BRANCH   8  13
ATOM     13  C   UNL     1       1.285   0.830  -0.367  1.00  0.00     0.264 C 
BRANCH  13  14
ATOM     14  N   UNL     1       0.577   2.048   0.028  1.00  0.00    -0.340 N 
ATOM     15  H   UNL     1       0.691   2.176   1.033  1.00  0.00     0.346 HD
ATOM     16  H   UNL     1       0.980   2.816  -0.508  1.00  0.00     0.346 HD
BRANCH  14  17
ATOM     17  C   UNL     1      -0.882   2.015  -0.282  1.00  0.00     0.216 C 
BRANCH  17  18
ATOM     18  C   UNL     1      -1.610   0.933   0.598  1.00  0.00     0.046 C 
ATOM     19  C   UNL     1      -1.984   1.402   2.014  1.00  0.00     0.014 C 
ATOM     20  C   UNL     1      -2.773   0.270  -0.156  1.00  0.00     0.014 C 
ENDBRANCH  17  18
BRANCH  17  21
ATOM     21  C   UNL     1      -1.481   3.431  -0.190  1.00  0.00     0.009 A 
ATOM     22  C   UNL     1      -0.662   4.570  -0.303  1.00  0.00     0.010 A 
ATOM     23  C   UNL     1      -2.858   3.653  -0.020  1.00  0.00     0.010 A 
ATOM     24  C   UNL     1      -1.181   5.861  -0.162  1.00  0.00     0.001 A 
ATOM     25  C   UNL     1      -3.379   4.940   0.139  1.00  0.00     0.001 A 
ATOM     26  C   UNL     1      -2.538   6.044   0.079  1.00  0.00     0.000 A 
ENDBRANCH  17  21
ENDBRANCH  14  17
ENDBRANCH  13  14
ENDBRANCH   8  13
ENDBRANCH   4   7
ENDBRANCH   2   3
ENDBRANCH   1   2
BRANCH   1  27
ATOM     27  C   UNL     1       0.705  -3.518   3.125  1.00  0.00     0.023 C 
BRANCH  27  28
ATOM     28  C   UNL     1      -0.470  -2.809   3.794  1.00  0.00     0.116 C 
BRANCH  28  29
ATOM     29  N   UNL     1      -1.429  -2.231   2.865  1.00  0.00    -0.352 N 
ATOM     30  C   UNL     1      -2.779  -2.026   3.047  1.00  0.00     0.251 C 
ATOM     31  H   UNL     1      -1.066  -1.951   1.994  1.00  0.00     0.163 HD
ATOM     32  O   UNL     1      -3.475  -1.600   2.137  1.00  0.00    -0.269 OA
BRANCH  30  33
ATOM     33  C   UNL     1      -3.413  -2.390   4.322  1.00  0.00     0.039 A 
ATOM     34  C   UNL     1      -4.607  -3.112   4.259  1.00  0.00     0.014 A 
ATOM     35  C   UNL     1      -2.817  -2.091   5.548  1.00  0.00     0.014 A 
ATOM     36  C   UNL     1      -5.145  -3.638   5.424  1.00  0.00     0.010 A 
ATOM     37  C   UNL     1      -3.304  -2.691   6.699  1.00  0.00     0.010 A 
ATOM     38  C   UNL     1      -4.460  -3.483   6.637  1.00  0.00    -0.014 A 
BRANCH  38  39
ATOM     39  C   UNL     1      -4.941  -4.170   7.851  1.00  0.00     0.031 A 
ATOM     40  C   UNL     1      -5.454  -3.359   8.999  1.00  0.00     0.074 A 
ATOM     41  C   UNL     1      -4.865  -5.513   7.902  1.00  0.00     0.049 A 
ATOM     42  N   UNL     1      -5.884  -3.758  10.164  1.00  0.00    -0.248 NA
ATOM     43  C   UNL     1      -5.446  -1.898   8.824  1.00  0.00     0.031 C 
ATOM     44  C   UNL     1      -4.329  -6.370   6.838  1.00  0.00     0.029 A 
ATOM     45  N   UNL     1      -5.244  -6.397   8.875  1.00  0.00    -0.354 N 
ATOM     46  C   UNL     1      -6.187  -2.599  10.868  1.00  0.00     0.074 A 
ATOM     47  C   UNL     1      -5.822  -1.483  10.022  1.00  0.00     0.031 C 
ATOM     48  C   UNL     1      -4.457  -7.656   7.200  1.00  0.00     0.029 A 
ATOM     49  C   UNL     1      -5.043  -7.714   8.532  1.00  0.00     0.049 A 
ATOM     50  H   UNL     1      -5.625  -6.117   9.739  1.00  0.00     0.167 HD
ATOM     51  C   UNL     1      -6.742  -2.485  12.100  1.00  0.00     0.034 A 
ATOM     52  C   UNL     1      -5.312  -8.838   9.223  1.00  0.00     0.034 A 
ATOM     53  C   UNL     1      -7.093  -3.628  12.906  1.00  0.00     0.049 A 
ATOM     54  C   UNL     1      -5.951  -8.687  10.579  1.00  0.00     0.074 A 
ATOM     55  C   UNL     1      -7.664  -3.663  14.164  1.00  0.00     0.029 A 
ATOM     56  N   UNL     1      -6.904  -4.953  12.519  1.00  0.00    -0.354 N 
ATOM     57  N   UNL     1      -6.259  -7.585  11.227  1.00  0.00    -0.248 NA
ATOM     58  C   UNL     1      -6.294  -9.923  11.287  1.00  0.00     0.031 C 
ATOM     59  C   UNL     1      -7.777  -5.003  14.556  1.00  0.00     0.029 A 
ATOM     60  C   UNL     1      -7.337  -5.810  13.517  1.00  0.00     0.049 A 
ATOM     61  H   UNL     1      -6.518  -5.239  11.660  1.00  0.00     0.167 HD
ATOM     62  C   UNL     1      -6.857  -7.996  12.412  1.00  0.00     0.074 A 
ATOM     63  C   UNL     1      -6.885  -9.447  12.373  1.00  0.00     0.031 C 
ATOM     64  C   UNL     1      -7.338  -7.253  13.442  1.00  0.00     0.034 A 
BRANCH  51  65
ATOM     65  C   UNL     1      -6.953  -1.087  12.630  1.00  0.00     0.023 A 
ATOM     66  C   UNL     1      -7.786  -0.166  11.966  1.00  0.00     0.031 A 
ATOM     67  C   UNL     1      -6.249  -0.635  13.759  1.00  0.00     0.131 A 
ATOM     68  C   UNL     1      -7.814   1.177  12.374  1.00  0.00     0.055 A 
ATOM     69  C   UNL     1      -6.353   0.681  14.215  1.00  0.00     0.041 A 
ATOM     70  F   UNL     1      -5.419  -1.457  14.421  1.00  0.00    -0.206 F 
ATOM     71  C   UNL     1      -7.123   1.602  13.509  1.00  0.00     0.022 A 
BRANCH  68  72
ATOM     72  S   UNL     1      -8.625   2.391  11.296  1.00  0.00     0.124 S 
ATOM     73  O   UNL     1      -7.844   2.261  10.068  1.00  0.00    -0.237 OA
ATOM     74  O   UNL     1      -9.995   1.897  11.237  1.00  0.00    -0.237 OA
ATOM     75  O   UNL     1      -8.447   3.655  12.008  1.00  0.00    -0.744 OA
ENDBRANCH  68  72
ENDBRANCH  51  65
BRANCH  52  76
ATOM     76  C   UNL     1      -5.004 -10.178   8.648  1.00  0.00     0.023 A 
ATOM     77  C   UNL     1      -6.028 -11.086   8.335  1.00  0.00     0.031 A 
ATOM     78  C   UNL     1      -3.676 -10.579   8.412  1.00  0.00     0.131 A 
ATOM     79  C   UNL     1      -5.710 -12.362   7.845  1.00  0.00     0.055 A 
ATOM     80  C   UNL     1      -3.366 -11.832   7.880  1.00  0.00     0.041 A 
ATOM     81  F   UNL     1      -2.658  -9.745   8.678  1.00  0.00    -0.206 F 
ATOM     82  C   UNL     1      -4.386 -12.737   7.605  1.00  0.00     0.022 A 
BRANCH  79  83
ATOM     83  S   UNL     1      -7.051 -13.557   7.591  1.00  0.00     0.124 S 
ATOM     84  O   UNL     1      -7.664 -13.604   8.913  1.00  0.00    -0.237 OA
ATOM     85  O   UNL     1      -7.835 -12.911   6.543  1.00  0.00    -0.237 OA
ATOM     86  O   UNL     1      -6.351 -14.773   7.183  1.00  0.00    -0.744 OA
ENDBRANCH  79  83
ENDBRANCH  52  76
BRANCH  64  87
ATOM     87  C   UNL     1      -7.963  -8.016  14.580  1.00  0.00     0.023 A 
ATOM     88  C   UNL     1      -7.195  -8.838  15.422  1.00  0.00     0.031 A 
ATOM     89  C   UNL     1      -9.348  -7.942  14.802  1.00  0.00     0.131 A 
ATOM     90  C   UNL     1      -7.827  -9.607  16.407  1.00  0.00     0.055 A 
ATOM     91  C   UNL     1      -9.964  -8.662  15.825  1.00  0.00     0.041 A 
ATOM     92  F   UNL     1     -10.125  -7.171  14.024  1.00  0.00    -0.206 F 
ATOM     93  C   UNL     1      -9.205  -9.513  16.624  1.00  0.00     0.022 A 
BRANCH  90  94
ATOM     94  S   UNL     1      -6.838 -10.815  17.329  1.00  0.00     0.124 S 
ATOM     95  O   UNL     1      -6.298 -11.646  16.258  1.00  0.00    -0.237 OA
ATOM     96  O   UNL     1      -5.876  -9.964  18.023  1.00  0.00    -0.237 OA
ATOM     97  O   UNL     1      -7.818 -11.473  18.191  1.00  0.00    -0.744 OA
ENDBRANCH  90  94
ENDBRANCH  64  87
ENDBRANCH  38  39
ENDBRANCH  30  33
ENDBRANCH  28  29
ENDBRANCH  27  28
ENDBRANCH   1  27
TORSDOF 19
