REMARK SMILES O=C(Cc1ccccc1[C@H]1CCC[NH2+]1)NCCCCNC(=O)c1ccc(-c2c3nc(c(-c4cc(S(=O)(=O)[O-])ccc4F)c4ccc([nH]4)c(-c4cc(S(=O)(=O)[O-])ccc4F)c4nc(c(-c5cc(S(=O)(=O)[O-])ccc5F)c5ccc2[nH]5)C=C4)C=C3)cc1
REMARK SMILES IDX 18 1 17 2 16 3 15 4 1 5 2 6 3 8 4 9 5 10 9 11 6 12 8 13 7 14
REMARK SMILES IDX 10 15 11 16 14 17 12 18 13 19 19 22 20 23 21 24 22 26 23 27
REMARK SMILES IDX 24 28 85 29 25 30 84 31 26 32 27 33 28 34 78 35 29 36 83 37
REMARK SMILES IDX 77 38 79 39 30 40 82 41 76 42 75 43 31 45 63 46 43 47 62 48
REMARK SMILES IDX 44 49 47 50 61 51 80 52 45 53 46 54 60 56 81 57 48 58 32 59
REMARK SMILES IDX 33 60 41 61 34 62 40 63 42 64 39 65 35 66 36 67 37 68 38 69
REMARK SMILES IDX 64 70 65 71 73 72 66 73 72 74 74 75 71 76 67 77 68 78 69 79
REMARK SMILES IDX 70 80 49 81 50 82 58 83 51 84 57 85 59 86 56 87 52 88 53 89
REMARK SMILES IDX 54 90 55 91
REMARK H PARENT 15 7 14 20 14 21 20 25 79 44 47 55
REMARK Flexibility Score: inf
ROOT
ATOM      1  C   UNL     1       9.429   5.500  -3.596  1.00  0.00     0.023 C 
ENDROOT
BRANCH   1   2
ATOM      2  C   UNL     1       9.221   4.035  -3.192  1.00  0.00     0.023 C 
BRANCH   2   3
ATOM      3  C   UNL     1       8.154   3.803  -2.120  1.00  0.00     0.116 C 
BRANCH   3   4
ATOM      4  N   UNL     1       6.893   4.410  -2.487  1.00  0.00    -0.356 N 
ATOM      5  O   UNL     1       5.742   2.476  -2.975  1.00  0.00    -0.275 OA
ATOM      6  C   UNL     1       5.798   3.701  -2.929  1.00  0.00     0.224 C 
ATOM      7  H   UNL     1       6.813   5.389  -2.416  1.00  0.00     0.163 HD
BRANCH   6   8
ATOM      8  C   UNL     1       4.666   4.581  -3.427  1.00  0.00     0.136 C 
BRANCH   8   9
ATOM      9  C   UNL     1       3.922   5.301  -2.324  1.00  0.00    -0.030 A 
ATOM     10  C   UNL     1       4.324   6.649  -2.122  1.00  0.00     0.005 A 
ATOM     11  C   UNL     1       2.930   4.740  -1.480  1.00  0.00     0.013 A 
ATOM     12  C   UNL     1       3.796   7.437  -1.106  1.00  0.00     0.000 A 
ATOM     13  C   UNL     1       2.430   5.576  -0.445  1.00  0.00     0.010 A 
ATOM     14  C   UNL     1       2.843   6.898  -0.265  1.00  0.00     0.001 A 
BRANCH  11  15
ATOM     15  C   UNL     1       2.417   3.291  -1.451  1.00  0.00     0.214 C 
ATOM     16  C   UNL     1       0.887   3.150  -1.339  1.00  0.00     0.076 C 
ATOM     17  N   UNL     1       2.614   2.432  -2.612  1.00  0.00    -0.340 N 
ATOM     18  C   UNL     1       0.389   3.154  -2.779  1.00  0.00     0.068 C 
ATOM     19  C   UNL     1       1.597   2.737  -3.602  1.00  0.00     0.261 C 
ATOM     20  H   UNL     1       2.536   1.454  -2.332  1.00  0.00     0.346 HD
ATOM     21  H   UNL     1       3.540   2.594  -3.008  1.00  0.00     0.346 HD
ENDBRANCH  11  15
ENDBRANCH   8   9
ENDBRANCH   6   8
ENDBRANCH   3   4
ENDBRANCH   2   3
ENDBRANCH   1   2
BRANCH   1  22
ATOM     22  C   UNL     1       9.737   6.462  -2.452  1.00  0.00     0.116 C 
BRANCH  22  23
ATOM     23  N   UNL     1      10.992   6.156  -1.789  1.00  0.00    -0.352 N 
ATOM     24  C   UNL     1      12.078   6.967  -1.552  1.00  0.00     0.251 C 
ATOM     25  H   UNL     1      11.079   5.232  -1.460  1.00  0.00     0.163 HD
ATOM     26  O   UNL     1      13.119   6.472  -1.134  1.00  0.00    -0.269 OA
BRANCH  24  27
ATOM     27  C   UNL     1      12.002   8.421  -1.829  1.00  0.00     0.039 A 
ATOM     28  C   UNL     1      13.078   9.040  -2.471  1.00  0.00     0.014 A 
ATOM     29  C   UNL     1      10.888   9.177  -1.453  1.00  0.00     0.014 A 
ATOM     30  C   UNL     1      13.008  10.398  -2.795  1.00  0.00     0.010 A 
ATOM     31  C   UNL     1      10.789  10.513  -1.843  1.00  0.00     0.010 A 
ATOM     32  C   UNL     1      11.847  11.139  -2.520  1.00  0.00    -0.014 A 
BRANCH  32  33
ATOM     33  C   UNL     1      11.725  12.563  -2.940  1.00  0.00     0.031 A 
ATOM     34  C   UNL     1      11.562  13.649  -1.910  1.00  0.00     0.074 A 
ATOM     35  C   UNL     1      11.708  12.874  -4.252  1.00  0.00     0.049 A 
ATOM     36  N   UNL     1      11.368  14.932  -2.082  1.00  0.00    -0.248 NA
ATOM     37  C   UNL     1      11.593  13.230  -0.501  1.00  0.00     0.031 C 
ATOM     38  C   UNL     1      11.824  11.910  -5.348  1.00  0.00     0.029 A 
ATOM     39  N   UNL     1      11.579  14.084  -4.889  1.00  0.00    -0.354 N 
ATOM     40  C   UNL     1      11.251  15.474  -0.806  1.00  0.00     0.074 A 
ATOM     41  C   UNL     1      11.325  14.367   0.124  1.00  0.00     0.031 C 
ATOM     42  C   UNL     1      11.787  12.568  -6.518  1.00  0.00     0.029 A 
ATOM     43  C   UNL     1      11.589  13.991  -6.263  1.00  0.00     0.049 A 
ATOM     44  H   UNL     1      11.488  14.938  -4.409  1.00  0.00     0.167 HD
ATOM     45  C   UNL     1      11.119  16.775  -0.443  1.00  0.00     0.034 A 
ATOM     46  C   UNL     1      11.438  14.938  -7.211  1.00  0.00     0.034 A 
ATOM     47  C   UNL     1      11.047  17.868  -1.383  1.00  0.00     0.049 A 
ATOM     48  C   UNL     1      11.245  16.372  -6.785  1.00  0.00     0.074 A 
ATOM     49  C   UNL     1      10.953  19.224  -1.121  1.00  0.00     0.029 A 
ATOM     50  N   UNL     1      11.048  17.733  -2.766  1.00  0.00    -0.354 N 
ATOM     51  N   UNL     1      11.179  16.872  -5.572  1.00  0.00    -0.248 NA
ATOM     52  C   UNL     1      11.116  17.370  -7.854  1.00  0.00     0.031 C 
ATOM     53  C   UNL     1      10.819  19.900  -2.339  1.00  0.00     0.029 A 
ATOM     54  C   UNL     1      10.921  18.977  -3.367  1.00  0.00     0.049 A 
ATOM     55  H   UNL     1      11.128  16.879  -3.249  1.00  0.00     0.167 HD
ATOM     56  C   UNL     1      11.034  18.248  -5.736  1.00  0.00     0.074 A 
ATOM     57  C   UNL     1      11.039  18.497  -7.163  1.00  0.00     0.031 C 
ATOM     58  C   UNL     1      10.914  19.217  -4.792  1.00  0.00     0.034 A 
BRANCH  45  59
ATOM     59  C   UNL     1      11.018  17.077   1.035  1.00  0.00     0.023 A 
ATOM     60  C   UNL     1      12.060  16.764   1.926  1.00  0.00     0.031 A 
ATOM     61  C   UNL     1       9.856  17.664   1.568  1.00  0.00     0.131 A 
ATOM     62  C   UNL     1      11.889  16.961   3.304  1.00  0.00     0.055 A 
ATOM     63  C   UNL     1       9.728  17.942   2.931  1.00  0.00     0.041 A 
ATOM     64  F   UNL     1       8.816  17.967   0.774  1.00  0.00    -0.206 F 
ATOM     65  C   UNL     1      10.741  17.574   3.811  1.00  0.00     0.022 A 
BRANCH  62  66
ATOM     66  S   UNL     1      13.118  16.256   4.437  1.00  0.00     0.124 S 
ATOM     67  O   UNL     1      13.072  14.841   4.077  1.00  0.00    -0.237 OA
ATOM     68  O   UNL     1      14.334  16.971   4.067  1.00  0.00    -0.237 OA
ATOM     69  O   UNL     1      12.585  16.572   5.760  1.00  0.00    -0.744 OA
ENDBRANCH  62  66
ENDBRANCH  45  59
BRANCH  46  70
ATOM     70  C   UNL     1      11.441  14.567  -8.656  1.00  0.00     0.023 A 
ATOM     71  C   UNL     1      12.428  15.050  -9.530  1.00  0.00     0.031 A 
ATOM     72  C   UNL     1      10.426  13.755  -9.195  1.00  0.00     0.131 A 
ATOM     73  C   UNL     1      12.352  14.759 -10.902  1.00  0.00     0.055 A 
ATOM     74  C   UNL     1      10.389  13.419 -10.550  1.00  0.00     0.041 A 
ATOM     75  F   UNL     1       9.457  13.265  -8.406  1.00  0.00    -0.206 F 
ATOM     76  C   UNL     1      11.349  13.934 -11.414  1.00  0.00     0.022 A 
BRANCH  73  77
ATOM     77  S   UNL     1      13.532  15.557 -12.025  1.00  0.00     0.124 S 
ATOM     78  O   UNL     1      13.281  16.970 -11.763  1.00  0.00    -0.237 OA
ATOM     79  O   UNL     1      14.807  15.031 -11.548  1.00  0.00    -0.237 OA
ATOM     80  O   UNL     1      13.119  15.082 -13.344  1.00  0.00    -0.744 OA
ENDBRANCH  73  77
ENDBRANCH  46  70
BRANCH  58  81
ATOM     81  C   UNL     1      10.826  20.645  -5.277  1.00  0.00     0.023 A 
ATOM     82  C   UNL     1       9.735  21.110  -6.032  1.00  0.00     0.031 A 
ATOM     83  C   UNL     1      11.860  21.554  -4.984  1.00  0.00     0.131 A 
ATOM     84  C   UNL     1       9.730  22.426  -6.518  1.00  0.00     0.055 A 
ATOM     85  C   UNL     1      11.816  22.882  -5.412  1.00  0.00     0.041 A 
ATOM     86  F   UNL     1      12.930  21.167  -4.271  1.00  0.00    -0.206 F 
ATOM     87  C   UNL     1      10.754  23.321  -6.195  1.00  0.00     0.022 A 
BRANCH  84  88
ATOM     88  S   UNL     1       8.416  22.927  -7.664  1.00  0.00     0.124 S 
ATOM     89  O   UNL     1       8.577  21.963  -8.748  1.00  0.00    -0.237 OA
ATOM     90  O   UNL     1       7.216  22.776  -6.849  1.00  0.00    -0.237 OA
ATOM     91  O   UNL     1       8.764  24.306  -8.004  1.00  0.00    -0.744 OA
ENDBRANCH  84  88
ENDBRANCH  58  81
ENDBRANCH  32  33
ENDBRANCH  24  27
ENDBRANCH  22  23
ENDBRANCH   1  22
TORSDOF 16
