REMARK SMILES CC1(C)C(C(=O)Nc2ccc(CC(=O)NCCCCNC(=O)c3ccc(-c4c5nc(c(-c6cc(S(=O)(=O)[O-])ccc6F)c6ccc([nH]6)c(-c6cc(S(=O)(=O)[O-])ccc6F)c6nc(c(-c7cc(S(=O)(=O)[O-])ccc7F)c7ccc4[nH]7)C=C6)C=C5)cc3)cc2)C1(C)C
REMARK SMILES IDX 17 1 16 2 15 3 13 4 14 5 12 7 11 8 8 9 9 10 87 11 10 12
REMARK SMILES IDX 86 13 7 14 5 15 6 16 4 18 1 19 2 20 3 21 88 22 89 23 90 24
REMARK SMILES IDX 18 25 19 26 20 27 21 28 22 30 23 31 24 32 85 33 25 34 84 35
REMARK SMILES IDX 26 36 27 37 28 38 78 39 29 40 83 41 77 42 79 43 30 44 82 45
REMARK SMILES IDX 76 46 75 47 31 49 63 50 43 51 62 52 44 53 47 54 61 55 80 56
REMARK SMILES IDX 45 57 46 58 60 60 81 61 48 62 32 63 33 64 41 65 34 66 40 67
REMARK SMILES IDX 42 68 39 69 35 70 36 71 37 72 38 73 64 74 65 75 73 76 66 77
REMARK SMILES IDX 72 78 74 79 71 80 67 81 68 82 69 83 70 84 49 85 50 86 58 87
REMARK SMILES IDX 51 88 57 89 59 90 56 91 52 92 53 93 54 94 55 95
REMARK H PARENT 15 6 7 17 20 29 79 48 47 59
REMARK Flexibility Score: inf
ROOT
ATOM      1  C   UNL     1       2.769   2.199   6.642  1.00  0.00     0.023 C 
ENDROOT
BRANCH   1   2
ATOM      2  C   UNL     1       4.098   1.438   6.600  1.00  0.00     0.116 C 
BRANCH   2   3
ATOM      3  N   UNL     1       4.176   0.441   7.649  1.00  0.00    -0.356 N 
ATOM      4  C   UNL     1       3.782  -0.866   7.628  1.00  0.00     0.224 C 
ATOM      5  O   UNL     1       3.884  -1.527   8.664  1.00  0.00    -0.275 OA
ATOM      6  H   UNL     1       4.568   0.751   8.497  1.00  0.00     0.163 HD
BRANCH   4   7
ATOM      7  C   UNL     1       3.308  -1.510   6.341  1.00  0.00     0.135 C 
BRANCH   7   8
ATOM      8  C   UNL     1       1.952  -1.073   5.848  1.00  0.00    -0.039 A 
ATOM      9  C   UNL     1      -0.479  -0.468   4.612  1.00  0.00     0.041 A 
ATOM     10  C   UNL     1      -0.466  -1.298   5.734  1.00  0.00     0.026 A 
ATOM     11  C   UNL     1       0.656   0.243   4.282  1.00  0.00     0.026 A 
ATOM     12  C   UNL     1       0.756  -1.595   6.358  1.00  0.00     0.006 A 
ATOM     13  C   UNL     1       1.875  -0.132   4.820  1.00  0.00     0.006 A 
BRANCH   9  14
ATOM     14  N   UNL     1      -1.593  -0.414   3.765  1.00  0.00    -0.326 N 
ATOM     15  C   UNL     1      -1.569   0.048   2.463  1.00  0.00     0.228 C 
ATOM     16  O   UNL     1      -2.313   0.976   2.147  1.00  0.00    -0.274 OA
ATOM     17  H   UNL     1      -2.455  -0.727   4.123  1.00  0.00     0.169 HD
BRANCH  15  18
ATOM     18  C   UNL     1      -0.966  -0.758   1.338  1.00  0.00     0.091 C 
ATOM     19  C   UNL     1       0.369  -0.312  -0.821  1.00  0.00     0.012 C 
ATOM     20  C   UNL     1       0.408  -0.580   0.676  1.00  0.00    -0.017 C 
ATOM     21  C   UNL     1       1.603   0.136   1.252  1.00  0.00     0.012 C 
ATOM     22  C   UNL     1      -0.031  -1.956   1.262  1.00  0.00    -0.017 C 
ATOM     23  C   UNL     1      -0.400  -3.060   0.288  1.00  0.00     0.012 C 
ATOM     24  C   UNL     1       0.578  -2.567   2.501  1.00  0.00     0.012 C 
ENDBRANCH  15  18
ENDBRANCH   9  14
ENDBRANCH   7   8
ENDBRANCH   4   7
ENDBRANCH   2   3
ENDBRANCH   1   2
BRANCH   1  25
ATOM     25  C   UNL     1       2.638   3.194   7.785  1.00  0.00     0.023 C 
BRANCH  25  26
ATOM     26  C   UNL     1       3.698   4.277   7.787  1.00  0.00     0.116 C 
BRANCH  26  27
ATOM     27  N   UNL     1       3.692   5.078   6.576  1.00  0.00    -0.352 N 
ATOM     28  C   UNL     1       3.931   6.428   6.452  1.00  0.00     0.251 C 
ATOM     29  H   UNL     1       3.493   4.597   5.740  1.00  0.00     0.163 HD
ATOM     30  O   UNL     1       3.744   6.987   5.383  1.00  0.00    -0.269 OA
BRANCH  28  31
ATOM     31  C   UNL     1       4.372   7.186   7.644  1.00  0.00     0.039 A 
ATOM     32  C   UNL     1       3.769   8.412   7.922  1.00  0.00     0.014 A 
ATOM     33  C   UNL     1       5.347   6.668   8.503  1.00  0.00     0.014 A 
ATOM     34  C   UNL     1       4.119   9.100   9.085  1.00  0.00     0.010 A 
ATOM     35  C   UNL     1       5.615   7.302   9.709  1.00  0.00     0.010 A 
ATOM     36  C   UNL     1       5.025   8.538  10.001  1.00  0.00    -0.014 A 
BRANCH  36  37
ATOM     37  C   UNL     1       5.397   9.263  11.243  1.00  0.00     0.031 A 
ATOM     38  C   UNL     1       6.823   9.697  11.459  1.00  0.00     0.074 A 
ATOM     39  C   UNL     1       4.460   9.510  12.179  1.00  0.00     0.049 A 
ATOM     40  N   UNL     1       7.348  10.345  12.467  1.00  0.00    -0.248 NA
ATOM     41  C   UNL     1       7.794   9.327  10.417  1.00  0.00     0.031 C 
ATOM     42  C   UNL     1       3.059   9.091  12.103  1.00  0.00     0.029 A 
ATOM     43  N   UNL     1       4.540  10.182  13.372  1.00  0.00    -0.354 N 
ATOM     44  C   UNL     1       8.705  10.454  12.183  1.00  0.00     0.074 A 
ATOM     45  C   UNL     1       8.935   9.733  10.951  1.00  0.00     0.031 C 
ATOM     46  C   UNL     1       2.403   9.555  13.179  1.00  0.00     0.029 A 
ATOM     47  C   UNL     1       3.341  10.265  14.041  1.00  0.00     0.049 A 
ATOM     48  H   UNL     1       5.378  10.568  13.718  1.00  0.00     0.167 HD
ATOM     49  C   UNL     1       9.666  11.123  12.868  1.00  0.00     0.034 A 
ATOM     50  C   UNL     1       3.034  10.851  15.216  1.00  0.00     0.034 A 
ATOM     51  C   UNL     1       9.416  11.842  14.093  1.00  0.00     0.049 A 
ATOM     52  C   UNL     1       4.123  11.577  15.967  1.00  0.00     0.074 A 
ATOM     53  C   UNL     1      10.302  12.587  14.852  1.00  0.00     0.029 A 
ATOM     54  N   UNL     1       8.189  11.903  14.744  1.00  0.00    -0.354 N 
ATOM     55  N   UNL     1       5.391  11.720  15.656  1.00  0.00    -0.248 NA
ATOM     56  C   UNL     1       3.729  12.240  17.215  1.00  0.00     0.031 C 
ATOM     57  C   UNL     1       9.632  13.033  15.997  1.00  0.00     0.029 A 
ATOM     58  C   UNL     1       8.303  12.649  15.908  1.00  0.00     0.049 A 
ATOM     59  H   UNL     1       7.360  11.479  14.425  1.00  0.00     0.167 HD
ATOM     60  C   UNL     1       5.937  12.524  16.654  1.00  0.00     0.074 A 
ATOM     61  C   UNL     1       4.853  12.851  17.557  1.00  0.00     0.031 C 
ATOM     62  C   UNL     1       7.216  12.957  16.809  1.00  0.00     0.034 A 
BRANCH  49  63
ATOM     63  C   UNL     1      11.072  11.079  12.313  1.00  0.00     0.023 A 
ATOM     64  C   UNL     1      11.382  11.591  11.039  1.00  0.00     0.031 A 
ATOM     65  C   UNL     1      12.112  10.488  13.050  1.00  0.00     0.131 A 
ATOM     66  C   UNL     1      12.672  11.428  10.511  1.00  0.00     0.055 A 
ATOM     67  C   UNL     1      13.416  10.411  12.556  1.00  0.00     0.041 A 
ATOM     68  F   UNL     1      11.877   9.957  14.261  1.00  0.00    -0.206 F 
ATOM     69  C   UNL     1      13.699  10.867  11.272  1.00  0.00     0.022 A 
BRANCH  66  70
ATOM     70  S   UNL     1      12.945  11.812   8.759  1.00  0.00     0.124 S 
ATOM     71  O   UNL     1      11.987  10.921   8.109  1.00  0.00    -0.237 OA
ATOM     72  O   UNL     1      12.639  13.236   8.696  1.00  0.00    -0.237 OA
ATOM     73  O   UNL     1      14.349  11.465   8.547  1.00  0.00    -0.744 OA
ENDBRANCH  66  70
ENDBRANCH  49  63
BRANCH  50  74
ATOM     74  C   UNL     1       1.645  10.787  15.756  1.00  0.00     0.023 A 
ATOM     75  C   UNL     1       0.885  11.953  15.945  1.00  0.00     0.031 A 
ATOM     76  C   UNL     1       1.075   9.561  16.143  1.00  0.00     0.131 A 
ATOM     77  C   UNL     1      -0.376  11.876  16.558  1.00  0.00     0.055 A 
ATOM     78  C   UNL     1      -0.205   9.483  16.695  1.00  0.00     0.041 A 
ATOM     79  F   UNL     1       1.755   8.415  15.981  1.00  0.00    -0.206 F 
ATOM     80  C   UNL     1      -0.932  10.647  16.920  1.00  0.00     0.022 A 
BRANCH  77  81
ATOM     81  S   UNL     1      -1.239  13.418  16.968  1.00  0.00     0.124 S 
ATOM     82  O   UNL     1      -0.263  14.085  17.822  1.00  0.00    -0.237 OA
ATOM     83  O   UNL     1      -1.448  14.008  15.650  1.00  0.00    -0.237 OA
ATOM     84  O   UNL     1      -2.451  12.960  17.643  1.00  0.00    -0.744 OA
ENDBRANCH  77  81
ENDBRANCH  50  74
BRANCH  62  85
ATOM     85  C   UNL     1       7.488  13.880  17.975  1.00  0.00     0.023 A 
ATOM     86  C   UNL     1       7.307  13.467  19.307  1.00  0.00     0.031 A 
ATOM     87  C   UNL     1       7.888  15.209  17.747  1.00  0.00     0.131 A 
ATOM     88  C   UNL     1       7.436  14.396  20.351  1.00  0.00     0.055 A 
ATOM     89  C   UNL     1       8.096  16.106  18.796  1.00  0.00     0.041 A 
ATOM     90  F   UNL     1       8.076  15.663  16.497  1.00  0.00    -0.206 F 
ATOM     91  C   UNL     1       7.848  15.708  20.105  1.00  0.00     0.022 A 
BRANCH  88  92
ATOM     92  S   UNL     1       6.909  13.907  22.017  1.00  0.00     0.124 S 
ATOM     93  O   UNL     1       5.540  13.460  21.782  1.00  0.00    -0.237 OA
ATOM     94  O   UNL     1       7.872  12.863  22.353  1.00  0.00    -0.237 OA
ATOM     95  O   UNL     1       7.035  15.140  22.792  1.00  0.00    -0.744 OA
ENDBRANCH  88  92
ENDBRANCH  62  85
ENDBRANCH  36  37
ENDBRANCH  28  31
ENDBRANCH  26  27
ENDBRANCH  25  26
ENDBRANCH   1  25
TORSDOF 17
