REMARK SMILES O=C(NCCCCNC(=O)c1ccc(C[NH2+]CCOc2ccccc2)nc1)c1ccc(-c2c3nc(c(-c4cc(S(=O)(=O)[O-])ccc4F)c4ccc([nH]4)c(-c4cc(S(=O)(=O)[O-])ccc4F)c4nc(c(-c5cc(S(=O)(=O)[O-])ccc5F)c5ccc2[nH]5)C=C4)C=C3)cc1
REMARK SMILES IDX 7 1 6 2 5 3 4 4 3 5 1 6 2 7 28 9 29 10 90 11 30 12 89 13
REMARK SMILES IDX 31 14 32 15 33 16 83 17 34 18 88 19 82 20 84 21 35 22 87 23
REMARK SMILES IDX 81 24 80 25 36 27 68 28 48 29 67 30 49 31 52 32 66 33 85 34
REMARK SMILES IDX 50 35 51 36 65 38 86 39 53 40 37 41 38 42 46 43 39 44 45 45
REMARK SMILES IDX 47 46 44 47 40 48 41 49 42 50 43 51 69 52 70 53 78 54 71 55
REMARK SMILES IDX 77 56 79 57 76 58 72 59 73 60 74 61 75 62 54 63 55 64 63 65
REMARK SMILES IDX 56 66 62 67 64 68 61 69 57 70 58 71 59 72 60 73 8 74 9 75
REMARK SMILES IDX 10 77 11 78 12 79 27 80 13 81 26 82 14 83 15 84 16 85 17 88
REMARK SMILES IDX 18 89 19 90 20 91 21 92 25 93 22 94 24 95 23 96
REMARK H PARENT 3 8 84 26 52 37 8 76 16 86 16 87
REMARK Flexibility Score: inf
ROOT
ATOM      1  C   UNL     1       4.797   1.836   3.912  1.00  0.00     0.116 C 
ENDROOT
BRANCH   1   2
ATOM      2  C   UNL     1       4.459   2.761   2.747  1.00  0.00     0.023 C 
BRANCH   2   3
ATOM      3  C   UNL     1       4.963   2.295   1.383  1.00  0.00     0.023 C 
BRANCH   3   4
ATOM      4  C   UNL     1       4.596   0.865   1.010  1.00  0.00     0.116 C 
BRANCH   4   5
ATOM      5  N   UNL     1       3.159   0.638   0.974  1.00  0.00    -0.352 N 
ATOM      6  O   UNL     1       1.170   0.115   0.050  1.00  0.00    -0.269 OA
ATOM      7  C   UNL     1       2.394   0.110  -0.039  1.00  0.00     0.251 C 
ATOM      8  H   UNL     1       2.667   0.898   1.786  1.00  0.00     0.163 HD
BRANCH   7   9
ATOM      9  C   UNL     1       3.056  -0.444  -1.240  1.00  0.00     0.039 A 
ATOM     10  C   UNL     1       4.148  -1.306  -1.112  1.00  0.00     0.014 A 
ATOM     11  C   UNL     1       2.581  -0.091  -2.505  1.00  0.00     0.014 A 
ATOM     12  C   UNL     1       4.844  -1.711  -2.245  1.00  0.00     0.010 A 
ATOM     13  C   UNL     1       3.233  -0.567  -3.646  1.00  0.00     0.010 A 
ATOM     14  C   UNL     1       4.381  -1.365  -3.524  1.00  0.00    -0.014 A 
BRANCH  14  15
ATOM     15  C   UNL     1       5.059  -1.924  -4.721  1.00  0.00     0.031 A 
ATOM     16  C   UNL     1       5.770  -1.033  -5.701  1.00  0.00     0.074 A 
ATOM     17  C   UNL     1       5.019  -3.258  -4.913  1.00  0.00     0.049 A 
ATOM     18  N   UNL     1       6.377  -1.356  -6.814  1.00  0.00    -0.248 NA
ATOM     19  C   UNL     1       5.796   0.405  -5.398  1.00  0.00     0.031 C 
ATOM     20  C   UNL     1       4.350  -4.213  -4.024  1.00  0.00     0.029 A 
ATOM     21  N   UNL     1       5.543  -4.044  -5.906  1.00  0.00    -0.354 N 
ATOM     22  C   UNL     1       6.840  -0.163  -7.359  1.00  0.00     0.074 A 
ATOM     23  C   UNL     1       6.425   0.894  -6.459  1.00  0.00     0.031 C 
ATOM     24  C   UNL     1       4.525  -5.454  -4.499  1.00  0.00     0.029 A 
ATOM     25  C   UNL     1       5.247  -5.380  -5.762  1.00  0.00     0.049 A 
ATOM     26  H   UNL     1       6.079  -3.687  -6.651  1.00  0.00     0.167 HD
ATOM     27  C   UNL     1       7.544   0.024  -8.503  1.00  0.00     0.034 A 
ATOM     28  C   UNL     1       5.492  -6.426  -6.574  1.00  0.00     0.034 A 
ATOM     29  C   UNL     1       7.955  -1.050  -9.377  1.00  0.00     0.049 A 
ATOM     30  C   UNL     1       6.230  -6.179  -7.862  1.00  0.00     0.074 A 
ATOM     31  C   UNL     1       8.737  -0.980 -10.517  1.00  0.00     0.029 A 
ATOM     32  N   UNL     1       7.602  -2.385  -9.222  1.00  0.00    -0.354 N 
ATOM     33  N   UNL     1       6.703  -5.050  -8.336  1.00  0.00    -0.248 NA
ATOM     34  C   UNL     1       6.464  -7.343  -8.724  1.00  0.00     0.031 C 
ATOM     35  C   UNL     1       8.791  -2.254 -11.093  1.00  0.00     0.029 A 
ATOM     36  C   UNL     1       8.107  -3.137 -10.273  1.00  0.00     0.049 A 
ATOM     37  H   UNL     1       7.071  -2.744  -8.475  1.00  0.00     0.167 HD
ATOM     38  C   UNL     1       7.305  -5.372  -9.547  1.00  0.00     0.074 A 
ATOM     39  C   UNL     1       7.154  -6.803  -9.718  1.00  0.00     0.031 C 
ATOM     40  C   UNL     1       7.926  -4.559 -10.439  1.00  0.00     0.034 A 
BRANCH  27  41
ATOM     41  C   UNL     1       7.874   1.441  -8.907  1.00  0.00     0.023 A 
ATOM     42  C   UNL     1       8.748   2.248  -8.159  1.00  0.00     0.031 A 
ATOM     43  C   UNL     1       7.313   1.986 -10.076  1.00  0.00     0.131 A 
ATOM     44  C   UNL     1       8.996   3.571  -8.562  1.00  0.00     0.055 A 
ATOM     45  C   UNL     1       7.615   3.279 -10.508  1.00  0.00     0.041 A 
ATOM     46  F   UNL     1       6.457   1.268 -10.821  1.00  0.00    -0.206 F 
ATOM     47  C   UNL     1       8.454   4.083  -9.743  1.00  0.00     0.022 A 
BRANCH  44  48
ATOM     48  S   UNL     1       9.951   4.651  -7.461  1.00  0.00     0.124 S 
ATOM     49  O   UNL     1       9.150   4.611  -6.239  1.00  0.00    -0.237 OA
ATOM     50  O   UNL     1      11.242   3.977  -7.401  1.00  0.00    -0.237 OA
ATOM     51  O   UNL     1       9.949   5.937  -8.155  1.00  0.00    -0.744 OA
ENDBRANCH  44  48
ENDBRANCH  27  41
BRANCH  28  52
ATOM     52  C   UNL     1       4.980  -7.781  -6.226  1.00  0.00     0.023 A 
ATOM     53  C   UNL     1       5.856  -8.852  -5.997  1.00  0.00     0.031 A 
ATOM     54  C   UNL     1       3.597  -8.031  -6.151  1.00  0.00     0.131 A 
ATOM     55  C   UNL     1       5.340 -10.133  -5.745  1.00  0.00     0.055 A 
ATOM     56  C   UNL     1       3.090  -9.293  -5.842  1.00  0.00     0.041 A 
ATOM     57  F   UNL     1       2.715  -7.040  -6.360  1.00  0.00    -0.206 F 
ATOM     58  C   UNL     1       3.964 -10.357  -5.651  1.00  0.00     0.022 A 
BRANCH  55  59
ATOM     59  S   UNL     1       6.495 -11.526  -5.636  1.00  0.00     0.124 S 
ATOM     60  O   UNL     1       7.201 -11.428  -6.908  1.00  0.00    -0.237 OA
ATOM     61  O   UNL     1       7.268 -11.184  -4.446  1.00  0.00    -0.237 OA
ATOM     62  O   UNL     1       5.617 -12.685  -5.495  1.00  0.00    -0.744 OA
ENDBRANCH  55  59
ENDBRANCH  28  52
BRANCH  40  63
ATOM     63  C   UNL     1       8.506  -5.217 -11.665  1.00  0.00     0.023 A 
ATOM     64  C   UNL     1       7.683  -5.774 -12.658  1.00  0.00     0.031 A 
ATOM     65  C   UNL     1       9.900  -5.298 -11.833  1.00  0.00     0.131 A 
ATOM     66  C   UNL     1       8.261  -6.433 -13.754  1.00  0.00     0.055 A 
ATOM     67  C   UNL     1      10.468  -5.904 -12.953  1.00  0.00     0.041 A 
ATOM     68  F   UNL     1      10.730  -4.786 -10.911  1.00  0.00    -0.206 F 
ATOM     69  C   UNL     1       9.648  -6.486 -13.916  1.00  0.00     0.022 A 
BRANCH  66  70
ATOM     70  S   UNL     1       7.175  -7.286 -14.929  1.00  0.00     0.124 S 
ATOM     71  O   UNL     1       6.536  -8.285 -14.080  1.00  0.00    -0.237 OA
ATOM     72  O   UNL     1       6.314  -6.207 -15.402  1.00  0.00    -0.237 OA
ATOM     73  O   UNL     1       8.101  -7.820 -15.926  1.00  0.00    -0.744 OA
ENDBRANCH  66  70
ENDBRANCH  40  63
ENDBRANCH  14  15
ENDBRANCH   7   9
ENDBRANCH   4   5
ENDBRANCH   3   4
ENDBRANCH   2   3
ENDBRANCH   1   2
BRANCH   1  74
ATOM     74  N   UNL     1       6.229   1.702   4.127  1.00  0.00    -0.352 N 
ATOM     75  C   UNL     1       6.984   2.089   5.208  1.00  0.00     0.252 C 
ATOM     76  H   UNL     1       6.728   1.274   3.394  1.00  0.00     0.163 HD
ATOM     77  O   UNL     1       8.204   2.029   5.178  1.00  0.00    -0.269 OA
BRANCH  75  78
ATOM     78  C   UNL     1       6.314   2.598   6.412  1.00  0.00     0.058 A 
ATOM     79  C   UNL     1       5.310   1.885   7.059  1.00  0.00     0.017 A 
ATOM     80  C   UNL     1       6.694   3.825   6.926  1.00  0.00     0.125 A 
ATOM     81  C   UNL     1       4.665   2.464   8.147  1.00  0.00     0.030 A 
ATOM     82  N   UNL     1       6.085   4.408   7.988  1.00  0.00    -0.255 NA
ATOM     83  C   UNL     1       5.066   3.730   8.577  1.00  0.00     0.094 A 
BRANCH  83  84
ATOM     84  C   UNL     1       4.377   4.379   9.768  1.00  0.00     0.318 C 
BRANCH  84  85
ATOM     85  N   UNL     1       5.266   4.506  10.925  1.00  0.00    -0.338 N 
ATOM     86  H   UNL     1       5.700   5.428  10.895  1.00  0.00     0.346 HD
ATOM     87  H   UNL     1       5.944   3.747  10.857  1.00  0.00     0.346 HD
BRANCH  85  88
ATOM     88  C   UNL     1       4.596   4.356  12.217  1.00  0.00     0.302 C 
BRANCH  88  89
ATOM     89  C   UNL     1       4.073   2.946  12.561  1.00  0.00     0.290 C 
BRANCH  89  90
ATOM     90  O   UNL     1       5.152   2.055  12.883  1.00  0.00    -0.488 OA
BRANCH  90  91
ATOM     91  C   UNL     1       5.488   1.233  11.844  1.00  0.00     0.119 A 
ATOM     92  C   UNL     1       4.645   0.210  11.411  1.00  0.00     0.046 A 
ATOM     93  C   UNL     1       6.745   1.401  11.268  1.00  0.00     0.046 A 
ATOM     94  C   UNL     1       5.043  -0.609  10.352  1.00  0.00     0.004 A 
ATOM     95  C   UNL     1       7.132   0.600  10.196  1.00  0.00     0.004 A 
ATOM     96  C   UNL     1       6.280  -0.405   9.737  1.00  0.00     0.000 A 
ENDBRANCH  90  91
ENDBRANCH  89  90
ENDBRANCH  88  89
ENDBRANCH  85  88
ENDBRANCH  84  85
ENDBRANCH  83  84
ENDBRANCH  75  78
ENDBRANCH   1  74
TORSDOF 20
