REMARK SMILES CCNC(=O)c1ccc(N[C@@H]2COC[C@@]2(C)C(=O)NCCCCNC(=O)c2ccc(-c3c4nc(c(-c5cc(S(=O)(=O)[O-])ccc5F)c5ccc([nH]5)c(-c5cc(S(=O)(=O)[O-])ccc5F)c5nc(c(-c6cc(S(=O)(=O)[O-])ccc6F)c6ccc3[nH]6)C=C5)C=C4)cc2)nn1
REMARK SMILES IDX 21 1 20 2 19 3 17 4 18 5 15 7 11 8 12 9 13 10 14 11 16 12
REMARK SMILES IDX 10 13 9 15 6 16 7 17 91 18 8 19 90 20 4 21 3 22 5 24 2 25
REMARK SMILES IDX 1 26 22 27 23 28 24 29 25 30 26 32 27 33 28 34 89 35 29 36
REMARK SMILES IDX 88 37 30 38 31 39 32 40 82 41 33 42 87 43 81 44 83 45 34 46
REMARK SMILES IDX 86 47 80 48 79 49 35 51 67 52 47 53 66 54 48 55 51 56 65 57
REMARK SMILES IDX 84 58 49 59 50 60 64 62 85 63 52 64 36 65 37 66 45 67 38 68
REMARK SMILES IDX 44 69 46 70 43 71 39 72 40 73 41 74 42 75 68 76 69 77 77 78
REMARK SMILES IDX 70 79 76 80 78 81 75 82 71 83 72 84 73 85 74 86 53 87 54 88
REMARK SMILES IDX 62 89 55 90 61 91 63 92 60 93 56 94 57 95 58 96 59 97
REMARK H PARENT 19 6 10 14 3 23 24 31 83 50 51 61
REMARK Flexibility Score: inf
ROOT
ATOM      1  C   UNL     1      -4.489  -6.210  -1.108  1.00  0.00     0.023 C 
ENDROOT
BRANCH   1   2
ATOM      2  C   UNL     1      -5.566  -5.142  -0.969  1.00  0.00     0.116 C 
BRANCH   2   3
ATOM      3  N   UNL     1      -6.690  -5.535  -0.155  1.00  0.00    -0.355 N 
ATOM      4  C   UNL     1      -7.077  -5.116   1.083  1.00  0.00     0.230 C 
ATOM      5  O   UNL     1      -8.159  -5.563   1.478  1.00  0.00    -0.274 OA
ATOM      6  H   UNL     1      -7.274  -6.217  -0.559  1.00  0.00     0.163 HD
BRANCH   4   7
ATOM      7  C   UNL     1      -6.232  -4.170   1.961  1.00  0.00     0.092 C 
ATOM      8  C   UNL     1      -6.274  -2.687   1.546  1.00  0.00     0.124 C 
ATOM      9  C   UNL     1      -6.132  -1.915   2.857  1.00  0.00     0.186 C 
ATOM     10  O   UNL     1      -6.579  -2.776   3.911  1.00  0.00    -0.378 OA
ATOM     11  C   UNL     1      -6.966  -4.027   3.321  1.00  0.00     0.179 C 
ATOM     12  C   UNL     1      -4.862  -4.790   2.267  1.00  0.00     0.026 C 
BRANCH   8  13
ATOM     13  N   UNL     1      -5.422  -2.194   0.462  1.00  0.00    -0.362 N 
ATOM     14  H   UNL     1      -5.878  -1.827  -0.330  1.00  0.00     0.162 HD
BRANCH  13  15
ATOM     15  C   UNL     1      -4.039  -2.190   0.439  1.00  0.00     0.149 A 
ATOM     16  C   UNL     1      -1.346  -2.681   0.306  1.00  0.00     0.150 A 
ATOM     17  C   UNL     1      -2.043  -2.529  -0.877  1.00  0.00     0.040 A 
ATOM     18  N   UNL     1      -1.948  -2.568   1.506  1.00  0.00    -0.143 NA
ATOM     19  C   UNL     1      -3.405  -2.247  -0.801  1.00  0.00     0.051 A 
ATOM     20  N   UNL     1      -3.305  -2.323   1.559  1.00  0.00    -0.132 NA
BRANCH  16  21
ATOM     21  C   UNL     1       0.081  -3.077   0.310  1.00  0.00     0.271 C 
ATOM     22  N   UNL     1       1.015  -2.298  -0.335  1.00  0.00    -0.351 N 
ATOM     23  H   UNL     1       1.902  -2.708  -0.454  1.00  0.00     0.163 HD
ATOM     24  O   UNL     1       0.435  -4.116   0.862  1.00  0.00    -0.267 OA
BRANCH  22  25
ATOM     25  C   UNL     1       0.870  -0.954  -0.862  1.00  0.00     0.113 C 
ATOM     26  C   UNL     1       1.282   0.081   0.168  1.00  0.00     0.027 C 
ENDBRANCH  22  25
ENDBRANCH  16  21
ENDBRANCH  13  15
ENDBRANCH   8  13
ENDBRANCH   4   7
ENDBRANCH   2   3
ENDBRANCH   1   2
BRANCH   1  27
ATOM     27  C   UNL     1      -4.774  -7.288  -2.149  1.00  0.00     0.023 C 
BRANCH  27  28
ATOM     28  C   UNL     1      -5.115  -6.788  -3.550  1.00  0.00     0.116 C 
BRANCH  28  29
ATOM     29  N   UNL     1      -4.145  -5.852  -4.103  1.00  0.00    -0.352 N 
ATOM     30  C   UNL     1      -3.750  -5.710  -5.414  1.00  0.00     0.251 C 
ATOM     31  H   UNL     1      -3.717  -5.245  -3.457  1.00  0.00     0.163 HD
ATOM     32  O   UNL     1      -2.876  -4.899  -5.708  1.00  0.00    -0.269 OA
BRANCH  30  33
ATOM     33  C   UNL     1      -4.355  -6.581  -6.445  1.00  0.00     0.039 A 
ATOM     34  C   UNL     1      -3.519  -7.337  -7.270  1.00  0.00     0.014 A 
ATOM     35  C   UNL     1      -5.744  -6.714  -6.533  1.00  0.00     0.014 A 
ATOM     36  C   UNL     1      -4.074  -8.295  -8.122  1.00  0.00     0.010 A 
ATOM     37  C   UNL     1      -6.288  -7.716  -7.330  1.00  0.00     0.010 A 
ATOM     38  C   UNL     1      -5.460  -8.527  -8.122  1.00  0.00    -0.014 A 
BRANCH  38  39
ATOM     39  C   UNL     1      -6.066  -9.621  -8.926  1.00  0.00     0.031 A 
ATOM     40  C   UNL     1      -7.040  -9.294 -10.025  1.00  0.00     0.074 A 
ATOM     41  C   UNL     1      -5.818 -10.906  -8.600  1.00  0.00     0.049 A 
ATOM     42  N   UNL     1      -7.764 -10.100 -10.757  1.00  0.00    -0.248 NA
ATOM     43  C   UNL     1      -7.253  -7.867 -10.308  1.00  0.00     0.031 C 
ATOM     44  C   UNL     1      -4.940 -11.351  -7.515  1.00  0.00     0.029 A 
ATOM     45  N   UNL     1      -6.299 -12.076  -9.135  1.00  0.00    -0.354 N 
ATOM     46  C   UNL     1      -8.542  -9.279 -11.567  1.00  0.00     0.074 A 
ATOM     47  C   UNL     1      -8.232  -7.914 -11.198  1.00  0.00     0.031 C 
ATOM     48  C   UNL     1      -4.937 -12.694  -7.473  1.00  0.00     0.029 A 
ATOM     49  C   UNL     1      -5.839 -13.206  -8.499  1.00  0.00     0.049 A 
ATOM     50  H   UNL     1      -6.915 -12.103  -9.903  1.00  0.00     0.167 HD
ATOM     51  C   UNL     1      -9.418  -9.633 -12.540  1.00  0.00     0.034 A 
ATOM     52  C   UNL     1      -6.124 -14.507  -8.708  1.00  0.00     0.034 A 
ATOM     53  C   UNL     1      -9.689 -10.997 -12.919  1.00  0.00     0.049 A 
ATOM     54  C   UNL     1      -7.080 -14.876  -9.813  1.00  0.00     0.074 A 
ATOM     55  C   UNL     1     -10.489 -11.464 -13.948  1.00  0.00     0.029 A 
ATOM     56  N   UNL     1      -9.171 -12.117 -12.281  1.00  0.00    -0.354 N 
ATOM     57  N   UNL     1      -7.754 -14.087 -10.618  1.00  0.00    -0.248 NA
ATOM     58  C   UNL     1      -7.304 -16.309 -10.046  1.00  0.00     0.031 C 
ATOM     59  C   UNL     1     -10.498 -12.863 -13.898  1.00  0.00     0.029 A 
ATOM     60  C   UNL     1      -9.654 -13.271 -12.878  1.00  0.00     0.049 A 
ATOM     61  H   UNL     1      -8.551 -12.094 -11.517  1.00  0.00     0.167 HD
ATOM     62  C   UNL     1      -8.459 -14.931 -11.472  1.00  0.00     0.074 A 
ATOM     63  C   UNL     1      -8.118 -16.287 -11.091  1.00  0.00     0.031 C 
ATOM     64  C   UNL     1      -9.308 -14.616 -12.482  1.00  0.00     0.034 A 
BRANCH  51  65
ATOM     65  C   UNL     1     -10.160  -8.522 -13.242  1.00  0.00     0.023 A 
ATOM     66  C   UNL     1      -9.490  -7.559 -14.017  1.00  0.00     0.031 A 
ATOM     67  C   UNL     1     -11.555  -8.405 -13.109  1.00  0.00     0.131 A 
ATOM     68  C   UNL     1     -10.202  -6.480 -14.562  1.00  0.00     0.055 A 
ATOM     69  C   UNL     1     -12.269  -7.374 -13.722  1.00  0.00     0.041 A 
ATOM     70  F   UNL     1     -12.247  -9.284 -12.366  1.00  0.00    -0.206 F 
ATOM     71  C   UNL     1     -11.591  -6.394 -14.441  1.00  0.00     0.022 A 
BRANCH  68  72
ATOM     72  S   UNL     1      -9.267  -5.119 -15.310  1.00  0.00     0.124 S 
ATOM     73  O   UNL     1      -8.458  -4.662 -14.182  1.00  0.00    -0.237 OA
ATOM     74  O   UNL     1      -8.544  -5.785 -16.387  1.00  0.00    -0.237 OA
ATOM     75  O   UNL     1     -10.306  -4.185 -15.741  1.00  0.00    -0.744 OA
ENDBRANCH  68  72
ENDBRANCH  51  65
BRANCH  52  76
ATOM     76  C   UNL     1      -5.511 -15.564  -7.854  1.00  0.00     0.023 A 
ATOM     77  C   UNL     1      -4.604 -16.490  -8.391  1.00  0.00     0.031 A 
ATOM     78  C   UNL     1      -5.860 -15.690  -6.498  1.00  0.00     0.131 A 
ATOM     79  C   UNL     1      -4.113 -17.534  -7.591  1.00  0.00     0.055 A 
ATOM     80  C   UNL     1      -5.332 -16.702  -5.693  1.00  0.00     0.041 A 
ATOM     81  F   UNL     1      -6.716 -14.824  -5.933  1.00  0.00    -0.206 F 
ATOM     82  C   UNL     1      -4.463 -17.640  -6.243  1.00  0.00     0.022 A 
BRANCH  79  83
ATOM     83  S   UNL     1      -3.072 -18.803  -8.363  1.00  0.00     0.124 S 
ATOM     84  O   UNL     1      -3.937 -19.288  -9.432  1.00  0.00    -0.237 OA
ATOM     85  O   UNL     1      -1.910 -18.025  -8.781  1.00  0.00    -0.237 OA
ATOM     86  O   UNL     1      -2.828 -19.750  -7.277  1.00  0.00    -0.744 OA
ENDBRANCH  79  83
ENDBRANCH  52  76
BRANCH  64  87
ATOM     87  C   UNL     1      -9.884 -15.762 -13.273  1.00  0.00     0.023 A 
ATOM     88  C   UNL     1     -10.816 -16.652 -12.712  1.00  0.00     0.031 A 
ATOM     89  C   UNL     1      -9.482 -15.973 -14.603  1.00  0.00     0.131 A 
ATOM     90  C   UNL     1     -11.279 -17.742 -13.463  1.00  0.00     0.055 A 
ATOM     91  C   UNL     1      -9.985 -17.029 -15.363  1.00  0.00     0.041 A 
ATOM     92  F   UNL     1      -8.592 -15.152 -15.186  1.00  0.00    -0.206 F 
ATOM     93  C   UNL     1     -10.880 -17.928 -14.790  1.00  0.00     0.022 A 
BRANCH  90  94
ATOM     94  S   UNL     1     -12.352 -18.963 -12.659  1.00  0.00     0.124 S 
ATOM     95  O   UNL     1     -11.511 -19.431 -11.562  1.00  0.00    -0.237 OA
ATOM     96  O   UNL     1     -13.508 -18.158 -12.277  1.00  0.00    -0.237 OA
ATOM     97  O   UNL     1     -12.604 -19.945 -13.711  1.00  0.00    -0.744 OA
ENDBRANCH  90  94
ENDBRANCH  64  87
ENDBRANCH  38  39
ENDBRANCH  30  33
ENDBRANCH  28  29
ENDBRANCH  27  28
ENDBRANCH   1  27
TORSDOF 18
