REMARK SMILES COc1ccc(C(=O)NCCCCNC(=O)c2ccc(-c3c4nc(c(-c5cc(S(=O)(=O)[O-])ccc5F)c5ccc([nH]5)c(-c5cc(S(=O)(=O)[O-])ccc5F)c5nc(c(-c6cc(S(=O)(=O)[O-])ccc6F)c6ccc3[nH]6)C=C5)C=C4)cc2)cc1S(=O)(=O)N(C)Cc1cccc(F)c1
REMARK SMILES IDX 11 1 10 2 9 3 7 4 8 5 6 7 3 8 4 9 81 10 5 11 80 12 2 13 1 14
REMARK SMILES IDX 82 15 83 16 84 17 85 18 86 19 87 20 88 21 89 22 94 23 90 24
REMARK SMILES IDX 92 25 91 26 93 27 12 28 13 29 14 30 15 31 16 33 17 34 18 35
REMARK SMILES IDX 79 36 19 37 78 38 20 39 21 40 22 41 72 42 23 43 77 44 71 45
REMARK SMILES IDX 73 46 24 47 76 48 70 49 69 50 25 52 57 53 37 54 56 55 38 56
REMARK SMILES IDX 41 57 55 58 74 59 39 60 40 61 54 63 75 64 42 65 26 66 27 67
REMARK SMILES IDX 35 68 28 69 34 70 36 71 33 72 29 73 30 74 31 75 32 76 58 77
REMARK SMILES IDX 59 78 67 79 60 80 66 81 68 82 65 83 61 84 62 85 63 86 64 87
REMARK SMILES IDX 43 88 44 89 52 90 45 91 51 92 53 93 50 94 46 95 47 96 48 97
REMARK SMILES IDX 49 98
REMARK H PARENT 9 6 14 32 73 51 41 62
REMARK Flexibility Score: inf
ROOT
ATOM      1  C   UNL     1       5.441   0.673   5.873  1.00  0.00     0.023 C 
ENDROOT
BRANCH   1   2
ATOM      2  C   UNL     1       4.283  -0.306   6.086  1.00  0.00     0.116 C 
BRANCH   2   3
ATOM      3  N   UNL     1       3.172   0.356   6.750  1.00  0.00    -0.352 N 
ATOM      4  C   UNL     1       1.987   0.871   6.287  1.00  0.00     0.251 C 
ATOM      5  O   UNL     1       1.210   1.370   7.101  1.00  0.00    -0.269 OA
ATOM      6  H   UNL     1       3.294   0.455   7.722  1.00  0.00     0.163 HD
BRANCH   4   7
ATOM      7  C   UNL     1       1.571   0.794   4.859  1.00  0.00     0.041 A 
ATOM      8  C   UNL     1       0.657   0.459   2.207  1.00  0.00     0.138 A 
ATOM      9  C   UNL     1      -0.252   0.586   3.261  1.00  0.00     0.049 A 
ATOM     10  C   UNL     1       2.018   0.586   2.470  1.00  0.00     0.125 A 
ATOM     11  C   UNL     1       0.201   0.731   4.578  1.00  0.00     0.018 A 
ATOM     12  C   UNL     1       2.461   0.799   3.790  1.00  0.00     0.039 A 
BRANCH   8  13
ATOM     13  O   UNL     1       0.123   0.337   0.958  1.00  0.00    -0.495 OA
ATOM     14  C   UNL     1       0.159  -1.009   0.485  1.00  0.00     0.278 C 
ENDBRANCH   8  13
BRANCH  10  15
ATOM     15  S   UNL     1       3.317   0.429   1.277  1.00  0.00     0.246 S 
ATOM     16  O   UNL     1       4.286   1.455   1.609  1.00  0.00    -0.207 OA
ATOM     17  O   UNL     1       3.691  -0.971   1.291  1.00  0.00    -0.207 OA
BRANCH  15  18
ATOM     18  N   UNL     1       2.713   0.785  -0.271  1.00  0.00    -0.196 NA
ATOM     19  C   UNL     1       2.178   2.150  -0.453  1.00  0.00     0.125 C 
BRANCH  18  20
ATOM     20  C   UNL     1       3.629   0.354  -1.375  1.00  0.00     0.137 C 
BRANCH  20  21
ATOM     21  C   UNL     1       4.949   1.091  -1.441  1.00  0.00    -0.030 A 
ATOM     22  C   UNL     1       6.117   0.524  -0.903  1.00  0.00     0.005 A 
ATOM     23  C   UNL     1       5.007   2.401  -1.936  1.00  0.00     0.044 A 
ATOM     24  C   UNL     1       7.293   1.274  -0.806  1.00  0.00     0.003 A 
ATOM     25  C   UNL     1       6.173   3.146  -1.810  1.00  0.00     0.123 A 
ATOM     26  C   UNL     1       7.314   2.598  -1.241  1.00  0.00     0.039 A 
ATOM     27  F   UNL     1       6.181   4.422  -2.218  1.00  0.00    -0.207 F 
ENDBRANCH  20  21
ENDBRANCH  18  20
ENDBRANCH  15  18
ENDBRANCH  10  15
ENDBRANCH   4   7
ENDBRANCH   2   3
ENDBRANCH   1   2
BRANCH   1  28
ATOM     28  C   UNL     1       6.296   0.902   7.124  1.00  0.00     0.023 C 
BRANCH  28  29
ATOM     29  C   UNL     1       7.057  -0.328   7.612  1.00  0.00     0.116 C 
BRANCH  29  30
ATOM     30  N   UNL     1       7.971  -0.867   6.617  1.00  0.00    -0.352 N 
ATOM     31  C   UNL     1       9.179  -1.491   6.817  1.00  0.00     0.251 C 
ATOM     32  H   UNL     1       7.687  -0.772   5.679  1.00  0.00     0.163 HD
ATOM     33  O   UNL     1       9.888  -1.777   5.858  1.00  0.00    -0.269 OA
BRANCH  31  34
ATOM     34  C   UNL     1       9.632  -1.768   8.197  1.00  0.00     0.039 A 
ATOM     35  C   UNL     1      10.926  -1.396   8.566  1.00  0.00     0.014 A 
ATOM     36  C   UNL     1       8.774  -2.359   9.128  1.00  0.00     0.014 A 
ATOM     37  C   UNL     1      11.338  -1.557   9.891  1.00  0.00     0.010 A 
ATOM     38  C   UNL     1       9.162  -2.454  10.462  1.00  0.00     0.010 A 
ATOM     39  C   UNL     1      10.447  -2.052  10.857  1.00  0.00    -0.014 A 
BRANCH  39  40
ATOM     40  C   UNL     1      10.845  -2.155  12.285  1.00  0.00     0.031 A 
ATOM     41  C   UNL     1      10.929  -3.502  12.949  1.00  0.00     0.074 A 
ATOM     42  C   UNL     1      11.076  -1.033  12.994  1.00  0.00     0.049 A 
ATOM     43  N   UNL     1      11.197  -3.795  14.196  1.00  0.00    -0.248 NA
ATOM     44  C   UNL     1      10.645  -4.671  12.104  1.00  0.00     0.031 C 
ATOM     45  C   UNL     1      10.984   0.332  12.470  1.00  0.00     0.029 A 
ATOM     46  N   UNL     1      11.431  -0.858  14.308  1.00  0.00    -0.354 N 
ATOM     47  C   UNL     1      11.108  -5.180  14.287  1.00  0.00     0.074 A 
ATOM     48  C   UNL     1      10.692  -5.658  12.985  1.00  0.00     0.031 C 
ATOM     49  C   UNL     1      11.301   1.200  13.444  1.00  0.00     0.029 A 
ATOM     50  C   UNL     1      11.576   0.461  14.672  1.00  0.00     0.049 A 
ATOM     51  H   UNL     1      11.569  -1.607  14.933  1.00  0.00     0.167 HD
ATOM     52  C   UNL     1      11.374  -5.981  15.349  1.00  0.00     0.034 A 
ATOM     53  C   UNL     1      11.886   1.013  15.862  1.00  0.00     0.034 A 
ATOM     54  C   UNL     1      11.791  -5.486  16.640  1.00  0.00     0.049 A 
ATOM     55  C   UNL     1      12.152   0.106  17.036  1.00  0.00     0.074 A 
ATOM     56  C   UNL     1      12.123  -6.207  17.774  1.00  0.00     0.029 A 
ATOM     57  N   UNL     1      11.926  -4.143  16.971  1.00  0.00    -0.354 N 
ATOM     58  N   UNL     1      12.105  -1.205  17.095  1.00  0.00    -0.248 NA
ATOM     59  C   UNL     1      12.527   0.753  18.299  1.00  0.00     0.031 C 
ATOM     60  C   UNL     1      12.395  -5.302  18.806  1.00  0.00     0.029 A 
ATOM     61  C   UNL     1      12.311  -4.015  18.298  1.00  0.00     0.049 A 
ATOM     62  H   UNL     1      11.772  -3.392  16.355  1.00  0.00     0.167 HD
ATOM     63  C   UNL     1      12.474  -1.539  18.396  1.00  0.00     0.074 A 
ATOM     64  C   UNL     1      12.756  -0.293  19.079  1.00  0.00     0.031 C 
ATOM     65  C   UNL     1      12.575  -2.765  18.971  1.00  0.00     0.034 A 
BRANCH  52  66
ATOM     66  C   UNL     1      11.198  -7.469  15.156  1.00  0.00     0.023 A 
ATOM     67  C   UNL     1      11.965  -8.186  14.220  1.00  0.00     0.031 A 
ATOM     68  C   UNL     1      10.229  -8.177  15.889  1.00  0.00     0.131 A 
ATOM     69  C   UNL     1      11.697  -9.542  13.983  1.00  0.00     0.055 A 
ATOM     70  C   UNL     1      10.026  -9.547  15.710  1.00  0.00     0.041 A 
ATOM     71  F   UNL     1       9.451  -7.545  16.782  1.00  0.00    -0.206 F 
ATOM     72  C   UNL     1      10.750 -10.234  14.741  1.00  0.00     0.022 A 
BRANCH  69  73
ATOM     73  S   UNL     1      12.495 -10.347  12.567  1.00  0.00     0.124 S 
ATOM     74  O   UNL     1      12.027  -9.521  11.457  1.00  0.00    -0.237 OA
ATOM     75  O   UNL     1      13.910 -10.235  12.896  1.00  0.00    -0.237 OA
ATOM     76  O   UNL     1      11.952 -11.704  12.595  1.00  0.00    -0.744 OA
ENDBRANCH  69  73
ENDBRANCH  52  66
BRANCH  53  77
ATOM     77  C   UNL     1      11.958   2.495  16.009  1.00  0.00     0.023 A 
ATOM     78  C   UNL     1      13.172   3.134  16.309  1.00  0.00     0.031 A 
ATOM     79  C   UNL     1      10.806   3.292  15.886  1.00  0.00     0.131 A 
ATOM     80  C   UNL     1      13.198   4.521  16.520  1.00  0.00     0.055 A 
ATOM     81  C   UNL     1      10.847   4.678  16.045  1.00  0.00     0.041 A 
ATOM     82  F   UNL     1       9.621   2.732  15.594  1.00  0.00    -0.206 F 
ATOM     83  C   UNL     1      12.047   5.299  16.377  1.00  0.00     0.022 A 
BRANCH  80  84
ATOM     84  S   UNL     1      14.750   5.288  17.064  1.00  0.00     0.124 S 
ATOM     85  O   UNL     1      15.017   4.570  18.305  1.00  0.00    -0.237 OA
ATOM     86  O   UNL     1      15.641   4.992  15.946  1.00  0.00    -0.237 OA
ATOM     87  O   UNL     1      14.397   6.697  17.220  1.00  0.00    -0.744 OA
ENDBRANCH  80  84
ENDBRANCH  53  77
BRANCH  65  88
ATOM     88  C   UNL     1      13.054  -2.811  20.403  1.00  0.00     0.023 A 
ATOM     89  C   UNL     1      12.290  -2.284  21.458  1.00  0.00     0.031 A 
ATOM     90  C   UNL     1      14.303  -3.380  20.711  1.00  0.00     0.131 A 
ATOM     91  C   UNL     1      12.807  -2.282  22.762  1.00  0.00     0.055 A 
ATOM     92  C   UNL     1      14.784  -3.432  22.020  1.00  0.00     0.041 A 
ATOM     93  F   UNL     1      15.077  -3.896  19.742  1.00  0.00    -0.206 F 
ATOM     94  C   UNL     1      14.041  -2.868  23.052  1.00  0.00     0.022 A 
BRANCH  91  95
ATOM     95  S   UNL     1      11.887  -1.414  24.063  1.00  0.00     0.124 S 
ATOM     96  O   UNL     1      11.805  -0.060  23.525  1.00  0.00    -0.237 OA
ATOM     97  O   UNL     1      10.633  -2.159  24.109  1.00  0.00    -0.237 OA
ATOM     98  O   UNL     1      12.738  -1.562  25.242  1.00  0.00    -0.744 OA
ENDBRANCH  91  95
ENDBRANCH  65  88
ENDBRANCH  39  40
ENDBRANCH  31  34
ENDBRANCH  29  30
ENDBRANCH  28  29
ENDBRANCH   1  28
TORSDOF 19
