REMARK SMILES Cc1ccc(OC2(C(=O)NCCCCNC(=O)c3ccc(-c4c5nc(c(-c6cc(S(=O)(=O)[O-])ccc6F)c6ccc([nH]6)c(-c6cc(S(=O)(=O)[O-])ccc6F)c6nc(c(-c7cc(S(=O)(=O)[O-])ccc7F)c7ccc4[nH]7)C=C6)C=C5)cc3)CC[NH+](C[C@@H]3CC=CCC3)CC2)cn1
REMARK SMILES IDX 13 1 12 2 11 3 10 4 8 5 9 6 7 8 81 9 92 10 82 11 91 12 83 13
REMARK SMILES IDX 6 15 5 16 1 17 2 18 3 19 94 20 4 21 93 22 84 23 85 24 86 25
REMARK SMILES IDX 90 26 87 27 89 28 88 29 14 30 15 31 16 32 17 34 18 35 19 36
REMARK SMILES IDX 80 37 20 38 79 39 21 40 22 41 23 42 73 43 24 44 78 45 72 46
REMARK SMILES IDX 74 47 25 48 77 49 71 50 70 51 26 53 58 54 38 55 57 56 39 57
REMARK SMILES IDX 42 58 56 59 75 60 40 61 41 62 55 64 76 65 43 66 27 67 28 68
REMARK SMILES IDX 36 69 29 70 35 71 37 72 34 73 30 74 31 75 32 76 33 77 59 78
REMARK SMILES IDX 60 79 68 80 61 81 67 82 69 83 66 84 62 85 63 86 64 87 65 88
REMARK SMILES IDX 44 89 45 90 53 91 46 92 52 93 54 94 51 95 47 96 48 97 49 98
REMARK SMILES IDX 50 99
REMARK H PARENT 10 7 83 14 15 33 74 52 42 63
REMARK Flexibility Score: inf
ROOT
ATOM      1  C   UNL     1       0.705  -4.496  -8.412  1.00  0.00     0.023 C 
ENDROOT
BRANCH   1   2
ATOM      2  C   UNL     1       0.521  -5.125  -7.050  1.00  0.00     0.023 C 
BRANCH   2   3
ATOM      3  C   UNL     1       1.643  -6.021  -6.484  1.00  0.00     0.116 C 
BRANCH   3   4
ATOM      4  N   UNL     1       2.704  -5.339  -5.738  1.00  0.00    -0.353 N 
ATOM      5  C   UNL     1       2.868  -4.987  -4.417  1.00  0.00     0.264 C 
ATOM      6  O   UNL     1       4.032  -4.721  -4.084  1.00  0.00    -0.270 OA
ATOM      7  H   UNL     1       3.466  -5.077  -6.304  1.00  0.00     0.163 HD
BRANCH   5   8
ATOM      8  C   UNL     1       1.701  -4.893  -3.364  1.00  0.00     0.197 C 
ATOM      9  C   UNL     1       0.434  -4.491  -4.063  1.00  0.00     0.120 C 
ATOM     10  C   UNL     1       1.426  -6.274  -2.714  1.00  0.00     0.120 C 
ATOM     11  C   UNL     1      -0.816  -4.498  -3.246  1.00  0.00     0.267 C 
ATOM     12  C   UNL     1       0.079  -6.303  -1.935  1.00  0.00     0.267 C 
ATOM     13  N   UNL     1      -1.041  -5.848  -2.770  1.00  0.00    -0.334 N 
ATOM     14  H   UNL     1      -1.031  -6.489  -3.563  1.00  0.00     0.348 HD
BRANCH   8  15
ATOM     15  O   UNL     1       2.104  -4.051  -2.258  1.00  0.00    -0.475 OA
BRANCH  15  16
ATOM     16  C   UNL     1       2.069  -2.692  -2.199  1.00  0.00     0.139 A 
ATOM     17  C   UNL     1       1.985   1.420  -1.007  1.00  0.00     0.066 C 
ATOM     18  C   UNL     1       2.035  -0.005  -1.467  1.00  0.00     0.038 A 
ATOM     19  C   UNL     1       1.045  -0.499  -2.298  1.00  0.00     0.027 A 
ATOM     20  N   UNL     1       3.058  -0.777  -1.038  1.00  0.00    -0.258 NA
ATOM     21  C   UNL     1       1.072  -1.845  -2.662  1.00  0.00     0.050 A 
ATOM     22  C   UNL     1       3.046  -2.088  -1.412  1.00  0.00     0.157 A 
ENDBRANCH  15  16
ENDBRANCH   8  15
BRANCH  13  23
ATOM     23  C   UNL     1      -2.401  -6.060  -2.256  1.00  0.00     0.266 C 
BRANCH  23  24
ATOM     24  C   UNL     1      -3.198  -4.929  -1.530  1.00  0.00     0.048 C 
ATOM     25  C   UNL     1      -3.696  -3.772  -2.447  1.00  0.00     0.036 C 
ATOM     26  C   UNL     1      -2.486  -4.471  -0.245  1.00  0.00     0.014 C 
ATOM     27  C   UNL     1      -3.317  -2.383  -2.014  1.00  0.00    -0.031 C 
ATOM     28  C   UNL     1      -3.025  -3.158   0.312  1.00  0.00     0.027 C 
ATOM     29  C   UNL     1      -3.026  -2.094  -0.739  1.00  0.00    -0.031 C 
ENDBRANCH  23  24
ENDBRANCH  13  23
ENDBRANCH   5   8
ENDBRANCH   3   4
ENDBRANCH   2   3
ENDBRANCH   1   2
BRANCH   1  30
ATOM     30  C   UNL     1       0.894  -5.476  -9.540  1.00  0.00     0.116 C 
BRANCH  30  31
ATOM     31  N   UNL     1      -0.125  -6.513  -9.621  1.00  0.00    -0.352 N 
ATOM     32  C   UNL     1      -0.544  -7.177 -10.753  1.00  0.00     0.251 C 
ATOM     33  H   UNL     1      -0.561  -6.767  -8.775  1.00  0.00     0.163 HD
ATOM     34  O   UNL     1      -1.460  -7.990 -10.700  1.00  0.00    -0.269 OA
BRANCH  32  35
ATOM     35  C   UNL     1       0.098  -6.824 -12.035  1.00  0.00     0.039 A 
ATOM     36  C   UNL     1      -0.704  -6.446 -13.112  1.00  0.00     0.014 A 
ATOM     37  C   UNL     1       1.489  -6.722 -12.111  1.00  0.00     0.014 A 
ATOM     38  C   UNL     1      -0.106  -5.887 -14.240  1.00  0.00     0.010 A 
ATOM     39  C   UNL     1       2.066  -6.050 -13.175  1.00  0.00     0.010 A 
ATOM     40  C   UNL     1       1.277  -5.642 -14.261  1.00  0.00    -0.014 A 
BRANCH  40  41
ATOM     41  C   UNL     1       1.935  -5.003 -15.426  1.00  0.00     0.031 A 
ATOM     42  C   UNL     1       2.991  -5.764 -16.181  1.00  0.00     0.074 A 
ATOM     43  C   UNL     1       1.632  -3.732 -15.757  1.00  0.00     0.049 A 
ATOM     44  N   UNL     1       3.739  -5.374 -17.180  1.00  0.00    -0.248 NA
ATOM     45  C   UNL     1       3.275  -7.133 -15.718  1.00  0.00     0.031 C 
ATOM     46  C   UNL     1       0.674  -2.877 -15.052  1.00  0.00     0.029 A 
ATOM     47  N   UNL     1       2.102  -2.936 -16.769  1.00  0.00    -0.354 N 
ATOM     48  C   UNL     1       4.593  -6.439 -17.447  1.00  0.00     0.074 A 
ATOM     49  C   UNL     1       4.329  -7.453 -16.451  1.00  0.00     0.031 C 
ATOM     50  C   UNL     1       0.600  -1.690 -15.677  1.00  0.00     0.029 A 
ATOM     51  C   UNL     1       1.531  -1.684 -16.800  1.00  0.00     0.049 A 
ATOM     52  H   UNL     1       2.785  -3.231 -17.413  1.00  0.00     0.167 HD
ATOM     53  C   UNL     1       5.489  -6.575 -18.454  1.00  0.00     0.034 A 
ATOM     54  C   UNL     1       1.738  -0.653 -17.642  1.00  0.00     0.034 A 
ATOM     55  C   UNL     1       5.713  -5.563 -19.455  1.00  0.00     0.049 A 
ATOM     56  C   UNL     1       2.728  -0.831 -18.766  1.00  0.00     0.074 A 
ATOM     57  C   UNL     1       6.545  -5.608 -20.558  1.00  0.00     0.029 A 
ATOM     58  N   UNL     1       5.095  -4.317 -19.472  1.00  0.00    -0.354 N 
ATOM     59  N   UNL     1       3.483  -1.869 -19.046  1.00  0.00    -0.248 NA
ATOM     60  C   UNL     1       2.879   0.294 -19.697  1.00  0.00     0.031 C 
ATOM     61  C   UNL     1       6.476  -4.370 -21.207  1.00  0.00     0.029 A 
ATOM     62  C   UNL     1       5.546  -3.578 -20.553  1.00  0.00     0.049 A 
ATOM     63  H   UNL     1       4.434  -4.006 -18.812  1.00  0.00     0.167 HD
ATOM     64  C   UNL     1       4.178  -1.531 -20.203  1.00  0.00     0.074 A 
ATOM     65  C   UNL     1       3.735  -0.202 -20.577  1.00  0.00     0.031 C 
ATOM     66  C   UNL     1       5.096  -2.250 -20.899  1.00  0.00     0.034 A 
BRANCH  53  67
ATOM     67  C   UNL     1       6.289  -7.855 -18.500  1.00  0.00     0.023 A 
ATOM     68  C   UNL     1       5.668  -9.109 -18.652  1.00  0.00     0.031 A 
ATOM     69  C   UNL     1       7.685  -7.831 -18.337  1.00  0.00     0.131 A 
ATOM     70  C   UNL     1       6.425 -10.285 -18.547  1.00  0.00     0.055 A 
ATOM     71  C   UNL     1       8.445  -9.003 -18.324  1.00  0.00     0.041 A 
ATOM     72  F   UNL     1       8.333  -6.668 -18.165  1.00  0.00    -0.206 F 
ATOM     73  C   UNL     1       7.813 -10.240 -18.411  1.00  0.00     0.022 A 
BRANCH  70  74
ATOM     74  S   UNL     1       5.549 -11.869 -18.430  1.00  0.00     0.124 S 
ATOM     75  O   UNL     1       4.746 -11.672 -17.225  1.00  0.00    -0.237 OA
ATOM     76  O   UNL     1       4.812 -11.916 -19.687  1.00  0.00    -0.237 OA
ATOM     77  O   UNL     1       6.626 -12.848 -18.299  1.00  0.00    -0.744 OA
ENDBRANCH  70  74
ENDBRANCH  53  67
BRANCH  54  78
ATOM     78  C   UNL     1       0.996   0.629 -17.470  1.00  0.00     0.023 A 
ATOM     79  C   UNL     1       0.081   1.070 -18.440  1.00  0.00     0.031 A 
ATOM     80  C   UNL     1       1.218   1.452 -16.352  1.00  0.00     0.131 A 
ATOM     81  C   UNL     1      -0.542   2.320 -18.299  1.00  0.00     0.055 A 
ATOM     82  C   UNL     1       0.559   2.673 -16.192  1.00  0.00     0.041 A 
ATOM     83  F   UNL     1       2.075   1.074 -15.390  1.00  0.00    -0.206 F 
ATOM     84  C   UNL     1      -0.317   3.119 -17.176  1.00  0.00     0.022 A 
BRANCH  81  85
ATOM     85  S   UNL     1      -1.591   2.925 -19.650  1.00  0.00     0.124 S 
ATOM     86  O   UNL     1      -0.664   2.910 -20.776  1.00  0.00    -0.237 OA
ATOM     87  O   UNL     1      -2.653   1.926 -19.678  1.00  0.00    -0.237 OA
ATOM     88  O   UNL     1      -1.999   4.253 -19.195  1.00  0.00    -0.744 OA
ENDBRANCH  81  85
ENDBRANCH  54  78
BRANCH  66  89
ATOM     89  C   UNL     1       5.643  -1.622 -22.156  1.00  0.00     0.023 A 
ATOM     90  C   UNL     1       6.453  -0.475 -22.115  1.00  0.00     0.031 A 
ATOM     91  C   UNL     1       5.336  -2.174 -23.412  1.00  0.00     0.131 A 
ATOM     92  C   UNL     1       6.879   0.120 -23.311  1.00  0.00     0.055 A 
ATOM     93  C   UNL     1       5.815  -1.614 -24.596  1.00  0.00     0.041 A 
ATOM     94  F   UNL     1       4.565  -3.270 -23.508  1.00  0.00    -0.206 F 
ATOM     95  C   UNL     1       6.579  -0.451 -24.551  1.00  0.00     0.022 A 
BRANCH  92  96
ATOM     96  S   UNL     1       7.748   1.710 -23.229  1.00  0.00     0.124 S 
ATOM     97  O   UNL     1       6.779   2.550 -22.533  1.00  0.00    -0.237 OA
ATOM     98  O   UNL     1       8.952   1.369 -22.478  1.00  0.00    -0.237 OA
ATOM     99  O   UNL     1       7.970   2.052 -24.633  1.00  0.00    -0.744 OA
ENDBRANCH  92  96
ENDBRANCH  66  89
ENDBRANCH  40  41
ENDBRANCH  32  35
ENDBRANCH  30  31
ENDBRANCH   1  30
TORSDOF 18
