REMARK SMILES C[C@@H](CNc1cccc(F)c1C(=O)NCCCCNC(=O)c1ccc(-c2c3nc(c(-c4cc(S(=O)(=O)[O-])ccc4F)c4ccc([nH]4)c(-c4cc(S(=O)(=O)[O-])ccc4F)c4nc(c(-c5cc(S(=O)(=O)[O-])ccc5F)c5ccc2[nH]5)C=C4)C=C3)cc1)[NH+]1CCCCC1
REMARK SMILES IDX 16 1 15 2 14 3 12 4 13 5 11 7 5 8 6 9 7 10 9 11 8 12 10 13
REMARK SMILES IDX 4 14 3 16 2 17 1 18 85 19 86 20 90 21 87 23 89 24 88 25
REMARK SMILES IDX 17 26 18 27 19 28 20 29 21 31 22 32 23 33 84 34 24 35 83 36
REMARK SMILES IDX 25 37 26 38 27 39 77 40 28 41 82 42 76 43 78 44 29 45 81 46
REMARK SMILES IDX 75 47 74 48 30 50 62 51 42 52 61 53 43 54 46 55 60 56 79 57
REMARK SMILES IDX 44 58 45 59 59 61 80 62 47 63 31 64 32 65 40 66 33 67 39 68
REMARK SMILES IDX 41 69 38 70 34 71 35 72 36 73 37 74 63 75 64 76 72 77 65 78
REMARK SMILES IDX 71 79 73 80 70 81 66 82 67 83 68 84 69 85 48 86 49 87 57 88
REMARK SMILES IDX 50 89 56 90 58 91 55 92 51 93 52 94 53 95 54 96
REMARK H PARENT 14 6 4 15 85 22 19 30 78 49 46 60
REMARK Flexibility Score: inf
ROOT
ATOM      1  C   UNL     1      -4.276   0.803  -5.941  1.00  0.00     0.023 C 
ENDROOT
BRANCH   1   2
ATOM      2  C   UNL     1      -3.877   0.996  -4.476  1.00  0.00     0.116 C 
BRANCH   2   3
ATOM      3  N   UNL     1      -2.557   0.439  -4.252  1.00  0.00    -0.352 N 
ATOM      4  C   UNL     1      -1.313   1.011  -4.163  1.00  0.00     0.256 C 
ATOM      5  O   UNL     1      -0.357   0.238  -4.057  1.00  0.00    -0.269 OA
ATOM      6  H   UNL     1      -2.553  -0.539  -4.143  1.00  0.00     0.163 HD
BRANCH   4   7
ATOM      7  C   UNL     1      -1.067   2.479  -4.076  1.00  0.00     0.098 A 
ATOM      8  C   UNL     1      -0.079   2.945  -3.164  1.00  0.00     0.050 A 
ATOM      9  C   UNL     1       0.158   4.330  -3.088  1.00  0.00     0.027 A 
ATOM     10  C   UNL     1      -0.559   5.242  -3.862  1.00  0.00     0.005 A 
ATOM     11  C   UNL     1      -1.736   3.406  -4.879  1.00  0.00     0.138 A 
ATOM     12  C   UNL     1      -1.511   4.777  -4.755  1.00  0.00     0.040 A 
ATOM     13  F   UNL     1      -2.601   3.028  -5.826  1.00  0.00    -0.206 F 
BRANCH   8  14
ATOM     14  N   UNL     1       0.578   2.068  -2.307  1.00  0.00    -0.378 N 
ATOM     15  H   UNL     1       0.738   1.153  -2.634  1.00  0.00     0.160 HD
BRANCH  14  16
ATOM     16  C   UNL     1       1.049   2.388  -0.969  1.00  0.00     0.177 C 
BRANCH  16  17
ATOM     17  C   UNL     1       0.445   1.461   0.141  1.00  0.00     0.200 C 
ATOM     18  C   UNL     1       1.140   0.088   0.098  1.00  0.00     0.077 C 
BRANCH  17  19
ATOM     19  N   UNL     1      -1.041   1.387   0.290  1.00  0.00    -0.331 N 
ATOM     20  C   UNL     1      -1.696   2.682   0.055  1.00  0.00     0.262 C 
ATOM     21  C   UNL     1      -1.676   0.290  -0.450  1.00  0.00     0.262 C 
ATOM     22  H   UNL     1      -1.189   1.153   1.272  1.00  0.00     0.348 HD
ATOM     23  C   UNL     1      -3.209   2.654   0.267  1.00  0.00     0.062 C 
ATOM     24  C   UNL     1      -3.193   0.228  -0.249  1.00  0.00     0.062 C 
ATOM     25  C   UNL     1      -3.851   1.559  -0.571  1.00  0.00     0.012 C 
ENDBRANCH  17  19
ENDBRANCH  16  17
ENDBRANCH  14  16
ENDBRANCH   8  14
ENDBRANCH   4   7
ENDBRANCH   2   3
ENDBRANCH   1   2
BRANCH   1  26
ATOM     26  C   UNL     1      -4.721  -0.622  -6.284  1.00  0.00     0.023 C 
BRANCH  26  27
ATOM     27  C   UNL     1      -6.053  -1.040  -5.671  1.00  0.00     0.116 C 
BRANCH  27  28
ATOM     28  N   UNL     1      -7.156  -0.191  -6.093  1.00  0.00    -0.352 N 
ATOM     29  C   UNL     1      -8.447  -0.546  -6.406  1.00  0.00     0.251 C 
ATOM     30  H   UNL     1      -6.950   0.769  -6.165  1.00  0.00     0.163 HD
ATOM     31  O   UNL     1      -9.215   0.285  -6.871  1.00  0.00    -0.269 OA
BRANCH  29  32
ATOM     32  C   UNL     1      -8.879  -1.946  -6.209  1.00  0.00     0.039 A 
ATOM     33  C   UNL     1      -9.537  -2.599  -7.254  1.00  0.00     0.014 A 
ATOM     34  C   UNL     1      -8.615  -2.614  -5.010  1.00  0.00     0.014 A 
ATOM     35  C   UNL     1      -9.876  -3.946  -7.118  1.00  0.00     0.010 A 
ATOM     36  C   UNL     1      -8.898  -3.973  -4.901  1.00  0.00     0.010 A 
ATOM     37  C   UNL     1      -9.529  -4.652  -5.955  1.00  0.00    -0.014 A 
BRANCH  37  38
ATOM     38  C   UNL     1      -9.826  -6.100  -5.819  1.00  0.00     0.031 A 
ATOM     39  C   UNL     1     -10.803  -6.570  -4.778  1.00  0.00     0.074 A 
ATOM     40  C   UNL     1      -9.181  -6.990  -6.599  1.00  0.00     0.049 A 
ATOM     41  N   UNL     1     -11.128  -7.792  -4.445  1.00  0.00    -0.248 NA
ATOM     42  C   UNL     1     -11.484  -5.531  -3.990  1.00  0.00     0.031 C 
ATOM     43  C   UNL     1      -8.191  -6.654  -7.626  1.00  0.00     0.029 A 
ATOM     44  N   UNL     1      -9.259  -8.359  -6.652  1.00  0.00    -0.354 N 
ATOM     45  C   UNL     1     -12.039  -7.670  -3.402  1.00  0.00     0.074 A 
ATOM     46  C   UNL     1     -12.178  -6.257  -3.126  1.00  0.00     0.031 C 
ATOM     47  C   UNL     1      -7.780  -7.783  -8.226  1.00  0.00     0.029 A 
ATOM     48  C   UNL     1      -8.440  -8.925  -7.601  1.00  0.00     0.049 A 
ATOM     49  H   UNL     1      -9.847  -8.887  -6.064  1.00  0.00     0.167 HD
ATOM     50  C   UNL     1     -12.714  -8.647  -2.751  1.00  0.00     0.034 A 
ATOM     51  C   UNL     1      -8.237 -10.217  -7.926  1.00  0.00     0.034 A 
ATOM     52  C   UNL     1     -12.594 -10.049  -3.057  1.00  0.00     0.049 A 
ATOM     53  C   UNL     1      -8.988 -11.285  -7.176  1.00  0.00     0.074 A 
ATOM     54  C   UNL     1     -13.274 -11.114  -2.493  1.00  0.00     0.029 A 
ATOM     55  N   UNL     1     -11.741 -10.582  -4.014  1.00  0.00    -0.354 N 
ATOM     56  N   UNL     1      -9.850 -11.150  -6.196  1.00  0.00    -0.248 NA
ATOM     57  C   UNL     1      -8.737 -12.678  -7.573  1.00  0.00     0.031 C 
ATOM     58  C   UNL     1     -12.798 -12.294  -3.071  1.00  0.00     0.029 A 
ATOM     59  C   UNL     1     -11.863 -11.962  -4.039  1.00  0.00     0.049 A 
ATOM     60  H   UNL     1     -11.139 -10.058  -4.590  1.00  0.00     0.167 HD
ATOM     61  C   UNL     1     -10.257 -12.440  -5.871  1.00  0.00     0.074 A 
ATOM     62  C   UNL     1      -9.552 -13.338  -6.761  1.00  0.00     0.031 C 
ATOM     63  C   UNL     1     -11.140 -12.842  -4.923  1.00  0.00     0.034 A 
BRANCH  50  64
ATOM     64  C   UNL     1     -13.636  -8.235  -1.635  1.00  0.00     0.023 A 
ATOM     65  C   UNL     1     -14.820  -7.523  -1.889  1.00  0.00     0.031 A 
ATOM     66  C   UNL     1     -13.337  -8.574  -0.304  1.00  0.00     0.131 A 
ATOM     67  C   UNL     1     -15.641  -7.133  -0.821  1.00  0.00     0.055 A 
ATOM     68  C   UNL     1     -14.190  -8.239   0.748  1.00  0.00     0.041 A 
ATOM     69  F   UNL     1     -12.209  -9.239  -0.007  1.00  0.00    -0.206 F 
ATOM     70  C   UNL     1     -15.347  -7.507   0.493  1.00  0.00     0.022 A 
BRANCH  67  71
ATOM     71  S   UNL     1     -17.066  -6.066  -1.163  1.00  0.00     0.124 S 
ATOM     72  O   UNL     1     -16.411  -4.830  -1.585  1.00  0.00    -0.237 OA
ATOM     73  O   UNL     1     -17.773  -6.801  -2.205  1.00  0.00    -0.237 OA
ATOM     74  O   UNL     1     -17.755  -5.992   0.124  1.00  0.00    -0.744 OA
ENDBRANCH  67  71
ENDBRANCH  50  64
BRANCH  51  75
ATOM     75  C   UNL     1      -7.274 -10.573  -9.003  1.00  0.00     0.023 A 
ATOM     76  C   UNL     1      -7.723 -11.091 -10.228  1.00  0.00     0.031 A 
ATOM     77  C   UNL     1      -5.891 -10.402  -8.821  1.00  0.00     0.131 A 
ATOM     78  C   UNL     1      -6.793 -11.444 -11.218  1.00  0.00     0.055 A 
ATOM     79  C   UNL     1      -4.972 -10.720  -9.823  1.00  0.00     0.041 A 
ATOM     80  F   UNL     1      -5.415  -9.900  -7.670  1.00  0.00    -0.206 F 
ATOM     81  C   UNL     1      -5.422 -11.250 -11.028  1.00  0.00     0.022 A 
BRANCH  78  82
ATOM     82  S   UNL     1      -7.399 -12.188 -12.757  1.00  0.00     0.124 S 
ATOM     83  O   UNL     1      -7.966 -13.443 -12.276  1.00  0.00    -0.237 OA
ATOM     84  O   UNL     1      -8.353 -11.189 -13.225  1.00  0.00    -0.237 OA
ATOM     85  O   UNL     1      -6.191 -12.319 -13.570  1.00  0.00    -0.744 OA
ENDBRANCH  78  82
ENDBRANCH  51  75
BRANCH  63  86
ATOM     86  C   UNL     1     -11.414 -14.317  -4.814  1.00  0.00     0.023 A 
ATOM     87  C   UNL     1     -10.473 -15.196  -4.253  1.00  0.00     0.031 A 
ATOM     88  C   UNL     1     -12.652 -14.837  -5.228  1.00  0.00     0.131 A 
ATOM     89  C   UNL     1     -10.778 -16.561  -4.141  1.00  0.00     0.055 A 
ATOM     90  C   UNL     1     -12.967 -16.187  -5.075  1.00  0.00     0.041 A 
ATOM     91  F   UNL     1     -13.584 -14.034  -5.765  1.00  0.00    -0.206 F 
ATOM     92  C   UNL     1     -12.025 -17.058  -4.532  1.00  0.00     0.022 A 
BRANCH  89  93
ATOM     93  S   UNL     1      -9.515 -17.688  -3.494  1.00  0.00     0.124 S 
ATOM     94  O   UNL     1      -8.495 -17.629  -4.536  1.00  0.00    -0.237 OA
ATOM     95  O   UNL     1      -9.160 -17.069  -2.220  1.00  0.00    -0.237 OA
ATOM     96  O   UNL     1     -10.218 -18.965  -3.384  1.00  0.00    -0.744 OA
ENDBRANCH  89  93
ENDBRANCH  63  86
ENDBRANCH  37  38
ENDBRANCH  29  32
ENDBRANCH  27  28
ENDBRANCH  26  27
ENDBRANCH   1  26
TORSDOF 18
