REMARK SMILES Cc1ccc(C(=O)NCCCCNC(=O)c2ccc(-c3c4nc(c(-c5cc(S(=O)(=O)[O-])ccc5F)c5ccc([nH]5)c(-c5cc(S(=O)(=O)[O-])ccc5F)c5nc(c(-c6cc(S(=O)(=O)[O-])ccc6F)c6ccc3[nH]6)C=C5)C=C4)cc2)cc1S(=O)(=O)N(C)[C@H]1CCSC1
REMARK SMILES IDX 10 1 9 2 8 3 6 4 7 5 5 7 1 8 2 9 3 10 80 11 4 12 79 13 81 14
REMARK SMILES IDX 82 15 83 16 84 17 85 18 86 19 87 20 90 21 88 22 89 23 11 24
REMARK SMILES IDX 12 25 13 26 14 27 15 29 16 30 17 31 78 32 18 33 77 34 19 35
REMARK SMILES IDX 20 36 21 37 71 38 22 39 76 40 70 41 72 42 23 43 75 44 69 45
REMARK SMILES IDX 68 46 24 48 56 49 36 50 55 51 37 52 40 53 54 54 73 55 38 56
REMARK SMILES IDX 39 57 53 59 74 60 41 61 25 62 26 63 34 64 27 65 33 66 35 67
REMARK SMILES IDX 32 68 28 69 29 70 30 71 31 72 57 73 58 74 66 75 59 76 65 77
REMARK SMILES IDX 67 78 64 79 60 80 61 81 62 82 63 83 42 84 43 85 51 86 44 87
REMARK SMILES IDX 50 88 52 89 49 90 45 91 46 92 47 93 48 94
REMARK H PARENT 8 6 13 28 72 47 40 58
REMARK Flexibility Score: inf
ROOT
ATOM      1  C   UNL     1      -2.536   5.761  -3.397  1.00  0.00     0.023 C 
ENDROOT
BRANCH   1   2
ATOM      2  C   UNL     1      -2.847   5.379  -1.937  1.00  0.00     0.116 C 
BRANCH   2   3
ATOM      3  N   UNL     1      -3.489   4.072  -1.850  1.00  0.00    -0.352 N 
ATOM      4  C   UNL     1      -3.018   2.798  -1.670  1.00  0.00     0.251 C 
ATOM      5  O   UNL     1      -3.854   1.891  -1.623  1.00  0.00    -0.269 OA
ATOM      6  H   UNL     1      -4.469   4.114  -1.941  1.00  0.00     0.163 HD
BRANCH   4   7
ATOM      7  C   UNL     1      -1.577   2.440  -1.515  1.00  0.00     0.041 A 
ATOM      8  C   UNL     1       2.476   0.954  -1.008  1.00  0.00     0.046 C 
ATOM      9  C   UNL     1       1.134   1.595  -1.164  1.00  0.00    -0.031 A 
ATOM     10  C   UNL     1       0.046   0.738  -0.900  1.00  0.00     0.005 A 
ATOM     11  C   UNL     1       0.838   2.891  -1.609  1.00  0.00     0.086 A 
ATOM     12  C   UNL     1      -1.278   1.154  -1.057  1.00  0.00     0.014 A 
ATOM     13  C   UNL     1      -0.506   3.273  -1.816  1.00  0.00     0.035 A 
BRANCH  11  14
ATOM     14  S   UNL     1       1.975   4.229  -1.973  1.00  0.00     0.243 S 
ATOM     15  O   UNL     1       2.174   4.194  -3.399  1.00  0.00    -0.207 OA
ATOM     16  O   UNL     1       1.432   5.396  -1.299  1.00  0.00    -0.207 OA
BRANCH  14  17
ATOM     17  N   UNL     1       3.432   3.879  -1.207  1.00  0.00    -0.197 NA
ATOM     18  C   UNL     1       4.576   3.606  -2.077  1.00  0.00     0.125 C 
BRANCH  17  19
ATOM     19  C   UNL     1       3.573   4.203   0.231  1.00  0.00     0.083 C 
ATOM     20  C   UNL     1       4.488   3.237   0.983  1.00  0.00     0.032 C 
ATOM     21  C   UNL     1       4.118   5.602   0.522  1.00  0.00     0.089 C 
ATOM     22  C   UNL     1       4.468   3.721   2.421  1.00  0.00     0.071 C 
ATOM     23  S   UNL     1       4.681   5.514   2.266  1.00  0.00    -0.160 SA
ENDBRANCH  17  19
ENDBRANCH  14  17
ENDBRANCH  11  14
ENDBRANCH   4   7
ENDBRANCH   2   3
ENDBRANCH   1   2
BRANCH   1  24
ATOM     24  C   UNL     1      -3.761   6.112  -4.245  1.00  0.00     0.023 C 
BRANCH  24  25
ATOM     25  C   UNL     1      -4.511   7.336  -3.754  1.00  0.00     0.116 C 
BRANCH  25  26
ATOM     26  N   UNL     1      -3.999   8.630  -4.166  1.00  0.00    -0.352 N 
ATOM     27  C   UNL     1      -4.560   9.885  -3.970  1.00  0.00     0.251 C 
ATOM     28  H   UNL     1      -3.141   8.616  -4.649  1.00  0.00     0.163 HD
ATOM     29  O   UNL     1      -4.200  10.843  -4.650  1.00  0.00    -0.269 OA
BRANCH  27  30
ATOM     30  C   UNL     1      -5.461  10.124  -2.805  1.00  0.00     0.039 A 
ATOM     31  C   UNL     1      -5.287  11.331  -2.107  1.00  0.00     0.014 A 
ATOM     32  C   UNL     1      -6.129   9.075  -2.197  1.00  0.00     0.014 A 
ATOM     33  C   UNL     1      -5.479  11.354  -0.733  1.00  0.00     0.010 A 
ATOM     34  C   UNL     1      -6.097   9.012  -0.833  1.00  0.00     0.010 A 
ATOM     35  C   UNL     1      -5.722  10.142  -0.109  1.00  0.00    -0.014 A 
BRANCH  35  36
ATOM     36  C   UNL     1      -5.790   9.926   1.315  1.00  0.00     0.031 A 
ATOM     37  C   UNL     1      -7.140   9.962   1.893  1.00  0.00     0.074 A 
ATOM     38  C   UNL     1      -4.691   9.417   1.913  1.00  0.00     0.049 A 
ATOM     39  N   UNL     1      -7.401   9.916   3.144  1.00  0.00    -0.248 NA
ATOM     40  C   UNL     1      -8.347  10.099   1.067  1.00  0.00     0.031 C 
ATOM     41  C   UNL     1      -4.575   8.716   3.184  1.00  0.00     0.029 A 
ATOM     42  N   UNL     1      -3.371   9.693   1.556  1.00  0.00    -0.354 N 
ATOM     43  C   UNL     1      -8.748   9.655   3.266  1.00  0.00     0.074 A 
ATOM     44  C   UNL     1      -9.310   9.935   1.976  1.00  0.00     0.031 C 
ATOM     45  C   UNL     1      -3.322   8.873   3.652  1.00  0.00     0.029 A 
ATOM     46  C   UNL     1      -2.658   9.816   2.766  1.00  0.00     0.049 A 
ATOM     47  H   UNL     1      -3.010   9.783   0.644  1.00  0.00     0.167 HD
ATOM     48  C   UNL     1      -9.167   9.061   4.413  1.00  0.00     0.034 A 
ATOM     49  C   UNL     1      -2.209  11.055   3.142  1.00  0.00     0.034 A 
ATOM     50  C   UNL     1      -8.083   9.093   5.396  1.00  0.00     0.049 A 
ATOM     51  C   UNL     1      -2.916  11.539   4.391  1.00  0.00     0.074 A 
ATOM     52  C   UNL     1      -7.162   8.148   5.811  1.00  0.00     0.029 A 
ATOM     53  N   UNL     1      -7.586  10.332   5.790  1.00  0.00    -0.354 N 
ATOM     54  N   UNL     1      -4.122  11.175   4.747  1.00  0.00    -0.248 NA
ATOM     55  C   UNL     1      -2.268  12.387   5.384  1.00  0.00     0.031 C 
ATOM     56  C   UNL     1      -6.032   8.853   6.321  1.00  0.00     0.029 A 
ATOM     57  C   UNL     1      -6.295  10.213   6.262  1.00  0.00     0.049 A 
ATOM     58  H   UNL     1      -8.088  11.178   5.739  1.00  0.00     0.167 HD
ATOM     59  C   UNL     1      -4.396  11.665   5.999  1.00  0.00     0.074 A 
ATOM     60  C   UNL     1      -3.203  12.422   6.349  1.00  0.00     0.031 C 
ATOM     61  C   UNL     1      -5.556  11.397   6.677  1.00  0.00     0.034 A 
BRANCH  48  62
ATOM     62  C   UNL     1     -10.427   8.247   4.597  1.00  0.00     0.023 A 
ATOM     63  C   UNL     1     -10.604   7.597   5.836  1.00  0.00     0.031 A 
ATOM     64  C   UNL     1     -11.405   7.953   3.622  1.00  0.00     0.131 A 
ATOM     65  C   UNL     1     -11.667   6.702   6.057  1.00  0.00     0.055 A 
ATOM     66  C   UNL     1     -12.487   7.092   3.855  1.00  0.00     0.041 A 
ATOM     67  F   UNL     1     -11.359   8.434   2.377  1.00  0.00    -0.206 F 
ATOM     68  C   UNL     1     -12.620   6.454   5.075  1.00  0.00     0.022 A 
BRANCH  65  69
ATOM     69  S   UNL     1     -11.753   5.824   7.638  1.00  0.00     0.124 S 
ATOM     70  O   UNL     1     -10.529   5.029   7.613  1.00  0.00    -0.237 OA
ATOM     71  O   UNL     1     -11.797   6.919   8.599  1.00  0.00    -0.237 OA
ATOM     72  O   UNL     1     -12.991   5.051   7.527  1.00  0.00    -0.744 OA
ENDBRANCH  65  69
ENDBRANCH  48  62
BRANCH  49  73
ATOM     73  C   UNL     1      -1.801  11.876   1.950  1.00  0.00     0.023 A 
ATOM     74  C   UNL     1      -0.840  11.278   1.101  1.00  0.00     0.031 A 
ATOM     75  C   UNL     1      -2.652  12.838   1.389  1.00  0.00     0.131 A 
ATOM     76  C   UNL     1      -0.954  11.418  -0.292  1.00  0.00     0.055 A 
ATOM     77  C   UNL     1      -2.665  13.074   0.004  1.00  0.00     0.041 A 
ATOM     78  F   UNL     1      -3.585  13.447   2.135  1.00  0.00    -0.206 F 
ATOM     79  C   UNL     1      -1.869  12.307  -0.851  1.00  0.00     0.022 A 
BRANCH  76  80
ATOM     80  S   UNL     1      -0.140  10.158  -1.324  1.00  0.00     0.124 S 
ATOM     81  O   UNL     1       1.271  10.481  -1.137  1.00  0.00    -0.237 OA
ATOM     82  O   UNL     1      -0.607   8.919  -0.702  1.00  0.00    -0.237 OA
ATOM     83  O   UNL     1      -0.666  10.398  -2.665  1.00  0.00    -0.744 OA
ENDBRANCH  76  80
ENDBRANCH  49  73
BRANCH  61  84
ATOM     84  C   UNL     1      -6.057  12.188   7.868  1.00  0.00     0.023 A 
ATOM     85  C   UNL     1      -5.519  13.428   8.227  1.00  0.00     0.031 A 
ATOM     86  C   UNL     1      -7.170  11.763   8.636  1.00  0.00     0.131 A 
ATOM     87  C   UNL     1      -5.972  14.119   9.360  1.00  0.00     0.055 A 
ATOM     88  C   UNL     1      -7.700  12.512   9.690  1.00  0.00     0.041 A 
ATOM     89  F   UNL     1      -7.807  10.608   8.392  1.00  0.00    -0.206 F 
ATOM     90  C   UNL     1      -7.081  13.687  10.080  1.00  0.00     0.022 A 
BRANCH  87  91
ATOM     91  S   UNL     1      -4.992  15.529   9.926  1.00  0.00     0.124 S 
ATOM     92  O   UNL     1      -3.709  14.896  10.225  1.00  0.00    -0.237 OA
ATOM     93  O   UNL     1      -5.005  16.410   8.764  1.00  0.00    -0.237 OA
ATOM     94  O   UNL     1      -5.730  16.017  11.089  1.00  0.00    -0.744 OA
ENDBRANCH  87  91
ENDBRANCH  61  84
ENDBRANCH  35  36
ENDBRANCH  27  30
ENDBRANCH  25  26
ENDBRANCH  24  25
ENDBRANCH   1  24
TORSDOF 17
