REMARK SMILES O=C(NCCCCNC(=O)c1cc(NC(=O)c2cncc(Br)c2)ccc1O)c1ccc(-c2c3nc(c(-c4cc(S(=O)(=O)[O-])ccc4F)c4ccc([nH]4)c(-c4cc(S(=O)(=O)[O-])ccc4F)c4nc(c(-c5cc(S(=O)(=O)[O-])ccc5F)c5ccc2[nH]5)C=C4)C=C3)cc1
REMARK SMILES IDX 5 1 4 2 3 3 1 4 2 5 28 7 29 8 90 9 30 10 89 11 31 12 32 13
REMARK SMILES IDX 33 14 83 15 34 16 88 17 82 18 84 19 35 20 87 21 81 22 80 23
REMARK SMILES IDX 36 25 68 26 48 27 67 28 49 29 52 30 66 31 85 32 50 33 51 34
REMARK SMILES IDX 65 36 86 37 53 38 37 39 38 40 46 41 39 42 45 43 47 44 44 45
REMARK SMILES IDX 40 46 41 47 42 48 43 49 69 50 70 51 78 52 71 53 77 54 79 55
REMARK SMILES IDX 76 56 72 57 73 58 74 59 75 60 54 61 55 62 63 63 56 64 62 65
REMARK SMILES IDX 64 66 61 67 57 68 58 69 59 70 60 71 6 72 7 73 8 74 9 75
REMARK SMILES IDX 10 77 11 78 12 79 26 80 13 81 25 82 24 83 27 84 14 86 15 87
REMARK SMILES IDX 16 89 17 90 18 91 23 92 19 93 21 94 20 95 22 96
REMARK H PARENT 3 6 84 24 52 35 8 76 27 85 14 88
REMARK Flexibility Score: inf
ROOT
ATOM      1  C   UNL     1       4.997  -0.724   2.324  1.00  0.00     0.023 C 
ENDROOT
BRANCH   1   2
ATOM      2  C   UNL     1       4.625  -0.911   0.857  1.00  0.00     0.116 C 
BRANCH   2   3
ATOM      3  N   UNL     1       3.187  -0.973   0.641  1.00  0.00    -0.352 N 
ATOM      4  O   UNL     1       1.155  -0.294  -0.048  1.00  0.00    -0.269 OA
ATOM      5  C   UNL     1       2.375  -0.156  -0.108  1.00  0.00     0.251 C 
ATOM      6  H   UNL     1       2.726  -1.711   1.101  1.00  0.00     0.163 HD
BRANCH   5   7
ATOM      7  C   UNL     1       2.961   0.899  -0.964  1.00  0.00     0.039 A 
ATOM      8  C   UNL     1       4.049   0.632  -1.799  1.00  0.00     0.014 A 
ATOM      9  C   UNL     1       2.395   2.177  -0.941  1.00  0.00     0.014 A 
ATOM     10  C   UNL     1       4.655   1.668  -2.506  1.00  0.00     0.010 A 
ATOM     11  C   UNL     1       2.959   3.200  -1.708  1.00  0.00     0.010 A 
ATOM     12  C   UNL     1       4.113   2.962  -2.473  1.00  0.00    -0.014 A 
BRANCH  12  13
ATOM     13  C   UNL     1       4.735   4.060  -3.257  1.00  0.00     0.031 A 
ATOM     14  C   UNL     1       5.340   5.247  -2.561  1.00  0.00     0.074 A 
ATOM     15  C   UNL     1       4.726   3.999  -4.602  1.00  0.00     0.049 A 
ATOM     16  N   UNL     1       5.826   6.350  -3.072  1.00  0.00    -0.248 NA
ATOM     17  C   UNL     1       5.390   5.190  -1.094  1.00  0.00     0.031 C 
ATOM     18  C   UNL     1       4.178   2.893  -5.389  1.00  0.00     0.029 A 
ATOM     19  N   UNL     1       5.175   4.889  -5.545  1.00  0.00    -0.354 N 
ATOM     20  C   UNL     1       6.221   7.130  -1.991  1.00  0.00     0.074 A 
ATOM     21  C   UNL     1       5.880   6.384  -0.796  1.00  0.00     0.031 C 
ATOM     22  C   UNL     1       4.324   3.169  -6.693  1.00  0.00     0.029 A 
ATOM     23  C   UNL     1       4.911   4.497  -6.836  1.00  0.00     0.049 A 
ATOM     24  H   UNL     1       5.642   5.726  -5.319  1.00  0.00     0.167 HD
ATOM     25  C   UNL     1       6.816   8.351  -1.998  1.00  0.00     0.034 A 
ATOM     26  C   UNL     1       5.076   5.149  -8.004  1.00  0.00     0.034 A 
ATOM     27  C   UNL     1       7.138   9.078  -3.204  1.00  0.00     0.049 A 
ATOM     28  C   UNL     1       5.674   6.529  -7.992  1.00  0.00     0.074 A 
ATOM     29  C   UNL     1       7.769  10.304  -3.331  1.00  0.00     0.029 A 
ATOM     30  N   UNL     1       6.837   8.655  -4.494  1.00  0.00    -0.354 N 
ATOM     31  N   UNL     1       6.053   7.253  -6.964  1.00  0.00    -0.248 NA
ATOM     32  C   UNL     1       5.872   7.178  -9.293  1.00  0.00     0.031 C 
ATOM     33  C   UNL     1       7.779  10.656  -4.686  1.00  0.00     0.029 A 
ATOM     34  C   UNL     1       7.235   9.612  -5.417  1.00  0.00     0.049 A 
ATOM     35  H   UNL     1       6.403   7.801  -4.721  1.00  0.00     0.167 HD
ATOM     36  C   UNL     1       6.564   8.431  -7.497  1.00  0.00     0.074 A 
ATOM     37  C   UNL     1       6.441   8.322  -8.937  1.00  0.00     0.031 C 
ATOM     38  C   UNL     1       7.100   9.498  -6.852  1.00  0.00     0.034 A 
BRANCH  25  39
ATOM     39  C   UNL     1       7.097   8.992  -0.657  1.00  0.00     0.023 A 
ATOM     40  C   UNL     1       7.952   8.396   0.288  1.00  0.00     0.031 A 
ATOM     41  C   UNL     1       6.459  10.192  -0.294  1.00  0.00     0.131 A 
ATOM     42  C   UNL     1       8.066   8.942   1.575  1.00  0.00     0.055 A 
ATOM     43  C   UNL     1       6.651  10.783   0.957  1.00  0.00     0.041 A 
ATOM     44  F   UNL     1       5.617  10.803  -1.143  1.00  0.00    -0.206 F 
ATOM     45  C   UNL     1       7.442  10.146   1.909  1.00  0.00     0.022 A 
BRANCH  42  46
ATOM     46  S   UNL     1       8.886   7.959   2.861  1.00  0.00     0.124 S 
ATOM     47  O   UNL     1       8.139   6.705   2.798  1.00  0.00    -0.237 OA
ATOM     48  O   UNL     1      10.264   7.907   2.386  1.00  0.00    -0.237 OA
ATOM     49  O   UNL     1       8.673   8.740   4.078  1.00  0.00    -0.744 OA
ENDBRANCH  42  46
ENDBRANCH  25  39
BRANCH  26  50
ATOM     50  C   UNL     1       4.618   4.511  -9.268  1.00  0.00     0.023 A 
ATOM     51  C   UNL     1       5.531   4.094 -10.247  1.00  0.00     0.031 A 
ATOM     52  C   UNL     1       3.248   4.287  -9.501  1.00  0.00     0.131 A 
ATOM     53  C   UNL     1       5.062   3.491 -11.425  1.00  0.00     0.055 A 
ATOM     54  C   UNL     1       2.790   3.646 -10.651  1.00  0.00     0.041 A 
ATOM     55  F   UNL     1       2.336   4.660  -8.589  1.00  0.00    -0.206 F 
ATOM     56  C   UNL     1       3.700   3.249 -11.626  1.00  0.00     0.022 A 
BRANCH  53  57
ATOM     57  S   UNL     1       6.258   3.059 -12.717  1.00  0.00     0.124 S 
ATOM     58  O   UNL     1       6.820   4.363 -13.049  1.00  0.00    -0.237 OA
ATOM     59  O   UNL     1       7.144   2.137 -12.015  1.00  0.00    -0.237 OA
ATOM     60  O   UNL     1       5.430   2.453 -13.758  1.00  0.00    -0.744 OA
ENDBRANCH  53  57
ENDBRANCH  26  50
BRANCH  38  61
ATOM     61  C   UNL     1       7.657  10.613  -7.703  1.00  0.00     0.023 A 
ATOM     62  C   UNL     1       6.832  11.466  -8.455  1.00  0.00     0.031 A 
ATOM     63  C   UNL     1       9.046  10.834  -7.738  1.00  0.00     0.131 A 
ATOM     64  C   UNL     1       7.406  12.482  -9.236  1.00  0.00     0.055 A 
ATOM     65  C   UNL     1       9.607  11.877  -8.475  1.00  0.00     0.041 A 
ATOM     66  F   UNL     1       9.880  10.045  -7.042  1.00  0.00    -0.206 F 
ATOM     67  C   UNL     1       8.787  12.704  -9.236  1.00  0.00     0.022 A 
BRANCH  64  68
ATOM     68  S   UNL     1       6.332  13.482 -10.303  1.00  0.00     0.124 S 
ATOM     69  O   UNL     1       5.770  12.474 -11.197  1.00  0.00    -0.237 OA
ATOM     70  O   UNL     1       5.404  14.076  -9.346  1.00  0.00    -0.237 OA
ATOM     71  O   UNL     1       7.256  14.424 -10.934  1.00  0.00    -0.744 OA
ENDBRANCH  64  68
ENDBRANCH  38  61
ENDBRANCH  12  13
ENDBRANCH   5   7
ENDBRANCH   2   3
ENDBRANCH   1   2
BRANCH   1  72
ATOM     72  C   UNL     1       4.531  -1.830   3.269  1.00  0.00     0.023 C 
BRANCH  72  73
ATOM     73  C   UNL     1       4.867  -3.256   2.846  1.00  0.00     0.116 C 
BRANCH  73  74
ATOM     74  N   UNL     1       6.286  -3.498   2.649  1.00  0.00    -0.352 N 
ATOM     75  C   UNL     1       7.008  -4.628   2.956  1.00  0.00     0.255 C 
ATOM     76  H   UNL     1       6.796  -2.759   2.244  1.00  0.00     0.163 HD
ATOM     77  O   UNL     1       8.206  -4.697   2.697  1.00  0.00    -0.269 OA
BRANCH  75  78
ATOM     78  C   UNL     1       6.376  -5.709   3.741  1.00  0.00     0.083 A 
ATOM     79  C   UNL     1       6.942  -5.958   5.000  1.00  0.00     0.043 A 
ATOM     80  C   UNL     1       5.249  -6.415   3.326  1.00  0.00     0.128 A 
ATOM     81  C   UNL     1       6.298  -6.781   5.918  1.00  0.00     0.042 A 
ATOM     82  C   UNL     1       4.641  -7.309   4.201  1.00  0.00     0.049 A 
ATOM     83  C   UNL     1       5.152  -7.472   5.495  1.00  0.00     0.030 A 
BRANCH  80  84
ATOM     84  O   UNL     1       4.736  -6.226   2.076  1.00  0.00    -0.507 OA
ATOM     85  H   UNL     1       5.146  -5.624   1.487  1.00  0.00     0.293 HD
ENDBRANCH  80  84
BRANCH  81  86
ATOM     86  N   UNL     1       6.702  -6.974   7.253  1.00  0.00    -0.322 N 
ATOM     87  C   UNL     1       7.652  -6.383   8.056  1.00  0.00     0.257 C 
ATOM     88  H   UNL     1       6.196  -7.685   7.711  1.00  0.00     0.170 HD
ATOM     89  O   UNL     1       7.891  -6.868   9.162  1.00  0.00    -0.269 OA
BRANCH  87  90
ATOM     90  C   UNL     1       8.388  -5.177   7.664  1.00  0.00     0.059 A 
ATOM     91  C   UNL     1       9.776  -5.220   7.672  1.00  0.00     0.124 A 
ATOM     92  C   UNL     1       7.752  -3.993   7.286  1.00  0.00     0.032 A 
ATOM     93  N   UNL     1      10.558  -4.196   7.254  1.00  0.00    -0.263 NA
ATOM     94  C   UNL     1       8.535  -2.939   6.825  1.00  0.00     0.037 A 
ATOM     95  C   UNL     1       9.916  -3.084   6.816  1.00  0.00     0.126 A 
ATOM     96  Br  UNL     1       7.726  -1.368   6.170  1.00  0.00    -0.049 Br
ENDBRANCH  87  90
ENDBRANCH  81  86
ENDBRANCH  75  78
ENDBRANCH  73  74
ENDBRANCH  72  73
ENDBRANCH   1  72
TORSDOF 17
