REMARK SMILES CCCc1cc(N2CCC(C(=O)NCCCCNC(=O)c3ccc(-c4c5nc(c(-c6cc(S(=O)(=O)[O-])ccc6F)c6ccc([nH]6)c(-c6cc(S(=O)(=O)[O-])ccc6F)c6nc(c(-c7cc(S(=O)(=O)[O-])ccc7F)c7ccc4[nH]7)C=C6)C=C5)cc3)CC2)nc(CC)n1
REMARK SMILES IDX 15 1 14 2 13 3 11 4 12 5 10 7 7 8 8 9 85 10 9 11 84 12 6 13
REMARK SMILES IDX 4 14 5 15 90 16 87 17 86 18 3 19 2 20 1 21 88 22 89 23 16 24
REMARK SMILES IDX 17 25 18 26 19 27 20 29 21 30 22 31 83 32 23 33 82 34 24 35
REMARK SMILES IDX 25 36 26 37 76 38 27 39 81 40 75 41 77 42 28 43 80 44 74 45
REMARK SMILES IDX 73 46 29 48 61 49 41 50 60 51 42 52 45 53 59 54 78 55 43 56
REMARK SMILES IDX 44 57 58 59 79 60 46 61 30 62 31 63 39 64 32 65 38 66 40 67
REMARK SMILES IDX 37 68 33 69 34 70 35 71 36 72 62 73 63 74 71 75 64 76 70 77
REMARK SMILES IDX 72 78 69 79 65 80 66 81 67 82 68 83 47 84 48 85 56 86 49 87
REMARK SMILES IDX 55 88 57 89 54 90 50 91 51 92 52 93 53 94
REMARK H PARENT 13 6 18 28 77 47 45 58
REMARK Flexibility Score: inf
ROOT
ATOM      1  C   UNL     1      -2.444   8.432   0.161  1.00  0.00     0.023 C 
ENDROOT
BRANCH   1   2
ATOM      2  C   UNL     1      -3.500   7.349   0.374  1.00  0.00     0.116 C 
BRANCH   2   3
ATOM      3  N   UNL     1      -4.541   7.385  -0.645  1.00  0.00    -0.356 N 
ATOM      4  C   UNL     1      -4.865   6.481  -1.613  1.00  0.00     0.223 C 
ATOM      5  O   UNL     1      -5.809   6.741  -2.363  1.00  0.00    -0.275 OA
ATOM      6  H   UNL     1      -5.102   8.194  -0.632  1.00  0.00     0.163 HD
BRANCH   4   7
ATOM      7  C   UNL     1      -4.106   5.169  -1.764  1.00  0.00     0.082 C 
ATOM      8  N   UNL     1      -2.039   3.738  -0.501  1.00  0.00    -0.356 N 
ATOM      9  C   UNL     1      -1.685   4.302  -1.788  1.00  0.00     0.119 C 
ATOM     10  C   UNL     1      -3.356   3.152  -0.374  1.00  0.00     0.119 C 
ATOM     11  C   UNL     1      -2.636   5.433  -2.134  1.00  0.00     0.035 C 
ATOM     12  C   UNL     1      -4.385   4.258  -0.553  1.00  0.00     0.035 C 
BRANCH   8  13
ATOM     13  C   UNL     1      -1.053   3.575   0.441  1.00  0.00     0.132 A 
ATOM     14  C   UNL     1       0.329   2.200   1.778  1.00  0.00     0.046 A 
ATOM     15  C   UNL     1      -0.768   2.324   0.950  1.00  0.00     0.070 A 
ATOM     16  N   UNL     1       1.026   3.277   2.187  1.00  0.00    -0.238 NA
ATOM     17  C   UNL     1       0.635   4.474   1.714  1.00  0.00     0.130 A 
ATOM     18  N   UNL     1      -0.348   4.656   0.814  1.00  0.00    -0.216 NA
BRANCH  14  19
ATOM     19  C   UNL     1       0.812   0.865   2.286  1.00  0.00     0.056 C 
BRANCH  19  20
ATOM     20  C   UNL     1       0.557  -0.357   1.391  1.00  0.00     0.003 C 
ATOM     21  C   UNL     1       1.221  -0.268   0.023  1.00  0.00     0.004 C 
ENDBRANCH  19  20
ENDBRANCH  14  19
BRANCH  17  22
ATOM     22  C   UNL     1       1.345   5.696   2.234  1.00  0.00     0.074 C 
ATOM     23  C   UNL     1       1.172   5.857   3.738  1.00  0.00     0.012 C 
ENDBRANCH  17  22
ENDBRANCH   8  13
ENDBRANCH   4   7
ENDBRANCH   2   3
ENDBRANCH   1   2
BRANCH   1  24
ATOM     24  C   UNL     1      -2.942   9.863   0.356  1.00  0.00     0.023 C 
BRANCH  24  25
ATOM     25  C   UNL     1      -3.593  10.145   1.704  1.00  0.00     0.116 C 
BRANCH  25  26
ATOM     26  N   UNL     1      -2.723   9.847   2.832  1.00  0.00    -0.352 N 
ATOM     27  C   UNL     1      -2.493  10.593   3.963  1.00  0.00     0.251 C 
ATOM     28  H   UNL     1      -2.233   8.995   2.777  1.00  0.00     0.163 HD
ATOM     29  O   UNL     1      -1.623  10.248   4.758  1.00  0.00    -0.269 OA
BRANCH  27  30
ATOM     30  C   UNL     1      -3.271  11.830   4.190  1.00  0.00     0.039 A 
ATOM     31  C   UNL     1      -2.593  12.999   4.542  1.00  0.00     0.014 A 
ATOM     32  C   UNL     1      -4.657  11.843   4.018  1.00  0.00     0.014 A 
ATOM     33  C   UNL     1      -3.298  14.200   4.648  1.00  0.00     0.010 A 
ATOM     34  C   UNL     1      -5.345  13.052   4.050  1.00  0.00     0.010 A 
ATOM     35  C   UNL     1      -4.673  14.244   4.363  1.00  0.00    -0.014 A 
BRANCH  35  36
ATOM     36  C   UNL     1      -5.426  15.525   4.382  1.00  0.00     0.031 A 
ATOM     37  C   UNL     1      -6.541  15.727   5.371  1.00  0.00     0.074 A 
ATOM     38  C   UNL     1      -5.161  16.469   3.458  1.00  0.00     0.049 A 
ATOM     39  N   UNL     1      -7.373  16.729   5.489  1.00  0.00    -0.248 NA
ATOM     40  C   UNL     1      -6.770  14.636   6.330  1.00  0.00     0.031 C 
ATOM     41  C   UNL     1      -4.141  16.366   2.412  1.00  0.00     0.029 A 
ATOM     42  N   UNL     1      -5.737  17.695   3.238  1.00  0.00    -0.354 N 
ATOM     43  C   UNL     1      -8.239  16.382   6.521  1.00  0.00     0.074 A 
ATOM     44  C   UNL     1      -7.865  15.050   6.949  1.00  0.00     0.031 C 
ATOM     45  C   UNL     1      -4.152  17.487   1.674  1.00  0.00     0.029 A 
ATOM     46  C   UNL     1      -5.205  18.371   2.165  1.00  0.00     0.049 A 
ATOM     47  H   UNL     1      -6.463  18.057   3.796  1.00  0.00     0.167 HD
ATOM     48  C   UNL     1      -9.237  17.115   7.076  1.00  0.00     0.034 A 
ATOM     49  C   UNL     1      -5.535  19.562   1.628  1.00  0.00     0.034 A 
ATOM     50  C   UNL     1      -9.584  18.448   6.645  1.00  0.00     0.049 A 
ATOM     51  C   UNL     1      -6.646  20.362   2.257  1.00  0.00     0.074 A 
ATOM     52  C   UNL     1     -10.527  19.310   7.179  1.00  0.00     0.029 A 
ATOM     53  N   UNL     1      -9.009  19.111   5.566  1.00  0.00    -0.354 N 
ATOM     54  N   UNL     1      -7.416  20.048   3.273  1.00  0.00    -0.248 NA
ATOM     55  C   UNL     1      -6.924  21.680   1.674  1.00  0.00     0.031 C 
ATOM     56  C   UNL     1     -10.567  20.463   6.386  1.00  0.00     0.029 A 
ATOM     57  C   UNL     1      -9.598  20.356   5.401  1.00  0.00     0.049 A 
ATOM     58  H   UNL     1      -8.289  18.749   5.002  1.00  0.00     0.167 HD
ATOM     59  C   UNL     1      -8.253  21.144   3.467  1.00  0.00     0.074 A 
ATOM     60  C   UNL     1      -7.883  22.129   2.471  1.00  0.00     0.031 C 
ATOM     61  C   UNL     1      -9.232  21.322   4.391  1.00  0.00     0.034 A 
BRANCH  48  62
ATOM     62  C   UNL     1     -10.034  16.470   8.186  1.00  0.00     0.023 A 
ATOM     63  C   UNL     1      -9.431  16.066   9.390  1.00  0.00     0.031 A 
ATOM     64  C   UNL     1     -11.405  16.207   8.020  1.00  0.00     0.131 A 
ATOM     65  C   UNL     1     -10.169  15.340  10.337  1.00  0.00     0.055 A 
ATOM     66  C   UNL     1     -12.157  15.564   9.006  1.00  0.00     0.041 A 
ATOM     67  F   UNL     1     -12.036  16.551   6.886  1.00  0.00    -0.206 F 
ATOM     68  C   UNL     1     -11.535  15.108  10.165  1.00  0.00     0.022 A 
BRANCH  65  69
ATOM     69  S   UNL     1      -9.280  14.559  11.712  1.00  0.00     0.124 S 
ATOM     70  O   UNL     1      -8.317  13.721  11.002  1.00  0.00    -0.237 OA
ATOM     71  O   UNL     1      -8.728  15.706  12.423  1.00  0.00    -0.237 OA
ATOM     72  O   UNL     1     -10.325  13.826  12.424  1.00  0.00    -0.744 OA
ENDBRANCH  65  69
ENDBRANCH  48  62
BRANCH  49  73
ATOM     73  C   UNL     1      -4.812  20.068   0.428  1.00  0.00     0.023 A 
ATOM     74  C   UNL     1      -3.981  21.196   0.505  1.00  0.00     0.031 A 
ATOM     75  C   UNL     1      -4.957  19.437  -0.820  1.00  0.00     0.131 A 
ATOM     76  C   UNL     1      -3.351  21.680  -0.652  1.00  0.00     0.055 A 
ATOM     77  C   UNL     1      -4.294  19.896  -1.960  1.00  0.00     0.041 A 
ATOM     78  F   UNL     1      -5.733  18.349  -0.944  1.00  0.00    -0.206 F 
ATOM     79  C   UNL     1      -3.492  21.031  -1.881  1.00  0.00     0.022 A 
BRANCH  76  80
ATOM     80  S   UNL     1      -2.385  23.211  -0.541  1.00  0.00     0.124 S 
ATOM     81  O   UNL     1      -3.392  24.167  -0.097  1.00  0.00    -0.237 OA
ATOM     82  O   UNL     1      -1.363  22.854   0.438  1.00  0.00    -0.237 OA
ATOM     83  O   UNL     1      -1.896  23.405  -1.904  1.00  0.00    -0.744 OA
ENDBRANCH  76  80
ENDBRANCH  49  73
BRANCH  61  84
ATOM     84  C   UNL     1      -9.943  22.653   4.385  1.00  0.00     0.023 A 
ATOM     85  C   UNL     1     -10.786  23.039   3.328  1.00  0.00     0.031 A 
ATOM     86  C   UNL     1      -9.765  23.551   5.452  1.00  0.00     0.131 A 
ATOM     87  C   UNL     1     -11.378  24.311   3.337  1.00  0.00     0.055 A 
ATOM     88  C   UNL     1     -10.402  24.792   5.483  1.00  0.00     0.041 A 
ATOM     89  F   UNL     1      -8.969  23.234   6.487  1.00  0.00    -0.206 F 
ATOM     90  C   UNL     1     -11.205  25.183   4.415  1.00  0.00     0.022 A 
BRANCH  87  91
ATOM     91  S   UNL     1     -12.314  24.847   1.878  1.00  0.00     0.124 S 
ATOM     92  O   UNL     1     -11.308  24.759   0.824  1.00  0.00    -0.237 OA
ATOM     93  O   UNL     1     -13.389  23.863   1.817  1.00  0.00    -0.237 OA
ATOM     94  O   UNL     1     -12.736  26.204   2.221  1.00  0.00    -0.744 OA
ENDBRANCH  87  91
ENDBRANCH  61  84
ENDBRANCH  35  36
ENDBRANCH  27  30
ENDBRANCH  25  26
ENDBRANCH  24  25
ENDBRANCH   1  24
TORSDOF 18
