REMARK SMILES COc1ccc(/C=C/C(=O)NCCCCNC(=O)c2ccc(-c3c4nc(c(-c5cc(S(=O)(=O)[O-])ccc5F)c5ccc([nH]5)c(-c5cc(S(=O)(=O)[O-])ccc5F)c5nc(c(-c6cc(S(=O)(=O)[O-])ccc6F)c6ccc3[nH]6)C=C5)C=C4)cc2)cc1S(=O)(=O)Nc1ccc(F)cc1F
REMARK SMILES IDX 13 1 12 2 11 3 9 4 10 5 8 7 7 8 6 9 3 10 4 11 83 12 5 13
REMARK SMILES IDX 82 14 2 15 1 16 84 17 85 18 86 19 87 20 88 22 89 23 94 24
REMARK SMILES IDX 90 25 93 26 95 27 91 28 92 29 14 30 15 31 16 32 17 33 18 35
REMARK SMILES IDX 19 36 20 37 81 38 21 39 80 40 22 41 23 42 24 43 74 44 25 45
REMARK SMILES IDX 79 46 73 47 75 48 26 49 78 50 72 51 71 52 27 54 59 55 39 56
REMARK SMILES IDX 58 57 40 58 43 59 57 60 76 61 41 62 42 63 56 65 77 66 44 67
REMARK SMILES IDX 28 68 29 69 37 70 30 71 36 72 38 73 35 74 31 75 32 76 33 77
REMARK SMILES IDX 34 78 60 79 61 80 69 81 62 82 68 83 70 84 67 85 63 86 64 87
REMARK SMILES IDX 65 88 66 89 45 90 46 91 54 92 47 93 53 94 55 95 52 96 48 97
REMARK SMILES IDX 49 98 50 99 51 100
REMARK H PARENT 11 6 87 21 16 34 75 53 43 64
REMARK Flexibility Score: inf
ROOT
ATOM      1  C   UNL     1       4.965   1.599   8.062  1.00  0.00     0.023 C 
ENDROOT
BRANCH   1   2
ATOM      2  C   UNL     1       3.801   0.628   8.246  1.00  0.00     0.116 C 
BRANCH   2   3
ATOM      3  N   UNL     1       2.703   1.276   8.940  1.00  0.00    -0.353 N 
ATOM      4  C   UNL     1       1.486   1.663   8.475  1.00  0.00     0.243 C 
ATOM      5  O   UNL     1       0.660   2.172   9.226  1.00  0.00    -0.270 OA
ATOM      6  H   UNL     1       2.864   1.463   9.893  1.00  0.00     0.163 HD
BRANCH   4   7
ATOM      7  C   UNL     1       1.101   1.333   7.088  1.00  0.00     0.072 C 
ATOM      8  C   UNL     1       1.728   1.772   5.984  1.00  0.00     0.014 C 
BRANCH   8   9
ATOM      9  C   UNL     1       1.337   1.313   4.640  1.00  0.00    -0.024 A 
ATOM     10  C   UNL     1       0.717   0.057   2.203  1.00  0.00     0.139 A 
ATOM     11  C   UNL     1      -0.284   0.304   3.142  1.00  0.00     0.048 A 
ATOM     12  C   UNL     1       1.982   0.606   2.391  1.00  0.00     0.130 A 
ATOM     13  C   UNL     1       0.020   0.942   4.343  1.00  0.00     0.012 A 
ATOM     14  C   UNL     1       2.299   1.207   3.627  1.00  0.00     0.034 A 
BRANCH  10  15
ATOM     15  O   UNL     1       0.338  -0.692   1.129  1.00  0.00    -0.495 OA
ATOM     16  C   UNL     1       0.899  -2.005   1.174  1.00  0.00     0.278 C 
ENDBRANCH  10  15
BRANCH  12  17
ATOM     17  S   UNL     1       3.235   0.665   1.135  1.00  0.00     0.265 S 
ATOM     18  O   UNL     1       3.948   1.916   1.281  1.00  0.00    -0.201 OA
ATOM     19  O   UNL     1       3.948  -0.596   1.227  1.00  0.00    -0.201 OA
BRANCH  17  20
ATOM     20  N   UNL     1       2.552   0.650  -0.404  1.00  0.00    -0.277 N 
ATOM     21  H   UNL     1       3.050   0.205  -1.127  1.00  0.00     0.180 HD
BRANCH  20  22
ATOM     22  C   UNL     1       1.293   1.246  -0.722  1.00  0.00     0.085 A 
ATOM     23  C   UNL     1       0.503   0.557  -1.656  1.00  0.00     0.033 A 
ATOM     24  C   UNL     1       0.789   2.415  -0.141  1.00  0.00     0.150 A 
ATOM     25  C   UNL     1      -0.811   0.958  -1.896  1.00  0.00     0.041 A 
ATOM     26  C   UNL     1      -0.520   2.821  -0.382  1.00  0.00     0.080 A 
ATOM     27  F   UNL     1       1.526   3.133   0.716  1.00  0.00    -0.205 F 
ATOM     28  C   UNL     1      -1.316   2.074  -1.240  1.00  0.00     0.126 A 
ATOM     29  F   UNL     1      -2.593   2.425  -1.434  1.00  0.00    -0.207 F 
ENDBRANCH  20  22
ENDBRANCH  17  20
ENDBRANCH  12  17
ENDBRANCH   8   9
ENDBRANCH   4   7
ENDBRANCH   2   3
ENDBRANCH   1   2
BRANCH   1  30
ATOM     30  C   UNL     1       5.753   1.883   9.346  1.00  0.00     0.023 C 
BRANCH  30  31
ATOM     31  C   UNL     1       6.448   0.672   9.966  1.00  0.00     0.116 C 
BRANCH  31  32
ATOM     32  N   UNL     1       7.375   0.020   9.055  1.00  0.00    -0.352 N 
ATOM     33  C   UNL     1       8.572  -0.593   9.338  1.00  0.00     0.251 C 
ATOM     34  H   UNL     1       7.109   0.018   8.107  1.00  0.00     0.163 HD
ATOM     35  O   UNL     1       9.284  -0.993   8.422  1.00  0.00    -0.269 OA
BRANCH  33  36
ATOM     36  C   UNL     1       9.011  -0.728  10.743  1.00  0.00     0.039 A 
ATOM     37  C   UNL     1      10.309  -0.337  11.081  1.00  0.00     0.014 A 
ATOM     38  C   UNL     1       8.145  -1.220  11.723  1.00  0.00     0.014 A 
ATOM     39  C   UNL     1      10.716  -0.372  12.416  1.00  0.00     0.010 A 
ATOM     40  C   UNL     1       8.533  -1.201  13.061  1.00  0.00     0.010 A 
ATOM     41  C   UNL     1       9.820  -0.769  13.421  1.00  0.00    -0.014 A 
BRANCH  41  42
ATOM     42  C   UNL     1      10.205  -0.729  14.854  1.00  0.00     0.031 A 
ATOM     43  C   UNL     1      10.316  -2.005  15.642  1.00  0.00     0.074 A 
ATOM     44  C   UNL     1      10.392   0.461  15.459  1.00  0.00     0.049 A 
ATOM     45  N   UNL     1      10.553  -2.172  16.917  1.00  0.00    -0.248 NA
ATOM     46  C   UNL     1      10.103  -3.256  14.899  1.00  0.00     0.031 C 
ATOM     47  C   UNL     1      10.281   1.767  14.805  1.00  0.00     0.029 A 
ATOM     48  N   UNL     1      10.708   0.767  16.758  1.00  0.00    -0.354 N 
ATOM     49  C   UNL     1      10.502  -3.545  17.136  1.00  0.00     0.074 A 
ATOM     50  C   UNL     1      10.162  -4.158  15.868  1.00  0.00     0.031 C 
ATOM     51  C   UNL     1      10.551   2.731  15.701  1.00  0.00     0.029 A 
ATOM     52  C   UNL     1      10.811   2.118  16.999  1.00  0.00     0.049 A 
ATOM     53  H   UNL     1      10.847   0.084  17.453  1.00  0.00     0.167 HD
ATOM     54  C   UNL     1      10.733  -4.229  18.284  1.00  0.00     0.034 A 
ATOM     55  C   UNL     1      11.078   2.785  18.138  1.00  0.00     0.034 A 
ATOM     56  C   UNL     1      11.089  -3.605  19.535  1.00  0.00     0.049 A 
ATOM     57  C   UNL     1      11.321   2.002  19.402  1.00  0.00     0.074 A 
ATOM     58  C   UNL     1      11.394  -4.207  20.744  1.00  0.00     0.029 A 
ATOM     59  N   UNL     1      11.186  -2.234  19.740  1.00  0.00    -0.354 N 
ATOM     60  N   UNL     1      11.297   0.703  19.586  1.00  0.00    -0.248 NA
ATOM     61  C   UNL     1      11.635   2.777  20.610  1.00  0.00     0.031 C 
ATOM     62  C   UNL     1      11.620  -3.202  21.691  1.00  0.00     0.029 A 
ATOM     63  C   UNL     1      11.523  -1.972  21.059  1.00  0.00     0.049 A 
ATOM     64  H   UNL     1      11.037  -1.549  19.049  1.00  0.00     0.167 HD
ATOM     65  C   UNL     1      11.623   0.504  20.925  1.00  0.00     0.074 A 
ATOM     66  C   UNL     1      11.848   1.816  21.497  1.00  0.00     0.031 C 
ATOM     67  C   UNL     1      11.734  -0.658  21.617  1.00  0.00     0.034 A 
BRANCH  54  68
ATOM     68  C   UNL     1      10.581  -5.730  18.238  1.00  0.00     0.023 A 
ATOM     69  C   UNL     1      11.425  -6.535  17.453  1.00  0.00     0.031 A 
ATOM     70  C   UNL     1       9.563  -6.364  18.973  1.00  0.00     0.131 A 
ATOM     71  C   UNL     1      11.194  -7.915  17.365  1.00  0.00     0.055 A 
ATOM     72  C   UNL     1       9.386  -7.749  18.942  1.00  0.00     0.041 A 
ATOM     73  F   UNL     1       8.714  -5.646  19.725  1.00  0.00    -0.206 F 
ATOM     74  C   UNL     1      10.195  -8.532  18.124  1.00  0.00     0.022 A 
BRANCH  71  75
ATOM     75  S   UNL     1      12.134  -8.877  16.149  1.00  0.00     0.124 S 
ATOM     76  O   UNL     1      11.728  -8.243  14.896  1.00  0.00    -0.237 OA
ATOM     77  O   UNL     1      13.513  -8.648  16.562  1.00  0.00    -0.237 OA
ATOM     78  O   UNL     1      11.644 -10.241  16.336  1.00  0.00    -0.744 OA
ENDBRANCH  71  75
ENDBRANCH  54  68
BRANCH  55  79
ATOM     79  C   UNL     1      11.133   4.274  18.146  1.00  0.00     0.023 A 
ATOM     80  C   UNL     1      12.342   4.945  18.387  1.00  0.00     0.031 A 
ATOM     81  C   UNL     1       9.975   5.045  17.951  1.00  0.00     0.131 A 
ATOM     82  C   UNL     1      12.359   6.346  18.468  1.00  0.00     0.055 A 
ATOM     83  C   UNL     1      10.005   6.441  17.987  1.00  0.00     0.041 A 
ATOM     84  F   UNL     1       8.796   4.451  17.709  1.00  0.00    -0.206 F 
ATOM     85  C   UNL     1      11.201   7.098  18.259  1.00  0.00     0.022 A 
BRANCH  82  86
ATOM     86  S   UNL     1      13.911   7.169  18.922  1.00  0.00     0.124 S 
ATOM     87  O   UNL     1      14.188   6.582  20.227  1.00  0.00    -0.237 OA
ATOM     88  O   UNL     1      14.796   6.766  17.834  1.00  0.00    -0.237 OA
ATOM     89  O   UNL     1      13.552   8.586  18.936  1.00  0.00    -0.744 OA
ENDBRANCH  82  86
ENDBRANCH  55  79
BRANCH  67  90
ATOM     90  C   UNL     1      12.162  -0.555  23.059  1.00  0.00     0.023 A 
ATOM     91  C   UNL     1      11.327   0.005  24.041  1.00  0.00     0.031 A 
ATOM     92  C   UNL     1      13.433  -1.014  23.450  1.00  0.00     0.131 A 
ATOM     93  C   UNL     1      11.792   0.139  25.358  1.00  0.00     0.055 A 
ATOM     94  C   UNL     1      13.869  -0.927  24.772  1.00  0.00     0.041 A 
ATOM     95  F   UNL     1      14.270  -1.556  22.551  1.00  0.00    -0.206 F 
ATOM     96  C   UNL     1      13.052  -0.337  25.732  1.00  0.00     0.022 A 
BRANCH  93  97
ATOM     97  S   UNL     1      10.759   1.019  26.561  1.00  0.00     0.124 S 
ATOM     98  O   UNL     1      10.618   2.331  25.939  1.00  0.00    -0.237 OA
ATOM     99  O   UNL     1       9.553   0.197  26.597  1.00  0.00    -0.237 OA
ATOM    100  O   UNL     1      11.560   0.995  27.784  1.00  0.00    -0.744 OA
ENDBRANCH  93  97
ENDBRANCH  67  90
ENDBRANCH  41  42
ENDBRANCH  33  36
ENDBRANCH  31  32
ENDBRANCH  30  31
ENDBRANCH   1  30
TORSDOF 19
