REMARK SMILES O=C(NCCCCNC(=O)c1csc(-c2cnc3ccccc3c2)c1)c1ccc(-c2c3nc(c(-c4cc(S(=O)(=O)[O-])ccc4F)c4ccc([nH]4)c(-c4cc(S(=O)(=O)[O-])ccc4F)c4nc(c(-c5cc(S(=O)(=O)[O-])ccc5F)c5ccc2[nH]5)C=C4)C=C3)cc1
REMARK SMILES IDX 4 1 3 2 1 3 2 4 26 6 27 7 88 8 28 9 87 10 29 11 30 12 31 13
REMARK SMILES IDX 81 14 32 15 86 16 80 17 82 18 33 19 85 20 79 21 78 22 34 24
REMARK SMILES IDX 66 25 46 26 65 27 47 28 50 29 64 30 83 31 48 32 49 33 63 35
REMARK SMILES IDX 84 36 51 37 35 38 36 39 44 40 37 41 43 42 45 43 42 44 38 45
REMARK SMILES IDX 39 46 40 47 41 48 67 49 68 50 76 51 69 52 75 53 77 54 74 55
REMARK SMILES IDX 70 56 71 57 72 58 73 59 52 60 53 61 61 62 54 63 60 64 62 65
REMARK SMILES IDX 59 66 55 67 56 68 57 69 58 70 5 71 6 72 7 73 8 74 9 75 10 77
REMARK SMILES IDX 11 78 12 79 25 80 13 81 14 82 15 83 16 84 24 85 17 86 23 87
REMARK SMILES IDX 18 88 22 89 19 90 21 91 20 92
REMARK H PARENT 3 5 82 23 50 34 8 76
REMARK Flexibility Score: inf
ROOT
ATOM      1  C   UNL     1       4.582  -1.211   0.748  1.00  0.00     0.116 C 
ENDROOT
BRANCH   1   2
ATOM      2  N   UNL     1       3.161  -1.148   0.449  1.00  0.00    -0.352 N 
ATOM      3  O   UNL     1       1.193  -0.186  -0.078  1.00  0.00    -0.269 OA
ATOM      4  C   UNL     1       2.413  -0.078   0.017  1.00  0.00     0.251 C 
ATOM      5  H   UNL     1       2.664  -1.989   0.572  1.00  0.00     0.163 HD
BRANCH   4   6
ATOM      6  C   UNL     1       3.073   1.208  -0.302  1.00  0.00     0.039 A 
ATOM      7  C   UNL     1       4.229   1.247  -1.086  1.00  0.00     0.014 A 
ATOM      8  C   UNL     1       2.522   2.392   0.196  1.00  0.00     0.014 A 
ATOM      9  C   UNL     1       4.904   2.452  -1.262  1.00  0.00     0.010 A 
ATOM     10  C   UNL     1       3.166   3.611  -0.039  1.00  0.00     0.010 A 
ATOM     11  C   UNL     1       4.380   3.646  -0.742  1.00  0.00    -0.014 A 
BRANCH  11  12
ATOM     12  C   UNL     1       5.102   4.925  -0.968  1.00  0.00     0.031 A 
ATOM     13  C   UNL     1       5.727   5.671   0.178  1.00  0.00     0.074 A 
ATOM     14  C   UNL     1       5.209   5.399  -2.224  1.00  0.00     0.049 A 
ATOM     15  N   UNL     1       6.391   6.800   0.166  1.00  0.00    -0.248 NA
ATOM     16  C   UNL     1       5.577   5.077   1.515  1.00  0.00     0.031 C 
ATOM     17  C   UNL     1       4.637   4.764  -3.414  1.00  0.00     0.029 A 
ATOM     18  N   UNL     1       5.840   6.513  -2.713  1.00  0.00    -0.354 N 
ATOM     19  C   UNL     1       6.726   7.061   1.490  1.00  0.00     0.074 A 
ATOM     20  C   UNL     1       6.163   5.987   2.282  1.00  0.00     0.031 C 
ATOM     21  C   UNL     1       4.970   5.481  -4.497  1.00  0.00     0.029 A 
ATOM     22  C   UNL     1       5.731   6.652  -4.076  1.00  0.00     0.049 A 
ATOM     23  H   UNL     1       6.324   7.153  -2.143  1.00  0.00     0.167 HD
ATOM     24  C   UNL     1       7.444   8.097   1.995  1.00  0.00     0.034 A 
ATOM     25  C   UNL     1       6.175   7.623  -4.896  1.00  0.00     0.034 A 
ATOM     26  C   UNL     1       8.003   9.158   1.191  1.00  0.00     0.049 A 
ATOM     27  C   UNL     1       6.944   8.774  -4.310  1.00  0.00     0.074 A 
ATOM     28  C   UNL     1       8.773  10.236   1.595  1.00  0.00     0.029 A 
ATOM     29  N   UNL     1       7.844   9.283  -0.184  1.00  0.00    -0.354 N 
ATOM     30  N   UNL     1       7.263   9.000  -3.057  1.00  0.00    -0.248 NA
ATOM     31  C   UNL     1       7.416   9.799  -5.249  1.00  0.00     0.031 C 
ATOM     32  C   UNL     1       9.031  11.039   0.477  1.00  0.00     0.029 A 
ATOM     33  C   UNL     1       8.477  10.431  -0.637  1.00  0.00     0.049 A 
ATOM     34  H   UNL     1       7.354   8.648  -0.754  1.00  0.00     0.167 HD
ATOM     35  C   UNL     1       7.983  10.189  -3.059  1.00  0.00     0.074 A 
ATOM     36  C   UNL     1       8.068  10.621  -4.440  1.00  0.00     0.031 C 
ATOM     37  C   UNL     1       8.529  10.862  -2.014  1.00  0.00     0.034 A 
BRANCH  24  38
ATOM     38  C   UNL     1       7.624   8.149   3.493  1.00  0.00     0.023 A 
ATOM     39  C   UNL     1       8.361   7.173   4.186  1.00  0.00     0.031 A 
ATOM     40  C   UNL     1       7.026   9.178   4.244  1.00  0.00     0.131 A 
ATOM     41  C   UNL     1       8.424   7.207   5.588  1.00  0.00     0.055 A 
ATOM     42  C   UNL     1       7.152   9.246   5.633  1.00  0.00     0.041 A 
ATOM     43  F   UNL     1       6.294  10.127   3.639  1.00  0.00    -0.206 F 
ATOM     44  C   UNL     1       7.843   8.249   6.315  1.00  0.00     0.022 A 
BRANCH  41  45
ATOM     45  S   UNL     1       9.160   5.795   6.458  1.00  0.00     0.124 S 
ATOM     46  O   UNL     1       8.340   4.687   5.973  1.00  0.00    -0.237 OA
ATOM     47  O   UNL     1      10.540   5.821   5.989  1.00  0.00    -0.237 OA
ATOM     48  O   UNL     1       8.974   6.126   7.869  1.00  0.00    -0.744 OA
ENDBRANCH  41  45
ENDBRANCH  24  38
BRANCH  25  49
ATOM     49  C   UNL     1       5.873   7.562  -6.352  1.00  0.00     0.023 A 
ATOM     50  C   UNL     1       6.890   7.360  -7.296  1.00  0.00     0.031 A 
ATOM     51  C   UNL     1       4.554   7.710  -6.817  1.00  0.00     0.131 A 
ATOM     52  C   UNL     1       6.575   7.338  -8.664  1.00  0.00     0.055 A 
ATOM     53  C   UNL     1       4.240   7.646  -8.174  1.00  0.00     0.041 A 
ATOM     54  F   UNL     1       3.546   7.896  -5.949  1.00  0.00    -0.206 F 
ATOM     55  C   UNL     1       5.256   7.468  -9.108  1.00  0.00     0.022 A 
BRANCH  52  56
ATOM     56  S   UNL     1       7.926   7.188  -9.864  1.00  0.00     0.124 S 
ATOM     57  O   UNL     1       8.737   8.359  -9.550  1.00  0.00    -0.237 OA
ATOM     58  O   UNL     1       8.503   5.895  -9.510  1.00  0.00    -0.237 OA
ATOM     59  O   UNL     1       7.242   7.230 -11.154  1.00  0.00    -0.744 OA
ENDBRANCH  52  56
ENDBRANCH  25  49
BRANCH  37  60
ATOM     60  C   UNL     1       9.285  12.122  -2.346  1.00  0.00     0.023 A 
ATOM     61  C   UNL     1       8.624  13.278  -2.799  1.00  0.00     0.031 A 
ATOM     62  C   UNL     1      10.685  12.156  -2.237  1.00  0.00     0.131 A 
ATOM     63  C   UNL     1       9.370  14.403  -3.178  1.00  0.00     0.055 A 
ATOM     64  C   UNL     1      11.419  13.296  -2.567  1.00  0.00     0.041 A 
ATOM     65  F   UNL     1      11.363  11.078  -1.812  1.00  0.00    -0.206 F 
ATOM     66  C   UNL     1      10.762  14.424  -3.053  1.00  0.00     0.022 A 
BRANCH  63  67
ATOM     67  S   UNL     1       8.504  15.816  -3.916  1.00  0.00     0.124 S 
ATOM     68  O   UNL     1       7.882  15.210  -5.090  1.00  0.00    -0.237 OA
ATOM     69  O   UNL     1       7.594  16.217  -2.848  1.00  0.00    -0.237 OA
ATOM     70  O   UNL     1       9.577  16.765  -4.204  1.00  0.00    -0.744 OA
ENDBRANCH  63  67
ENDBRANCH  37  60
ENDBRANCH  11  12
ENDBRANCH   4   6
ENDBRANCH   1   2
BRANCH   1  71
ATOM     71  C   UNL     1       4.887  -1.914   2.067  1.00  0.00     0.023 C 
BRANCH  71  72
ATOM     72  C   UNL     1       4.391  -3.357   2.180  1.00  0.00     0.023 C 
BRANCH  72  73
ATOM     73  C   UNL     1       4.793  -4.279   1.030  1.00  0.00     0.116 C 
BRANCH  73  74
ATOM     74  N   UNL     1       6.236  -4.404   0.906  1.00  0.00    -0.352 N 
ATOM     75  C   UNL     1       7.043  -5.465   1.206  1.00  0.00     0.252 C 
ATOM     76  H   UNL     1       6.698  -3.610   0.554  1.00  0.00     0.163 HD
ATOM     77  O   UNL     1       8.268  -5.300   1.251  1.00  0.00    -0.269 OA
BRANCH  75  78
ATOM     78  C   UNL     1       6.449  -6.760   1.487  1.00  0.00     0.051 A 
ATOM     79  C   UNL     1       5.565  -7.412   0.646  1.00  0.00     0.079 A 
ATOM     80  C   UNL     1       6.760  -7.575   2.624  1.00  0.00     0.034 A 
ATOM     81  S   UNL     1       5.053  -8.916   1.270  1.00  0.00    -0.143 S 
ATOM     82  C   UNL     1       6.063  -8.768   2.649  1.00  0.00     0.037 A 
BRANCH  82  83
ATOM     83  C   UNL     1       6.085  -9.819   3.667  1.00  0.00     0.011 A 
ATOM     84  C   UNL     1       6.024  -9.509   5.021  1.00  0.00     0.121 A 
ATOM     85  C   UNL     1       6.185 -11.172   3.339  1.00  0.00     0.021 A 
ATOM     86  N   UNL     1       6.044 -10.422   6.024  1.00  0.00    -0.256 NA
ATOM     87  C   UNL     1       6.212 -12.147   4.346  1.00  0.00     0.001 A 
ATOM     88  C   UNL     1       6.136 -11.719   5.688  1.00  0.00     0.070 A 
ATOM     89  C   UNL     1       6.312 -13.516   4.043  1.00  0.00     0.010 A 
ATOM     90  C   UNL     1       6.163 -12.684   6.686  1.00  0.00     0.029 A 
ATOM     91  C   UNL     1       6.337 -14.463   5.065  1.00  0.00     0.001 A 
ATOM     92  C   UNL     1       6.262 -14.046   6.389  1.00  0.00     0.002 A 
ENDBRANCH  82  83
ENDBRANCH  75  78
ENDBRANCH  73  74
ENDBRANCH  72  73
ENDBRANCH  71  72
ENDBRANCH   1  71
TORSDOF 15
