REMARK SMILES CSc1ccccc1NC(=O)[C@@H]1CC=CC[C@H]1C(=O)NCCCCNC(=O)c1ccc(-c2c3nc(c(-c4cc(S(=O)(=O)[O-])ccc4F)c4ccc([nH]4)c(-c4cc(S(=O)(=O)[O-])ccc4F)c4nc(c(-c5cc(S(=O)(=O)[O-])ccc5F)c5ccc2[nH]5)C=C4)C=C3)cc1
REMARK SMILES IDX 22 1 21 2 20 3 18 4 19 5 17 7 12 8 13 9 14 10 16 11 15 12
REMARK SMILES IDX 10 13 9 14 11 16 8 17 3 18 4 19 5 20 7 21 6 22 2 23 1 24
REMARK SMILES IDX 23 25 24 26 25 27 26 28 27 30 28 31 29 32 90 33 30 34 89 35
REMARK SMILES IDX 31 36 32 37 33 38 83 39 34 40 88 41 82 42 84 43 35 44 87 45
REMARK SMILES IDX 81 46 80 47 36 49 68 50 48 51 67 52 49 53 52 54 66 55 85 56
REMARK SMILES IDX 50 57 51 58 65 60 86 61 53 62 37 63 38 64 46 65 39 66 45 67
REMARK SMILES IDX 47 68 44 69 40 70 41 71 42 72 43 73 69 74 70 75 78 76 71 77
REMARK SMILES IDX 77 78 79 79 76 80 72 81 73 82 74 83 75 84 54 85 55 86 63 87
REMARK SMILES IDX 56 88 62 89 64 90 61 91 57 92 58 93 59 94 60 95
REMARK H PARENT 20 6 9 15 25 29 84 48 52 59
REMARK Flexibility Score: inf
ROOT
ATOM      1  C   UNL     1       0.971   6.336   1.776  1.00  0.00     0.023 C 
ENDROOT
BRANCH   1   2
ATOM      2  C   UNL     1       2.423   6.174   2.226  1.00  0.00     0.116 C 
BRANCH   2   3
ATOM      3  N   UNL     1       2.777   7.095   3.292  1.00  0.00    -0.356 N 
ATOM      4  C   UNL     1       3.071   6.867   4.603  1.00  0.00     0.224 C 
ATOM      5  O   UNL     1       3.393   7.833   5.300  1.00  0.00    -0.275 OA
ATOM      6  H   UNL     1       2.809   8.041   3.023  1.00  0.00     0.163 HD
BRANCH   4   7
ATOM      7  C   UNL     1       3.068   5.459   5.200  1.00  0.00     0.095 C 
ATOM      8  C   UNL     1       1.669   4.819   5.127  1.00  0.00     0.095 C 
ATOM      9  C   UNL     1       1.554   3.306   4.898  1.00  0.00     0.041 C 
ATOM     10  C   UNL     1       2.821   2.604   4.523  1.00  0.00    -0.030 C 
ATOM     11  C   UNL     1       4.243   4.665   4.606  1.00  0.00     0.041 C 
ATOM     12  C   UNL     1       4.009   3.204   4.396  1.00  0.00    -0.030 C 
BRANCH   8  13
ATOM     13  C   UNL     1       0.783   5.347   6.248  1.00  0.00     0.228 C 
ATOM     14  N   UNL     1       0.744   4.895   7.524  1.00  0.00    -0.325 N 
ATOM     15  H   UNL     1       0.088   5.396   8.062  1.00  0.00     0.169 HD
ATOM     16  O   UNL     1      -0.003   6.268   5.980  1.00  0.00    -0.274 OA
BRANCH  14  17
ATOM     17  C   UNL     1       1.384   3.902   8.291  1.00  0.00     0.054 A 
ATOM     18  C   UNL     1       0.755   3.510   9.502  1.00  0.00     0.031 A 
ATOM     19  C   UNL     1       1.295   2.449  10.244  1.00  0.00     0.017 A 
ATOM     20  C   UNL     1       2.451   1.796   9.817  1.00  0.00     0.001 A 
ATOM     21  C   UNL     1       2.579   3.284   7.927  1.00  0.00     0.027 A 
ATOM     22  C   UNL     1       3.103   2.228   8.671  1.00  0.00     0.002 A 
BRANCH  18  23
ATOM     23  S   UNL     1      -0.704   4.419  10.064  1.00  0.00    -0.127 SA
ATOM     24  C   UNL     1      -1.563   3.226  11.118  1.00  0.00     0.091 C 
ENDBRANCH  18  23
ENDBRANCH  14  17
ENDBRANCH   8  13
ENDBRANCH   4   7
ENDBRANCH   2   3
ENDBRANCH   1   2
BRANCH   1  25
ATOM     25  C   UNL     1       0.653   7.667   1.099  1.00  0.00     0.023 C 
BRANCH  25  26
ATOM     26  C   UNL     1       1.554   8.025  -0.074  1.00  0.00     0.116 C 
BRANCH  26  27
ATOM     27  N   UNL     1       1.600   6.987  -1.093  1.00  0.00    -0.352 N 
ATOM     28  C   UNL     1       1.535   7.119  -2.462  1.00  0.00     0.251 C 
ATOM     29  H   UNL     1       1.690   6.066  -0.758  1.00  0.00     0.163 HD
ATOM     30  O   UNL     1       1.462   6.130  -3.172  1.00  0.00    -0.269 OA
BRANCH  28  31
ATOM     31  C   UNL     1       1.513   8.478  -3.045  1.00  0.00     0.039 A 
ATOM     32  C   UNL     1       0.514   8.799  -3.966  1.00  0.00     0.014 A 
ATOM     33  C   UNL     1       2.439   9.440  -2.635  1.00  0.00     0.014 A 
ATOM     34  C   UNL     1       0.396  10.114  -4.418  1.00  0.00     0.010 A 
ATOM     35  C   UNL     1       2.275  10.763  -3.030  1.00  0.00     0.010 A 
ATOM     36  C   UNL     1       1.248  11.114  -3.921  1.00  0.00    -0.014 A 
BRANCH  36  37
ATOM     37  C   UNL     1       1.081  12.537  -4.311  1.00  0.00     0.031 A 
ATOM     38  C   UNL     1       2.173  13.236  -5.071  1.00  0.00     0.074 A 
ATOM     39  C   UNL     1      -0.013  13.214  -3.911  1.00  0.00     0.049 A 
ATOM     40  N   UNL     1       2.271  14.495  -5.410  1.00  0.00    -0.248 NA
ATOM     41  C   UNL     1       3.323  12.413  -5.473  1.00  0.00     0.031 C 
ATOM     42  C   UNL     1      -1.120  12.651  -3.132  1.00  0.00     0.029 A 
ATOM     43  N   UNL     1      -0.371  14.527  -4.089  1.00  0.00    -0.354 N 
ATOM     44  C   UNL     1       3.498  14.620  -6.052  1.00  0.00     0.074 A 
ATOM     45  C   UNL     1       4.132  13.319  -5.998  1.00  0.00     0.031 C 
ATOM     46  C   UNL     1      -2.038  13.606  -2.917  1.00  0.00     0.029 A 
ATOM     47  C   UNL     1      -1.568  14.860  -3.498  1.00  0.00     0.049 A 
ATOM     48  H   UNL     1       0.178  15.170  -4.593  1.00  0.00     0.167 HD
ATOM     49  C   UNL     1       4.035  15.713  -6.649  1.00  0.00     0.034 A 
ATOM     50  C   UNL     1      -2.205  16.045  -3.418  1.00  0.00     0.034 A 
ATOM     51  C   UNL     1       3.381  16.997  -6.702  1.00  0.00     0.049 A 
ATOM     52  C   UNL     1      -1.576  17.252  -4.066  1.00  0.00     0.074 A 
ATOM     53  C   UNL     1       3.804  18.155  -7.331  1.00  0.00     0.029 A 
ATOM     54  N   UNL     1       2.168  17.298  -6.093  1.00  0.00    -0.354 N 
ATOM     55  N   UNL     1      -0.437  17.343  -4.714  1.00  0.00    -0.248 NA
ATOM     56  C   UNL     1      -2.322  18.513  -3.978  1.00  0.00     0.031 C 
ATOM     57  C   UNL     1       2.882  19.170  -7.049  1.00  0.00     0.029 A 
ATOM     58  C   UNL     1       1.845  18.630  -6.306  1.00  0.00     0.049 A 
ATOM     59  H   UNL     1       1.618  16.658  -5.586  1.00  0.00     0.167 HD
ATOM     60  C   UNL     1      -0.344  18.667  -5.132  1.00  0.00     0.074 A 
ATOM     61  C   UNL     1      -1.550  19.330  -4.679  1.00  0.00     0.031 C 
ATOM     62  C   UNL     1       0.646  19.280  -5.830  1.00  0.00     0.034 A 
BRANCH  49  63
ATOM     63  C   UNL     1       5.406  15.562  -7.265  1.00  0.00     0.023 A 
ATOM     64  C   UNL     1       5.642  14.679  -8.334  1.00  0.00     0.031 A 
ATOM     65  C   UNL     1       6.499  16.284  -6.756  1.00  0.00     0.131 A 
ATOM     66  C   UNL     1       6.948  14.482  -8.805  1.00  0.00     0.055 A 
ATOM     67  C   UNL     1       7.784  16.145  -7.285  1.00  0.00     0.041 A 
ATOM     68  F   UNL     1       6.341  17.126  -5.722  1.00  0.00    -0.206 F 
ATOM     69  C   UNL     1       8.018  15.228  -8.305  1.00  0.00     0.022 A 
BRANCH  66  70
ATOM     70  S   UNL     1       7.250  13.132  -9.978  1.00  0.00     0.124 S 
ATOM     71  O   UNL     1       6.792  11.972  -9.217  1.00  0.00    -0.237 OA
ATOM     72  O   UNL     1       6.427  13.514 -11.119  1.00  0.00    -0.237 OA
ATOM     73  O   UNL     1       8.694  13.189 -10.202  1.00  0.00    -0.744 OA
ENDBRANCH  66  70
ENDBRANCH  49  63
BRANCH  50  74
ATOM     74  C   UNL     1      -3.498  16.161  -2.686  1.00  0.00     0.023 A 
ATOM     75  C   UNL     1      -4.684  16.490  -3.361  1.00  0.00     0.031 A 
ATOM     76  C   UNL     1      -3.560  15.986  -1.292  1.00  0.00     0.131 A 
ATOM     77  C   UNL     1      -5.872  16.679  -2.639  1.00  0.00     0.055 A 
ATOM     78  C   UNL     1      -4.755  16.125  -0.583  1.00  0.00     0.041 A 
ATOM     79  F   UNL     1      -2.456  15.665  -0.598  1.00  0.00    -0.206 F 
ATOM     80  C   UNL     1      -5.918  16.486  -1.256  1.00  0.00     0.022 A 
BRANCH  77  81
ATOM     81  S   UNL     1      -7.343  17.262  -3.525  1.00  0.00     0.124 S 
ATOM     82  O   UNL     1      -6.869  18.516  -4.098  1.00  0.00    -0.237 OA
ATOM     83  O   UNL     1      -7.579  16.174  -4.468  1.00  0.00    -0.237 OA
ATOM     84  O   UNL     1      -8.345  17.397  -2.469  1.00  0.00    -0.744 OA
ENDBRANCH  77  81
ENDBRANCH  50  74
BRANCH  62  85
ATOM     85  C   UNL     1       0.438  20.735  -6.172  1.00  0.00     0.023 A 
ATOM     86  C   UNL     1       0.421  21.731  -5.181  1.00  0.00     0.031 A 
ATOM     87  C   UNL     1       0.239  21.126  -7.508  1.00  0.00     0.131 A 
ATOM     88  C   UNL     1       0.153  23.063  -5.533  1.00  0.00     0.055 A 
ATOM     89  C   UNL     1       0.033  22.460  -7.860  1.00  0.00     0.041 A 
ATOM     90  F   UNL     1       0.243  20.215  -8.495  1.00  0.00    -0.206 F 
ATOM     91  C   UNL     1      -0.024  23.436  -6.868  1.00  0.00     0.022 A 
BRANCH  88  92
ATOM     92  S   UNL     1      -0.049  24.290  -4.213  1.00  0.00     0.124 S 
ATOM     93  O   UNL     1      -1.162  23.735  -3.450  1.00  0.00    -0.237 OA
ATOM     94  O   UNL     1       1.254  24.259  -3.556  1.00  0.00    -0.237 OA
ATOM     95  O   UNL     1      -0.348  25.525  -4.936  1.00  0.00    -0.744 OA
ENDBRANCH  88  92
ENDBRANCH  62  85
ENDBRANCH  36  37
ENDBRANCH  28  31
ENDBRANCH  26  27
ENDBRANCH  25  26
ENDBRANCH   1  25
TORSDOF 17
