REMARK SMILES O=C(NCCCCNC(=O)c1ccc(Cl)nc1NC[C@@H]1C[N@@H+]2CCC[C@@H]2CO1)c1ccc(-c2c3nc(c(-c4cc(S(=O)(=O)[O-])ccc4F)c4ccc([nH]4)c(-c4cc(S(=O)(=O)[O-])ccc4F)c4nc(c(-c5cc(S(=O)(=O)[O-])ccc5F)c5ccc2[nH]5)C=C4)C=C3)cc1
REMARK SMILES IDX 5 1 4 2 3 3 1 4 2 5 29 7 30 8 91 9 31 10 90 11 32 12 33 13
REMARK SMILES IDX 34 14 84 15 35 16 89 17 83 18 85 19 36 20 88 21 82 22 81 23
REMARK SMILES IDX 37 25 69 26 49 27 68 28 50 29 53 30 67 31 86 32 51 33 52 34
REMARK SMILES IDX 66 36 87 37 54 38 38 39 39 40 47 41 40 42 46 43 48 44 45 45
REMARK SMILES IDX 41 46 42 47 43 48 44 49 70 50 71 51 79 52 72 53 78 54 80 55
REMARK SMILES IDX 77 56 73 57 74 58 75 59 76 60 55 61 56 62 64 63 57 64 63 65
REMARK SMILES IDX 65 66 62 67 58 68 59 69 60 70 61 71 6 72 7 73 8 74 9 75
REMARK SMILES IDX 10 77 11 78 12 79 17 80 13 81 16 82 14 83 15 84 18 85 19 87
REMARK SMILES IDX 20 88 21 89 28 90 22 91 27 92 23 93 26 94 24 96 25 97
REMARK H PARENT 3 6 85 24 53 35 8 76 18 86 22 95
REMARK Flexibility Score: inf
ROOT
ATOM      1  C   UNL     1      11.940  15.779   7.025  1.00  0.00     0.023 C 
ENDROOT
BRANCH   1   2
ATOM      2  C   UNL     1      11.499  17.224   7.220  1.00  0.00     0.116 C 
BRANCH   2   3
ATOM      3  N   UNL     1      11.082  17.514   8.583  1.00  0.00    -0.352 N 
ATOM      4  O   UNL     1      11.102  18.580  10.570  1.00  0.00    -0.269 OA
ATOM      5  C   UNL     1      11.460  18.557   9.395  1.00  0.00     0.251 C 
ATOM      6  H   UNL     1      10.443  16.878   8.977  1.00  0.00     0.163 HD
BRANCH   5   7
ATOM      7  C   UNL     1      12.316  19.635   8.853  1.00  0.00     0.039 A 
ATOM      8  C   UNL     1      12.028  20.215   7.615  1.00  0.00     0.014 A 
ATOM      9  C   UNL     1      13.421  20.068   9.592  1.00  0.00     0.014 A 
ATOM     10  C   UNL     1      12.911  21.134   7.061  1.00  0.00     0.010 A 
ATOM     11  C   UNL     1      14.265  21.052   9.067  1.00  0.00     0.010 A 
ATOM     12  C   UNL     1      14.027  21.579   7.789  1.00  0.00    -0.014 A 
BRANCH  12  13
ATOM     13  C   UNL     1      14.870  22.666   7.228  1.00  0.00     0.031 A 
ATOM     14  C   UNL     1      16.301  22.424   6.838  1.00  0.00     0.074 A 
ATOM     15  C   UNL     1      14.310  23.880   7.059  1.00  0.00     0.049 A 
ATOM     16  N   UNL     1      17.167  23.265   6.332  1.00  0.00    -0.248 NA
ATOM     17  C   UNL     1      16.834  21.069   7.046  1.00  0.00     0.031 C 
ATOM     18  C   UNL     1      12.930  24.224   7.416  1.00  0.00     0.029 A 
ATOM     19  N   UNL     1      14.815  25.044   6.540  1.00  0.00    -0.354 N 
ATOM     20  C   UNL     1      18.351  22.552   6.177  1.00  0.00     0.074 A 
ATOM     21  C   UNL     1      18.096  21.210   6.661  1.00  0.00     0.031 C 
ATOM     22  C   UNL     1      12.690  25.498   7.073  1.00  0.00     0.029 A 
ATOM     23  C   UNL     1      13.913  26.083   6.540  1.00  0.00     0.049 A 
ATOM     24  H   UNL     1      15.735  25.128   6.200  1.00  0.00     0.167 HD
ATOM     25  C   UNL     1      19.535  22.982   5.675  1.00  0.00     0.034 A 
ATOM     26  C   UNL     1      14.060  27.372   6.180  1.00  0.00     0.034 A 
ATOM     27  C   UNL     1      19.764  24.322   5.187  1.00  0.00     0.049 A 
ATOM     28  C   UNL     1      15.397  27.824   5.658  1.00  0.00     0.074 A 
ATOM     29  C   UNL     1      20.906  24.841   4.601  1.00  0.00     0.029 A 
ATOM     30  N   UNL     1      18.841  25.359   5.239  1.00  0.00    -0.354 N 
ATOM     31  N   UNL     1      16.492  27.122   5.480  1.00  0.00    -0.248 NA
ATOM     32  C   UNL     1      15.517  29.239   5.289  1.00  0.00     0.031 C 
ATOM     33  C   UNL     1      20.699  26.204   4.363  1.00  0.00     0.029 A 
ATOM     34  C   UNL     1      19.403  26.523   4.735  1.00  0.00     0.049 A 
ATOM     35  H   UNL     1      17.922  25.279   5.583  1.00  0.00     0.167 HD
ATOM     36  C   UNL     1      17.429  28.011   4.966  1.00  0.00     0.074 A 
ATOM     37  C   UNL     1      16.760  29.290   4.834  1.00  0.00     0.031 C 
ATOM     38  C   UNL     1      18.727  27.794   4.635  1.00  0.00     0.034 A 
BRANCH  25  39
ATOM     39  C   UNL     1      20.694  22.015   5.668  1.00  0.00     0.023 A 
ATOM     40  C   UNL     1      20.718  20.885   4.834  1.00  0.00     0.031 A 
ATOM     41  C   UNL     1      21.810  22.253   6.491  1.00  0.00     0.131 A 
ATOM     42  C   UNL     1      21.820  20.014   4.868  1.00  0.00     0.055 A 
ATOM     43  C   UNL     1      22.928  21.416   6.477  1.00  0.00     0.041 A 
ATOM     44  F   UNL     1      21.834  23.308   7.321  1.00  0.00    -0.206 F 
ATOM     45  C   UNL     1      22.934  20.285   5.667  1.00  0.00     0.022 A 
BRANCH  42  46
ATOM     46  S   UNL     1      21.744  18.473   3.914  1.00  0.00     0.124 S 
ATOM     47  O   UNL     1      20.593  17.807   4.519  1.00  0.00    -0.237 OA
ATOM     48  O   UNL     1      21.560  18.953   2.550  1.00  0.00    -0.237 OA
ATOM     49  O   UNL     1      23.033  17.839   4.183  1.00  0.00    -0.744 OA
ENDBRANCH  42  46
ENDBRANCH  25  39
BRANCH  26  50
ATOM     50  C   UNL     1      12.936  28.336   6.350  1.00  0.00     0.023 A 
ATOM     51  C   UNL     1      12.369  28.993   5.248  1.00  0.00     0.031 A 
ATOM     52  C   UNL     1      12.441  28.647   7.630  1.00  0.00     0.131 A 
ATOM     53  C   UNL     1      11.376  29.964   5.450  1.00  0.00     0.055 A 
ATOM     54  C   UNL     1      11.412  29.570   7.820  1.00  0.00     0.041 A 
ATOM     55  F   UNL     1      12.947  28.046   8.719  1.00  0.00    -0.206 F 
ATOM     56  C   UNL     1      10.884  30.247   6.726  1.00  0.00     0.022 A 
BRANCH  53  57
ATOM     57  S   UNL     1      10.809  30.933   4.025  1.00  0.00     0.124 S 
ATOM     58  O   UNL     1      12.066  31.452   3.498  1.00  0.00    -0.237 OA
ATOM     59  O   UNL     1      10.145  29.916   3.216  1.00  0.00    -0.237 OA
ATOM     60  O   UNL     1       9.924  31.929   4.623  1.00  0.00    -0.744 OA
ENDBRANCH  53  57
ENDBRANCH  26  50
BRANCH  38  61
ATOM     61  C   UNL     1      19.486  28.973   4.082  1.00  0.00     0.023 A 
ATOM     62  C   UNL     1      19.792  30.087   4.883  1.00  0.00     0.031 A 
ATOM     63  C   UNL     1      19.872  29.000   2.732  1.00  0.00     0.131 A 
ATOM     64  C   UNL     1      20.410  31.209   4.312  1.00  0.00     0.055 A 
ATOM     65  C   UNL     1      20.541  30.095   2.182  1.00  0.00     0.041 A 
ATOM     66  F   UNL     1      19.601  27.963   1.923  1.00  0.00    -0.206 F 
ATOM     67  C   UNL     1      20.800  31.213   2.970  1.00  0.00     0.022 A 
BRANCH  64  68
ATOM     68  S   UNL     1      20.613  32.700   5.324  1.00  0.00     0.124 S 
ATOM     69  O   UNL     1      19.232  33.019   5.673  1.00  0.00    -0.237 OA
ATOM     70  O   UNL     1      21.453  32.224   6.418  1.00  0.00    -0.237 OA
ATOM     71  O   UNL     1      21.257  33.646   4.415  1.00  0.00    -0.744 OA
ENDBRANCH  64  68
ENDBRANCH  38  61
ENDBRANCH  12  13
ENDBRANCH   5   7
ENDBRANCH   2   3
ENDBRANCH   1   2
BRANCH   1  72
ATOM     72  C   UNL     1      10.879  14.722   7.326  1.00  0.00     0.023 C 
BRANCH  72  73
ATOM     73  C   UNL     1       9.535  14.930   6.634  1.00  0.00     0.116 C 
BRANCH  73  74
ATOM     74  N   UNL     1       9.643  14.915   5.186  1.00  0.00    -0.352 N 
ATOM     75  C   UNL     1       9.100  14.031   4.286  1.00  0.00     0.255 C 
ATOM     76  H   UNL     1      10.181  15.641   4.794  1.00  0.00     0.163 HD
ATOM     77  O   UNL     1       9.408  14.084   3.099  1.00  0.00    -0.269 OA
BRANCH  75  78
ATOM     78  C   UNL     1       8.141  13.011   4.747  1.00  0.00     0.082 A 
ATOM     79  C   UNL     1       6.965  13.413   5.391  1.00  0.00     0.021 A 
ATOM     80  C   UNL     1       8.388  11.648   4.513  1.00  0.00     0.140 A 
ATOM     81  C   UNL     1       6.101  12.441   5.870  1.00  0.00     0.042 A 
ATOM     82  N   UNL     1       7.547  10.702   4.991  1.00  0.00    -0.219 NA
ATOM     83  C   UNL     1       6.446  11.119   5.653  1.00  0.00     0.131 A 
ATOM     84  Cl  UNL     1       5.458   9.853   6.260  1.00  0.00    -0.062 Cl
BRANCH  80  85
ATOM     85  N   UNL     1       9.554  11.253   3.876  1.00  0.00    -0.367 N 
ATOM     86  H   UNL     1      10.221  11.939   3.643  1.00  0.00     0.162 HD
BRANCH  85  87
ATOM     87  C   UNL     1       9.832   9.865   3.537  1.00  0.00     0.152 C 
BRANCH  87  88
ATOM     88  C   UNL     1       9.532   9.597   2.040  1.00  0.00     0.192 C 
ATOM     89  C   UNL     1      10.145   8.243   1.573  1.00  0.00     0.296 C 
ATOM     90  O   UNL     1       9.931  10.723   1.230  1.00  0.00    -0.364 OA
ATOM     91  N   UNL     1      11.223   8.254   0.583  1.00  0.00    -0.328 N 
ATOM     92  C   UNL     1      11.341  10.752   1.020  1.00  0.00     0.225 C 
ATOM     93  C   UNL     1      12.334   7.347   0.839  1.00  0.00     0.262 C 
ATOM     94  C   UNL     1      11.746   9.561   0.160  1.00  0.00     0.210 C 
ATOM     95  H   UNL     1      10.688   7.892  -0.206  1.00  0.00     0.348 HD
ATOM     96  C   UNL     1      13.437   7.886  -0.056  1.00  0.00     0.068 C 
ATOM     97  C   UNL     1      13.261   9.387   0.076  1.00  0.00     0.073 C 
ENDBRANCH  87  88
ENDBRANCH  85  87
ENDBRANCH  80  85
ENDBRANCH  75  78
ENDBRANCH  73  74
ENDBRANCH  72  73
ENDBRANCH   1  72
TORSDOF 17
