REMARK SMILES O=C(NCCCCNC(=O)c1ccc(NC(=O)c2ccc([N+](=O)[O-])cc2Cl)cc1Cl)c1ccc(-c2c3nc(c(-c4cc(S(=O)(=O)[O-])ccc4F)c4ccc([nH]4)c(-c4cc(S(=O)(=O)[O-])ccc4F)c4nc(c(-c5cc(S(=O)(=O)[O-])ccc5F)c5ccc2[nH]5)C=C4)C=C3)cc1
REMARK SMILES IDX 5 1 4 2 3 3 1 4 2 5 31 7 32 8 93 9 33 10 92 11 34 12 35 13
REMARK SMILES IDX 36 14 86 15 37 16 91 17 85 18 87 19 38 20 90 21 84 22 83 23
REMARK SMILES IDX 39 25 71 26 51 27 70 28 52 29 55 30 69 31 88 32 53 33 54 34
REMARK SMILES IDX 68 36 89 37 56 38 40 39 41 40 49 41 42 42 48 43 50 44 47 45
REMARK SMILES IDX 43 46 44 47 45 48 46 49 72 50 73 51 81 52 74 53 80 54 82 55
REMARK SMILES IDX 79 56 75 57 76 58 77 59 78 60 57 61 58 62 66 63 59 64 65 65
REMARK SMILES IDX 67 66 64 67 60 68 61 69 62 70 63 71 6 72 7 73 8 74 9 75
REMARK SMILES IDX 10 77 11 78 12 79 29 80 13 81 28 82 30 83 14 84 15 85 16 86
REMARK SMILES IDX 17 88 18 89 19 90 26 91 20 92 25 93 27 94 21 95 22 96 23 97
REMARK SMILES IDX 24 98
REMARK H PARENT 3 6 87 24 55 35 8 76 15 87
REMARK Flexibility Score: inf
ROOT
ATOM      1  C   UNL     1       4.922  -1.974   1.710  1.00  0.00     0.023 C 
ENDROOT
BRANCH   1   2
ATOM      2  C   UNL     1       4.552  -1.200   0.452  1.00  0.00     0.116 C 
BRANCH   2   3
ATOM      3  N   UNL     1       3.117  -1.071   0.252  1.00  0.00    -0.352 N 
ATOM      4  O   UNL     1       1.139  -0.012   0.017  1.00  0.00    -0.269 OA
ATOM      5  C   UNL     1       2.365   0.066   0.063  1.00  0.00     0.251 C 
ATOM      6  H   UNL     1       2.612  -1.916   0.253  1.00  0.00     0.163 HD
BRANCH   5   7
ATOM      7  C   UNL     1       3.031   1.383  -0.054  1.00  0.00     0.039 A 
ATOM      8  C   UNL     1       4.152   1.547  -0.871  1.00  0.00     0.014 A 
ATOM      9  C   UNL     1       2.533   2.467   0.676  1.00  0.00     0.014 A 
ATOM     10  C   UNL     1       4.862   2.742  -0.837  1.00  0.00     0.010 A 
ATOM     11  C   UNL     1       3.200   3.696   0.639  1.00  0.00     0.010 A 
ATOM     12  C   UNL     1       4.391   3.834  -0.090  1.00  0.00    -0.014 A 
BRANCH  12  13
ATOM     13  C   UNL     1       5.137   5.120  -0.130  1.00  0.00     0.031 A 
ATOM     14  C   UNL     1       5.794   5.678   1.103  1.00  0.00     0.074 A 
ATOM     15  C   UNL     1       5.243   5.769  -1.306  1.00  0.00     0.049 A 
ATOM     16  N   UNL     1       6.489   6.779   1.241  1.00  0.00    -0.248 NA
ATOM     17  C   UNL     1       5.644   4.905   2.345  1.00  0.00     0.031 C 
ATOM     18  C   UNL     1       4.643   5.323  -2.567  1.00  0.00     0.029 A 
ATOM     19  N   UNL     1       5.902   6.923  -1.643  1.00  0.00    -0.354 N 
ATOM     20  C   UNL     1       6.848   6.842   2.584  1.00  0.00     0.074 A 
ATOM     21  C   UNL     1       6.262   5.682   3.224  1.00  0.00     0.031 C 
ATOM     22  C   UNL     1       4.997   6.168  -3.546  1.00  0.00     0.029 A 
ATOM     23  C   UNL     1       5.789   7.250  -2.974  1.00  0.00     0.049 A 
ATOM     24  H   UNL     1       6.406   7.465  -0.995  1.00  0.00     0.167 HD
ATOM     25  C   UNL     1       7.602   7.776   3.218  1.00  0.00     0.034 A 
ATOM     26  C   UNL     1       6.251   8.314  -3.659  1.00  0.00     0.034 A 
ATOM     27  C   UNL     1       8.181   8.926   2.561  1.00  0.00     0.049 A 
ATOM     28  C   UNL     1       7.049   9.356  -2.924  1.00  0.00     0.074 A 
ATOM     29  C   UNL     1       8.988   9.914   3.100  1.00  0.00     0.029 A 
ATOM     30  N   UNL     1       8.006   9.250   1.220  1.00  0.00    -0.354 N 
ATOM     31  N   UNL     1       7.391   9.391  -1.657  1.00  0.00    -0.248 NA
ATOM     32  C   UNL     1       7.523  10.499  -3.712  1.00  0.00     0.031 C 
ATOM     33  C   UNL     1       9.244  10.866   2.106  1.00  0.00     0.029 A 
ATOM     34  C   UNL     1       8.660  10.438   0.925  1.00  0.00     0.049 A 
ATOM     35  H   UNL     1       7.492   8.714   0.574  1.00  0.00     0.167 HD
ATOM     36  C   UNL     1       8.134  10.555  -1.499  1.00  0.00     0.074 A 
ATOM     37  C   UNL     1       8.210  11.179  -2.805  1.00  0.00     0.031 C 
ATOM     38  C   UNL     1       8.704  11.063  -0.376  1.00  0.00     0.034 A 
BRANCH  25  39
ATOM     39  C   UNL     1       7.804   7.616   4.708  1.00  0.00     0.023 A 
ATOM     40  C   UNL     1       8.507   6.526   5.250  1.00  0.00     0.031 A 
ATOM     41  C   UNL     1       7.270   8.563   5.601  1.00  0.00     0.131 A 
ATOM     42  C   UNL     1       8.600   6.375   6.643  1.00  0.00     0.055 A 
ATOM     43  C   UNL     1       7.430   8.446   6.983  1.00  0.00     0.041 A 
ATOM     44  F   UNL     1       6.572   9.615   5.145  1.00  0.00    -0.206 F 
ATOM     45  C   UNL     1       8.087   7.340   7.513  1.00  0.00     0.022 A 
BRANCH  42  46
ATOM     46  S   UNL     1       9.284   4.830   7.305  1.00  0.00     0.124 S 
ATOM     47  O   UNL     1       8.400   3.833   6.705  1.00  0.00    -0.237 OA
ATOM     48  O   UNL     1      10.653   4.851   6.806  1.00  0.00    -0.237 OA
ATOM     49  O   UNL     1       9.143   4.984   8.752  1.00  0.00    -0.744 OA
ENDBRANCH  42  46
ENDBRANCH  25  39
BRANCH  26  50
ATOM     50  C   UNL     1       5.936   8.464  -5.107  1.00  0.00     0.023 A 
ATOM     51  C   UNL     1       6.948   8.431  -6.078  1.00  0.00     0.031 A 
ATOM     52  C   UNL     1       4.611   8.658  -5.538  1.00  0.00     0.131 A 
ATOM     53  C   UNL     1       6.623   8.624  -7.429  1.00  0.00     0.055 A 
ATOM     54  C   UNL     1       4.287   8.797  -6.888  1.00  0.00     0.041 A 
ATOM     55  F   UNL     1       3.605   8.692  -4.649  1.00  0.00    -0.206 F 
ATOM     56  C   UNL     1       5.299   8.792  -7.842  1.00  0.00     0.022 A 
BRANCH  53  57
ATOM     57  S   UNL     1       7.970   8.723  -8.640  1.00  0.00     0.124 S 
ATOM     58  O   UNL     1       8.758   9.834  -8.119  1.00  0.00    -0.237 OA
ATOM     59  O   UNL     1       8.574   7.399  -8.530  1.00  0.00    -0.237 OA
ATOM     60  O   UNL     1       7.276   8.986  -9.899  1.00  0.00    -0.744 OA
ENDBRANCH  53  57
ENDBRANCH  26  50
BRANCH  38  61
ATOM     61  C   UNL     1       9.480  12.347  -0.535  1.00  0.00     0.023 A 
ATOM     62  C   UNL     1       8.841  13.559  -0.850  1.00  0.00     0.031 A 
ATOM     63  C   UNL     1      10.879  12.350  -0.401  1.00  0.00     0.131 A 
ATOM     64  C   UNL     1       9.606  14.712  -1.081  1.00  0.00     0.055 A 
ATOM     65  C   UNL     1      11.630  13.513  -0.574  1.00  0.00     0.041 A 
ATOM     66  F   UNL     1      11.540  11.219  -0.104  1.00  0.00    -0.206 F 
ATOM     67  C   UNL     1      10.995  14.700  -0.930  1.00  0.00     0.022 A 
BRANCH  64  68
ATOM     68  S   UNL     1       8.770  16.208  -1.675  1.00  0.00     0.124 S 
ATOM     69  O   UNL     1       8.163  15.743  -2.918  1.00  0.00    -0.237 OA
ATOM     70  O   UNL     1       7.846  16.503  -0.585  1.00  0.00    -0.237 OA
ATOM     71  O   UNL     1       9.860  17.168  -1.839  1.00  0.00    -0.744 OA
ENDBRANCH  64  68
ENDBRANCH  38  61
ENDBRANCH  12  13
ENDBRANCH   5   7
ENDBRANCH   2   3
ENDBRANCH   1   2
BRANCH   1  72
ATOM     72  C   UNL     1       4.464  -3.429   1.759  1.00  0.00     0.023 C 
BRANCH  72  73
ATOM     73  C   UNL     1       4.754  -4.264   0.517  1.00  0.00     0.116 C 
BRANCH  73  74
ATOM     74  N   UNL     1       6.153  -4.281   0.118  1.00  0.00    -0.352 N 
ATOM     75  C   UNL     1       6.910  -5.332  -0.341  1.00  0.00     0.252 C 
ATOM     76  H   UNL     1       6.623  -3.419   0.188  1.00  0.00     0.163 HD
ATOM     77  O   UNL     1       8.079  -5.169  -0.674  1.00  0.00    -0.269 OA
BRANCH  75  78
ATOM     78  C   UNL     1       6.362  -6.698  -0.309  1.00  0.00     0.058 A 
ATOM     79  C   UNL     1       7.022  -7.605   0.522  1.00  0.00     0.017 A 
ATOM     80  C   UNL     1       5.242  -7.115  -1.026  1.00  0.00     0.055 A 
ATOM     81  C   UNL     1       6.486  -8.875   0.737  1.00  0.00     0.027 A 
ATOM     82  C   UNL     1       4.677  -8.368  -0.754  1.00  0.00     0.047 A 
ATOM     83  Cl  UNL     1       4.506  -6.151  -2.254  1.00  0.00    -0.083 Cl
ATOM     84  C   UNL     1       5.255  -9.230   0.189  1.00  0.00     0.043 A 
BRANCH  84  85
ATOM     85  N   UNL     1       4.522 -10.388   0.524  1.00  0.00    -0.322 N 
ATOM     86  C   UNL     1       4.633 -11.307   1.545  1.00  0.00     0.257 C 
ATOM     87  H   UNL     1       3.783 -10.579  -0.098  1.00  0.00     0.170 HD
ATOM     88  O   UNL     1       3.881 -12.279   1.590  1.00  0.00    -0.269 OA
BRANCH  86  89
ATOM     89  C   UNL     1       5.659 -11.187   2.589  1.00  0.00     0.059 A 
ATOM     90  C   UNL     1       6.713 -12.112   2.537  1.00  0.00     0.022 A 
ATOM     91  C   UNL     1       5.644 -10.176   3.560  1.00  0.00     0.060 A 
ATOM     92  C   UNL     1       7.806 -11.966   3.391  1.00  0.00     0.086 A 
ATOM     93  C   UNL     1       6.744 -10.018   4.409  1.00  0.00     0.107 A 
ATOM     94  Cl  UNL     1       4.330  -9.068   3.717  1.00  0.00    -0.083 Cl
ATOM     95  C   UNL     1       7.830 -10.900   4.302  1.00  0.00     0.270 A 
BRANCH  95  96
ATOM     96  N   UNL     1       9.025 -10.687   5.127  1.00  0.00     0.062 N 
ATOM     97  O   UNL     1       9.878 -11.585   5.143  1.00  0.00    -0.258 OA
ATOM     98  O   UNL     1       9.111  -9.618   5.744  1.00  0.00    -0.258 OA
ENDBRANCH  95  96
ENDBRANCH  86  89
ENDBRANCH  84  85
ENDBRANCH  75  78
ENDBRANCH  73  74
ENDBRANCH  72  73
ENDBRANCH   1  72
TORSDOF 17
