REMARK SMILES O=CN1CCN(C(=O)Cc2ccccc2C(=O)NCCCCNC(=O)c2ccc(-c3c4nc(c(-c5cc(S(=O)(=O)[O-])ccc5F)c5ccc([nH]5)c(-c5cc(S(=O)(=O)[O-])ccc5F)c5nc(c(-c6cc(S(=O)(=O)[O-])ccc6F)c6ccc3[nH]6)C=C5)C=C4)cc2)CC1
REMARK SMILES IDX 21 1 20 2 19 3 18 4 16 5 17 6 15 8 10 9 11 10 12 11 14 12
REMARK SMILES IDX 13 13 9 14 7 15 1 16 2 17 3 18 4 19 90 20 5 21 89 22 6 23
REMARK SMILES IDX 8 24 22 25 23 26 24 27 25 29 26 30 27 31 88 32 28 33 87 34
REMARK SMILES IDX 29 35 30 36 31 37 81 38 32 39 86 40 80 41 82 42 33 43 85 44
REMARK SMILES IDX 79 45 78 46 34 48 66 49 46 50 65 51 47 52 50 53 64 54 83 55
REMARK SMILES IDX 48 56 49 57 63 59 84 60 51 61 35 62 36 63 44 64 37 65 43 66
REMARK SMILES IDX 45 67 42 68 38 69 39 70 40 71 41 72 67 73 68 74 76 75 69 76
REMARK SMILES IDX 75 77 77 78 74 79 70 80 71 81 72 82 73 83 52 84 53 85 61 86
REMARK SMILES IDX 54 87 60 88 62 89 59 90 55 91 56 92 57 93 58 94
REMARK H PARENT 18 7 23 28 82 47 50 58
REMARK Flexibility Score: inf
ROOT
ATOM      1  C   UNL     1       7.929  -7.634   0.419  1.00  0.00     0.023 C 
ENDROOT
BRANCH   1   2
ATOM      2  C   UNL     1       6.576  -7.064   0.835  1.00  0.00     0.023 C 
BRANCH   2   3
ATOM      3  C   UNL     1       5.352  -7.782   0.251  1.00  0.00     0.116 C 
BRANCH   3   4
ATOM      4  N   UNL     1       4.857  -8.755   1.200  1.00  0.00    -0.352 N 
ATOM      5  C   UNL     1       3.870  -8.802   2.143  1.00  0.00     0.251 C 
ATOM      6  O   UNL     1       3.812  -9.868   2.770  1.00  0.00    -0.269 OA
ATOM      7  H   UNL     1       5.361  -9.600   1.154  1.00  0.00     0.163 HD
BRANCH   5   8
ATOM      8  C   UNL     1       2.824  -7.768   2.463  1.00  0.00     0.043 A 
ATOM      9  C   UNL     1       2.961  -6.372   2.670  1.00  0.00    -0.026 A 
ATOM     10  C   UNL     1       1.873  -5.665   3.237  1.00  0.00     0.005 A 
ATOM     11  C   UNL     1       0.674  -6.290   3.569  1.00  0.00     0.000 A 
ATOM     12  C   UNL     1       1.583  -8.368   2.793  1.00  0.00     0.014 A 
ATOM     13  C   UNL     1       0.522  -7.644   3.336  1.00  0.00     0.001 A 
BRANCH   9  14
ATOM     14  C   UNL     1       4.218  -5.612   2.342  1.00  0.00     0.136 C 
BRANCH  14  15
ATOM     15  C   UNL     1       4.354  -4.154   2.751  1.00  0.00     0.227 C 
ATOM     16  O   UNL     1       1.209  -0.149  -0.659  1.00  0.00    -0.279 OA
ATOM     17  C   UNL     1       2.303  -0.043  -0.121  1.00  0.00     0.340 C 
ATOM     18  N   UNL     1       3.198  -1.065   0.085  1.00  0.00    -0.342 N 
ATOM     19  C   UNL     1       4.384  -0.908   0.915  1.00  0.00     0.140 C 
ATOM     20  C   UNL     1       2.908  -2.433  -0.327  1.00  0.00     0.140 C 
ATOM     21  C   UNL     1       4.262  -1.777   2.176  1.00  0.00     0.141 C 
ATOM     22  C   UNL     1       2.808  -3.359   0.897  1.00  0.00     0.141 C 
ATOM     23  N   UNL     1       3.908  -3.172   1.869  1.00  0.00    -0.339 N 
ATOM     24  O   UNL     1       4.923  -3.862   3.806  1.00  0.00    -0.275 OA
ENDBRANCH  14  15
ENDBRANCH   9  14
ENDBRANCH   5   8
ENDBRANCH   3   4
ENDBRANCH   2   3
ENDBRANCH   1   2
BRANCH   1  25
ATOM     25  C   UNL     1       8.310  -7.363  -1.027  1.00  0.00     0.116 C 
BRANCH  25  26
ATOM     26  N   UNL     1       8.399  -5.944  -1.351  1.00  0.00    -0.352 N 
ATOM     27  C   UNL     1       9.265  -5.319  -2.223  1.00  0.00     0.251 C 
ATOM     28  H   UNL     1       7.758  -5.358  -0.889  1.00  0.00     0.163 HD
ATOM     29  O   UNL     1       9.257  -4.102  -2.334  1.00  0.00    -0.269 OA
BRANCH  27  30
ATOM     30  C   UNL     1      10.239  -6.148  -2.965  1.00  0.00     0.039 A 
ATOM     31  C   UNL     1      11.595  -5.829  -2.881  1.00  0.00     0.014 A 
ATOM     32  C   UNL     1       9.819  -7.296  -3.641  1.00  0.00     0.014 A 
ATOM     33  C   UNL     1      12.541  -6.720  -3.391  1.00  0.00     0.010 A 
ATOM     34  C   UNL     1      10.763  -8.218  -4.075  1.00  0.00     0.010 A 
ATOM     35  C   UNL     1      12.134  -7.947  -3.939  1.00  0.00    -0.014 A 
BRANCH  35  36
ATOM     36  C   UNL     1      13.122  -8.976  -4.353  1.00  0.00     0.031 A 
ATOM     37  C   UNL     1      13.198  -9.406  -5.791  1.00  0.00     0.074 A 
ATOM     38  C   UNL     1      13.880  -9.584  -3.419  1.00  0.00     0.049 A 
ATOM     39  N   UNL     1      13.914 -10.357  -6.334  1.00  0.00    -0.248 NA
ATOM     40  C   UNL     1      12.323  -8.695  -6.736  1.00  0.00     0.031 C 
ATOM     41  C   UNL     1      13.851  -9.294  -1.983  1.00  0.00     0.029 A 
ATOM     42  N   UNL     1      14.814 -10.583  -3.533  1.00  0.00    -0.354 N 
ATOM     43  C   UNL     1      13.564 -10.371  -7.679  1.00  0.00     0.074 A 
ATOM     44  C   UNL     1      12.527  -9.376  -7.853  1.00  0.00     0.031 C 
ATOM     45  C   UNL     1      14.741 -10.080  -1.356  1.00  0.00     0.029 A 
ATOM     46  C   UNL     1      15.374 -10.958  -2.334  1.00  0.00     0.049 A 
ATOM     47  H   UNL     1      15.060 -10.993  -4.394  1.00  0.00     0.167 HD
ATOM     48  C   UNL     1      14.077 -11.127  -8.681  1.00  0.00     0.034 A 
ATOM     49  C   UNL     1      16.286 -11.910  -2.053  1.00  0.00     0.034 A 
ATOM     50  C   UNL     1      15.126 -12.098  -8.494  1.00  0.00     0.049 A 
ATOM     51  C   UNL     1      16.843 -12.737  -3.183  1.00  0.00     0.074 A 
ATOM     52  C   UNL     1      15.770 -12.868  -9.447  1.00  0.00     0.029 A 
ATOM     53  N   UNL     1      15.683 -12.439  -7.267  1.00  0.00    -0.354 N 
ATOM     54  N   UNL     1      16.543 -12.698  -4.460  1.00  0.00    -0.248 NA
ATOM     55  C   UNL     1      17.867 -13.730  -2.833  1.00  0.00     0.031 C 
ATOM     56  C   UNL     1      16.676 -13.711  -8.792  1.00  0.00     0.029 A 
ATOM     57  C   UNL     1      16.643 -13.425  -7.437  1.00  0.00     0.049 A 
ATOM     58  H   UNL     1      15.433 -12.038  -6.404  1.00  0.00     0.167 HD
ATOM     59  C   UNL     1      17.360 -13.646  -5.069  1.00  0.00     0.074 A 
ATOM     60  C   UNL     1      18.175 -14.227  -4.022  1.00  0.00     0.031 C 
ATOM     61  C   UNL     1      17.433 -14.004  -6.377  1.00  0.00     0.034 A 
BRANCH  48  62
ATOM     62  C   UNL     1      13.492 -10.936 -10.059  1.00  0.00     0.023 A 
ATOM     63  C   UNL     1      13.595  -9.710 -10.738  1.00  0.00     0.031 A 
ATOM     64  C   UNL     1      12.787 -11.979 -10.685  1.00  0.00     0.131 A 
ATOM     65  C   UNL     1      12.935  -9.529 -11.963  1.00  0.00     0.055 A 
ATOM     66  C   UNL     1      12.201 -11.818 -11.943  1.00  0.00     0.041 A 
ATOM     67  F   UNL     1      12.638 -13.166 -10.076  1.00  0.00    -0.206 F 
ATOM     68  C   UNL     1      12.259 -10.583 -12.582  1.00  0.00     0.022 A 
BRANCH  65  69
ATOM     69  S   UNL     1      12.851  -7.858 -12.661  1.00  0.00     0.124 S 
ATOM     70  O   UNL     1      12.150  -7.133 -11.603  1.00  0.00    -0.237 OA
ATOM     71  O   UNL     1      14.258  -7.520 -12.841  1.00  0.00    -0.237 OA
ATOM     72  O   UNL     1      12.089  -8.039 -13.894  1.00  0.00    -0.744 OA
ENDBRANCH  65  69
ENDBRANCH  48  62
BRANCH  49  73
ATOM     73  C   UNL     1      16.729 -12.144  -0.650  1.00  0.00     0.023 A 
ATOM     74  C   UNL     1      18.049 -11.873  -0.256  1.00  0.00     0.031 A 
ATOM     75  C   UNL     1      15.851 -12.682   0.307  1.00  0.00     0.131 A 
ATOM     76  C   UNL     1      18.466 -12.181   1.048  1.00  0.00     0.055 A 
ATOM     77  C   UNL     1      16.259 -12.944   1.616  1.00  0.00     0.041 A 
ATOM     78  F   UNL     1      14.576 -12.951  -0.017  1.00  0.00    -0.206 F 
ATOM     79  C   UNL     1      17.578 -12.706   1.990  1.00  0.00     0.022 A 
BRANCH  76  80
ATOM     80  S   UNL     1      20.215 -11.956   1.475  1.00  0.00     0.124 S 
ATOM     81  O   UNL     1      20.874 -12.805   0.488  1.00  0.00    -0.237 OA
ATOM     82  O   UNL     1      20.386 -10.518   1.300  1.00  0.00    -0.237 OA
ATOM     83  O   UNL     1      20.292 -12.428   2.856  1.00  0.00    -0.744 OA
ENDBRANCH  76  80
ENDBRANCH  49  73
BRANCH  61  84
ATOM     84  C   UNL     1      18.456 -15.050  -6.738  1.00  0.00     0.023 A 
ATOM     85  C   UNL     1      18.316 -16.387  -6.330  1.00  0.00     0.031 A 
ATOM     86  C   UNL     1      19.593 -14.698  -7.487  1.00  0.00     0.131 A 
ATOM     87  C   UNL     1      19.323 -17.316  -6.630  1.00  0.00     0.055 A 
ATOM     88  C   UNL     1      20.565 -15.638  -7.828  1.00  0.00     0.041 A 
ATOM     89  F   UNL     1      19.774 -13.433  -7.899  1.00  0.00    -0.206 F 
ATOM     90  C   UNL     1      20.440 -16.953  -7.389  1.00  0.00     0.022 A 
BRANCH  87  91
ATOM     91  S   UNL     1      19.194 -18.991  -5.948  1.00  0.00     0.124 S 
ATOM     92  O   UNL     1      19.176 -18.733  -4.512  1.00  0.00    -0.237 OA
ATOM     93  O   UNL     1      17.942 -19.469  -6.526  1.00  0.00    -0.237 OA
ATOM     94  O   UNL     1      20.397 -19.658  -6.443  1.00  0.00    -0.744 OA
ENDBRANCH  87  91
ENDBRANCH  61  84
ENDBRANCH  35  36
ENDBRANCH  27  30
ENDBRANCH  25  26
ENDBRANCH   1  25
TORSDOF 16
