REMARK SMILES O=C(CCC(=O)N1Cc2[nH]cnc2C[C@H]1C(=O)NCc1ccccc1)NCCCCNC(=O)c1ccc(-c2c3nc(c(-c4cc(S(=O)(=O)[O-])ccc4F)c4ccc([nH]4)c(-c4cc(S(=O)(=O)[O-])ccc4F)c4nc(c(-c5cc(S(=O)(=O)[O-])ccc5F)c5ccc2[nH]5)C=C4)C=C3)cc1
REMARK SMILES IDX 27 1 26 2 1 3 2 4 3 6 4 7 5 8 6 9 7 10 8 11 15 12 9 13 14 14
REMARK SMILES IDX 10 15 13 16 11 17 12 19 16 20 17 21 18 22 19 24 20 25 21 26
REMARK SMILES IDX 25 27 22 28 24 29 23 30 28 31 29 32 30 33 31 34 32 35 33 37
REMARK SMILES IDX 34 38 35 39 96 40 36 41 95 42 37 43 38 44 39 45 89 46 40 47
REMARK SMILES IDX 94 48 88 49 90 50 41 51 93 52 87 53 86 54 42 56 74 57 54 58
REMARK SMILES IDX 73 59 55 60 58 61 72 62 91 63 56 64 57 65 71 67 92 68 59 69
REMARK SMILES IDX 43 70 44 71 52 72 45 73 51 74 53 75 50 76 46 77 47 78 48 79
REMARK SMILES IDX 49 80 75 81 76 82 84 83 77 84 83 85 85 86 82 87 78 88 79 89
REMARK SMILES IDX 80 90 81 91 60 92 61 93 69 94 62 95 68 96 70 97 67 98 63 99
REMARK SMILES IDX 64 100 65 101 66 102
REMARK H PARENT 26 5 10 18 18 23 31 36 90 55 58 66
REMARK Flexibility Score: inf
ROOT
ATOM      1  C   UNL     1       1.883  -2.587  -1.288  1.00  0.00     0.116 C 
ENDROOT
BRANCH   1   2
ATOM      2  N   UNL     1       2.735  -1.405  -1.489  1.00  0.00    -0.356 N 
ATOM      3  O   UNL     1       1.081   0.117  -0.981  1.00  0.00    -0.275 OA
ATOM      4  C   UNL     1       2.269  -0.113  -1.190  1.00  0.00     0.220 C 
ATOM      5  H   UNL     1       3.648  -1.522  -1.839  1.00  0.00     0.163 HD
BRANCH   4   6
ATOM      6  C   UNL     1       3.366   0.979  -1.010  1.00  0.00     0.110 C 
BRANCH   6   7
ATOM      7  C   UNL     1       3.632   1.567   0.412  1.00  0.00     0.110 C 
BRANCH   7   8
ATOM      8  C   UNL     1       4.692   0.911   1.355  1.00  0.00     0.224 C 
ATOM      9  O   UNL     1       5.843   1.349   1.384  1.00  0.00    -0.275 OA
BRANCH   8  10
ATOM     10  N   UNL     1       4.290  -0.153   2.162  1.00  0.00    -0.324 N 
ATOM     11  C   UNL     1       5.147  -0.708   3.263  1.00  0.00     0.176 C 
ATOM     12  C   UNL     1       3.197  -1.009   1.686  1.00  0.00     0.180 C 
ATOM     13  C   UNL     1       4.921  -2.186   3.321  1.00  0.00     0.058 A 
ATOM     14  C   UNL     1       3.777  -2.319   1.185  1.00  0.00     0.093 C 
ATOM     15  N   UNL     1       4.892  -3.035   4.387  1.00  0.00    -0.347 N 
ATOM     16  C   UNL     1       4.376  -2.950   2.329  1.00  0.00     0.066 A 
ATOM     17  C   UNL     1       4.422  -4.254   3.952  1.00  0.00     0.197 A 
ATOM     18  H   UNL     1       5.161  -2.816   5.309  1.00  0.00     0.167 HD
ATOM     19  N   UNL     1       4.110  -4.228   2.680  1.00  0.00    -0.242 NA
BRANCH  12  20
ATOM     20  C   UNL     1       1.786  -0.791   2.264  1.00  0.00     0.243 C 
ATOM     21  O   UNL     1       1.262   0.329   2.166  1.00  0.00    -0.273 OA
ATOM     22  N   UNL     1       1.019  -1.697   2.901  1.00  0.00    -0.350 N 
ATOM     23  H   UNL     1       0.050  -1.547   2.813  1.00  0.00     0.163 HD
BRANCH  22  24
ATOM     24  C   UNL     1       1.377  -2.846   3.688  1.00  0.00     0.151 C 
BRANCH  24  25
ATOM     25  C   UNL     1       1.914  -2.483   5.055  1.00  0.00    -0.029 A 
ATOM     26  C   UNL     1       2.137  -3.506   5.993  1.00  0.00     0.005 A 
ATOM     27  C   UNL     1       2.257  -1.167   5.418  1.00  0.00     0.005 A 
ATOM     28  C   UNL     1       2.654  -3.215   7.255  1.00  0.00     0.000 A 
ATOM     29  C   UNL     1       2.768  -0.877   6.679  1.00  0.00     0.000 A 
ATOM     30  C   UNL     1       2.929  -1.896   7.605  1.00  0.00     0.000 A 
ENDBRANCH  24  25
ENDBRANCH  22  24
ENDBRANCH  12  20
ENDBRANCH   8  10
ENDBRANCH   7   8
ENDBRANCH   6   7
ENDBRANCH   4   6
ENDBRANCH   1   2
BRANCH   1  31
ATOM     31  C   UNL     1       2.454  -4.050  -1.456  1.00  0.00     0.023 C 
BRANCH  31  32
ATOM     32  C   UNL     1       3.950  -4.421  -1.664  1.00  0.00     0.023 C 
BRANCH  32  33
ATOM     33  C   UNL     1       4.903  -4.983  -0.548  1.00  0.00     0.116 C 
BRANCH  33  34
ATOM     34  N   UNL     1       4.646  -6.273   0.104  1.00  0.00    -0.352 N 
ATOM     35  C   UNL     1       5.283  -6.960   1.159  1.00  0.00     0.251 C 
ATOM     36  H   UNL     1       3.873  -6.755  -0.270  1.00  0.00     0.163 HD
ATOM     37  O   UNL     1       4.944  -8.137   1.328  1.00  0.00    -0.269 OA
BRANCH  35  38
ATOM     38  C   UNL     1       6.270  -6.372   2.151  1.00  0.00     0.039 A 
ATOM     39  C   UNL     1       6.491  -6.965   3.427  1.00  0.00     0.014 A 
ATOM     40  C   UNL     1       6.865  -5.152   1.946  1.00  0.00     0.014 A 
ATOM     41  C   UNL     1       7.067  -6.246   4.530  1.00  0.00     0.010 A 
ATOM     42  C   UNL     1       7.317  -4.423   3.050  1.00  0.00     0.010 A 
ATOM     43  C   UNL     1       7.380  -4.898   4.385  1.00  0.00    -0.014 A 
BRANCH  43  44
ATOM     44  C   UNL     1       7.980  -3.934   5.391  1.00  0.00     0.031 A 
ATOM     45  C   UNL     1       9.384  -3.684   4.986  1.00  0.00     0.074 A 
ATOM     46  C   UNL     1       7.520  -3.206   6.458  1.00  0.00     0.049 A 
ATOM     47  N   UNL     1      10.384  -4.404   5.389  1.00  0.00    -0.248 NA
ATOM     48  C   UNL     1       9.688  -2.838   3.817  1.00  0.00     0.031 C 
ATOM     49  C   UNL     1       6.249  -3.292   7.180  1.00  0.00     0.029 A 
ATOM     50  N   UNL     1       8.115  -2.128   7.118  1.00  0.00    -0.354 N 
ATOM     51  C   UNL     1      11.455  -3.872   4.700  1.00  0.00     0.074 A 
ATOM     52  C   UNL     1      10.893  -3.319   3.507  1.00  0.00     0.031 C 
ATOM     53  C   UNL     1       6.086  -2.213   7.992  1.00  0.00     0.029 A 
ATOM     54  C   UNL     1       7.255  -1.354   7.929  1.00  0.00     0.049 A 
ATOM     55  H   UNL     1       9.072  -1.920   7.023  1.00  0.00     0.167 HD
ATOM     56  C   UNL     1      12.572  -3.468   5.362  1.00  0.00     0.034 A 
ATOM     57  C   UNL     1       7.497  -0.253   8.721  1.00  0.00     0.034 A 
ATOM     58  C   UNL     1      12.615  -4.042   6.697  1.00  0.00     0.049 A 
ATOM     59  C   UNL     1       8.889  -0.380   9.171  1.00  0.00     0.074 A 
ATOM     60  C   UNL     1      12.484  -5.318   7.215  1.00  0.00     0.029 A 
ATOM     61  N   UNL     1      12.434  -3.191   7.764  1.00  0.00    -0.354 N 
ATOM     62  N   UNL     1       9.269  -1.291  10.016  1.00  0.00    -0.248 NA
ATOM     63  C   UNL     1       9.932   0.199   8.349  1.00  0.00     0.031 C 
ATOM     64  C   UNL     1      11.803  -5.162   8.458  1.00  0.00     0.029 A 
ATOM     65  C   UNL     1      11.634  -3.800   8.698  1.00  0.00     0.049 A 
ATOM     66  H   UNL     1      12.818  -2.288   7.845  1.00  0.00     0.167 HD
ATOM     67  C   UNL     1      10.446  -1.766   9.475  1.00  0.00     0.074 A 
ATOM     68  C   UNL     1      10.874  -0.729   8.535  1.00  0.00     0.031 C 
ATOM     69  C   UNL     1      10.787  -3.077   9.627  1.00  0.00     0.034 A 
BRANCH  56  70
ATOM     70  C   UNL     1      13.367  -2.229   4.972  1.00  0.00     0.023 A 
ATOM     71  C   UNL     1      14.530  -1.988   5.716  1.00  0.00     0.031 A 
ATOM     72  C   UNL     1      12.961  -1.163   4.125  1.00  0.00     0.131 A 
ATOM     73  C   UNL     1      15.152  -0.728   5.694  1.00  0.00     0.055 A 
ATOM     74  C   UNL     1      13.626   0.062   4.053  1.00  0.00     0.041 A 
ATOM     75  F   UNL     1      11.862  -1.180   3.366  1.00  0.00    -0.206 F 
ATOM     76  C   UNL     1      14.710   0.299   4.868  1.00  0.00     0.022 A 
BRANCH  73  77
ATOM     77  S   UNL     1      16.446  -0.415   6.910  1.00  0.00     0.124 S 
ATOM     78  O   UNL     1      15.733  -0.667   8.153  1.00  0.00    -0.237 OA
ATOM     79  O   UNL     1      17.457  -1.389   6.526  1.00  0.00    -0.237 OA
ATOM     80  O   UNL     1      16.803   0.987   6.661  1.00  0.00    -0.744 OA
ENDBRANCH  73  77
ENDBRANCH  56  70
BRANCH  57  81
ATOM     81  C   UNL     1       6.757   1.050   8.931  1.00  0.00     0.023 A 
ATOM     82  C   UNL     1       7.096   2.000   9.946  1.00  0.00     0.031 A 
ATOM     83  C   UNL     1       5.894   1.521   7.924  1.00  0.00     0.131 A 
ATOM     84  C   UNL     1       6.593   3.333   9.910  1.00  0.00     0.055 A 
ATOM     85  C   UNL     1       5.408   2.839   7.888  1.00  0.00     0.041 A 
ATOM     86  F   UNL     1       5.569   0.736   6.885  1.00  0.00    -0.206 F 
ATOM     87  C   UNL     1       5.764   3.753   8.871  1.00  0.00     0.022 A 
BRANCH  84  88
ATOM     88  S   UNL     1       7.089   4.595  11.151  1.00  0.00     0.124 S 
ATOM     89  O   UNL     1       6.353   4.174  12.337  1.00  0.00    -0.237 OA
ATOM     90  O   UNL     1       8.538   4.448  11.198  1.00  0.00    -0.237 OA
ATOM     91  O   UNL     1       6.627   5.855  10.563  1.00  0.00    -0.744 OA
ENDBRANCH  84  88
ENDBRANCH  57  81
BRANCH  69  92
ATOM     92  C   UNL     1      10.110  -3.861  10.740  1.00  0.00     0.023 A 
ATOM     93  C   UNL     1       8.714  -4.007  10.922  1.00  0.00     0.031 A 
ATOM     94  C   UNL     1      10.950  -4.530  11.646  1.00  0.00     0.131 A 
ATOM     95  C   UNL     1       8.213  -4.779  11.991  1.00  0.00     0.055 A 
ATOM     96  C   UNL     1      10.454  -5.314  12.687  1.00  0.00     0.041 A 
ATOM     97  F   UNL     1      12.286  -4.444  11.526  1.00  0.00    -0.206 F 
ATOM     98  C   UNL     1       9.082  -5.434  12.870  1.00  0.00     0.022 A 
BRANCH  95  99
ATOM     99  S   UNL     1       6.418  -4.915  12.280  1.00  0.00     0.124 S 
ATOM    100  O   UNL     1       5.942  -3.543  12.149  1.00  0.00    -0.237 OA
ATOM    101  O   UNL     1       5.997  -5.831  11.222  1.00  0.00    -0.237 OA
ATOM    102  O   UNL     1       6.332  -5.468  13.633  1.00  0.00    -0.744 OA
ENDBRANCH  95  99
ENDBRANCH  69  92
ENDBRANCH  43  44
ENDBRANCH  35  38
ENDBRANCH  33  34
ENDBRANCH  32  33
ENDBRANCH  31  32
ENDBRANCH   1  31
TORSDOF 20
