REMARK SMILES NS(=O)(=O)c1ccc(-c2coc(=O)n2-c2ccc(C(=O)NCCCCNC(=O)c3ccc(-c4c5nc(c(-c6cc(S(=O)(=O)[O-])ccc6F)c6ccc([nH]6)c(-c6cc(S(=O)(=O)[O-])ccc6F)c6nc(c(-c7cc(S(=O)(=O)[O-])ccc7F)c7ccc4[nH]7)C=C6)C=C5)cc3)cc2)cc1
REMARK SMILES IDX 23 1 22 2 21 3 19 4 20 5 18 7 15 8 16 9 93 10 17 11 92 12
REMARK SMILES IDX 14 13 9 14 10 15 11 16 12 17 13 18 8 19 5 20 6 21 95 22 7 23
REMARK SMILES IDX 94 24 2 25 3 26 4 27 1 28 24 31 25 32 26 33 27 34 28 36
REMARK SMILES IDX 29 37 30 38 91 39 31 40 90 41 32 42 33 43 34 44 84 45 35 46
REMARK SMILES IDX 89 47 83 48 85 49 36 50 88 51 82 52 81 53 37 55 69 56 49 57
REMARK SMILES IDX 68 58 50 59 53 60 67 61 86 62 51 63 52 64 66 66 87 67 54 68
REMARK SMILES IDX 38 69 39 70 47 71 40 72 46 73 48 74 45 75 41 76 42 77 43 78
REMARK SMILES IDX 44 79 70 80 71 81 79 82 72 83 78 84 80 85 77 86 73 87 74 88
REMARK SMILES IDX 75 89 76 90 55 91 56 92 64 93 57 94 63 95 65 96 62 97 58 98
REMARK SMILES IDX 59 99 60 100 61 101
REMARK H PARENT 21 6 1 29 1 30 26 35 85 54 53 65
REMARK Flexibility Score: inf
ROOT
ATOM      1  C   UNL     1       8.161  -3.755   0.913  1.00  0.00     0.023 C 
ENDROOT
BRANCH   1   2
ATOM      2  C   UNL     1       6.849  -3.714   0.120  1.00  0.00     0.116 C 
BRANCH   2   3
ATOM      3  N   UNL     1       6.518  -5.017  -0.428  1.00  0.00    -0.352 N 
ATOM      4  C   UNL     1       5.720  -6.048   0.000  1.00  0.00     0.251 C 
ATOM      5  O   UNL     1       5.644  -7.037  -0.731  1.00  0.00    -0.269 OA
ATOM      6  H   UNL     1       6.960  -5.200  -1.288  1.00  0.00     0.163 HD
BRANCH   4   7
ATOM      7  C   UNL     1       4.920  -6.027   1.261  1.00  0.00     0.039 A 
ATOM      8  C   UNL     1       3.217  -6.036   3.506  1.00  0.00     0.053 A 
ATOM      9  C   UNL     1       3.015  -6.963   2.486  1.00  0.00     0.028 A 
ATOM     10  C   UNL     1       4.303  -5.160   3.439  1.00  0.00     0.028 A 
ATOM     11  C   UNL     1       3.844  -6.933   1.357  1.00  0.00     0.016 A 
ATOM     12  C   UNL     1       5.173  -5.193   2.349  1.00  0.00     0.016 A 
BRANCH   8  13
ATOM     13  N   UNL     1       2.330  -5.939   4.589  1.00  0.00    -0.242 N 
ATOM     14  C   UNL     1       1.646  -4.835   5.011  1.00  0.00     0.095 A 
ATOM     15  C   UNL     1       1.108  -5.166   6.179  1.00  0.00     0.228 A 
ATOM     16  O   UNL     1       1.381  -6.470   6.590  1.00  0.00    -0.415 OA
ATOM     17  C   UNL     1       2.160  -6.946   5.533  1.00  0.00     0.424 A 
ATOM     18  O   UNL     1       2.630  -8.076   5.522  1.00  0.00    -0.223 OA
BRANCH  14  19
ATOM     19  C   UNL     1       1.431  -3.612   4.237  1.00  0.00     0.002 A 
ATOM     20  C   UNL     1       0.927  -1.291   2.743  1.00  0.00     0.082 A 
ATOM     21  C   UNL     1       0.686  -2.541   2.173  1.00  0.00     0.022 A 
ATOM     22  C   UNL     1       1.424  -1.189   4.046  1.00  0.00     0.022 A 
ATOM     23  C   UNL     1       0.939  -3.694   2.921  1.00  0.00     0.012 A 
ATOM     24  C   UNL     1       1.669  -2.348   4.792  1.00  0.00     0.012 A 
BRANCH  20  25
ATOM     25  S   UNL     1       0.562   0.182   1.827  1.00  0.00     0.238 S 
ATOM     26  O   UNL     1       1.272   1.276   2.429  1.00  0.00    -0.207 OA
ATOM     27  O   UNL     1      -0.871   0.203   1.600  1.00  0.00    -0.207 OA
BRANCH  25  28
ATOM     28  N   UNL     1       1.292  -0.094   0.342  1.00  0.00    -0.225 NA
ATOM     29  H   UNL     1       1.137   0.709  -0.268  1.00  0.00     0.137 HD
ATOM     30  H   UNL     1       0.888  -0.928  -0.085  1.00  0.00     0.137 HD
ENDBRANCH  25  28
ENDBRANCH  20  25
ENDBRANCH  14  19
ENDBRANCH   8  13
ENDBRANCH   4   7
ENDBRANCH   2   3
ENDBRANCH   1   2
BRANCH   1  31
ATOM     31  C   UNL     1       9.432  -3.847   0.057  1.00  0.00     0.023 C 
BRANCH  31  32
ATOM     32  C   UNL     1       9.745  -2.601  -0.769  1.00  0.00     0.116 C 
BRANCH  32  33
ATOM     33  N   UNL     1       9.976  -1.419   0.058  1.00  0.00    -0.352 N 
ATOM     34  C   UNL     1       9.933  -0.091  -0.320  1.00  0.00     0.251 C 
ATOM     35  H   UNL     1      10.189  -1.591   1.004  1.00  0.00     0.163 HD
ATOM     36  O   UNL     1      10.530   0.758   0.332  1.00  0.00    -0.269 OA
BRANCH  34  37
ATOM     37  C   UNL     1       9.158   0.283  -1.517  1.00  0.00     0.039 A 
ATOM     38  C   UNL     1       9.680   1.161  -2.468  1.00  0.00     0.014 A 
ATOM     39  C   UNL     1       7.904  -0.297  -1.698  1.00  0.00     0.014 A 
ATOM     40  C   UNL     1       8.974   1.365  -3.653  1.00  0.00     0.010 A 
ATOM     41  C   UNL     1       7.263  -0.183  -2.913  1.00  0.00     0.010 A 
ATOM     42  C   UNL     1       7.779   0.663  -3.892  1.00  0.00    -0.014 A 
BRANCH  42  43
ATOM     43  C   UNL     1       7.163   0.690  -5.223  1.00  0.00     0.031 A 
ATOM     44  C   UNL     1       8.095   0.393  -6.347  1.00  0.00     0.074 A 
ATOM     45  C   UNL     1       5.834   0.760  -5.456  1.00  0.00     0.049 A 
ATOM     46  N   UNL     1       8.495   1.202  -7.271  1.00  0.00    -0.248 NA
ATOM     47  C   UNL     1       8.765  -0.917  -6.379  1.00  0.00     0.031 C 
ATOM     48  C   UNL     1       4.744   0.773  -4.475  1.00  0.00     0.029 A 
ATOM     49  N   UNL     1       5.164   0.726  -6.645  1.00  0.00    -0.354 N 
ATOM     50  C   UNL     1       9.270   0.443  -8.141  1.00  0.00     0.074 A 
ATOM     51  C   UNL     1       9.560  -0.782  -7.443  1.00  0.00     0.031 C 
ATOM     52  C   UNL     1       3.571   0.513  -5.094  1.00  0.00     0.029 A 
ATOM     53  C   UNL     1       3.796   0.489  -6.528  1.00  0.00     0.049 A 
ATOM     54  H   UNL     1       5.610   0.857  -7.513  1.00  0.00     0.167 HD
ATOM     55  C   UNL     1       9.401   0.788  -9.453  1.00  0.00     0.034 A 
ATOM     56  C   UNL     1       2.899   0.279  -7.527  1.00  0.00     0.034 A 
ATOM     57  C   UNL     1       9.008   2.163  -9.673  1.00  0.00     0.049 A 
ATOM     58  C   UNL     1       3.466   0.894  -8.750  1.00  0.00     0.074 A 
ATOM     59  C   UNL     1       9.396   3.376  -9.135  1.00  0.00     0.029 A 
ATOM     60  N   UNL     1       7.791   2.407 -10.270  1.00  0.00    -0.354 N 
ATOM     61  N   UNL     1       3.661   2.177  -8.877  1.00  0.00    -0.248 NA
ATOM     62  C   UNL     1       4.252   0.060  -9.644  1.00  0.00     0.031 C 
ATOM     63  C   UNL     1       8.180   4.105  -8.967  1.00  0.00     0.029 A 
ATOM     64  C   UNL     1       7.140   3.339  -9.497  1.00  0.00     0.049 A 
ATOM     65  H   UNL     1       7.451   1.992 -11.096  1.00  0.00     0.167 HD
ATOM     66  C   UNL     1       4.888   2.290  -9.508  1.00  0.00     0.074 A 
ATOM     67  C   UNL     1       5.147   0.961 -10.059  1.00  0.00     0.031 C 
ATOM     68  C   UNL     1       5.704   3.364  -9.285  1.00  0.00     0.034 A 
BRANCH  55  69
ATOM     69  C   UNL     1       9.540  -0.200 -10.592  1.00  0.00     0.023 A 
ATOM     70  C   UNL     1       9.722   0.317 -11.891  1.00  0.00     0.031 A 
ATOM     71  C   UNL     1       9.224  -1.577 -10.521  1.00  0.00     0.131 A 
ATOM     72  C   UNL     1       9.505  -0.485 -13.026  1.00  0.00     0.055 A 
ATOM     73  C   UNL     1       9.082  -2.387 -11.651  1.00  0.00     0.041 A 
ATOM     74  F   UNL     1       8.935  -2.194  -9.369  1.00  0.00    -0.206 F 
ATOM     75  C   UNL     1       9.192  -1.837 -12.915  1.00  0.00     0.022 A 
BRANCH  72  76
ATOM     76  S   UNL     1       9.456   0.315 -14.651  1.00  0.00     0.124 S 
ATOM     77  O   UNL     1       8.453   1.352 -14.436  1.00  0.00    -0.237 OA
ATOM     78  O   UNL     1      10.834   0.771 -14.803  1.00  0.00    -0.237 OA
ATOM     79  O   UNL     1       9.054  -0.765 -15.549  1.00  0.00    -0.744 OA
ENDBRANCH  72  76
ENDBRANCH  55  69
BRANCH  56  80
ATOM     80  C   UNL     1       1.739  -0.653  -7.530  1.00  0.00     0.023 A 
ATOM     81  C   UNL     1       0.673  -0.550  -8.449  1.00  0.00     0.031 A 
ATOM     82  C   UNL     1       1.800  -1.837  -6.761  1.00  0.00     0.131 A 
ATOM     83  C   UNL     1      -0.265  -1.603  -8.573  1.00  0.00     0.055 A 
ATOM     84  C   UNL     1       0.871  -2.872  -6.887  1.00  0.00     0.041 A 
ATOM     85  F   UNL     1       2.820  -2.066  -5.917  1.00  0.00    -0.206 F 
ATOM     86  C   UNL     1      -0.161  -2.764  -7.804  1.00  0.00     0.022 A 
BRANCH  83  87
ATOM     87  S   UNL     1      -1.591  -1.520  -9.822  1.00  0.00     0.124 S 
ATOM     88  O   UNL     1      -2.453  -0.472  -9.289  1.00  0.00    -0.237 OA
ATOM     89  O   UNL     1      -0.856  -1.200 -11.040  1.00  0.00    -0.237 OA
ATOM     90  O   UNL     1      -2.170  -2.864  -9.794  1.00  0.00    -0.744 OA
ENDBRANCH  83  87
ENDBRANCH  56  80
BRANCH  68  91
ATOM     91  C   UNL     1       5.124   4.578  -8.577  1.00  0.00     0.023 A 
ATOM     92  C   UNL     1       4.481   4.555  -7.316  1.00  0.00     0.031 A 
ATOM     93  C   UNL     1       5.323   5.834  -9.177  1.00  0.00     0.131 A 
ATOM     94  C   UNL     1       4.047   5.756  -6.719  1.00  0.00     0.055 A 
ATOM     95  C   UNL     1       4.914   7.023  -8.572  1.00  0.00     0.041 A 
ATOM     96  F   UNL     1       5.949   5.933 -10.362  1.00  0.00    -0.206 F 
ATOM     97  C   UNL     1       4.266   6.987  -7.344  1.00  0.00     0.022 A 
BRANCH  94  98
ATOM     98  S   UNL     1       3.158   5.738  -5.127  1.00  0.00     0.124 S 
ATOM     99  O   UNL     1       2.178   4.671  -5.289  1.00  0.00    -0.237 OA
ATOM    100  O   UNL     1       4.229   5.476  -4.169  1.00  0.00    -0.237 OA
ATOM    101  O   UNL     1       2.586   7.083  -5.043  1.00  0.00    -0.744 OA
ENDBRANCH  94  98
ENDBRANCH  68  91
ENDBRANCH  42  43
ENDBRANCH  34  37
ENDBRANCH  32  33
ENDBRANCH  31  32
ENDBRANCH   1  31
TORSDOF 18
