REMARK SMILES [NH3+]CCOCC(=O)N[C@]1(C(=O)NCCCCNC(=O)c2ccc(-c3c4nc(c(-c5cc(S(=O)(=O)[O-])ccc5F)c5ccc([nH]5)c(-c5cc(S(=O)(=O)[O-])ccc5F)c5nc(c(-c6cc(S(=O)(=O)[O-])ccc6F)c6ccc3[nH]6)C=C5)C=C4)cc2)CCOC1
REMARK SMILES IDX 13 1 12 2 10 3 11 4 9 6 83 7 86 8 84 9 85 10 8 11 6 12 7 13
REMARK SMILES IDX 5 15 4 16 3 17 2 18 1 19 14 23 15 24 16 25 17 26 18 27 19 29
REMARK SMILES IDX 20 30 21 31 82 32 22 33 81 34 23 35 24 36 25 37 75 38 26 39
REMARK SMILES IDX 80 40 74 41 76 42 27 43 79 44 73 45 72 46 28 48 60 49 40 50
REMARK SMILES IDX 59 51 41 52 44 53 58 54 77 55 42 56 43 57 57 59 78 60 45 61
REMARK SMILES IDX 29 62 30 63 38 64 31 65 37 66 39 67 36 68 32 69 33 70 34 71
REMARK SMILES IDX 35 72 61 73 62 74 70 75 63 76 69 77 71 78 68 79 64 80 65 81
REMARK SMILES IDX 66 82 67 83 46 84 47 85 55 86 48 87 54 88 56 89 53 90 49 91
REMARK SMILES IDX 50 92 51 93 52 94
REMARK H PARENT 12 5 8 14 1 20 1 21 1 22 17 28 76 47 44 58
REMARK Flexibility Score: inf
ROOT
ATOM      1  C   UNL     1       1.702   0.917  -7.823  1.00  0.00     0.116 C 
ENDROOT
BRANCH   1   2
ATOM      2  N   UNL     1       2.833   0.196  -7.269  1.00  0.00    -0.354 N 
ATOM      3  C   UNL     1       3.116  -0.173  -5.988  1.00  0.00     0.248 C 
ATOM      4  O   UNL     1       4.167  -0.804  -5.816  1.00  0.00    -0.272 OA
ATOM      5  H   UNL     1       3.511  -0.072  -7.931  1.00  0.00     0.163 HD
BRANCH   3   6
ATOM      6  C   UNL     1       2.211   0.197  -4.767  1.00  0.00     0.144 C 
ATOM      7  C   UNL     1       2.146   1.706  -4.591  1.00  0.00     0.069 C 
ATOM      8  C   UNL     1       0.778  -0.256  -5.005  1.00  0.00     0.198 C 
ATOM      9  C   UNL     1       0.673   2.049  -4.583  1.00  0.00     0.163 C 
ATOM     10  O   UNL     1      -0.091   0.872  -4.846  1.00  0.00    -0.378 OA
BRANCH   6  11
ATOM     11  N   UNL     1       2.899  -0.421  -3.599  1.00  0.00    -0.338 N 
ATOM     12  C   UNL     1       2.585  -0.613  -2.293  1.00  0.00     0.246 C 
ATOM     13  O   UNL     1       3.500  -0.879  -1.507  1.00  0.00    -0.272 OA
ATOM     14  H   UNL     1       3.789  -0.773  -3.829  1.00  0.00     0.164 HD
BRANCH  12  15
ATOM     15  C   UNL     1       1.142  -0.566  -1.785  1.00  0.00     0.260 C 
BRANCH  15  16
ATOM     16  O   UNL     1       0.471   0.674  -1.771  1.00  0.00    -0.366 OA
BRANCH  16  17
ATOM     17  C   UNL     1       1.021   1.648  -0.886  1.00  0.00     0.222 C 
BRANCH  17  18
ATOM     18  C   UNL     1       0.493   1.537   0.554  1.00  0.00     0.287 C 
BRANCH  18  19
ATOM     19  N   UNL     1       1.084   0.460   1.350  1.00  0.00    -0.356 N 
ATOM     20  H   UNL     1       0.675   0.465   2.285  1.00  0.00     0.344 HD
ATOM     21  H   UNL     1       2.092   0.602   1.419  1.00  0.00     0.344 HD
ATOM     22  H   UNL     1       0.897  -0.437   0.901  1.00  0.00     0.344 HD
ENDBRANCH  18  19
ENDBRANCH  17  18
ENDBRANCH  16  17
ENDBRANCH  15  16
ENDBRANCH  12  15
ENDBRANCH   6  11
ENDBRANCH   3   6
ENDBRANCH   1   2
BRANCH   1  23
ATOM     23  C   UNL     1       2.128   2.067  -8.726  1.00  0.00     0.023 C 
BRANCH  23  24
ATOM     24  C   UNL     1       2.729   1.640 -10.063  1.00  0.00     0.023 C 
BRANCH  24  25
ATOM     25  C   UNL     1       1.885   0.661 -10.873  1.00  0.00     0.116 C 
BRANCH  25  26
ATOM     26  N   UNL     1       0.525   1.128 -11.109  1.00  0.00    -0.352 N 
ATOM     27  C   UNL     1      -0.180   1.166 -12.291  1.00  0.00     0.251 C 
ATOM     28  H   UNL     1       0.046   1.462 -10.316  1.00  0.00     0.163 HD
ATOM     29  O   UNL     1      -1.284   1.691 -12.336  1.00  0.00    -0.269 OA
BRANCH  27  30
ATOM     30  C   UNL     1       0.443   0.603 -13.505  1.00  0.00     0.039 A 
ATOM     31  C   UNL     1       0.563   1.410 -14.638  1.00  0.00     0.014 A 
ATOM     32  C   UNL     1       0.987  -0.683 -13.483  1.00  0.00     0.014 A 
ATOM     33  C   UNL     1       1.321   0.959 -15.721  1.00  0.00     0.010 A 
ATOM     34  C   UNL     1       1.801  -1.098 -14.532  1.00  0.00     0.010 A 
ATOM     35  C   UNL     1       1.989  -0.274 -15.653  1.00  0.00    -0.014 A 
BRANCH  35  36
ATOM     36  C   UNL     1       2.916  -0.714 -16.727  1.00  0.00     0.031 A 
ATOM     37  C   UNL     1       2.615  -1.959 -17.512  1.00  0.00     0.074 A 
ATOM     38  C   UNL     1       4.071  -0.046 -16.926  1.00  0.00     0.049 A 
ATOM     39  N   UNL     1       3.349  -2.576 -18.401  1.00  0.00    -0.248 NA
ATOM     40  C   UNL     1       1.329  -2.616 -17.231  1.00  0.00     0.031 C 
ATOM     41  C   UNL     1       4.496   1.147 -16.189  1.00  0.00     0.029 A 
ATOM     42  N   UNL     1       5.108  -0.286 -17.791  1.00  0.00    -0.354 N 
ATOM     43  C   UNL     1       2.627  -3.704 -18.771  1.00  0.00     0.074 A 
ATOM     44  C   UNL     1       1.422  -3.713 -17.967  1.00  0.00     0.031 C 
ATOM     45  C   UNL     1       5.696   1.542 -16.645  1.00  0.00     0.029 A 
ATOM     46  C   UNL     1       6.148   0.608 -17.670  1.00  0.00     0.049 A 
ATOM     47  H   UNL     1       5.109  -1.027 -18.439  1.00  0.00     0.167 HD
ATOM     48  C   UNL     1       2.931  -4.634 -19.710  1.00  0.00     0.034 A 
ATOM     49  C   UNL     1       7.339   0.657 -18.300  1.00  0.00     0.034 A 
ATOM     50  C   UNL     1       4.125  -4.596 -20.516  1.00  0.00     0.049 A 
ATOM     51  C   UNL     1       7.660  -0.394 -19.332  1.00  0.00     0.074 A 
ATOM     52  C   UNL     1       4.496  -5.441 -21.549  1.00  0.00     0.029 A 
ATOM     53  N   UNL     1       5.150  -3.669 -20.376  1.00  0.00    -0.354 N 
ATOM     54  N   UNL     1       6.938  -1.421 -19.714  1.00  0.00    -0.248 NA
ATOM     55  C   UNL     1       8.952  -0.275 -20.020  1.00  0.00     0.031 C 
ATOM     56  C   UNL     1       5.769  -5.062 -21.989  1.00  0.00     0.029 A 
ATOM     57  C   UNL     1       6.166  -3.940 -21.279  1.00  0.00     0.049 A 
ATOM     58  H   UNL     1       5.154  -2.927 -19.729  1.00  0.00     0.167 HD
ATOM     59  C   UNL     1       7.679  -2.057 -20.706  1.00  0.00     0.074 A 
ATOM     60  C   UNL     1       8.896  -1.289 -20.871  1.00  0.00     0.031 C 
ATOM     61  C   UNL     1       7.380  -3.172 -21.419  1.00  0.00     0.034 A 
BRANCH  48  62
ATOM     62  C   UNL     1       1.963  -5.778 -19.891  1.00  0.00     0.023 A 
ATOM     63  C   UNL     1       0.644  -5.567 -20.329  1.00  0.00     0.031 A 
ATOM     64  C   UNL     1       2.354  -7.095 -19.592  1.00  0.00     0.131 A 
ATOM     65  C   UNL     1      -0.258  -6.639 -20.379  1.00  0.00     0.055 A 
ATOM     66  C   UNL     1       1.474  -8.171 -19.723  1.00  0.00     0.041 A 
ATOM     67  F   UNL     1       3.594  -7.357 -19.151  1.00  0.00    -0.206 F 
ATOM     68  C   UNL     1       0.154  -7.945 -20.103  1.00  0.00     0.022 A 
BRANCH  65  69
ATOM     69  S   UNL     1      -2.012  -6.281 -20.672  1.00  0.00     0.124 S 
ATOM     70  O   UNL     1      -2.323  -5.400 -19.549  1.00  0.00    -0.237 OA
ATOM     71  O   UNL     1      -1.990  -5.655 -21.989  1.00  0.00    -0.237 OA
ATOM     72  O   UNL     1      -2.644  -7.597 -20.616  1.00  0.00    -0.744 OA
ENDBRANCH  65  69
ENDBRANCH  48  62
BRANCH  49  73
ATOM     73  C   UNL     1       8.327   1.722 -17.966  1.00  0.00     0.023 A 
ATOM     74  C   UNL     1       8.688   2.696 -18.911  1.00  0.00     0.031 A 
ATOM     75  C   UNL     1       8.955   1.758 -16.708  1.00  0.00     0.131 A 
ATOM     76  C   UNL     1       9.681   3.638 -18.600  1.00  0.00     0.055 A 
ATOM     77  C   UNL     1       9.907   2.727 -16.387  1.00  0.00     0.041 A 
ATOM     78  F   UNL     1       8.640   0.855 -15.766  1.00  0.00    -0.206 F 
ATOM     79  C   UNL     1      10.284   3.667 -17.341  1.00  0.00     0.022 A 
BRANCH  76  80
ATOM     80  S   UNL     1      10.227   4.782 -19.897  1.00  0.00     0.124 S 
ATOM     81  O   UNL     1      10.677   3.862 -20.935  1.00  0.00    -0.237 OA
ATOM     82  O   UNL     1       9.003   5.524 -20.181  1.00  0.00    -0.237 OA
ATOM     83  O   UNL     1      11.284   5.554 -19.245  1.00  0.00    -0.744 OA
ENDBRANCH  76  80
ENDBRANCH  49  73
BRANCH  61  84
ATOM     84  C   UNL     1       8.376  -3.599 -22.468  1.00  0.00     0.023 A 
ATOM     85  C   UNL     1       9.639  -4.107 -22.120  1.00  0.00     0.031 A 
ATOM     86  C   UNL     1       8.055  -3.491 -23.832  1.00  0.00     0.131 A 
ATOM     87  C   UNL     1      10.555  -4.446 -23.128  1.00  0.00     0.055 A 
ATOM     88  C   UNL     1       8.950  -3.880 -24.829  1.00  0.00     0.041 A 
ATOM     89  F   UNL     1       6.862  -3.010 -24.217  1.00  0.00    -0.206 F 
ATOM     90  C   UNL     1      10.212  -4.351 -24.479  1.00  0.00     0.022 A 
BRANCH  87  91
ATOM     91  S   UNL     1      12.232  -4.946 -22.649  1.00  0.00     0.124 S 
ATOM     92  O   UNL     1      12.712  -3.760 -21.947  1.00  0.00    -0.237 OA
ATOM     93  O   UNL     1      11.984  -6.121 -21.821  1.00  0.00    -0.237 OA
ATOM     94  O   UNL     1      12.887  -5.217 -23.928  1.00  0.00    -0.744 OA
ENDBRANCH  87  91
ENDBRANCH  61  84
ENDBRANCH  35  36
ENDBRANCH  27  30
ENDBRANCH  25  26
ENDBRANCH  24  25
ENDBRANCH  23  24
ENDBRANCH   1  23
TORSDOF 20
