REMARK SMILES CC[C@@H]1SC[C@@H](C(=O)NCCCCNC(=O)c2ccc(-c3c4nc(c(-c5cc(S(=O)(=O)[O-])ccc5F)c5ccc([nH]5)c(-c5cc(S(=O)(=O)[O-])ccc5F)c5nc(c(-c6cc(S(=O)(=O)[O-])ccc6F)c6ccc3[nH]6)C=C5)C=C4)cc2)N1C(=O)NC1C(C)(C)C1(C)C
REMARK SMILES IDX 12 1 11 2 10 3 9 4 7 5 8 6 6 8 3 9 4 10 80 11 5 12 2 13 1 14
REMARK SMILES IDX 81 15 82 16 83 17 84 19 85 20 88 21 86 22 87 23 89 24 90 25
REMARK SMILES IDX 13 26 14 27 15 28 16 30 17 31 18 32 79 33 19 34 78 35 20 36
REMARK SMILES IDX 21 37 22 38 72 39 23 40 77 41 71 42 73 43 24 44 76 45 70 46
REMARK SMILES IDX 69 47 25 49 57 50 37 51 56 52 38 53 41 54 55 55 74 56 39 57
REMARK SMILES IDX 40 58 54 60 75 61 42 62 26 63 27 64 35 65 28 66 34 67 36 68
REMARK SMILES IDX 33 69 29 70 30 71 31 72 32 73 58 74 59 75 67 76 60 77 66 78
REMARK SMILES IDX 68 79 65 80 61 81 62 82 63 83 64 84 43 85 44 86 52 87 45 88
REMARK SMILES IDX 51 89 53 90 50 91 46 92 47 93 48 94 49 95
REMARK H PARENT 9 7 83 18 14 29 73 48 41 59
REMARK Flexibility Score: inf
ROOT
ATOM      1  C   UNL     1      -0.692   3.698   1.196  1.00  0.00     0.023 C 
ENDROOT
BRANCH   1   2
ATOM      2  C   UNL     1      -0.609   2.816  -0.044  1.00  0.00     0.023 C 
BRANCH   2   3
ATOM      3  C   UNL     1      -1.843   2.813  -0.941  1.00  0.00     0.116 C 
BRANCH   3   4
ATOM      4  N   UNL     1      -1.667   3.643  -2.114  1.00  0.00    -0.354 N 
ATOM      5  C   UNL     1      -1.122   3.421  -3.342  1.00  0.00     0.243 C 
ATOM      6  O   UNL     1      -1.379   4.291  -4.187  1.00  0.00    -0.273 OA
ATOM      7  H   UNL     1      -2.013   4.558  -2.001  1.00  0.00     0.163 HD
BRANCH   5   8
ATOM      8  C   UNL     1      -0.397   2.118  -3.789  1.00  0.00     0.187 C 
ATOM      9  C   UNL     1       0.397   0.468  -2.218  1.00  0.00     0.145 C 
ATOM     10  S   UNL     1      -0.631  -0.518  -3.341  1.00  0.00    -0.134 SA
ATOM     11  N   UNL     1       0.787   1.616  -3.020  1.00  0.00    -0.300 N 
ATOM     12  C   UNL     1      -1.400   0.976  -4.027  1.00  0.00     0.107 C 
BRANCH   9  13
ATOM     13  C   UNL     1       1.272  -0.350  -1.294  1.00  0.00     0.033 C 
ATOM     14  C   UNL     1       1.853   0.414  -0.109  1.00  0.00     0.007 C 
ENDBRANCH   9  13
BRANCH  11  15
ATOM     15  C   UNL     1       1.964   2.172  -3.425  1.00  0.00     0.319 C 
ATOM     16  O   UNL     1       1.955   3.251  -4.038  1.00  0.00    -0.249 OA
ATOM     17  N   UNL     1       3.201   1.659  -3.302  1.00  0.00    -0.334 N 
ATOM     18  H   UNL     1       3.860   2.227  -3.763  1.00  0.00     0.165 HD
BRANCH  17  19
ATOM     19  C   UNL     1       3.837   0.541  -2.702  1.00  0.00     0.096 C 
ATOM     20  C   UNL     1       4.027  -0.826  -3.341  1.00  0.00    -0.007 C 
ATOM     21  C   UNL     1       5.234   0.099  -3.160  1.00  0.00    -0.007 C 
ATOM     22  C   UNL     1       4.006  -2.084  -2.489  1.00  0.00     0.014 C 
ATOM     23  C   UNL     1       3.396  -1.049  -4.697  1.00  0.00     0.014 C 
ATOM     24  C   UNL     1       5.907   0.605  -4.412  1.00  0.00     0.014 C 
ATOM     25  C   UNL     1       6.232  -0.178  -2.045  1.00  0.00     0.014 C 
ENDBRANCH  17  19
ENDBRANCH  11  15
ENDBRANCH   5   8
ENDBRANCH   3   4
ENDBRANCH   2   3
ENDBRANCH   1   2
BRANCH   1  26
ATOM     26  C   UNL     1      -1.632   3.157   2.267  1.00  0.00     0.116 C 
BRANCH  26  27
ATOM     27  N   UNL     1      -1.242   1.857   2.803  1.00  0.00    -0.352 N 
ATOM     28  C   UNL     1      -1.529   1.325   4.043  1.00  0.00     0.251 C 
ATOM     29  H   UNL     1      -0.706   1.288   2.204  1.00  0.00     0.163 HD
ATOM     30  O   UNL     1      -1.069   0.242   4.372  1.00  0.00    -0.269 OA
BRANCH  28  31
ATOM     31  C   UNL     1      -2.343   2.126   4.984  1.00  0.00     0.039 A 
ATOM     32  C   UNL     1      -1.855   2.346   6.272  1.00  0.00     0.014 A 
ATOM     33  C   UNL     1      -3.521   2.742   4.556  1.00  0.00     0.014 A 
ATOM     34  C   UNL     1      -2.503   3.263   7.100  1.00  0.00     0.010 A 
ATOM     35  C   UNL     1      -4.106   3.726   5.344  1.00  0.00     0.010 A 
ATOM     36  C   UNL     1      -3.600   4.001   6.622  1.00  0.00    -0.014 A 
BRANCH  36  37
ATOM     37  C   UNL     1      -4.209   5.076   7.447  1.00  0.00     0.031 A 
ATOM     38  C   UNL     1      -5.643   4.973   7.890  1.00  0.00     0.074 A 
ATOM     39  C   UNL     1      -3.477   6.166   7.754  1.00  0.00     0.049 A 
ATOM     40  N   UNL     1      -6.342   5.799   8.624  1.00  0.00    -0.248 NA
ATOM     41  C   UNL     1      -6.400   3.806   7.413  1.00  0.00     0.031 C 
ATOM     42  C   UNL     1      -2.102   6.414   7.309  1.00  0.00     0.029 A 
ATOM     43  N   UNL     1      -3.778   7.265   8.516  1.00  0.00    -0.354 N 
ATOM     44  C   UNL     1      -7.620   5.255   8.695  1.00  0.00     0.074 A 
ATOM     45  C   UNL     1      -7.617   4.073   7.860  1.00  0.00     0.031 C 
ATOM     46  C   UNL     1      -1.665   7.564   7.846  1.00  0.00     0.029 A 
ATOM     47  C   UNL     1      -2.734   8.153   8.645  1.00  0.00     0.049 A 
ATOM     48  H   UNL     1      -4.659   7.407   8.932  1.00  0.00     0.167 HD
ATOM     49  C   UNL     1      -8.686   5.681   9.417  1.00  0.00     0.034 A 
ATOM     50  C   UNL     1      -2.647   9.305   9.338  1.00  0.00     0.034 A 
ATOM     51  C   UNL     1      -8.664   6.858  10.251  1.00  0.00     0.049 A 
ATOM     52  C   UNL     1      -3.837   9.748  10.150  1.00  0.00     0.074 A 
ATOM     53  C   UNL     1      -9.663   7.358  11.067  1.00  0.00     0.029 A 
ATOM     54  N   UNL     1      -7.585   7.727  10.370  1.00  0.00    -0.354 N 
ATOM     55  N   UNL     1      -5.016   9.179  10.269  1.00  0.00    -0.248 NA
ATOM     56  C   UNL     1      -3.675  10.974  10.937  1.00  0.00     0.031 C 
ATOM     57  C   UNL     1      -9.213   8.559  11.629  1.00  0.00     0.029 A 
ATOM     58  C   UNL     1      -7.904   8.771  11.226  1.00  0.00     0.049 A 
ATOM     59  H   UNL     1      -6.720   7.617   9.914  1.00  0.00     0.167 HD
ATOM     60  C   UNL     1      -5.728   9.970  11.165  1.00  0.00     0.074 A 
ATOM     61  C   UNL     1      -4.832  11.032  11.579  1.00  0.00     0.031 C 
ATOM     62  C   UNL     1      -7.006   9.837  11.606  1.00  0.00     0.034 A 
BRANCH  49  63
ATOM     63  C   UNL     1      -9.958   4.871   9.315  1.00  0.00     0.023 A 
ATOM     64  C   UNL     1     -10.008   3.523   9.717  1.00  0.00     0.031 A 
ATOM     65  C   UNL     1     -11.125   5.436   8.772  1.00  0.00     0.131 A 
ATOM     66  C   UNL     1     -11.167   2.766   9.493  1.00  0.00     0.055 A 
ATOM     67  C   UNL     1     -12.304   4.700   8.633  1.00  0.00     0.041 A 
ATOM     68  F   UNL     1     -11.135   6.710   8.349  1.00  0.00    -0.206 F 
ATOM     69  C   UNL     1     -12.325   3.352   8.978  1.00  0.00     0.022 A 
BRANCH  66  70
ATOM     70  S   UNL     1     -11.090   0.970   9.741  1.00  0.00     0.124 S 
ATOM     71  O   UNL     1     -10.034   0.590   8.805  1.00  0.00    -0.237 OA
ATOM     72  O   UNL     1     -10.758   0.861  11.157  1.00  0.00    -0.237 OA
ATOM     73  O   UNL     1     -12.430   0.515   9.376  1.00  0.00    -0.744 OA
ENDBRANCH  66  70
ENDBRANCH  49  63
BRANCH  50  74
ATOM     74  C   UNL     1      -1.391  10.110   9.320  1.00  0.00     0.023 A 
ATOM     75  C   UNL     1      -0.633  10.297  10.487  1.00  0.00     0.031 A 
ATOM     76  C   UNL     1      -0.953  10.741   8.143  1.00  0.00     0.131 A 
ATOM     77  C   UNL     1       0.493  11.135  10.466  1.00  0.00     0.055 A 
ATOM     78  C   UNL     1       0.198  11.531   8.114  1.00  0.00     0.041 A 
ATOM     79  F   UNL     1      -1.634  10.588   6.996  1.00  0.00    -0.206 F 
ATOM     80  C   UNL     1       0.920  11.743   9.284  1.00  0.00     0.022 A 
BRANCH  77  81
ATOM     81  S   UNL     1       1.346  11.485  12.028  1.00  0.00     0.124 S 
ATOM     82  O   UNL     1       0.271  12.052  12.834  1.00  0.00    -0.237 OA
ATOM     83  O   UNL     1       1.812  10.159  12.421  1.00  0.00    -0.237 OA
ATOM     84  O   UNL     1       2.397  12.422  11.639  1.00  0.00    -0.744 OA
ENDBRANCH  77  81
ENDBRANCH  50  74
BRANCH  62  85
ATOM     85  C   UNL     1      -7.485  10.863  12.606  1.00  0.00     0.023 A 
ATOM     86  C   UNL     1      -7.591  12.224  12.268  1.00  0.00     0.031 A 
ATOM     87  C   UNL     1      -7.784  10.485  13.926  1.00  0.00     0.131 A 
ATOM     88  C   UNL     1      -7.900  13.168  13.259  1.00  0.00     0.055 A 
ATOM     89  C   UNL     1      -8.165  11.420  14.890  1.00  0.00     0.041 A 
ATOM     90  F   UNL     1      -7.700   9.200  14.306  1.00  0.00    -0.206 F 
ATOM     91  C   UNL     1      -8.204  12.773  14.563  1.00  0.00     0.022 A 
BRANCH  88  92
ATOM     92  S   UNL     1      -7.760  14.930  12.850  1.00  0.00     0.124 S 
ATOM     93  O   UNL     1      -6.387  15.019  12.361  1.00  0.00    -0.237 OA
ATOM     94  O   UNL     1      -8.806  15.101  11.847  1.00  0.00    -0.237 OA
ATOM     95  O   UNL     1      -8.008  15.598  14.126  1.00  0.00    -0.744 OA
ENDBRANCH  88  92
ENDBRANCH  62  85
ENDBRANCH  36  37
ENDBRANCH  28  31
ENDBRANCH  26  27
ENDBRANCH   1  26
TORSDOF 17
