REMARK SMILES O=C(NCCCCNC(=O)c1ccc(OC[C@H]2C[C@H]3CC[C@@H]2C3)c(Cl)c1)c1ccc(-c2c3nc(c(-c4cc(S(=O)(=O)[O-])ccc4F)c4ccc([nH]4)c(-c4cc(S(=O)(=O)[O-])ccc4F)c4nc(c(-c5cc(S(=O)(=O)[O-])ccc5F)c5ccc2[nH]5)C=C4)C=C3)cc1
REMARK SMILES IDX 5 1 4 2 3 3 1 4 2 5 27 7 28 8 89 9 29 10 88 11 30 12 31 13
REMARK SMILES IDX 32 14 82 15 33 16 87 17 81 18 83 19 34 20 86 21 80 22 79 23
REMARK SMILES IDX 35 25 67 26 47 27 66 28 48 29 51 30 65 31 84 32 49 33 50 34
REMARK SMILES IDX 64 36 85 37 52 38 36 39 37 40 45 41 38 42 44 43 46 44 43 45
REMARK SMILES IDX 39 46 40 47 41 48 42 49 68 50 69 51 77 52 70 53 76 54 78 55
REMARK SMILES IDX 75 56 71 57 72 58 73 59 74 60 53 61 54 62 62 63 55 64 61 65
REMARK SMILES IDX 63 66 60 67 56 68 57 69 58 70 59 71 6 72 7 73 8 74 9 75
REMARK SMILES IDX 10 77 11 78 12 79 26 80 13 81 24 82 14 83 25 84 15 85 16 86
REMARK SMILES IDX 17 87 18 88 22 89 19 90 21 91 23 92 20 93
REMARK H PARENT 3 6 83 24 51 35 8 76
REMARK Flexibility Score: inf
ROOT
ATOM      1  C   UNL     1       0.915  15.371  12.477  1.00  0.00     0.023 C 
ENDROOT
BRANCH   1   2
ATOM      2  C   UNL     1      -0.511  15.188  12.983  1.00  0.00     0.116 C 
BRANCH   2   3
ATOM      3  N   UNL     1      -0.619  14.182  14.028  1.00  0.00    -0.352 N 
ATOM      4  O   UNL     1      -1.279  13.335  16.011  1.00  0.00    -0.269 OA
ATOM      5  C   UNL     1      -1.392  14.216  15.164  1.00  0.00     0.251 C 
ATOM      6  H   UNL     1      -0.069  13.375  13.906  1.00  0.00     0.163 HD
BRANCH   5   7
ATOM      7  C   UNL     1      -2.338  15.334  15.367  1.00  0.00     0.039 A 
ATOM      8  C   UNL     1      -3.204  15.728  14.343  1.00  0.00     0.014 A 
ATOM      9  C   UNL     1      -2.357  15.992  16.600  1.00  0.00     0.014 A 
ATOM     10  C   UNL     1      -4.016  16.844  14.516  1.00  0.00     0.010 A 
ATOM     11  C   UNL     1      -3.221  17.073  16.794  1.00  0.00     0.010 A 
ATOM     12  C   UNL     1      -4.046  17.515  15.749  1.00  0.00    -0.014 A 
BRANCH  12  13
ATOM     13  C   UNL     1      -5.023  18.613  15.956  1.00  0.00     0.031 A 
ATOM     14  C   UNL     1      -4.571  20.034  16.137  1.00  0.00     0.074 A 
ATOM     15  C   UNL     1      -6.334  18.301  15.976  1.00  0.00     0.049 A 
ATOM     16  N   UNL     1      -5.294  21.105  16.337  1.00  0.00    -0.248 NA
ATOM     17  C   UNL     1      -3.123  20.286  16.096  1.00  0.00     0.031 C 
ATOM     18  C   UNL     1      -6.877  16.947  15.826  1.00  0.00     0.029 A 
ATOM     19  N   UNL     1      -7.445  19.087  16.128  1.00  0.00    -0.354 N 
ATOM     20  C   UNL     1      -4.394  22.157  16.464  1.00  0.00     0.074 A 
ATOM     21  C   UNL     1      -3.068  21.591  16.333  1.00  0.00     0.031 C 
ATOM     22  C   UNL     1      -8.215  17.002  15.870  1.00  0.00     0.029 A 
ATOM     23  C   UNL     1      -8.625  18.380  16.113  1.00  0.00     0.049 A 
ATOM     24  H   UNL     1      -7.404  20.065  16.237  1.00  0.00     0.167 HD
ATOM     25  C   UNL     1      -4.658  23.471  16.669  1.00  0.00     0.034 A 
ATOM     26  C   UNL     1      -9.894  18.788  16.304  1.00  0.00     0.034 A 
ATOM     27  C   UNL     1      -5.990  24.017  16.781  1.00  0.00     0.049 A 
ATOM     28  C   UNL     1     -10.149  20.247  16.560  1.00  0.00     0.074 A 
ATOM     29  C   UNL     1      -6.369  25.343  16.904  1.00  0.00     0.029 A 
ATOM     30  N   UNL     1      -7.159  23.268  16.802  1.00  0.00    -0.354 N 
ATOM     31  N   UNL     1      -9.287  21.235  16.623  1.00  0.00    -0.248 NA
ATOM     32  C   UNL     1     -11.545  20.646  16.772  1.00  0.00     0.031 C 
ATOM     33  C   UNL     1      -7.759  25.390  17.064  1.00  0.00     0.029 A 
ATOM     34  C   UNL     1      -8.255  24.099  16.980  1.00  0.00     0.049 A 
ATOM     35  H   UNL     1      -7.203  22.290  16.704  1.00  0.00     0.167 HD
ATOM     36  C   UNL     1     -10.040  22.376  16.878  1.00  0.00     0.074 A 
ATOM     37  C   UNL     1     -11.426  21.956  16.927  1.00  0.00     0.031 C 
ATOM     38  C   UNL     1      -9.625  23.655  17.060  1.00  0.00     0.034 A 
BRANCH  25  39
ATOM     39  C   UNL     1      -3.489  24.409  16.831  1.00  0.00     0.023 A 
ATOM     40  C   UNL     1      -2.643  24.738  15.759  1.00  0.00     0.031 A 
ATOM     41  C   UNL     1      -3.239  25.006  18.080  1.00  0.00     0.131 A 
ATOM     42  C   UNL     1      -1.563  25.612  15.965  1.00  0.00     0.055 A 
ATOM     43  C   UNL     1      -2.197  25.916  18.265  1.00  0.00     0.041 A 
ATOM     44  F   UNL     1      -4.006  24.713  19.142  1.00  0.00    -0.206 F 
ATOM     45  C   UNL     1      -1.348  26.220  17.206  1.00  0.00     0.022 A 
BRANCH  42  46
ATOM     46  S   UNL     1      -0.394  25.890  14.607  1.00  0.00     0.124 S 
ATOM     47  O   UNL     1       0.143  24.547  14.399  1.00  0.00    -0.237 OA
ATOM     48  O   UNL     1      -1.254  26.404  13.548  1.00  0.00    -0.237 OA
ATOM     49  O   UNL     1       0.555  26.854  15.162  1.00  0.00    -0.744 OA
ENDBRANCH  42  46
ENDBRANCH  25  39
BRANCH  26  50
ATOM     50  C   UNL     1     -11.007  17.799  16.320  1.00  0.00     0.023 A 
ATOM     51  C   UNL     1     -12.024  17.833  15.355  1.00  0.00     0.031 A 
ATOM     52  C   UNL     1     -11.085  16.822  17.330  1.00  0.00     0.131 A 
ATOM     53  C   UNL     1     -13.098  16.934  15.441  1.00  0.00     0.055 A 
ATOM     54  C   UNL     1     -12.128  15.897  17.382  1.00  0.00     0.041 A 
ATOM     55  F   UNL     1     -10.135  16.745  18.275  1.00  0.00    -0.206 F 
ATOM     56  C   UNL     1     -13.150  15.959  16.441  1.00  0.00     0.022 A 
BRANCH  53  57
ATOM     57  S   UNL     1     -14.477  17.116  14.279  1.00  0.00     0.124 S 
ATOM     58  O   UNL     1     -14.841  18.517  14.460  1.00  0.00    -0.237 OA
ATOM     59  O   UNL     1     -13.846  16.776  13.008  1.00  0.00    -0.237 OA
ATOM     60  O   UNL     1     -15.460  16.148  14.764  1.00  0.00    -0.744 OA
ENDBRANCH  53  57
ENDBRANCH  26  50
BRANCH  38  61
ATOM     61  C   UNL     1     -10.701  24.676  17.319  1.00  0.00     0.023 A 
ATOM     62  C   UNL     1     -11.424  24.680  18.524  1.00  0.00     0.031 A 
ATOM     63  C   UNL     1     -11.033  25.625  16.338  1.00  0.00     0.131 A 
ATOM     64  C   UNL     1     -12.485  25.581  18.696  1.00  0.00     0.055 A 
ATOM     65  C   UNL     1     -12.054  26.555  16.537  1.00  0.00     0.041 A 
ATOM     66  F   UNL     1     -10.374  25.660  15.169  1.00  0.00    -0.206 F 
ATOM     67  C   UNL     1     -12.795  26.528  17.716  1.00  0.00     0.022 A 
BRANCH  64  68
ATOM     68  S   UNL     1     -13.509  25.444  20.187  1.00  0.00     0.124 S 
ATOM     69  O   UNL     1     -14.054  24.096  20.056  1.00  0.00    -0.237 OA
ATOM     70  O   UNL     1     -12.534  25.637  21.256  1.00  0.00    -0.237 OA
ATOM     71  O   UNL     1     -14.482  26.524  20.035  1.00  0.00    -0.744 OA
ENDBRANCH  64  68
ENDBRANCH  38  61
ENDBRANCH  12  13
ENDBRANCH   5   7
ENDBRANCH   2   3
ENDBRANCH   1   2
BRANCH   1  72
ATOM     72  C   UNL     1       1.570  14.116  11.897  1.00  0.00     0.023 C 
BRANCH  72  73
ATOM     73  C   UNL     1       0.745  13.401  10.830  1.00  0.00     0.116 C 
BRANCH  73  74
ATOM     74  N   UNL     1       0.540  14.225   9.649  1.00  0.00    -0.352 N 
ATOM     75  C   UNL     1       1.077  14.054   8.399  1.00  0.00     0.251 C 
ATOM     76  H   UNL     1      -0.057  15.000   9.760  1.00  0.00     0.163 HD
ATOM     77  O   UNL     1       0.782  14.772   7.452  1.00  0.00    -0.269 OA
BRANCH  75  78
ATOM     78  C   UNL     1       2.020  12.945   8.207  1.00  0.00     0.041 A 
ATOM     79  C   UNL     1       1.546  11.739   7.695  1.00  0.00     0.018 A 
ATOM     80  C   UNL     1       3.332  13.073   8.667  1.00  0.00     0.038 A 
ATOM     81  C   UNL     1       2.403  10.644   7.651  1.00  0.00     0.049 A 
ATOM     82  C   UNL     1       4.175  11.960   8.655  1.00  0.00     0.083 A 
ATOM     83  C   UNL     1       3.725  10.748   8.110  1.00  0.00     0.137 A 
ATOM     84  Cl  UNL     1       5.692  12.137   9.461  1.00  0.00    -0.080 Cl
BRANCH  83  85
ATOM     85  O   UNL     1       4.403   9.564   8.086  1.00  0.00    -0.492 OA
BRANCH  85  86
ATOM     86  C   UNL     1       5.684   9.524   7.449  1.00  0.00     0.233 C 
BRANCH  86  87
ATOM     87  C   UNL     1       5.687   9.934   5.969  1.00  0.00     0.030 C 
ATOM     88  C   UNL     1       6.036  11.424   5.726  1.00  0.00     0.011 C 
ATOM     89  C   UNL     1       6.775   9.213   5.126  1.00  0.00    -0.004 C 
ATOM     90  C   UNL     1       7.263  11.356   4.801  1.00  0.00    -0.010 C 
ATOM     91  C   UNL     1       8.165   9.348   5.772  1.00  0.00     0.004 C 
ATOM     92  C   UNL     1       6.921  10.153   3.927  1.00  0.00     0.007 C 
ATOM     93  C   UNL     1       8.468  10.843   5.613  1.00  0.00     0.004 C 
ENDBRANCH  86  87
ENDBRANCH  85  86
ENDBRANCH  83  85
ENDBRANCH  75  78
ENDBRANCH  73  74
ENDBRANCH  72  73
ENDBRANCH   1  72
TORSDOF 17
