REMARK SMILES CC[C@H](Oc1ccccc1/C=C1\SC(N)=[NH+]C1=O)C(=O)NCCCCNC(=O)c1ccc(-c2c3nc(c(-c4cc(S(=O)(=O)[O-])ccc4F)c4ccc([nH]4)c(-c4cc(S(=O)(=O)[O-])ccc4F)c4nc(c(-c5cc(S(=O)(=O)[O-])ccc5F)c5ccc2[nH]5)C=C4)C=C3)cc1
REMARK SMILES IDX 23 1 22 2 21 3 19 4 20 5 3 7 2 8 1 9 4 10 5 11 6 12 10 13
REMARK SMILES IDX 7 14 9 15 8 16 11 17 12 18 13 19 17 20 14 21 16 22 18 23
REMARK SMILES IDX 15 24 24 28 25 29 26 30 27 31 28 33 29 34 30 35 91 36 31 37
REMARK SMILES IDX 90 38 32 39 33 40 34 41 84 42 35 43 89 44 83 45 85 46 36 47
REMARK SMILES IDX 88 48 82 49 81 50 37 52 69 53 49 54 68 55 50 56 53 57 67 58
REMARK SMILES IDX 86 59 51 60 52 61 66 63 87 64 54 65 38 66 39 67 47 68 40 69
REMARK SMILES IDX 46 70 48 71 45 72 41 73 42 74 43 75 44 76 70 77 71 78 79 79
REMARK SMILES IDX 72 80 78 81 80 82 77 83 73 84 74 85 75 86 76 87 55 88 56 89
REMARK SMILES IDX 64 90 57 91 63 92 65 93 62 94 58 95 59 96 60 97 61 98
REMARK H PARENT 21 6 16 25 15 26 15 27 26 32 85 51 53 62
REMARK Flexibility Score: inf
ROOT
ATOM      1  C   UNL     1      -3.086   2.601  -0.684  1.00  0.00     0.023 C 
ENDROOT
BRANCH   1   2
ATOM      2  C   UNL     1      -2.069   2.107  -1.711  1.00  0.00     0.116 C 
BRANCH   2   3
ATOM      3  N   UNL     1      -0.992   3.035  -1.964  1.00  0.00    -0.353 N 
ATOM      4  C   UNL     1       0.353   2.847  -2.013  1.00  0.00     0.261 C 
ATOM      5  O   UNL     1       1.034   3.852  -2.260  1.00  0.00    -0.271 OA
ATOM      6  H   UNL     1      -1.281   3.962  -2.131  1.00  0.00     0.163 HD
BRANCH   4   7
ATOM      7  C   UNL     1       1.042   1.464  -1.847  1.00  0.00     0.261 C 
BRANCH   7   8
ATOM      8  C   UNL     1       1.036   0.661  -3.176  1.00  0.00     0.052 C 
ATOM      9  C   UNL     1      -0.260   0.054  -3.707  1.00  0.00     0.008 C 
ENDBRANCH   7   8
BRANCH   7  10
ATOM     10  O   UNL     1       1.090   0.830  -0.557  1.00  0.00    -0.480 OA
BRANCH  10  11
ATOM     11  C   UNL     1       0.175  -0.096  -0.167  1.00  0.00     0.127 A 
ATOM     12  C   UNL     1      -0.020  -1.261  -0.918  1.00  0.00     0.047 A 
ATOM     13  C   UNL     1      -0.483   0.021   1.070  1.00  0.00     0.018 A 
ATOM     14  C   UNL     1      -1.010  -2.188  -0.592  1.00  0.00     0.004 A 
ATOM     15  C   UNL     1      -1.494  -0.919   1.380  1.00  0.00     0.012 A 
ATOM     16  C   UNL     1      -1.781  -1.994   0.541  1.00  0.00     0.001 A 
BRANCH  13  17
ATOM     17  C   UNL     1      -0.151   0.913   2.205  1.00  0.00     0.036 C 
ATOM     18  C   UNL     1      -0.031   2.239   2.343  1.00  0.00     0.110 C 
ATOM     19  S   UNL     1      -0.142   3.491   1.197  1.00  0.00     0.006 SA
ATOM     20  C   UNL     1       0.011   2.857   3.713  1.00  0.00     0.346 C 
ATOM     21  C   UNL     1      -0.515   4.612   2.470  1.00  0.00     0.314 C 
ATOM     22  N   UNL     1      -0.375   4.184   3.675  1.00  0.00    -0.200 N 
ATOM     23  O   UNL     1       0.282   2.234   4.726  1.00  0.00    -0.240 OA
ATOM     24  N   UNL     1      -0.959   5.830   2.103  1.00  0.00    -0.281 N 
ATOM     25  H   UNL     1      -0.524   4.736   4.476  1.00  0.00     0.316 HD
ATOM     26  H   UNL     1      -1.030   6.061   1.149  1.00  0.00     0.302 HD
ATOM     27  H   UNL     1      -1.212   6.489   2.790  1.00  0.00     0.302 HD
ENDBRANCH  13  17
ENDBRANCH  10  11
ENDBRANCH   7  10
ENDBRANCH   4   7
ENDBRANCH   2   3
ENDBRANCH   1   2
BRANCH   1  28
ATOM     28  C   UNL     1      -3.777   3.916  -1.036  1.00  0.00     0.023 C 
BRANCH  28  29
ATOM     29  C   UNL     1      -4.520   3.890  -2.366  1.00  0.00     0.116 C 
BRANCH  29  30
ATOM     30  N   UNL     1      -5.524   2.836  -2.406  1.00  0.00    -0.352 N 
ATOM     31  C   UNL     1      -6.892   2.931  -2.477  1.00  0.00     0.251 C 
ATOM     32  H   UNL     1      -5.169   1.918  -2.379  1.00  0.00     0.163 HD
ATOM     33  O   UNL     1      -7.582   1.941  -2.255  1.00  0.00    -0.269 OA
BRANCH  31  34
ATOM     34  C   UNL     1      -7.519   4.229  -2.799  1.00  0.00     0.039 A 
ATOM     35  C   UNL     1      -8.625   4.655  -2.059  1.00  0.00     0.014 A 
ATOM     36  C   UNL     1      -7.007   5.028  -3.824  1.00  0.00     0.014 A 
ATOM     37  C   UNL     1      -9.167   5.920  -2.298  1.00  0.00     0.010 A 
ATOM     38  C   UNL     1      -7.494   6.318  -4.003  1.00  0.00     0.010 A 
ATOM     39  C   UNL     1      -8.578   6.779  -3.240  1.00  0.00    -0.014 A 
BRANCH  39  40
ATOM     40  C   UNL     1      -9.069   8.167  -3.439  1.00  0.00     0.031 A 
ATOM     41  C   UNL     1      -9.624   8.583  -4.775  1.00  0.00     0.074 A 
ATOM     42  C   UNL     1      -8.940   9.067  -2.444  1.00  0.00     0.049 A 
ATOM     43  N   UNL     1     -10.005   9.767  -5.179  1.00  0.00    -0.248 NA
ATOM     44  C   UNL     1      -9.731   7.535  -5.802  1.00  0.00     0.031 C 
ATOM     45  C   UNL     1      -8.372   8.790  -1.121  1.00  0.00     0.029 A 
ATOM     46  N   UNL     1      -9.261  10.400  -2.390  1.00  0.00    -0.354 N 
ATOM     47  C   UNL     1     -10.379   9.611  -6.510  1.00  0.00     0.074 A 
ATOM     48  C   UNL     1     -10.125   8.230  -6.858  1.00  0.00     0.031 C 
ATOM     49  C   UNL     1      -8.407   9.910  -0.383  1.00  0.00     0.029 A 
ATOM     50  C   UNL     1      -8.951  10.997  -1.189  1.00  0.00     0.049 A 
ATOM     51  H   UNL     1      -9.675  10.884  -3.140  1.00  0.00     0.167 HD
ATOM     52  C   UNL     1     -10.906  10.531  -7.355  1.00  0.00     0.034 A 
ATOM     53  C   UNL     1      -9.076  12.278  -0.790  1.00  0.00     0.034 A 
ATOM     54  C   UNL     1     -11.175  11.898  -6.982  1.00  0.00     0.049 A 
ATOM     55  C   UNL     1      -9.659  13.283  -1.752  1.00  0.00     0.074 A 
ATOM     56  C   UNL     1     -11.771  12.895  -7.736  1.00  0.00     0.029 A 
ATOM     57  N   UNL     1     -10.864  12.464  -5.752  1.00  0.00    -0.354 N 
ATOM     58  N   UNL     1     -10.063  13.104  -2.989  1.00  0.00    -0.248 NA
ATOM     59  C   UNL     1      -9.814  14.658  -1.261  1.00  0.00     0.031 C 
ATOM     60  C   UNL     1     -11.760  14.077  -6.987  1.00  0.00     0.029 A 
ATOM     61  C   UNL     1     -11.226  13.802  -5.738  1.00  0.00     0.049 A 
ATOM     62  H   UNL     1     -10.446  11.984  -5.000  1.00  0.00     0.167 HD
ATOM     63  C   UNL     1     -10.548  14.338  -3.411  1.00  0.00     0.074 A 
ATOM     64  C   UNL     1     -10.403  15.246  -2.291  1.00  0.00     0.031 C 
ATOM     65  C   UNL     1     -11.067  14.693  -4.614  1.00  0.00     0.034 A 
BRANCH  52  66
ATOM     66  C   UNL     1     -11.205  10.093  -8.768  1.00  0.00     0.023 A 
ATOM     67  C   UNL     1     -12.169   9.109  -9.049  1.00  0.00     0.031 A 
ATOM     68  C   UNL     1     -10.511  10.662  -9.851  1.00  0.00     0.131 A 
ATOM     69  C   UNL     1     -12.367   8.679 -10.370  1.00  0.00     0.055 A 
ATOM     70  C   UNL     1     -10.768  10.285 -11.170  1.00  0.00     0.041 A 
ATOM     71  F   UNL     1      -9.565  11.591  -9.643  1.00  0.00    -0.206 F 
ATOM     72  C   UNL     1     -11.692   9.279 -11.435  1.00  0.00     0.022 A 
BRANCH  69  73
ATOM     73  S   UNL     1     -13.431   7.240 -10.662  1.00  0.00     0.124 S 
ATOM     74  O   UNL     1     -12.732   6.200  -9.910  1.00  0.00    -0.237 OA
ATOM     75  O   UNL     1     -14.710   7.675 -10.113  1.00  0.00    -0.237 OA
ATOM     76  O   UNL     1     -13.397   7.078 -12.114  1.00  0.00    -0.744 OA
ENDBRANCH  69  73
ENDBRANCH  52  66
BRANCH  53  77
ATOM     77  C   UNL     1      -8.633  12.699   0.571  1.00  0.00     0.023 A 
ATOM     78  C   UNL     1      -9.553  13.198   1.507  1.00  0.00     0.031 A 
ATOM     79  C   UNL     1      -7.276  12.663   0.938  1.00  0.00     0.131 A 
ATOM     80  C   UNL     1      -9.100  13.695   2.739  1.00  0.00     0.055 A 
ATOM     81  C   UNL     1      -6.837  13.105   2.187  1.00  0.00     0.041 A 
ATOM     82  F   UNL     1      -6.354  12.188   0.084  1.00  0.00    -0.206 F 
ATOM     83  C   UNL     1      -7.749  13.640   3.090  1.00  0.00     0.022 A 
BRANCH  80  84
ATOM     84  S   UNL     1     -10.292  14.511   3.835  1.00  0.00     0.124 S 
ATOM     85  O   UNL     1     -10.833  15.549   2.965  1.00  0.00    -0.237 OA
ATOM     86  O   UNL     1     -11.195  13.415   4.167  1.00  0.00    -0.237 OA
ATOM     87  O   UNL     1      -9.464  14.991   4.940  1.00  0.00    -0.744 OA
ENDBRANCH  80  84
ENDBRANCH  53  77
BRANCH  65  88
ATOM     88  C   UNL     1     -11.554  16.114  -4.755  1.00  0.00     0.023 A 
ATOM     89  C   UNL     1     -10.667  17.204  -4.731  1.00  0.00     0.031 A 
ATOM     90  C   UNL     1     -12.927  16.379  -4.901  1.00  0.00     0.131 A 
ATOM     91  C   UNL     1     -11.168  18.512  -4.792  1.00  0.00     0.055 A 
ATOM     92  C   UNL     1     -13.414  17.680  -5.022  1.00  0.00     0.041 A 
ATOM     93  F   UNL     1     -13.818  15.374  -4.929  1.00  0.00    -0.206 F 
ATOM     94  C   UNL     1     -12.535  18.757  -4.954  1.00  0.00     0.022 A 
BRANCH  91  95
ATOM     95  S   UNL     1     -10.018  19.896  -4.563  1.00  0.00     0.124 S 
ATOM     96  O   UNL     1      -9.469  19.618  -3.240  1.00  0.00    -0.237 OA
ATOM     97  O   UNL     1      -9.098  19.725  -5.683  1.00  0.00    -0.237 OA
ATOM     98  O   UNL     1     -10.879  21.074  -4.643  1.00  0.00    -0.744 OA
ENDBRANCH  91  95
ENDBRANCH  65  88
ENDBRANCH  39  40
ENDBRANCH  31  34
ENDBRANCH  29  30
ENDBRANCH  28  29
ENDBRANCH   1  28
TORSDOF 18
