REMARK SMILES CCc1cc(S(F)(F)(F)(F)F)cc2c1O[C@@H](C(F)(F)F)C(C(=O)NCCCCNC(=O)c1ccc(-c3c4nc(c(-c5cc(S(=O)(=O)[O-])ccc5F)c5ccc([nH]5)c(-c5cc(S(=O)(=O)[O-])ccc5F)c5nc(c(-c6cc(S(=O)(=O)[O-])ccc6F)c6ccc3[nH]6)C=C5)C=C4)cc1)=C2
REMARK SMILES IDX 27 1 26 2 25 3 24 4 22 5 23 6 21 8 3 9 4 10 14 11 5 12 13 13
REMARK SMILES IDX 15 14 12 15 95 16 16 17 2 18 1 19 6 20 7 21 8 22 9 23 10 24
REMARK SMILES IDX 11 25 17 26 18 27 19 28 20 29 28 30 29 31 30 32 31 34 32 35
REMARK SMILES IDX 33 36 94 37 34 38 93 39 35 40 36 41 37 42 87 43 38 44 92 45
REMARK SMILES IDX 86 46 88 47 39 48 91 49 85 50 84 51 40 53 72 54 52 55 71 56
REMARK SMILES IDX 53 57 56 58 70 59 89 60 54 61 55 62 69 64 90 65 57 66 41 67
REMARK SMILES IDX 42 68 50 69 43 70 49 71 51 72 48 73 44 74 45 75 46 76 47 77
REMARK SMILES IDX 73 78 74 79 82 80 75 81 81 82 83 83 80 84 76 85 77 86 78 87
REMARK SMILES IDX 79 88 58 89 59 90 67 91 60 92 66 93 68 94 65 95 61 96 62 97
REMARK SMILES IDX 63 98 64 99
REMARK H PARENT 24 7 29 33 88 52 56 63
REMARK Flexibility Score: inf
ROOT
ATOM      1  C   UNL     1       0.693  10.073  -4.356  1.00  0.00     0.023 C 
ENDROOT
BRANCH   1   2
ATOM      2  C   UNL     1       0.705   8.555  -4.271  1.00  0.00     0.023 C 
BRANCH   2   3
ATOM      3  C   UNL     1       1.393   8.125  -2.986  1.00  0.00     0.116 C 
BRANCH   3   4
ATOM      4  N   UNL     1       0.664   8.674  -1.833  1.00  0.00    -0.352 N 
ATOM      5  C   UNL     1       0.087   7.768  -0.829  1.00  0.00     0.251 C 
ATOM      6  O   UNL     1      -0.542   8.242   0.168  1.00  0.00    -0.270 OA
ATOM      7  H   UNL     1       0.562   9.648  -1.733  1.00  0.00     0.163 HD
BRANCH   5   8
ATOM      8  C   UNL     1       0.245   6.264  -0.982  1.00  0.00     0.067 C 
ATOM      9  C   UNL     1       1.061   2.168  -1.068  1.00  0.00    -0.004 A 
ATOM     10  C   UNL     1       1.565   1.589  -2.219  1.00  0.00     0.032 A 
ATOM     11  C   UNL     1       0.852   3.526  -1.050  1.00  0.00     0.131 A 
ATOM     12  C   UNL     1       1.857   2.349  -3.321  1.00  0.00     0.108 A 
ATOM     13  C   UNL     1       1.117   4.322  -2.150  1.00  0.00     0.019 A 
ATOM     14  O   UNL     1       0.459   4.101   0.133  1.00  0.00    -0.475 OA
ATOM     15  C   UNL     1       1.628   3.709  -3.288  1.00  0.00     0.036 A 
ATOM     16  C   UNL     1       0.900   5.753  -2.018  1.00  0.00     0.025 C 
ATOM     17  C   UNL     1      -0.346   5.311   0.048  1.00  0.00     0.314 C 
BRANCH   9  18
ATOM     18  C   UNL     1       0.554   1.350   0.108  1.00  0.00     0.036 C 
ATOM     19  C   UNL     1       1.061  -0.078  -0.013  1.00  0.00     0.009 C 
ENDBRANCH   9  18
BRANCH  12  20
ATOM     20  S   UNL     1       2.538   1.575  -4.808  1.00  0.00     0.310 S 
ATOM     21  F   UNL     1       4.012   1.328  -4.277  1.00  0.00    -0.094 F 
ATOM     22  F   UNL     1       3.037   2.971  -5.341  1.00  0.00    -0.094 F 
ATOM     23  F   UNL     1       2.966   0.884  -6.134  1.00  0.00    -0.094 F 
ATOM     24  F   UNL     1       2.163   0.164  -4.204  1.00  0.00    -0.094 F 
ATOM     25  F   UNL     1       2.204   2.244  -3.415  1.00  0.00    -0.094 F 
ENDBRANCH  12  20
BRANCH  17  26
ATOM     26  C   UNL     1      -0.360   5.994   1.405  1.00  0.00     0.429 C 
ATOM     27  F   UNL     1      -1.097   7.099   1.338  1.00  0.00    -0.167 F 
ATOM     28  F   UNL     1      -0.878   5.170   2.312  1.00  0.00    -0.167 F 
ATOM     29  F   UNL     1       0.883   6.312   1.755  1.00  0.00    -0.167 F 
ENDBRANCH  17  26
ENDBRANCH   5   8
ENDBRANCH   3   4
ENDBRANCH   2   3
ENDBRANCH   1   2
BRANCH   1  30
ATOM     30  C   UNL     1       2.122  10.592  -4.346  1.00  0.00     0.116 C 
BRANCH  30  31
ATOM     31  N   UNL     1       2.850  10.043  -5.499  1.00  0.00    -0.352 N 
ATOM     32  C   UNL     1       3.427  10.949  -6.503  1.00  0.00     0.251 C 
ATOM     33  H   UNL     1       2.952   9.069  -5.598  1.00  0.00     0.163 HD
ATOM     34  O   UNL     1       4.057  10.474  -7.499  1.00  0.00    -0.269 OA
BRANCH  32  35
ATOM     35  C   UNL     1       3.270  12.453  -6.349  1.00  0.00     0.039 A 
ATOM     36  C   UNL     1       2.905  13.213  -7.448  1.00  0.00     0.014 A 
ATOM     37  C   UNL     1       3.480  13.012  -5.163  1.00  0.00     0.014 A 
ATOM     38  C   UNL     1       3.068  14.606  -7.261  1.00  0.00     0.010 A 
ATOM     39  C   UNL     1       3.492  14.380  -5.027  1.00  0.00     0.010 A 
ATOM     40  C   UNL     1       3.198  15.194  -6.085  1.00  0.00    -0.014 A 
BRANCH  40  41
ATOM     41  C   UNL     1       3.030  16.695  -5.918  1.00  0.00     0.031 A 
ATOM     42  C   UNL     1       4.097  17.451  -5.428  1.00  0.00     0.074 A 
ATOM     43  C   UNL     1       1.812  17.232  -6.298  1.00  0.00     0.049 A 
ATOM     44  N   UNL     1       4.154  18.774  -5.274  1.00  0.00    -0.248 NA
ATOM     45  C   UNL     1       5.380  16.879  -4.991  1.00  0.00     0.031 C 
ATOM     46  C   UNL     1       0.734  16.478  -6.801  1.00  0.00     0.029 A 
ATOM     47  N   UNL     1       1.423  18.553  -6.263  1.00  0.00    -0.354 N 
ATOM     48  C   UNL     1       5.348  19.133  -4.796  1.00  0.00     0.074 A 
ATOM     49  C   UNL     1       6.151  17.918  -4.602  1.00  0.00     0.031 C 
ATOM     50  C   UNL     1      -0.294  17.329  -7.055  1.00  0.00     0.029 A 
ATOM     51  C   UNL     1       0.124  18.630  -6.716  1.00  0.00     0.049 A 
ATOM     52  H   UNL     1       1.977  19.310  -5.966  1.00  0.00     0.167 HD
ATOM     53  C   UNL     1       5.798  20.424  -4.518  1.00  0.00     0.034 A 
ATOM     54  C   UNL     1      -0.668  19.761  -6.831  1.00  0.00     0.034 A 
ATOM     55  C   UNL     1       5.020  21.560  -4.674  1.00  0.00     0.049 A 
ATOM     56  C   UNL     1      -0.237  21.047  -6.497  1.00  0.00     0.074 A 
ATOM     57  C   UNL     1       5.461  22.869  -4.405  1.00  0.00     0.029 A 
ATOM     58  N   UNL     1       3.713  21.634  -5.103  1.00  0.00    -0.354 N 
ATOM     59  N   UNL     1       0.969  21.409  -6.057  1.00  0.00    -0.248 NA
ATOM     60  C   UNL     1      -1.078  22.248  -6.584  1.00  0.00     0.031 C 
ATOM     61  C   UNL     1       4.432  23.722  -4.659  1.00  0.00     0.029 A 
ATOM     62  C   UNL     1       3.331  22.958  -5.090  1.00  0.00     0.049 A 
ATOM     63  H   UNL     1       3.150  20.873  -5.372  1.00  0.00     0.167 HD
ATOM     64  C   UNL     1       1.011  22.729  -5.864  1.00  0.00     0.074 A 
ATOM     65  C   UNL     1      -0.308  23.287  -6.193  1.00  0.00     0.031 C 
ATOM     66  C   UNL     1       2.097  23.491  -5.429  1.00  0.00     0.034 A 
BRANCH  53  67
ATOM     67  C   UNL     1       7.222  20.593  -4.014  1.00  0.00     0.023 A 
ATOM     68  C   UNL     1       8.278  20.165  -4.801  1.00  0.00     0.031 A 
ATOM     69  C   UNL     1       7.430  21.148  -2.825  1.00  0.00     0.131 A 
ATOM     70  C   UNL     1       9.515  20.102  -4.117  1.00  0.00     0.055 A 
ATOM     71  C   UNL     1       8.689  21.172  -2.275  1.00  0.00     0.041 A 
ATOM     72  F   UNL     1       6.410  21.684  -2.160  1.00  0.00    -0.206 F 
ATOM     73  C   UNL     1       9.770  20.712  -2.974  1.00  0.00     0.022 A 
BRANCH  70  74
ATOM     74  S   UNL     1      10.839  19.117  -4.860  1.00  0.00     0.124 S 
ATOM     75  O   UNL     1      10.379  17.663  -4.994  1.00  0.00    -0.237 OA
ATOM     76  O   UNL     1      11.174  19.675  -6.245  1.00  0.00    -0.237 OA
ATOM     77  O   UNL     1      12.228  19.186  -3.866  1.00  0.00    -0.744 OA
ENDBRANCH  70  74
ENDBRANCH  53  67
BRANCH  54  78
ATOM     78  C   UNL     1      -2.087  19.593  -7.351  1.00  0.00     0.023 A 
ATOM     79  C   UNL     1      -2.469  20.250  -8.509  1.00  0.00     0.031 A 
ATOM     80  C   UNL     1      -2.936  18.817  -6.687  1.00  0.00     0.131 A 
ATOM     81  C   UNL     1      -3.867  20.254  -8.731  1.00  0.00     0.055 A 
ATOM     82  C   UNL     1      -4.261  18.765  -7.043  1.00  0.00     0.041 A 
ATOM     83  F   UNL     1      -2.498  18.084  -5.667  1.00  0.00    -0.206 F 
ATOM     84  C   UNL     1      -4.721  19.436  -8.142  1.00  0.00     0.022 A 
BRANCH  81  85
ATOM     85  S   UNL     1      -4.529  21.463  -9.904  1.00  0.00     0.124 S 
ATOM     86  O   UNL     1      -4.196  22.877  -9.422  1.00  0.00    -0.237 OA
ATOM     87  O   UNL     1      -3.905  21.233 -11.282  1.00  0.00    -0.237 OA
ATOM     88  O   UNL     1      -6.227  21.282 -10.010  1.00  0.00    -0.744 OA
ENDBRANCH  81  85
ENDBRANCH  54  78
BRANCH  66  89
ATOM     89  C   UNL     1       1.916  24.996  -5.322  1.00  0.00     0.023 A 
ATOM     90  C   UNL     1       0.964  25.512  -4.458  1.00  0.00     0.031 A 
ATOM     91  C   UNL     1       2.694  25.793  -6.045  1.00  0.00     0.131 A 
ATOM     92  C   UNL     1       0.711  26.892  -4.642  1.00  0.00     0.055 A 
ATOM     93  C   UNL     1       2.474  27.149  -6.072  1.00  0.00     0.041 A 
ATOM     94  F   UNL     1       3.695  25.274  -6.750  1.00  0.00    -0.206 F 
ATOM     95  C   UNL     1       1.510  27.721  -5.288  1.00  0.00     0.022 A 
BRANCH  92  96
ATOM     96  S   UNL     1      -0.816  27.568  -3.944  1.00  0.00     0.124 S 
ATOM     97  O   UNL     1      -2.020  26.853  -4.561  1.00  0.00    -0.237 OA
ATOM     98  O   UNL     1      -0.820  27.358  -2.428  1.00  0.00    -0.237 OA
ATOM     99  O   UNL     1      -0.909  29.240  -4.288  1.00  0.00    -0.744 OA
ENDBRANCH  92  96
ENDBRANCH  66  89
ENDBRANCH  40  41
ENDBRANCH  32  35
ENDBRANCH  30  31
ENDBRANCH   1  30
TORSDOF 17
