REMARK SMILES COc1nc2c(cc1C(=O)NCc1ccc(C(=O)NCCCCNC(=O)c3ccc(-c4c5nc(c(-c6cc(S(=O)(=O)[O-])ccc6F)c6ccc([nH]6)c(-c6cc(S(=O)(=O)[O-])ccc6F)c6nc(c(-c7cc(S(=O)(=O)[O-])ccc7F)c7ccc4[nH]7)C=C6)C=C5)cc3)s1)CCC2
REMARK SMILES IDX 21 1 20 2 19 3 17 4 18 5 16 7 13 8 14 9 90 10 15 11 12 12
REMARK SMILES IDX 11 13 9 14 10 15 8 17 3 18 4 19 5 20 7 21 6 22 93 23 91 24
REMARK SMILES IDX 92 25 2 26 1 27 22 28 23 29 24 30 25 31 26 33 27 34 28 35
REMARK SMILES IDX 89 36 29 37 88 38 30 39 31 40 32 41 82 42 33 43 87 44 81 45
REMARK SMILES IDX 83 46 34 47 86 48 80 49 79 50 35 52 67 53 47 54 66 55 48 56
REMARK SMILES IDX 51 57 65 58 84 59 49 60 50 61 64 63 85 64 52 65 36 66 37 67
REMARK SMILES IDX 45 68 38 69 44 70 46 71 43 72 39 73 40 74 41 75 42 76 68 77
REMARK SMILES IDX 69 78 77 79 70 80 76 81 78 82 75 83 71 84 72 85 73 86 74 87
REMARK SMILES IDX 53 88 54 89 62 90 55 91 61 92 63 93 60 94 56 95 57 96 58 97
REMARK SMILES IDX 59 98
REMARK H PARENT 19 6 11 16 24 32 83 51 51 62
REMARK Flexibility Score: inf
ROOT
ATOM      1  C   UNL     1       3.348  -7.059   2.325  1.00  0.00     0.023 C 
ENDROOT
BRANCH   1   2
ATOM      2  C   UNL     1       1.895  -7.081   1.850  1.00  0.00     0.116 C 
BRANCH   2   3
ATOM      3  N   UNL     1       1.039  -6.304   2.713  1.00  0.00    -0.351 N 
ATOM      4  C   UNL     1       0.793  -4.953   2.788  1.00  0.00     0.261 C 
ATOM      5  O   UNL     1      -0.018  -4.633   3.663  1.00  0.00    -0.268 OA
ATOM      6  H   UNL     1       0.538  -6.840   3.369  1.00  0.00     0.163 HD
BRANCH   4   7
ATOM      7  C   UNL     1       1.442  -3.978   1.907  1.00  0.00     0.092 A 
ATOM      8  C   UNL     1       2.074  -1.755   0.928  1.00  0.00     0.025 A 
ATOM      9  C   UNL     1       2.702  -2.805   0.297  1.00  0.00     0.018 A 
ATOM     10  S   UNL     1       1.038  -2.320   2.168  1.00  0.00    -0.133 S 
ATOM     11  C   UNL     1       2.352  -4.069   0.868  1.00  0.00     0.026 A 
BRANCH   8  12
ATOM     12  C   UNL     1       2.186  -0.281   0.736  1.00  0.00     0.163 C 
BRANCH  12  13
ATOM     13  N   UNL     1       3.144   0.080  -0.289  1.00  0.00    -0.347 N 
ATOM     14  C   UNL     1       3.151   0.341  -1.627  1.00  0.00     0.257 C 
ATOM     15  O   UNL     1       4.256   0.709  -2.053  1.00  0.00    -0.269 OA
ATOM     16  H   UNL     1       4.050   0.158   0.089  1.00  0.00     0.164 HD
BRANCH  14  17
ATOM     17  C   UNL     1       2.053   0.214  -2.629  1.00  0.00     0.102 A 
ATOM     18  C   UNL     1       0.669   0.173  -2.439  1.00  0.00     0.226 A 
ATOM     19  N   UNL     1      -0.258   0.081  -3.441  1.00  0.00    -0.218 NA
ATOM     20  C   UNL     1       0.221   0.067  -4.690  1.00  0.00     0.048 A 
ATOM     21  C   UNL     1       2.486   0.229  -3.977  1.00  0.00     0.025 A 
ATOM     22  C   UNL     1       1.561   0.162  -5.004  1.00  0.00    -0.025 A 
ATOM     23  C   UNL     1      -0.625   0.033  -5.931  1.00  0.00     0.057 C 
ATOM     24  C   UNL     1       1.770   0.254  -6.478  1.00  0.00     0.038 C 
ATOM     25  C   UNL     1       0.431  -0.289  -7.001  1.00  0.00     0.011 C 
BRANCH  18  26
ATOM     26  O   UNL     1       0.102   0.255  -1.204  1.00  0.00    -0.480 OA
ATOM     27  C   UNL     1      -0.426   1.566  -1.009  1.00  0.00     0.280 C 
ENDBRANCH  18  26
ENDBRANCH  14  17
ENDBRANCH  12  13
ENDBRANCH   8  12
ENDBRANCH   4   7
ENDBRANCH   2   3
ENDBRANCH   1   2
BRANCH   1  28
ATOM     28  C   UNL     1       3.668  -8.084   3.416  1.00  0.00     0.023 C 
BRANCH  28  29
ATOM     29  C   UNL     1       3.429  -9.538   3.024  1.00  0.00     0.116 C 
BRANCH  29  30
ATOM     30  N   UNL     1       4.104  -9.929   1.795  1.00  0.00    -0.352 N 
ATOM     31  C   UNL     1       4.434 -11.209   1.407  1.00  0.00     0.251 C 
ATOM     32  H   UNL     1       4.351  -9.204   1.177  1.00  0.00     0.163 HD
ATOM     33  O   UNL     1       5.040 -11.428   0.373  1.00  0.00    -0.269 OA
BRANCH  31  34
ATOM     34  C   UNL     1       4.060 -12.300   2.323  1.00  0.00     0.039 A 
ATOM     35  C   UNL     1       5.073 -12.969   3.011  1.00  0.00     0.014 A 
ATOM     36  C   UNL     1       2.711 -12.539   2.598  1.00  0.00     0.014 A 
ATOM     37  C   UNL     1       4.727 -13.856   4.028  1.00  0.00     0.010 A 
ATOM     38  C   UNL     1       2.372 -13.389   3.644  1.00  0.00     0.010 A 
ATOM     39  C   UNL     1       3.377 -14.053   4.365  1.00  0.00    -0.014 A 
BRANCH  39  40
ATOM     40  C   UNL     1       3.008 -14.971   5.465  1.00  0.00     0.031 A 
ATOM     41  C   UNL     1       2.354 -16.282   5.144  1.00  0.00     0.074 A 
ATOM     42  C   UNL     1       3.231 -14.608   6.742  1.00  0.00     0.049 A 
ATOM     43  N   UNL     1       1.992 -17.238   5.957  1.00  0.00    -0.248 NA
ATOM     44  C   UNL     1       2.047 -16.547   3.728  1.00  0.00     0.031 C 
ATOM     45  C   UNL     1       3.790 -13.324   7.169  1.00  0.00     0.029 A 
ATOM     46  N   UNL     1       3.008 -15.280   7.918  1.00  0.00    -0.354 N 
ATOM     47  C   UNL     1       1.422 -18.217   5.155  1.00  0.00     0.074 A 
ATOM     48  C   UNL     1       1.429 -17.716   3.799  1.00  0.00     0.031 C 
ATOM     49  C   UNL     1       3.871 -13.305   8.510  1.00  0.00     0.029 A 
ATOM     50  C   UNL     1       3.369 -14.571   9.039  1.00  0.00     0.049 A 
ATOM     51  H   UNL     1       2.624 -16.186   7.954  1.00  0.00     0.167 HD
ATOM     52  C   UNL     1       0.965 -19.437   5.515  1.00  0.00     0.034 A 
ATOM     53  C   UNL     1       3.318 -14.912  10.343  1.00  0.00     0.034 A 
ATOM     54  C   UNL     1       0.984 -19.930   6.864  1.00  0.00     0.049 A 
ATOM     55  C   UNL     1       2.870 -16.304  10.713  1.00  0.00     0.074 A 
ATOM     56  C   UNL     1       0.577 -21.167   7.329  1.00  0.00     0.029 A 
ATOM     57  N   UNL     1       1.448 -19.219   7.961  1.00  0.00    -0.354 N 
ATOM     58  N   UNL     1       2.437 -17.263   9.928  1.00  0.00    -0.248 NA
ATOM     59  C   UNL     1       2.936 -16.680  12.132  1.00  0.00     0.031 C 
ATOM     60  C   UNL     1       0.773 -21.197   8.710  1.00  0.00     0.029 A 
ATOM     61  C   UNL     1       1.344 -19.995   9.100  1.00  0.00     0.049 A 
ATOM     62  H   UNL     1       1.799 -18.300   7.932  1.00  0.00     0.167 HD
ATOM     63  C   UNL     1       2.218 -18.363  10.750  1.00  0.00     0.074 A 
ATOM     64  C   UNL     1       2.576 -17.957  12.093  1.00  0.00     0.031 C 
ATOM     65  C   UNL     1       1.759 -19.596  10.421  1.00  0.00     0.034 A 
BRANCH  52  66
ATOM     66  C   UNL     1       0.452 -20.351   4.439  1.00  0.00     0.023 A 
ATOM     67  C   UNL     1      -0.904 -20.718   4.407  1.00  0.00     0.031 A 
ATOM     68  C   UNL     1       1.331 -20.946   3.517  1.00  0.00     0.131 A 
ATOM     69  C   UNL     1      -1.338 -21.682   3.490  1.00  0.00     0.055 A 
ATOM     70  C   UNL     1       0.888 -21.880   2.583  1.00  0.00     0.041 A 
ATOM     71  F   UNL     1       2.633 -20.617   3.509  1.00  0.00    -0.206 F 
ATOM     72  C   UNL     1      -0.451 -22.259   2.572  1.00  0.00     0.022 A 
BRANCH  69  73
ATOM     73  S   UNL     1      -3.064 -22.235   3.466  1.00  0.00     0.124 S 
ATOM     74  O   UNL     1      -3.392 -22.156   2.043  1.00  0.00    -0.237 OA
ATOM     75  O   UNL     1      -2.956 -23.586   4.008  1.00  0.00    -0.237 OA
ATOM     76  O   UNL     1      -3.752 -21.265   4.310  1.00  0.00    -0.744 OA
ENDBRANCH  69  73
ENDBRANCH  52  66
BRANCH  53  77
ATOM     77  C   UNL     1       3.792 -13.943  11.372  1.00  0.00     0.023 A 
ATOM     78  C   UNL     1       3.100 -12.742  11.607  1.00  0.00     0.031 A 
ATOM     79  C   UNL     1       4.983 -14.172  12.082  1.00  0.00     0.131 A 
ATOM     80  C   UNL     1       3.624 -11.802  12.505  1.00  0.00     0.055 A 
ATOM     81  C   UNL     1       5.473 -13.256  13.014  1.00  0.00     0.041 A 
ATOM     82  F   UNL     1       5.686 -15.296  11.876  1.00  0.00    -0.206 F 
ATOM     83  C   UNL     1       4.797 -12.059  13.222  1.00  0.00     0.022 A 
BRANCH  80  84
ATOM     84  S   UNL     1       2.850 -10.174  12.708  1.00  0.00     0.124 S 
ATOM     85  O   UNL     1       2.544 -10.158  14.135  1.00  0.00    -0.237 OA
ATOM     86  O   UNL     1       3.924  -9.280  12.283  1.00  0.00    -0.237 OA
ATOM     87  O   UNL     1       1.697 -10.227  11.816  1.00  0.00    -0.744 OA
ENDBRANCH  80  84
ENDBRANCH  53  77
BRANCH  65  88
ATOM     88  C   UNL     1       1.647 -20.642  11.498  1.00  0.00     0.023 A 
ATOM     89  C   UNL     1       2.456 -21.793  11.433  1.00  0.00     0.031 A 
ATOM     90  C   UNL     1       0.633 -20.590  12.467  1.00  0.00     0.131 A 
ATOM     91  C   UNL     1       2.210 -22.865  12.298  1.00  0.00     0.055 A 
ATOM     92  C   UNL     1       0.415 -21.646  13.352  1.00  0.00     0.041 A 
ATOM     93  F   UNL     1      -0.171 -19.518  12.555  1.00  0.00    -0.206 F 
ATOM     94  C   UNL     1       1.197 -22.795  13.261  1.00  0.00     0.022 A 
BRANCH  91  95
ATOM     95  S   UNL     1       3.141 -24.415  12.156  1.00  0.00     0.124 S 
ATOM     96  O   UNL     1       3.712 -24.548  13.494  1.00  0.00    -0.237 OA
ATOM     97  O   UNL     1       2.090 -25.374  11.828  1.00  0.00    -0.237 OA
ATOM     98  O   UNL     1       4.106 -24.151  11.094  1.00  0.00    -0.744 OA
ENDBRANCH  91  95
ENDBRANCH  65  88
ENDBRANCH  39  40
ENDBRANCH  31  34
ENDBRANCH  29  30
ENDBRANCH  28  29
ENDBRANCH   1  28
TORSDOF 18
