REMARK SMILES Nc1c(Nc2ncc(C(F)(F)F)cc2Cl)ncnc1N1CCC(C(=O)NCCCCNC(=O)c2ccc(-c3c4nc(c(-c5cc(S(=O)(=O)[O-])ccc5F)c5ccc([nH]5)c(-c5cc(S(=O)(=O)[O-])ccc5F)c5nc(c(-c6cc(S(=O)(=O)[O-])ccc6F)c6ccc3[nH]6)C=C5)C=C4)cc2)CC1
REMARK SMILES IDX 28 1 27 2 26 3 24 4 25 5 23 7 20 8 21 9 98 10 22 11 97 12
REMARK SMILES IDX 19 13 2 14 3 15 16 16 18 17 17 18 1 19 4 22 5 24 6 25 14 26
REMARK SMILES IDX 7 27 13 28 15 29 8 30 9 31 10 32 11 33 12 34 29 35 30 36
REMARK SMILES IDX 31 37 32 38 33 40 34 41 35 42 96 43 36 44 95 45 37 46 38 47
REMARK SMILES IDX 39 48 89 49 40 50 94 51 88 52 90 53 41 54 93 55 87 56 86 57
REMARK SMILES IDX 42 59 74 60 54 61 73 62 55 63 58 64 72 65 91 66 56 67 57 68
REMARK SMILES IDX 71 70 92 71 59 72 43 73 44 74 52 75 45 76 51 77 53 78 50 79
REMARK SMILES IDX 46 80 47 81 48 82 49 83 75 84 76 85 84 86 77 87 83 88 85 89
REMARK SMILES IDX 82 90 78 91 79 92 80 93 81 94 60 95 61 96 69 97 62 98 68 99
REMARK SMILES IDX 70 100 67 101 63 102 64 103 65 104 66 105
REMARK H PARENT 26 6 1 20 1 21 4 23 31 39 90 58 58 69
REMARK Flexibility Score: inf
ROOT
ATOM      1  C   UNL     1       1.275   0.901   7.472  1.00  0.00     0.023 C 
ENDROOT
BRANCH   1   2
ATOM      2  C   UNL     1       1.199   2.020   6.438  1.00  0.00     0.116 C 
BRANCH   2   3
ATOM      3  N   UNL     1       2.382   2.864   6.455  1.00  0.00    -0.356 N 
ATOM      4  C   UNL     1       3.354   3.052   5.522  1.00  0.00     0.223 C 
ATOM      5  O   UNL     1       4.262   3.845   5.783  1.00  0.00    -0.275 OA
ATOM      6  H   UNL     1       2.500   3.387   7.281  1.00  0.00     0.163 HD
BRANCH   4   7
ATOM      7  C   UNL     1       3.331   2.334   4.182  1.00  0.00     0.082 C 
ATOM      8  N   UNL     1       2.123   0.568   2.302  1.00  0.00    -0.355 N 
ATOM      9  C   UNL     1       3.281   0.078   3.028  1.00  0.00     0.119 C 
ATOM     10  C   UNL     1       2.014   1.992   2.034  1.00  0.00     0.119 C 
ATOM     11  C   UNL     1       3.456   0.815   4.344  1.00  0.00     0.035 C 
ATOM     12  C   UNL     1       2.153   2.801   3.317  1.00  0.00     0.035 C 
BRANCH   8  13
ATOM     13  C   UNL     1       0.986  -0.231   2.248  1.00  0.00     0.157 A 
ATOM     14  C   UNL     1       0.416  -0.525   0.998  1.00  0.00     0.118 A 
ATOM     15  C   UNL     1      -0.657  -1.426   1.003  1.00  0.00     0.160 A 
ATOM     16  N   UNL     1      -1.185  -1.910   2.140  1.00  0.00    -0.217 NA
ATOM     17  N   UNL     1       0.489  -0.731   3.392  1.00  0.00    -0.217 NA
ATOM     18  C   UNL     1      -0.587  -1.526   3.276  1.00  0.00     0.226 A 
BRANCH  14  19
ATOM     19  N   UNL     1       1.021  -0.117  -0.210  1.00  0.00    -0.393 N 
ATOM     20  H   UNL     1       0.598  -0.338  -1.071  1.00  0.00     0.156 HD
ATOM     21  H   UNL     1       1.867   0.387  -0.192  1.00  0.00     0.156 HD
ENDBRANCH  14  19
BRANCH  15  22
ATOM     22  N   UNL     1      -1.121  -1.875  -0.259  1.00  0.00    -0.322 N 
ATOM     23  H   UNL     1      -0.624  -1.541  -1.040  1.00  0.00     0.170 HD
BRANCH  22  24
ATOM     24  C   UNL     1      -2.186  -2.725  -0.542  1.00  0.00     0.150 A 
ATOM     25  N   UNL     1      -1.862  -3.750  -1.374  1.00  0.00    -0.237 NA
ATOM     26  C   UNL     1      -3.491  -2.562  -0.063  1.00  0.00     0.084 A 
ATOM     27  C   UNL     1      -2.813  -4.667  -1.665  1.00  0.00     0.126 A 
ATOM     28  C   UNL     1      -4.456  -3.518  -0.394  1.00  0.00     0.039 A 
ATOM     29  Cl  UNL     1      -4.018  -1.170   0.812  1.00  0.00    -0.080 Cl
ATOM     30  C   UNL     1      -4.114  -4.608  -1.199  1.00  0.00     0.075 A 
BRANCH  30  31
ATOM     31  C   UNL     1      -5.085  -5.682  -1.572  1.00  0.00     0.417 C 
ATOM     32  F   UNL     1      -5.212  -5.820  -2.921  1.00  0.00    -0.166 F 
ATOM     33  F   UNL     1      -4.710  -6.906  -1.109  1.00  0.00    -0.166 F 
ATOM     34  F   UNL     1      -6.343  -5.471  -1.100  1.00  0.00    -0.166 F 
ENDBRANCH  30  31
ENDBRANCH  22  24
ENDBRANCH  15  22
ENDBRANCH   8  13
ENDBRANCH   4   7
ENDBRANCH   2   3
ENDBRANCH   1   2
BRANCH   1  35
ATOM     35  C   UNL     1       1.242   1.371   8.925  1.00  0.00     0.023 C 
BRANCH  35  36
ATOM     36  C   UNL     1       0.080   2.291   9.281  1.00  0.00     0.116 C 
BRANCH  36  37
ATOM     37  N   UNL     1      -1.219   1.714   8.970  1.00  0.00    -0.352 N 
ATOM     38  C   UNL     1      -2.334   1.620   9.767  1.00  0.00     0.251 C 
ATOM     39  H   UNL     1      -1.312   1.341   8.063  1.00  0.00     0.163 HD
ATOM     40  O   UNL     1      -3.312   0.986   9.383  1.00  0.00    -0.269 OA
BRANCH  38  41
ATOM     41  C   UNL     1      -2.323   2.255  11.100  1.00  0.00     0.039 A 
ATOM     42  C   UNL     1      -2.691   1.494  12.210  1.00  0.00     0.014 A 
ATOM     43  C   UNL     1      -1.903   3.580  11.253  1.00  0.00     0.014 A 
ATOM     44  C   UNL     1      -2.567   2.041  13.488  1.00  0.00     0.010 A 
ATOM     45  C   UNL     1      -1.714   4.098  12.531  1.00  0.00     0.010 A 
ATOM     46  C   UNL     1      -2.042   3.333  13.659  1.00  0.00    -0.014 A 
BRANCH  46  47
ATOM     47  C   UNL     1      -1.839   3.895  15.017  1.00  0.00     0.031 A 
ATOM     48  C   UNL     1      -2.652   5.076  15.469  1.00  0.00     0.074 A 
ATOM     49  C   UNL     1      -0.902   3.363  15.827  1.00  0.00     0.049 A 
ATOM     50  N   UNL     1      -2.604   5.724  16.604  1.00  0.00    -0.248 NA
ATOM     51  C   UNL     1      -3.627   5.615  14.509  1.00  0.00     0.031 C 
ATOM     52  C   UNL     1      -0.023   2.243  15.481  1.00  0.00     0.029 A 
ATOM     53  N   UNL     1      -0.537   3.687  17.109  1.00  0.00    -0.354 N 
ATOM     54  C   UNL     1      -3.537   6.747  16.493  1.00  0.00     0.074 A 
ATOM     55  C   UNL     1      -4.091   6.671  15.159  1.00  0.00     0.031 C 
ATOM     56  C   UNL     1       0.748   1.947  16.540  1.00  0.00     0.029 A 
ATOM     57  C   UNL     1       0.444   2.874  17.626  1.00  0.00     0.049 A 
ATOM     58  H   UNL     1      -0.940   4.431  17.611  1.00  0.00     0.167 HD
ATOM     59  C   UNL     1      -3.918   7.650  17.429  1.00  0.00     0.034 A 
ATOM     60  C   UNL     1       1.030   2.873  18.840  1.00  0.00     0.034 A 
ATOM     61  C   UNL     1      -3.380   7.699  18.763  1.00  0.00     0.049 A 
ATOM     62  C   UNL     1       0.600   3.893  19.859  1.00  0.00     0.074 A 
ATOM     63  C   UNL     1      -3.738   8.536  19.806  1.00  0.00     0.029 A 
ATOM     64  N   UNL     1      -2.370   6.876  19.241  1.00  0.00    -0.354 N 
ATOM     65  N   UNL     1      -0.302   4.840  19.745  1.00  0.00    -0.248 NA
ATOM     66  C   UNL     1       1.266   3.847  21.168  1.00  0.00     0.031 C 
ATOM     67  C   UNL     1      -2.913   8.250  20.898  1.00  0.00     0.029 A 
ATOM     68  C   UNL     1      -2.076   7.200  20.554  1.00  0.00     0.049 A 
ATOM     69  H   UNL     1      -1.928   6.166  18.721  1.00  0.00     0.167 HD
ATOM     70  C   UNL     1      -0.322   5.493  20.972  1.00  0.00     0.074 A 
ATOM     71  C   UNL     1       0.653   4.831  21.814  1.00  0.00     0.031 C 
ATOM     72  C   UNL     1      -1.085   6.541  21.369  1.00  0.00     0.034 A 
BRANCH  59  73
ATOM     73  C   UNL     1      -4.964   8.657  17.031  1.00  0.00     0.023 A 
ATOM     74  C   UNL     1      -6.286   8.267  16.760  1.00  0.00     0.031 A 
ATOM     75  C   UNL     1      -4.634  10.018  16.911  1.00  0.00     0.131 A 
ATOM     76  C   UNL     1      -7.218   9.219  16.323  1.00  0.00     0.055 A 
ATOM     77  C   UNL     1      -5.584  10.971  16.541  1.00  0.00     0.041 A 
ATOM     78  F   UNL     1      -3.381  10.440  17.140  1.00  0.00    -0.206 F 
ATOM     79  C   UNL     1      -6.883  10.573  16.235  1.00  0.00     0.022 A 
BRANCH  76  80
ATOM     80  S   UNL     1      -8.852   8.650  15.783  1.00  0.00     0.124 S 
ATOM     81  O   UNL     1      -8.513   7.878  14.590  1.00  0.00    -0.237 OA
ATOM     82  O   UNL     1      -9.318   7.880  16.931  1.00  0.00    -0.237 OA
ATOM     83  O   UNL     1      -9.580   9.892  15.530  1.00  0.00    -0.744 OA
ENDBRANCH  76  80
ENDBRANCH  59  73
BRANCH  60  84
ATOM     84  C   UNL     1       2.080   1.870  19.159  1.00  0.00     0.023 A 
ATOM     85  C   UNL     1       1.819   0.814  20.046  1.00  0.00     0.031 A 
ATOM     86  C   UNL     1       3.356   1.950  18.577  1.00  0.00     0.131 A 
ATOM     87  C   UNL     1       2.832  -0.111  20.345  1.00  0.00     0.055 A 
ATOM     88  C   UNL     1       4.350   1.010  18.853  1.00  0.00     0.041 A 
ATOM     89  F   UNL     1       3.646   2.936  17.713  1.00  0.00    -0.206 F 
ATOM     90  C   UNL     1       4.092  -0.025  19.746  1.00  0.00     0.022 A 
BRANCH  87  91
ATOM     91  S   UNL     1       2.485  -1.426  21.544  1.00  0.00     0.124 S 
ATOM     92  O   UNL     1       2.290  -0.664  22.772  1.00  0.00    -0.237 OA
ATOM     93  O   UNL     1       1.293  -2.050  20.978  1.00  0.00    -0.237 OA
ATOM     94  O   UNL     1       3.692  -2.250  21.504  1.00  0.00    -0.744 OA
ENDBRANCH  87  91
ENDBRANCH  60  84
BRANCH  72  95
ATOM     95  C   UNL     1      -0.908   7.029  22.779  1.00  0.00     0.023 A 
ATOM     96  C   UNL     1       0.213   7.787  23.153  1.00  0.00     0.031 A 
ATOM     97  C   UNL     1      -1.898   6.776  23.744  1.00  0.00     0.131 A 
ATOM     98  C   UNL     1       0.329   8.252  24.471  1.00  0.00     0.055 A 
ATOM     99  C   UNL     1      -1.797   7.273  25.043  1.00  0.00     0.041 A 
ATOM    100  F   UNL     1      -2.989   6.059  23.429  1.00  0.00    -0.206 F 
ATOM    101  C   UNL     1      -0.677   8.014  25.413  1.00  0.00     0.022 A 
BRANCH  98 102
ATOM    102  S   UNL     1       1.818   9.169  24.947  1.00  0.00     0.124 S 
ATOM    103  O   UNL     1       2.844   8.133  24.881  1.00  0.00    -0.237 OA
ATOM    104  O   UNL     1       1.895  10.207  23.924  1.00  0.00    -0.237 OA
ATOM    105  O   UNL     1       1.508   9.651  26.292  1.00  0.00    -0.744 OA
ENDBRANCH  98 102
ENDBRANCH  72  95
ENDBRANCH  46  47
ENDBRANCH  38  41
ENDBRANCH  36  37
ENDBRANCH  35  36
ENDBRANCH   1  35
TORSDOF 19
