REMARK SMILES O=C(NCCCCNC(=O)c1ccc(-c2c3nc(c(-c4cc(S(=O)(=O)[O-])ccc4F)c4ccc([nH]4)c(-c4cc(S(=O)(=O)[O-])ccc4F)c4nc(c(-c5cc(S(=O)(=O)[O-])ccc5F)c5ccc2[nH]5)C=C4)C=C3)cc1)C1=Cc2cc(Cl)cc(-c3ccc(CO)cc3)c2O[C@@H]1C(F)(F)F
REMARK SMILES IDX 5 1 4 2 3 3 1 4 2 5 74 7 75 8 92 9 76 10 91 11 77 12 90 13
REMARK SMILES IDX 78 14 81 15 79 16 80 17 93 18 94 19 95 20 96 21 82 22 83 23
REMARK SMILES IDX 89 24 84 25 88 26 85 27 86 28 87 29 6 31 7 32 8 33 9 34
REMARK SMILES IDX 10 36 11 37 12 38 73 39 13 40 72 41 14 42 15 43 16 44 66 45
REMARK SMILES IDX 17 46 71 47 65 48 67 49 18 50 70 51 64 52 63 53 19 55 51 56
REMARK SMILES IDX 31 57 50 58 32 59 35 60 49 61 68 62 33 63 34 64 48 66 69 67
REMARK SMILES IDX 36 68 20 69 21 70 29 71 22 72 28 73 30 74 27 75 23 76 24 77
REMARK SMILES IDX 25 78 26 79 52 80 53 81 61 82 54 83 60 84 62 85 59 86 55 87
REMARK SMILES IDX 56 88 57 89 58 90 37 91 38 92 46 93 39 94 45 95 47 96 44 97
REMARK SMILES IDX 40 98 41 99 42 100 43 101
REMARK H PARENT 3 6 87 30 8 35 67 54 35 65
REMARK Flexibility Score: inf
ROOT
ATOM      1  C   UNL     1       4.196   2.775   1.963  1.00  0.00     0.023 C 
ENDROOT
BRANCH   1   2
ATOM      2  C   UNL     1       3.626   1.401   1.600  1.00  0.00     0.116 C 
BRANCH   2   3
ATOM      3  N   UNL     1       2.495   1.462   0.670  1.00  0.00    -0.352 N 
ATOM      4  O   UNL     1       1.111   0.760  -0.983  1.00  0.00    -0.270 OA
ATOM      5  C   UNL     1       2.213   0.713  -0.449  1.00  0.00     0.251 C 
ATOM      6  H   UNL     1       1.826   2.154   0.881  1.00  0.00     0.163 HD
BRANCH   5   7
ATOM      7  C   UNL     1       3.224  -0.255  -0.915  1.00  0.00     0.067 C 
ATOM      8  C   UNL     1       4.429   0.138  -1.348  1.00  0.00     0.025 C 
ATOM      9  C   UNL     1       2.985  -1.694  -0.590  1.00  0.00     0.314 C 
ATOM     10  C   UNL     1       5.510  -0.559  -0.610  1.00  0.00     0.019 A 
ATOM     11  O   UNL     1       3.934  -2.144   0.400  1.00  0.00    -0.475 OA
ATOM     12  C   UNL     1       6.748   0.089  -0.555  1.00  0.00     0.032 A 
ATOM     13  C   UNL     1       5.175  -1.537   0.373  1.00  0.00     0.135 A 
ATOM     14  C   UNL     1       7.618  -0.186   0.492  1.00  0.00     0.042 A 
ATOM     15  C   UNL     1       6.021  -1.758   1.482  1.00  0.00     0.026 A 
ATOM     16  Cl  UNL     1       9.075   0.717   0.641  1.00  0.00    -0.084 Cl
ATOM     17  C   UNL     1       7.262  -1.087   1.496  1.00  0.00     0.033 A 
BRANCH   9  18
ATOM     18  C   UNL     1       3.004  -2.560  -1.867  1.00  0.00     0.429 C 
ATOM     19  F   UNL     1       2.654  -3.842  -1.605  1.00  0.00    -0.167 F 
ATOM     20  F   UNL     1       2.129  -2.100  -2.796  1.00  0.00    -0.167 F 
ATOM     21  F   UNL     1       4.221  -2.598  -2.463  1.00  0.00    -0.167 F 
ENDBRANCH   9  18
BRANCH  15  22
ATOM     22  C   UNL     1       5.593  -2.473   2.711  1.00  0.00    -0.015 A 
ATOM     23  C   UNL     1       5.734  -1.839   3.961  1.00  0.00     0.009 A 
ATOM     24  C   UNL     1       5.049  -3.763   2.709  1.00  0.00     0.009 A 
ATOM     25  C   UNL     1       5.402  -2.480   5.155  1.00  0.00     0.007 A 
ATOM     26  C   UNL     1       4.703  -4.407   3.911  1.00  0.00     0.007 A 
ATOM     27  C   UNL     1       4.903  -3.782   5.148  1.00  0.00    -0.023 A 
BRANCH  27  28
ATOM     28  C   UNL     1       4.543  -4.461   6.444  1.00  0.00     0.191 C 
BRANCH  28  29
ATOM     29  O   UNL     1       5.469  -4.129   7.470  1.00  0.00    -0.392 OA
ATOM     30  H   UNL     1       6.356  -4.424   7.213  1.00  0.00     0.211 HD
ENDBRANCH  28  29
ENDBRANCH  27  28
ENDBRANCH  15  22
ENDBRANCH   5   7
ENDBRANCH   2   3
ENDBRANCH   1   2
BRANCH   1  31
ATOM     31  C   UNL     1       4.000   3.198   3.422  1.00  0.00     0.023 C 
BRANCH  31  32
ATOM     32  C   UNL     1       4.552   2.253   4.489  1.00  0.00     0.116 C 
BRANCH  32  33
ATOM     33  N   UNL     1       5.975   1.969   4.382  1.00  0.00    -0.352 N 
ATOM     34  C   UNL     1       6.844   1.592   5.386  1.00  0.00     0.251 C 
ATOM     35  H   UNL     1       6.366   2.056   3.483  1.00  0.00     0.163 HD
ATOM     36  O   UNL     1       8.030   1.400   5.124  1.00  0.00    -0.269 OA
BRANCH  34  37
ATOM     37  C   UNL     1       6.354   1.457   6.778  1.00  0.00     0.039 A 
ATOM     38  C   UNL     1       7.062   2.086   7.807  1.00  0.00     0.014 A 
ATOM     39  C   UNL     1       5.174   0.766   7.064  1.00  0.00     0.014 A 
ATOM     40  C   UNL     1       6.524   2.119   9.097  1.00  0.00     0.010 A 
ATOM     41  C   UNL     1       4.618   0.832   8.336  1.00  0.00     0.010 A 
ATOM     42  C   UNL     1       5.272   1.540   9.353  1.00  0.00    -0.014 A 
BRANCH  42  43
ATOM     43  C   UNL     1       4.565   1.756  10.637  1.00  0.00     0.031 A 
ATOM     44  C   UNL     1       4.349   0.623  11.593  1.00  0.00     0.074 A 
ATOM     45  C   UNL     1       4.013   2.964  10.864  1.00  0.00     0.049 A 
ATOM     46  N   UNL     1       3.721   0.620  12.740  1.00  0.00    -0.248 NA
ATOM     47  C   UNL     1       4.885  -0.685  11.192  1.00  0.00     0.031 C 
ATOM     48  C   UNL     1       4.101   4.113   9.958  1.00  0.00     0.029 A 
ATOM     49  N   UNL     1       3.254   3.424  11.909  1.00  0.00    -0.354 N 
ATOM     50  C   UNL     1       3.794  -0.687  13.208  1.00  0.00     0.074 A 
ATOM     51  C   UNL     1       4.469  -1.458  12.184  1.00  0.00     0.031 C 
ATOM     52  C   UNL     1       3.437   5.149  10.495  1.00  0.00     0.029 A 
ATOM     53  C   UNL     1       2.852   4.732  11.764  1.00  0.00     0.049 A 
ATOM     54  H   UNL     1       3.019   2.872  12.688  1.00  0.00     0.167 HD
ATOM     55  C   UNL     1       3.354  -1.186  14.391  1.00  0.00     0.034 A 
ATOM     56  C   UNL     1       2.097   5.506  12.566  1.00  0.00     0.034 A 
ATOM     57  C   UNL     1       2.652  -0.396  15.377  1.00  0.00     0.049 A 
ATOM     58  C   UNL     1       1.590   4.923  13.859  1.00  0.00     0.074 A 
ATOM     59  C   UNL     1       2.212  -0.772  16.634  1.00  0.00     0.029 A 
ATOM     60  N   UNL     1       2.264   0.929  15.205  1.00  0.00    -0.354 N 
ATOM     61  N   UNL     1       1.754   3.711  14.339  1.00  0.00    -0.248 NA
ATOM     62  C   UNL     1       0.815   5.817  14.726  1.00  0.00     0.031 C 
ATOM     63  C   UNL     1       1.496   0.296  17.188  1.00  0.00     0.029 A 
ATOM     64  C   UNL     1       1.556   1.371  16.314  1.00  0.00     0.049 A 
ATOM     65  H   UNL     1       2.462   1.475  14.410  1.00  0.00     0.167 HD
ATOM     66  C   UNL     1       1.132   3.710  15.584  1.00  0.00     0.074 A 
ATOM     67  C   UNL     1       0.603   5.045  15.781  1.00  0.00     0.031 C 
ATOM     68  C   UNL     1       1.017   2.701  16.486  1.00  0.00     0.034 A 
BRANCH  55  69
ATOM     69  C   UNL     1       3.598  -2.654  14.655  1.00  0.00     0.023 A 
ATOM     70  C   UNL     1       4.899  -3.188  14.703  1.00  0.00     0.031 A 
ATOM     71  C   UNL     1       2.521  -3.542  14.825  1.00  0.00     0.131 A 
ATOM     72  C   UNL     1       5.089  -4.573  14.828  1.00  0.00     0.055 A 
ATOM     73  C   UNL     1       2.719  -4.910  15.033  1.00  0.00     0.041 A 
ATOM     74  F   UNL     1       1.254  -3.101  14.771  1.00  0.00    -0.206 F 
ATOM     75  C   UNL     1       4.008  -5.435  15.017  1.00  0.00     0.022 A 
BRANCH  72  76
ATOM     76  S   UNL     1       6.757  -5.245  14.584  1.00  0.00     0.124 S 
ATOM     77  O   UNL     1       7.086  -4.749  13.250  1.00  0.00    -0.237 OA
ATOM     78  O   UNL     1       7.500  -4.650  15.688  1.00  0.00    -0.237 OA
ATOM     79  O   UNL     1       6.560  -6.691  14.671  1.00  0.00    -0.744 OA
ENDBRANCH  72  76
ENDBRANCH  55  69
BRANCH  56  80
ATOM     80  C   UNL     1       1.800   6.917  12.191  1.00  0.00     0.023 A 
ATOM     81  C   UNL     1       2.311   7.981  12.949  1.00  0.00     0.031 A 
ATOM     82  C   UNL     1       0.987   7.224  11.085  1.00  0.00     0.131 A 
ATOM     83  C   UNL     1       1.971   9.302  12.620  1.00  0.00     0.055 A 
ATOM     84  C   UNL     1       0.691   8.542  10.733  1.00  0.00     0.041 A 
ATOM     85  F   UNL     1       0.482   6.243  10.320  1.00  0.00    -0.206 F 
ATOM     86  C   UNL     1       1.175   9.590  11.510  1.00  0.00     0.022 A 
BRANCH  83  87
ATOM     87  S   UNL     1       2.531  10.637  13.712  1.00  0.00     0.124 S 
ATOM     88  O   UNL     1       1.945  10.244  14.988  1.00  0.00    -0.237 OA
ATOM     89  O   UNL     1       3.982  10.523  13.609  1.00  0.00    -0.237 OA
ATOM     90  O   UNL     1       1.958  11.836  13.103  1.00  0.00    -0.744 OA
ENDBRANCH  83  87
ENDBRANCH  56  80
BRANCH  68  91
ATOM     91  C   UNL     1       0.323   3.031  17.785  1.00  0.00     0.023 A 
ATOM     92  C   UNL     1      -1.043   3.363  17.833  1.00  0.00     0.031 A 
ATOM     93  C   UNL     1       1.048   3.045  18.990  1.00  0.00     0.131 A 
ATOM     94  C   UNL     1      -1.625   3.758  19.047  1.00  0.00     0.055 A 
ATOM     95  C   UNL     1       0.448   3.374  20.206  1.00  0.00     0.041 A 
ATOM     96  F   UNL     1       2.356   2.741  19.003  1.00  0.00    -0.206 F 
ATOM     97  C   UNL     1      -0.892   3.748  20.237  1.00  0.00     0.022 A 
BRANCH  94  98
ATOM     98  S   UNL     1      -3.325   4.388  19.033  1.00  0.00     0.124 S 
ATOM     99  O   UNL     1      -3.224   5.514  18.109  1.00  0.00    -0.237 OA
ATOM    100  O   UNL     1      -4.082   3.236  18.553  1.00  0.00    -0.237 OA
ATOM    101  O   UNL     1      -3.568   4.751  20.428  1.00  0.00    -0.744 OA
ENDBRANCH  94  98
ENDBRANCH  68  91
ENDBRANCH  42  43
ENDBRANCH  34  37
ENDBRANCH  32  33
ENDBRANCH  31  32
ENDBRANCH   1  31
TORSDOF 18
