REMARK SMILES CC[C@]1(C(=O)NCCCCNC(=O)c2ccc(-c3c4nc(c(-c5cc(S(=O)(=O)[O-])ccc5F)c5ccc([nH]5)c(-c5cc(S(=O)(=O)[O-])ccc5F)c5nc(c(-c6cc(S(=O)(=O)[O-])ccc6F)c6ccc3[nH]6)C=C5)C=C4)cc2)CCC[N@@H+]([C@@H]2CCC[C@H](S(C)(=O)=O)C2)C1
REMARK SMILES IDX 9 1 8 2 7 3 6 4 4 5 5 6 3 8 77 9 91 10 78 11 80 12 79 13
REMARK SMILES IDX 2 15 1 16 81 17 82 18 90 19 83 20 85 21 84 22 86 23 87 24
REMARK SMILES IDX 88 25 89 26 10 27 11 28 12 29 13 31 14 32 15 33 76 34 16 35
REMARK SMILES IDX 75 36 17 37 18 38 19 39 69 40 20 41 74 42 68 43 70 44 21 45
REMARK SMILES IDX 73 46 67 47 66 48 22 50 54 51 34 52 53 53 35 54 38 55 52 56
REMARK SMILES IDX 71 57 36 58 37 59 51 61 72 62 39 63 23 64 24 65 32 66 25 67
REMARK SMILES IDX 31 68 33 69 30 70 26 71 27 72 28 73 29 74 55 75 56 76 64 77
REMARK SMILES IDX 57 78 63 79 65 80 62 81 58 82 59 83 60 84 61 85 40 86 41 87
REMARK SMILES IDX 49 88 42 89 48 90 50 91 47 92 43 93 44 94 45 95 46 96
REMARK H PARENT 6 7 80 14 11 30 70 49 38 60
REMARK Flexibility Score: inf
ROOT
ATOM      1  C   UNL     1       0.368  -2.770  -6.835  1.00  0.00     0.023 C 
ENDROOT
BRANCH   1   2
ATOM      2  C   UNL     1       1.176  -2.645  -5.546  1.00  0.00     0.023 C 
BRANCH   2   3
ATOM      3  C   UNL     1       1.553  -1.216  -5.166  1.00  0.00     0.116 C 
BRANCH   3   4
ATOM      4  N   UNL     1       0.401  -0.418  -4.780  1.00  0.00    -0.355 N 
ATOM      5  C   UNL     1       0.053   0.181  -3.603  1.00  0.00     0.231 C 
ATOM      6  O   UNL     1      -0.982   0.856  -3.632  1.00  0.00    -0.274 OA
ATOM      7  H   UNL     1      -0.252  -0.283  -5.505  1.00  0.00     0.163 HD
BRANCH   5   8
ATOM      8  C   UNL     1       0.914   0.060  -2.313  1.00  0.00     0.098 C 
ATOM      9  C   UNL     1       1.057  -1.432  -1.931  1.00  0.00     0.028 C 
ATOM     10  C   UNL     1       2.265   0.773  -2.613  1.00  0.00     0.279 C 
ATOM     11  C   UNL     1       2.333  -1.771  -1.171  1.00  0.00     0.063 C 
ATOM     12  N   UNL     1       3.413   0.373  -1.780  1.00  0.00    -0.332 N 
ATOM     13  C   UNL     1       3.565  -1.087  -1.749  1.00  0.00     0.262 C 
ATOM     14  H   UNL     1       3.230   0.651  -0.816  1.00  0.00     0.348 HD
BRANCH   8  15
ATOM     15  C   UNL     1       0.155   0.825  -1.171  1.00  0.00     0.019 C 
ATOM     16  C   UNL     1       0.633   0.613   0.259  1.00  0.00     0.005 C 
ENDBRANCH   8  15
BRANCH  12  17
ATOM     17  C   UNL     1       4.649   1.100  -2.179  1.00  0.00     0.185 C 
ATOM     18  C   UNL     1       5.258   0.659  -3.529  1.00  0.00     0.065 C 
ATOM     19  C   UNL     1       5.689   1.043  -1.042  1.00  0.00     0.084 C 
ATOM     20  C   UNL     1       6.548   1.404  -3.846  1.00  0.00     0.007 C 
ATOM     21  C   UNL     1       7.026   1.714  -1.392  1.00  0.00     0.114 C 
ATOM     22  C   UNL     1       7.570   1.219  -2.733  1.00  0.00     0.020 C 
BRANCH  21  23
ATOM     23  S   UNL     1       8.197   1.410  -0.046  1.00  0.00     0.150 S 
ATOM     24  C   UNL     1       9.714   2.171  -0.571  1.00  0.00     0.158 C 
ATOM     25  O   UNL     1       7.739   2.155   1.113  1.00  0.00    -0.229 OA
ATOM     26  O   UNL     1       8.443  -0.015   0.044  1.00  0.00    -0.229 OA
ENDBRANCH  21  23
ENDBRANCH  12  17
ENDBRANCH   5   8
ENDBRANCH   3   4
ENDBRANCH   2   3
ENDBRANCH   1   2
BRANCH   1  27
ATOM     27  C   UNL     1       1.014  -2.143  -8.064  1.00  0.00     0.116 C 
BRANCH  27  28
ATOM     28  N   UNL     1       2.335  -2.683  -8.351  1.00  0.00    -0.352 N 
ATOM     29  C   UNL     1       2.833  -3.161  -9.540  1.00  0.00     0.251 C 
ATOM     30  H   UNL     1       2.957  -2.709  -7.589  1.00  0.00     0.163 HD
ATOM     31  O   UNL     1       3.928  -3.715  -9.564  1.00  0.00    -0.269 OA
BRANCH  29  32
ATOM     32  C   UNL     1       2.025  -3.035 -10.771  1.00  0.00     0.039 A 
ATOM     33  C   UNL     1       1.869  -4.151 -11.597  1.00  0.00     0.014 A 
ATOM     34  C   UNL     1       1.388  -1.832 -11.086  1.00  0.00     0.014 A 
ATOM     35  C   UNL     1       1.012  -4.079 -12.697  1.00  0.00     0.010 A 
ATOM     36  C   UNL     1       0.470  -1.789 -12.131  1.00  0.00     0.010 A 
ATOM     37  C   UNL     1       0.270  -2.912 -12.948  1.00  0.00    -0.014 A 
BRANCH  37  38
ATOM     38  C   UNL     1      -0.720  -2.850 -14.056  1.00  0.00     0.031 A 
ATOM     39  C   UNL     1      -0.534  -1.862 -15.177  1.00  0.00     0.074 A 
ATOM     40  C   UNL     1      -1.818  -3.632 -14.016  1.00  0.00     0.049 A 
ATOM     41  N   UNL     1      -1.323  -1.600 -16.187  1.00  0.00    -0.248 NA
ATOM     42  C   UNL     1       0.685  -1.038 -15.139  1.00  0.00     0.031 C 
ATOM     43  C   UNL     1      -2.132  -4.595 -12.956  1.00  0.00     0.029 A 
ATOM     44  N   UNL     1      -2.882  -3.737 -14.878  1.00  0.00    -0.354 N 
ATOM     45  C   UNL     1      -0.708  -0.571 -16.892  1.00  0.00     0.074 A 
ATOM     46  C   UNL     1       0.492  -0.221 -16.164  1.00  0.00     0.031 C 
ATOM     47  C   UNL     1      -3.295  -5.203 -13.241  1.00  0.00     0.029 A 
ATOM     48  C   UNL     1      -3.840  -4.641 -14.473  1.00  0.00     0.049 A 
ATOM     49  H   UNL     1      -2.954  -3.214 -15.709  1.00  0.00     0.167 HD
ATOM     50  C   UNL     1      -1.101   0.015 -18.049  1.00  0.00     0.034 A 
ATOM     51  C   UNL     1      -5.030  -4.965 -15.018  1.00  0.00     0.034 A 
ATOM     52  C   UNL     1      -2.290  -0.362 -18.773  1.00  0.00     0.049 A 
ATOM     53  C   UNL     1      -5.448  -4.289 -16.301  1.00  0.00     0.074 A 
ATOM     54  C   UNL     1      -2.737   0.110 -19.995  1.00  0.00     0.029 A 
ATOM     55  N   UNL     1      -3.229  -1.290 -18.340  1.00  0.00    -0.354 N 
ATOM     56  N   UNL     1      -4.816  -3.369 -16.994  1.00  0.00    -0.248 NA
ATOM     57  C   UNL     1      -6.732  -4.702 -16.883  1.00  0.00     0.031 C 
ATOM     58  C   UNL     1      -3.983  -0.467 -20.259  1.00  0.00     0.029 A 
ATOM     59  C   UNL     1      -4.272  -1.371 -19.249  1.00  0.00     0.049 A 
ATOM     60  H   UNL     1      -3.163  -1.812 -17.508  1.00  0.00     0.167 HD
ATOM     61  C   UNL     1      -5.612  -3.121 -18.110  1.00  0.00     0.074 A 
ATOM     62  C   UNL     1      -6.757  -4.000 -18.006  1.00  0.00     0.031 C 
ATOM     63  C   UNL     1      -5.413  -2.248 -19.131  1.00  0.00     0.034 A 
BRANCH  50  64
ATOM     64  C   UNL     1      -0.258   1.146 -18.590  1.00  0.00     0.023 A 
ATOM     65  C   UNL     1       1.071   0.953 -19.004  1.00  0.00     0.031 A 
ATOM     66  C   UNL     1      -0.800   2.439 -18.700  1.00  0.00     0.131 A 
ATOM     67  C   UNL     1       1.830   2.045 -19.452  1.00  0.00     0.055 A 
ATOM     68  C   UNL     1      -0.065   3.505 -19.222  1.00  0.00     0.041 A 
ATOM     69  F   UNL     1      -2.056   2.690 -18.298  1.00  0.00    -0.206 F 
ATOM     70  C   UNL     1       1.263   3.314 -19.591  1.00  0.00     0.022 A 
BRANCH  67  71
ATOM     71  S   UNL     1       3.607   1.811 -19.732  1.00  0.00     0.124 S 
ATOM     72  O   UNL     1       4.058   1.374 -18.413  1.00  0.00    -0.237 OA
ATOM     73  O   UNL     1       3.630   0.800 -20.783  1.00  0.00    -0.237 OA
ATOM     74  O   UNL     1       4.069   3.138 -20.133  1.00  0.00    -0.744 OA
ENDBRANCH  67  71
ENDBRANCH  50  64
BRANCH  51  75
ATOM     75  C   UNL     1      -5.932  -5.949 -14.348  1.00  0.00     0.023 A 
ATOM     76  C   UNL     1      -6.303  -7.146 -14.983  1.00  0.00     0.031 A 
ATOM     77  C   UNL     1      -6.492  -5.675 -13.087  1.00  0.00     0.131 A 
ATOM     78  C   UNL     1      -7.252  -7.992 -14.385  1.00  0.00     0.055 A 
ATOM     79  C   UNL     1      -7.384  -6.551 -12.467  1.00  0.00     0.041 A 
ATOM     80  F   UNL     1      -6.173  -4.547 -12.433  1.00  0.00    -0.206 F 
ATOM     81  C   UNL     1      -7.783  -7.710 -13.125  1.00  0.00     0.022 A 
BRANCH  78  82
ATOM     82  S   UNL     1      -7.872  -9.408 -15.334  1.00  0.00     0.124 S 
ATOM     83  O   UNL     1      -8.367  -8.760 -16.544  1.00  0.00    -0.237 OA
ATOM     84  O   UNL     1      -6.670 -10.220 -15.486  1.00  0.00    -0.237 OA
ATOM     85  O   UNL     1      -8.900  -9.976 -14.464  1.00  0.00    -0.744 OA
ENDBRANCH  78  82
ENDBRANCH  51  75
BRANCH  63  86
ATOM     86  C   UNL     1      -6.435  -2.242 -20.243  1.00  0.00     0.023 A 
ATOM     87  C   UNL     1      -7.764  -1.837 -20.031  1.00  0.00     0.031 A 
ATOM     88  C   UNL     1      -6.069  -2.655 -21.537  1.00  0.00     0.131 A 
ATOM     89  C   UNL     1      -8.692  -1.908 -21.080  1.00  0.00     0.055 A 
ATOM     90  C   UNL     1      -6.980  -2.657 -22.594  1.00  0.00     0.041 A 
ATOM     91  F   UNL     1      -4.814  -3.057 -21.798  1.00  0.00    -0.206 F 
ATOM     92  C   UNL     1      -8.304  -2.296 -22.365  1.00  0.00     0.022 A 
BRANCH  89  93
ATOM     93  S   UNL     1     -10.440  -1.582 -20.721  1.00  0.00     0.124 S 
ATOM     94  O   UNL     1     -10.728  -2.577 -19.693  1.00  0.00    -0.237 OA
ATOM     95  O   UNL     1     -10.413  -0.193 -20.274  1.00  0.00    -0.237 OA
ATOM     96  O   UNL     1     -11.101  -1.807 -22.005  1.00  0.00    -0.744 OA
ENDBRANCH  89  93
ENDBRANCH  63  86
ENDBRANCH  37  38
ENDBRANCH  29  32
ENDBRANCH  27  28
ENDBRANCH   1  27
TORSDOF 17
