REMARK SMILES CCOc1ccccc1N1C(=O)/C(=C\c2ccc(OCC(=O)NCCCCNC(=O)c3ccc(-c4c5nc(c(-c6cc(S(=O)(=O)[O-])ccc6F)c6ccc([nH]6)c(-c6cc(S(=O)(=O)[O-])ccc6F)c6nc(c(-c7cc(S(=O)(=O)[O-])ccc7F)c7ccc4[nH]7)C=C6)C=C5)cc3)cc2)SC1=S
REMARK SMILES IDX 24 1 23 2 21 3 22 4 20 6 19 7 18 8 15 9 16 10 95 11 17 12
REMARK SMILES IDX 94 13 14 14 10 15 11 16 97 17 12 18 13 19 96 20 98 21 9 22
REMARK SMILES IDX 4 23 5 24 6 25 8 26 7 27 3 28 2 29 1 30 25 31 26 32 27 33
REMARK SMILES IDX 28 34 29 35 30 37 31 38 32 39 93 40 33 41 92 42 34 43 35 44
REMARK SMILES IDX 36 45 86 46 37 47 91 48 85 49 87 50 38 51 90 52 84 53 83 54
REMARK SMILES IDX 39 56 71 57 51 58 70 59 52 60 55 61 69 62 88 63 53 64 54 65
REMARK SMILES IDX 68 67 89 68 56 69 40 70 41 71 49 72 42 73 48 74 50 75 47 76
REMARK SMILES IDX 43 77 44 78 45 79 46 80 72 81 73 82 81 83 74 84 80 85 82 86
REMARK SMILES IDX 79 87 75 88 76 89 77 90 78 91 57 92 58 93 66 94 59 95 65 96
REMARK SMILES IDX 67 97 64 98 60 99 61 100 62 101 63 102
REMARK H PARENT 23 5 28 36 87 55 55 66
REMARK Flexibility Score: inf
ROOT
ATOM      1  C   UNL     1       8.818  -1.412   3.949  1.00  0.00     0.116 C 
ENDROOT
BRANCH   1   2
ATOM      2  N   UNL     1       7.644  -0.726   4.451  1.00  0.00    -0.353 N 
ATOM      3  C   UNL     1       6.557  -1.249   5.091  1.00  0.00     0.257 C 
ATOM      4  O   UNL     1       5.678  -0.484   5.495  1.00  0.00    -0.271 OA
ATOM      5  H   UNL     1       7.627   0.248   4.310  1.00  0.00     0.163 HD
BRANCH   3   6
ATOM      6  C   UNL     1       6.476  -2.759   5.362  1.00  0.00     0.329 C 
BRANCH   6   7
ATOM      7  O   UNL     1       6.580  -3.642   4.257  1.00  0.00    -0.484 OA
BRANCH   7   8
ATOM      8  C   UNL     1       5.621  -3.558   3.287  1.00  0.00     0.120 A 
ATOM      9  C   UNL     1       3.914  -3.396   1.065  1.00  0.00    -0.024 A 
ATOM     10  C   UNL     1       5.104  -4.119   0.980  1.00  0.00     0.012 A 
ATOM     11  C   UNL     1       3.550  -2.813   2.284  1.00  0.00     0.012 A 
ATOM     12  C   UNL     1       5.948  -4.202   2.090  1.00  0.00     0.047 A 
ATOM     13  C   UNL     1       4.401  -2.892   3.391  1.00  0.00     0.047 A 
BRANCH   9  14
ATOM     14  C   UNL     1       3.092  -3.203  -0.131  1.00  0.00     0.029 C 
ATOM     15  N   UNL     1       3.046   0.287  -1.169  1.00  0.00    -0.257 N 
ATOM     16  C   UNL     1       3.646  -0.744  -0.458  1.00  0.00     0.270 C 
ATOM     17  C   UNL     1       2.152  -0.075  -2.164  1.00  0.00     0.153 C 
ATOM     18  O   UNL     1       4.561  -0.645   0.346  1.00  0.00    -0.268 OA
ATOM     19  C   UNL     1       2.976  -2.039  -0.789  1.00  0.00     0.081 C 
ATOM     20  S   UNL     1       1.907  -1.825  -2.122  1.00  0.00    -0.054 SA
ATOM     21  S   UNL     1       1.437   0.855  -3.356  1.00  0.00    -0.051 S 
BRANCH  15  22
ATOM     22  C   UNL     1       3.324   1.630  -0.789  1.00  0.00     0.093 A 
ATOM     23  C   UNL     1       2.297   2.473  -0.330  1.00  0.00     0.143 A 
ATOM     24  C   UNL     1       2.577   3.774   0.094  1.00  0.00     0.049 A 
ATOM     25  C   UNL     1       3.895   4.231   0.102  1.00  0.00     0.004 A 
ATOM     26  C   UNL     1       4.647   2.092  -0.743  1.00  0.00     0.031 A 
ATOM     27  C   UNL     1       4.928   3.390  -0.310  1.00  0.00     0.002 A 
BRANCH  23  28
ATOM     28  O   UNL     1       1.005   2.019  -0.296  1.00  0.00    -0.492 OA
BRANCH  28  29
ATOM     29  C   UNL     1       0.570   1.687   1.026  1.00  0.00     0.226 C 
ATOM     30  C   UNL     1       0.132   0.232   1.028  1.00  0.00     0.049 C 
ENDBRANCH  28  29
ENDBRANCH  23  28
ENDBRANCH  15  22
ENDBRANCH   9  14
ENDBRANCH   7   8
ENDBRANCH   6   7
ENDBRANCH   3   6
ENDBRANCH   1   2
BRANCH   1  31
ATOM     31  C   UNL     1       8.893  -1.415   2.423  1.00  0.00     0.023 C 
BRANCH  31  32
ATOM     32  C   UNL     1       8.977  -0.034   1.764  1.00  0.00     0.023 C 
BRANCH  32  33
ATOM     33  C   UNL     1      10.101   0.879   2.250  1.00  0.00     0.116 C 
BRANCH  33  34
ATOM     34  N   UNL     1      11.427   0.310   2.062  1.00  0.00    -0.352 N 
ATOM     35  C   UNL     1      12.554   0.867   1.502  1.00  0.00     0.251 C 
ATOM     36  H   UNL     1      11.534  -0.613   2.386  1.00  0.00     0.163 HD
ATOM     37  O   UNL     1      13.554   0.171   1.342  1.00  0.00    -0.269 OA
BRANCH  35  38
ATOM     38  C   UNL     1      12.554   2.278   1.052  1.00  0.00     0.039 A 
ATOM     39  C   UNL     1      13.062   2.576  -0.217  1.00  0.00     0.014 A 
ATOM     40  C   UNL     1      12.048   3.302   1.858  1.00  0.00     0.014 A 
ATOM     41  C   UNL     1      12.969   3.879  -0.716  1.00  0.00     0.010 A 
ATOM     42  C   UNL     1      11.907   4.589   1.338  1.00  0.00     0.010 A 
ATOM     43  C   UNL     1      12.341   4.885   0.036  1.00  0.00    -0.014 A 
BRANCH  43  44
ATOM     44  C   UNL     1      12.055   6.222  -0.550  1.00  0.00     0.031 A 
ATOM     45  C   UNL     1      12.703   7.460   0.005  1.00  0.00     0.074 A 
ATOM     46  C   UNL     1      11.129   6.325  -1.526  1.00  0.00     0.049 A 
ATOM     47  N   UNL     1      12.489   8.713  -0.305  1.00  0.00    -0.248 NA
ATOM     48  C   UNL     1      13.706   7.263   1.062  1.00  0.00     0.031 C 
ATOM     49  C   UNL     1      10.400   5.200  -2.119  1.00  0.00     0.029 A 
ATOM     50  N   UNL     1      10.623   7.424  -2.176  1.00  0.00    -0.354 N 
ATOM     51  C   UNL     1      13.318   9.458   0.526  1.00  0.00     0.074 A 
ATOM     52  C   UNL     1      14.011   8.514   1.379  1.00  0.00     0.031 C 
ATOM     53  C   UNL     1       9.545   5.667  -3.043  1.00  0.00     0.029 A 
ATOM     54  C   UNL     1       9.627   7.123  -3.077  1.00  0.00     0.049 A 
ATOM     55  H   UNL     1      10.943   8.340  -2.014  1.00  0.00     0.167 HD
ATOM     56  C   UNL     1      13.491  10.803   0.564  1.00  0.00     0.034 A 
ATOM     57  C   UNL     1       8.845   7.926  -3.826  1.00  0.00     0.034 A 
ATOM     58  C   UNL     1      12.806  11.731  -0.304  1.00  0.00     0.049 A 
ATOM     59  C   UNL     1       9.037   9.419  -3.741  1.00  0.00     0.074 A 
ATOM     60  C   UNL     1      12.986  13.100  -0.413  1.00  0.00     0.029 A 
ATOM     61  N   UNL     1      11.800  11.392  -1.198  1.00  0.00    -0.354 N 
ATOM     62  N   UNL     1       9.880  10.101  -3.001  1.00  0.00    -0.248 NA
ATOM     63  C   UNL     1       8.175  10.249  -4.593  1.00  0.00     0.031 C 
ATOM     64  C   UNL     1      12.041  13.596  -1.319  1.00  0.00     0.029 A 
ATOM     65  C   UNL     1      11.317  12.530  -1.826  1.00  0.00     0.049 A 
ATOM     66  H   UNL     1      11.476  10.477  -1.363  1.00  0.00     0.167 HD
ATOM     67  C   UNL     1       9.659  11.439  -3.312  1.00  0.00     0.074 A 
ATOM     68  C   UNL     1       8.620  11.466  -4.321  1.00  0.00     0.031 C 
ATOM     69  C   UNL     1      10.260  12.547  -2.809  1.00  0.00     0.034 A 
BRANCH  56  70
ATOM     70  C   UNL     1      14.438  11.359   1.598  1.00  0.00     0.023 A 
ATOM     71  C   UNL     1      15.819  11.103   1.552  1.00  0.00     0.031 A 
ATOM     72  C   UNL     1      13.951  12.167   2.641  1.00  0.00     0.131 A 
ATOM     73  C   UNL     1      16.658  11.603   2.560  1.00  0.00     0.055 A 
ATOM     74  C   UNL     1      14.800  12.717   3.603  1.00  0.00     0.041 A 
ATOM     75  F   UNL     1      12.639  12.431   2.745  1.00  0.00    -0.206 F 
ATOM     76  C   UNL     1      16.161  12.428   3.572  1.00  0.00     0.022 A 
BRANCH  73  77
ATOM     77  S   UNL     1      18.392  11.074   2.589  1.00  0.00     0.124 S 
ATOM     78  O   UNL     1      18.256   9.626   2.731  1.00  0.00    -0.237 OA
ATOM     79  O   UNL     1      18.888  11.546   1.302  1.00  0.00    -0.237 OA
ATOM     80  O   UNL     1      18.940  11.759   3.758  1.00  0.00    -0.744 OA
ENDBRANCH  73  77
ENDBRANCH  56  70
BRANCH  57  81
ATOM     81  C   UNL     1       7.777   7.349  -4.691  1.00  0.00     0.023 A 
ATOM     82  C   UNL     1       7.831   7.476  -6.087  1.00  0.00     0.031 A 
ATOM     83  C   UNL     1       6.661   6.704  -4.128  1.00  0.00     0.131 A 
ATOM     84  C   UNL     1       6.765   7.011  -6.873  1.00  0.00     0.055 A 
ATOM     85  C   UNL     1       5.628   6.196  -4.917  1.00  0.00     0.041 A 
ATOM     86  F   UNL     1       6.564   6.550  -2.797  1.00  0.00    -0.206 F 
ATOM     87  C   UNL     1       5.670   6.361  -6.299  1.00  0.00     0.022 A 
BRANCH  84  88
ATOM     88  S   UNL     1       6.792   7.349  -8.655  1.00  0.00     0.124 S 
ATOM     89  O   UNL     1       6.918   8.802  -8.680  1.00  0.00    -0.237 OA
ATOM     90  O   UNL     1       7.965   6.596  -9.087  1.00  0.00    -0.237 OA
ATOM     91  O   UNL     1       5.510   6.825  -9.120  1.00  0.00    -0.744 OA
ENDBRANCH  84  88
ENDBRANCH  57  81
BRANCH  69  92
ATOM     92  C   UNL     1       9.810  13.876  -3.361  1.00  0.00     0.023 A 
ATOM     93  C   UNL     1       8.527  14.384  -3.093  1.00  0.00     0.031 A 
ATOM     94  C   UNL     1      10.668  14.635  -4.176  1.00  0.00     0.131 A 
ATOM     95  C   UNL     1       8.120  15.594  -3.675  1.00  0.00     0.055 A 
ATOM     96  C   UNL     1      10.277  15.864  -4.709  1.00  0.00     0.041 A 
ATOM     97  F   UNL     1      11.903  14.194  -4.466  1.00  0.00    -0.206 F 
ATOM     98  C   UNL     1       8.992  16.345  -4.469  1.00  0.00     0.022 A 
BRANCH  95  99
ATOM     99  S   UNL     1       6.407  16.142  -3.441  1.00  0.00     0.124 S 
ATOM    100  O   UNL     1       5.654  15.055  -4.059  1.00  0.00    -0.237 OA
ATOM    101  O   UNL     1       6.306  16.241  -1.988  1.00  0.00    -0.237 OA
ATOM    102  O   UNL     1       6.354  17.417  -4.152  1.00  0.00    -0.744 OA
ENDBRANCH  95  99
ENDBRANCH  69  92
ENDBRANCH  43  44
ENDBRANCH  35  38
ENDBRANCH  33  34
ENDBRANCH  32  33
ENDBRANCH  31  32
ENDBRANCH   1  31
TORSDOF 20
