REMARK SMILES CC(C)[C@@H](CCNC(=O)N1C[C@@H](C)[C@H](C)C1)CCC(=O)NCCCCNC(=O)c1ccc(-c2c3nc(c(-c4cc(S(=O)(=O)[O-])ccc4F)c4ccc([nH]4)c(-c4cc(S(=O)(=O)[O-])ccc4F)c4nc(c(-c5cc(S(=O)(=O)[O-])ccc5F)c5ccc2[nH]5)C=C4)C=C3)cc1
REMARK SMILES IDX 22 1 21 2 19 3 20 4 18 6 17 7 4 8 2 9 1 10 3 11 5 12 6 13
REMARK SMILES IDX 7 14 8 15 9 17 10 18 11 19 16 20 12 21 14 22 13 23 15 24
REMARK SMILES IDX 23 25 24 26 25 27 26 28 27 29 28 31 29 32 30 33 91 34 31 35
REMARK SMILES IDX 90 36 32 37 33 38 34 39 84 40 35 41 89 42 83 43 85 44 36 45
REMARK SMILES IDX 88 46 82 47 81 48 37 50 69 51 49 52 68 53 50 54 53 55 67 56
REMARK SMILES IDX 86 57 51 58 52 59 66 61 87 62 54 63 38 64 39 65 47 66 40 67
REMARK SMILES IDX 46 68 48 69 45 70 41 71 42 72 43 73 44 74 70 75 71 76 79 77
REMARK SMILES IDX 72 78 78 79 80 80 77 81 73 82 74 83 75 84 76 85 55 86 56 87
REMARK SMILES IDX 64 88 57 89 63 90 65 91 62 92 58 93 59 94 60 95 61 96
REMARK H PARENT 21 5 7 16 26 30 85 49 53 60
REMARK Flexibility Score: inf
ROOT
ATOM      1  C   UNL     1      -1.144  -2.957   0.769  1.00  0.00     0.116 C 
ENDROOT
BRANCH   1   2
ATOM      2  N   UNL     1      -2.151  -3.548  -0.095  1.00  0.00    -0.356 N 
ATOM      3  C   UNL     1      -2.284  -3.536  -1.451  1.00  0.00     0.220 C 
ATOM      4  O   UNL     1      -3.321  -3.994  -1.934  1.00  0.00    -0.275 OA
ATOM      5  H   UNL     1      -2.859  -4.041   0.380  1.00  0.00     0.163 HD
BRANCH   3   6
ATOM      6  C   UNL     1      -1.167  -3.032  -2.353  1.00  0.00     0.100 C 
BRANCH   6   7
ATOM      7  C   UNL     1      -1.235  -1.543  -2.745  1.00  0.00     0.014 C 
BRANCH   7   8
ATOM      8  C   UNL     1      -0.540  -0.576  -1.760  1.00  0.00    -0.006 C 
BRANCH   8   9
ATOM      9  C   UNL     1       1.010  -0.437  -1.865  1.00  0.00    -0.014 C 
ATOM     10  C   UNL     1       1.572   0.244  -0.604  1.00  0.00     0.007 C 
ATOM     11  C   UNL     1       1.779  -1.742  -2.070  1.00  0.00     0.007 C 
ENDBRANCH   8   9
BRANCH   8  12
ATOM     12  C   UNL     1      -1.272   0.791  -1.672  1.00  0.00     0.025 C 
BRANCH  12  13
ATOM     13  C   UNL     1      -0.860   1.878  -2.667  1.00  0.00     0.118 C 
BRANCH  13  14
ATOM     14  N   UNL     1      -1.415   1.649  -3.982  1.00  0.00    -0.338 N 
ATOM     15  C   UNL     1      -2.558   2.148  -4.515  1.00  0.00     0.317 C 
ATOM     16  H   UNL     1      -0.895   1.054  -4.569  1.00  0.00     0.165 HD
ATOM     17  O   UNL     1      -3.152   1.453  -5.340  1.00  0.00    -0.249 OA
ATOM     18  N   UNL     1      -2.998   3.382  -4.135  1.00  0.00    -0.324 N 
ATOM     19  C   UNL     1      -4.335   3.831  -4.459  1.00  0.00     0.125 C 
ATOM     20  C   UNL     1      -2.173   4.511  -3.735  1.00  0.00     0.125 C 
ATOM     21  C   UNL     1      -4.130   5.241  -5.000  1.00  0.00     0.010 C 
ATOM     22  C   UNL     1      -2.909   5.767  -4.220  1.00  0.00     0.010 C 
ATOM     23  C   UNL     1      -5.362   6.114  -4.820  1.00  0.00     0.010 C 
ATOM     24  C   UNL     1      -2.015   6.654  -5.080  1.00  0.00     0.010 C 
ENDBRANCH  13  14
ENDBRANCH  12  13
ENDBRANCH   8  12
ENDBRANCH   7   8
ENDBRANCH   6   7
ENDBRANCH   3   6
ENDBRANCH   1   2
BRANCH   1  25
ATOM     25  C   UNL     1      -1.652  -1.625   1.341  1.00  0.00     0.023 C 
BRANCH  25  26
ATOM     26  C   UNL     1      -2.067  -1.677   2.805  1.00  0.00     0.023 C 
BRANCH  26  27
ATOM     27  C   UNL     1      -0.898  -1.873   3.759  1.00  0.00     0.116 C 
BRANCH  27  28
ATOM     28  N   UNL     1       0.082  -0.795   3.730  1.00  0.00    -0.352 N 
ATOM     29  C   UNL     1       0.907  -0.378   4.756  1.00  0.00     0.251 C 
ATOM     30  H   UNL     1       0.166  -0.306   2.880  1.00  0.00     0.163 HD
ATOM     31  O   UNL     1       1.633   0.592   4.616  1.00  0.00    -0.269 OA
BRANCH  29  32
ATOM     32  C   UNL     1       0.834  -1.103   6.045  1.00  0.00     0.039 A 
ATOM     33  C   UNL     1       0.610  -0.379   7.216  1.00  0.00     0.014 A 
ATOM     34  C   UNL     1       0.873  -2.498   6.069  1.00  0.00     0.014 A 
ATOM     35  C   UNL     1       0.344  -1.065   8.403  1.00  0.00     0.010 A 
ATOM     36  C   UNL     1       0.505  -3.174   7.224  1.00  0.00     0.010 A 
ATOM     37  C   UNL     1       0.247  -2.467   8.407  1.00  0.00    -0.014 A 
BRANCH  37  38
ATOM     38  C   UNL     1      -0.088  -3.212   9.648  1.00  0.00     0.031 A 
ATOM     39  C   UNL     1       0.900  -4.194  10.217  1.00  0.00     0.074 A 
ATOM     40  C   UNL     1      -1.297  -3.051  10.223  1.00  0.00     0.049 A 
ATOM     41  N   UNL     1       0.788  -4.973  11.262  1.00  0.00    -0.248 NA
ATOM     42  C   UNL     1       2.166  -4.354   9.485  1.00  0.00     0.031 C 
ATOM     43  C   UNL     1      -2.369  -2.188   9.718  1.00  0.00     0.029 A 
ATOM     44  N   UNL     1      -1.829  -3.606  11.359  1.00  0.00    -0.354 N 
ATOM     45  C   UNL     1       1.957  -5.728  11.297  1.00  0.00     0.074 A 
ATOM     46  C   UNL     1       2.720  -5.372  10.121  1.00  0.00     0.031 C 
ATOM     47  C   UNL     1      -3.412  -2.242  10.563  1.00  0.00     0.029 A 
ATOM     48  C   UNL     1      -3.098  -3.162  11.651  1.00  0.00     0.049 A 
ATOM     49  H   UNL     1      -1.347  -4.261  11.914  1.00  0.00     0.167 HD
ATOM     50  C   UNL     1       2.375  -6.606  12.241  1.00  0.00     0.034 A 
ATOM     51  C   UNL     1      -3.909  -3.458  12.686  1.00  0.00     0.034 A 
ATOM     52  C   UNL     1       1.614  -6.923  13.424  1.00  0.00     0.049 A 
ATOM     53  C   UNL     1      -3.409  -4.404  13.748  1.00  0.00     0.074 A 
ATOM     54  C   UNL     1       1.958  -7.748  14.479  1.00  0.00     0.029 A 
ATOM     55  N   UNL     1       0.350  -6.420  13.710  1.00  0.00    -0.354 N 
ATOM     56  N   UNL     1      -2.270  -5.057  13.804  1.00  0.00    -0.248 NA
ATOM     57  C   UNL     1      -4.293  -4.633  14.896  1.00  0.00     0.031 C 
ATOM     58  C   UNL     1       0.883  -7.785  15.376  1.00  0.00     0.029 A 
ATOM     59  C   UNL     1      -0.106  -6.931  14.915  1.00  0.00     0.049 A 
ATOM     60  H   UNL     1      -0.150  -5.793  13.139  1.00  0.00     0.167 HD
ATOM     61  C   UNL     1      -2.292  -5.753  15.009  1.00  0.00     0.074 A 
ATOM     62  C   UNL     1      -3.546  -5.419  15.656  1.00  0.00     0.031 C 
ATOM     63  C   UNL     1      -1.364  -6.593  15.537  1.00  0.00     0.034 A 
BRANCH  50  64
ATOM     64  C   UNL     1       3.707  -7.282  12.012  1.00  0.00     0.023 A 
ATOM     65  C   UNL     1       4.900  -6.541  11.916  1.00  0.00     0.031 A 
ATOM     66  C   UNL     1       3.782  -8.673  11.828  1.00  0.00     0.131 A 
ATOM     67  C   UNL     1       6.093  -7.178  11.545  1.00  0.00     0.055 A 
ATOM     68  C   UNL     1       4.992  -9.314  11.551  1.00  0.00     0.041 A 
ATOM     69  F   UNL     1       2.677  -9.432  11.888  1.00  0.00    -0.206 F 
ATOM     70  C   UNL     1       6.154  -8.564  11.388  1.00  0.00     0.022 A 
BRANCH  67  71
ATOM     71  S   UNL     1       7.521  -6.148  11.109  1.00  0.00     0.124 S 
ATOM     72  O   UNL     1       6.993  -5.376   9.986  1.00  0.00    -0.237 OA
ATOM     73  O   UNL     1       7.763  -5.404  12.339  1.00  0.00    -0.237 OA
ATOM     74  O   UNL     1       8.551  -7.122  10.755  1.00  0.00    -0.744 OA
ENDBRANCH  67  71
ENDBRANCH  50  64
BRANCH  51  75
ATOM     75  C   UNL     1      -5.263  -2.841  12.792  1.00  0.00     0.023 A 
ATOM     76  C   UNL     1      -5.570  -1.947  13.830  1.00  0.00     0.031 A 
ATOM     77  C   UNL     1      -6.282  -3.171  11.882  1.00  0.00     0.131 A 
ATOM     78  C   UNL     1      -6.876  -1.452  13.966  1.00  0.00     0.055 A 
ATOM     79  C   UNL     1      -7.569  -2.639  11.993  1.00  0.00     0.041 A 
ATOM     80  F   UNL     1      -6.039  -4.011  10.864  1.00  0.00    -0.206 F 
ATOM     81  C   UNL     1      -7.875  -1.785  13.048  1.00  0.00     0.022 A 
BRANCH  78  82
ATOM     82  S   UNL     1      -7.271  -0.428  15.410  1.00  0.00     0.124 S 
ATOM     83  O   UNL     1      -6.920  -1.316  16.511  1.00  0.00    -0.237 OA
ATOM     84  O   UNL     1      -6.398   0.724  15.210  1.00  0.00    -0.237 OA
ATOM     85  O   UNL     1      -8.699  -0.158  15.255  1.00  0.00    -0.744 OA
ENDBRANCH  78  82
ENDBRANCH  51  75
BRANCH  63  86
ATOM     86  C   UNL     1      -1.667  -7.170  16.897  1.00  0.00     0.023 A 
ATOM     87  C   UNL     1      -2.733  -8.063  17.098  1.00  0.00     0.031 A 
ATOM     88  C   UNL     1      -0.897  -6.795  18.012  1.00  0.00     0.131 A 
ATOM     89  C   UNL     1      -3.045  -8.498  18.395  1.00  0.00     0.055 A 
ATOM     90  C   UNL     1      -1.172  -7.281  19.291  1.00  0.00     0.041 A 
ATOM     91  F   UNL     1       0.133  -5.944  17.877  1.00  0.00    -0.206 F 
ATOM     92  C   UNL     1      -2.262  -8.124  19.490  1.00  0.00     0.022 A 
BRANCH  89  93
ATOM     93  S   UNL     1      -4.557  -9.468  18.645  1.00  0.00     0.124 S 
ATOM     94  O   UNL     1      -5.578  -8.590  18.083  1.00  0.00    -0.237 OA
ATOM     95  O   UNL     1      -4.275 -10.684  17.890  1.00  0.00    -0.237 OA
ATOM     96  O   UNL     1      -4.617  -9.639  20.096  1.00  0.00    -0.744 OA
ENDBRANCH  89  93
ENDBRANCH  63  86
ENDBRANCH  37  38
ENDBRANCH  29  32
ENDBRANCH  27  28
ENDBRANCH  26  27
ENDBRANCH  25  26
ENDBRANCH   1  25
TORSDOF 20
