REMARK SMILES CO[C@@H]1C[NH2+][C@@H](O[C@@H]2C[C@@H](C(=O)NCCCCNC(=O)c3ccc(-c4c5nc(c(-c6cc(S(=O)(=O)[O-])ccc6F)c6ccc([nH]6)c(-c6cc(S(=O)(=O)[O-])ccc6F)c6nc(c(-c7cc(S(=O)(=O)[O-])ccc7F)c7ccc4[nH]7)C=C6)C=C5)cc3)N(C(=O)OC(C)(C)C)C2)c2cc(Cl)ccc21
REMARK SMILES IDX 15 1 14 2 13 3 11 4 12 5 10 7 8 8 9 9 92 10 84 11 7 12 6 13
REMARK SMILES IDX 3 14 4 15 99 16 5 17 93 18 98 19 94 22 97 23 95 24 96 25
REMARK SMILES IDX 2 26 1 27 85 28 86 29 87 30 88 31 89 32 90 33 91 34 16 35
REMARK SMILES IDX 17 36 18 37 19 38 20 40 21 41 22 42 83 43 23 44 82 45 24 46
REMARK SMILES IDX 25 47 26 48 76 49 27 50 81 51 75 52 77 53 28 54 80 55 74 56
REMARK SMILES IDX 73 57 29 59 61 60 41 61 60 62 42 63 45 64 59 65 78 66 43 67
REMARK SMILES IDX 44 68 58 70 79 71 46 72 30 73 31 74 39 75 32 76 38 77 40 78
REMARK SMILES IDX 37 79 33 80 34 81 35 82 36 83 62 84 63 85 71 86 64 87 70 88
REMARK SMILES IDX 72 89 69 90 65 91 66 92 67 93 68 94 47 95 48 96 56 97 49 98
REMARK SMILES IDX 55 99 57 100 54 101 50 102 51 103 52 104 53 105
REMARK H PARENT 13 6 5 20 5 21 18 39 77 58 45 69
REMARK Flexibility Score: inf
ROOT
ATOM      1  C   UNL     1       1.338   1.770   2.914  1.00  0.00     0.023 C 
ENDROOT
BRANCH   1   2
ATOM      2  C   UNL     1       2.265   0.592   3.212  1.00  0.00     0.116 C 
BRANCH   2   3
ATOM      3  N   UNL     1       1.801  -0.338   4.235  1.00  0.00    -0.354 N 
ATOM      4  C   UNL     1       2.115  -1.684   4.367  1.00  0.00     0.243 C 
ATOM      5  O   UNL     1       1.782  -2.285   5.388  1.00  0.00    -0.273 OA
ATOM      6  H   UNL     1       1.191   0.033   4.913  1.00  0.00     0.163 HD
BRANCH   4   7
ATOM      7  C   UNL     1       2.765  -2.400   3.167  1.00  0.00     0.180 C 
ATOM      8  C   UNL     1       3.359  -4.231   1.725  1.00  0.00     0.147 C 
ATOM      9  C   UNL     1       2.586  -3.910   3.027  1.00  0.00     0.069 C 
ATOM     10  C   UNL     1       4.448  -3.143   1.651  1.00  0.00     0.156 C 
ATOM     11  N   UNL     1       4.144  -2.212   2.729  1.00  0.00    -0.293 N 
BRANCH   8  12
ATOM     12  O   UNL     1       2.713  -4.497   0.482  1.00  0.00    -0.320 OA
BRANCH  12  13
ATOM     13  C   UNL     1       1.573  -3.869  -0.093  1.00  0.00     0.354 C 
ATOM     14  C   UNL     1       0.336  -1.296   0.700  1.00  0.00     0.203 C 
ATOM     15  C   UNL     1       1.683  -1.429  -0.085  1.00  0.00     0.300 C 
ATOM     16  C   UNL     1      -0.176  -2.617   1.251  1.00  0.00    -0.002 A 
ATOM     17  N   UNL     1       1.866  -2.659  -0.837  1.00  0.00    -0.315 N 
ATOM     18  C   UNL     1       0.345  -3.832   0.776  1.00  0.00     0.046 A 
ATOM     19  C   UNL     1      -1.183  -2.648   2.232  1.00  0.00     0.009 A 
ATOM     20  H   UNL     1       2.837  -2.702  -1.146  1.00  0.00     0.349 HD
ATOM     21  H   UNL     1       1.202  -2.627  -1.611  1.00  0.00     0.349 HD
ATOM     22  C   UNL     1      -0.252  -5.047   1.164  1.00  0.00     0.033 A 
ATOM     23  C   UNL     1      -1.720  -3.866   2.667  1.00  0.00     0.021 A 
ATOM     24  C   UNL     1      -1.281  -5.057   2.099  1.00  0.00     0.041 A 
ATOM     25  Cl  UNL     1      -1.986  -6.554   2.570  1.00  0.00    -0.084 Cl
BRANCH  14  26
ATOM     26  O   UNL     1      -0.719  -0.719  -0.078  1.00  0.00    -0.371 OA
ATOM     27  C   UNL     1      -0.407   0.566  -0.599  1.00  0.00     0.196 C 
ENDBRANCH  14  26
ENDBRANCH  12  13
ENDBRANCH   8  12
BRANCH  11  28
ATOM     28  C   UNL     1       5.145  -1.469   3.307  1.00  0.00     0.411 C 
ATOM     29  O   UNL     1       6.276  -1.418   2.839  1.00  0.00    -0.224 OA
BRANCH  28  30
ATOM     30  O   UNL     1       4.733  -0.785   4.397  1.00  0.00    -0.444 OA
BRANCH  30  31
ATOM     31  C   UNL     1       5.544   0.268   4.988  1.00  0.00     0.106 C 
ATOM     32  C   UNL     1       6.755  -0.286   5.737  1.00  0.00     0.056 C 
ATOM     33  C   UNL     1       5.996   1.284   3.925  1.00  0.00     0.056 C 
ATOM     34  C   UNL     1       4.626   0.927   6.036  1.00  0.00     0.056 C 
ENDBRANCH  30  31
ENDBRANCH  28  30
ENDBRANCH  11  28
ENDBRANCH   4   7
ENDBRANCH   2   3
ENDBRANCH   1   2
BRANCH   1  35
ATOM     35  C   UNL     1       1.375   2.930   3.913  1.00  0.00     0.023 C 
BRANCH  35  36
ATOM     36  C   UNL     1       2.726   3.603   4.152  1.00  0.00     0.116 C 
BRANCH  36  37
ATOM     37  N   UNL     1       3.330   4.269   3.013  1.00  0.00    -0.352 N 
ATOM     38  C   UNL     1       4.292   5.266   3.058  1.00  0.00     0.251 C 
ATOM     39  H   UNL     1       3.027   3.984   2.120  1.00  0.00     0.163 HD
ATOM     40  O   UNL     1       4.726   5.759   2.023  1.00  0.00    -0.269 OA
BRANCH  38  41
ATOM     41  C   UNL     1       4.748   5.761   4.381  1.00  0.00     0.039 A 
ATOM     42  C   UNL     1       5.236   4.870   5.337  1.00  0.00     0.014 A 
ATOM     43  C   UNL     1       4.598   7.110   4.704  1.00  0.00     0.014 A 
ATOM     44  C   UNL     1       5.413   5.279   6.655  1.00  0.00     0.010 A 
ATOM     45  C   UNL     1       4.836   7.537   6.017  1.00  0.00     0.010 A 
ATOM     46  C   UNL     1       5.187   6.612   7.017  1.00  0.00    -0.014 A 
BRANCH  46  47
ATOM     47  C   UNL     1       5.248   7.002   8.451  1.00  0.00     0.031 A 
ATOM     48  C   UNL     1       3.995   7.438   9.166  1.00  0.00     0.074 A 
ATOM     49  C   UNL     1       6.408   6.904   9.130  1.00  0.00     0.049 A 
ATOM     50  N   UNL     1       3.847   7.835  10.403  1.00  0.00    -0.248 NA
ATOM     51  C   UNL     1       2.744   7.424   8.390  1.00  0.00     0.031 C 
ATOM     52  C   UNL     1       7.673   6.446   8.558  1.00  0.00     0.029 A 
ATOM     53  N   UNL     1       6.712   7.168  10.444  1.00  0.00    -0.354 N 
ATOM     54  C   UNL     1       2.498   8.140  10.548  1.00  0.00     0.074 A 
ATOM     55  C   UNL     1       1.874   7.912   9.264  1.00  0.00     0.031 C 
ATOM     56  C   UNL     1       8.609   6.434   9.518  1.00  0.00     0.029 A 
ATOM     57  C   UNL     1       8.035   6.954  10.757  1.00  0.00     0.049 A 
ATOM     58  H   UNL     1       6.047   7.481  11.098  1.00  0.00     0.167 HD
ATOM     59  C   UNL     1       1.840   8.558  11.656  1.00  0.00     0.034 A 
ATOM     60  C   UNL     1       8.718   7.175  11.901  1.00  0.00     0.034 A 
ATOM     61  C   UNL     1       2.473   8.756  12.935  1.00  0.00     0.049 A 
ATOM     62  C   UNL     1       7.974   7.699  13.104  1.00  0.00     0.074 A 
ATOM     63  C   UNL     1       1.885   9.158  14.122  1.00  0.00     0.029 A 
ATOM     64  N   UNL     1       3.821   8.566  13.204  1.00  0.00    -0.354 N 
ATOM     65  N   UNL     1       6.693   7.955  13.233  1.00  0.00    -0.248 NA
ATOM     66  C   UNL     1       8.759   7.961  14.319  1.00  0.00     0.031 C 
ATOM     67  C   UNL     1       2.886   9.289  15.082  1.00  0.00     0.029 A 
ATOM     68  C   UNL     1       4.087   8.876  14.527  1.00  0.00     0.049 A 
ATOM     69  H   UNL     1       4.489   8.256  12.550  1.00  0.00     0.167 HD
ATOM     70  C   UNL     1       6.516   8.383  14.546  1.00  0.00     0.074 A 
ATOM     71  C   UNL     1       7.816   8.325  15.179  1.00  0.00     0.031 C 
ATOM     72  C   UNL     1       5.380   8.793  15.165  1.00  0.00     0.034 A 
BRANCH  59  73
ATOM     73  C   UNL     1       0.359   8.838  11.565  1.00  0.00     0.023 A 
ATOM     74  C   UNL     1      -0.123  10.134  11.833  1.00  0.00     0.031 A 
ATOM     75  C   UNL     1      -0.579   7.809  11.368  1.00  0.00     0.131 A 
ATOM     76  C   UNL     1      -1.501  10.356  11.948  1.00  0.00     0.055 A 
ATOM     77  C   UNL     1      -1.953   8.046  11.434  1.00  0.00     0.041 A 
ATOM     78  F   UNL     1      -0.172   6.556  11.108  1.00  0.00    -0.206 F 
ATOM     79  C   UNL     1      -2.418   9.321  11.741  1.00  0.00     0.022 A 
BRANCH  76  80
ATOM     80  S   UNL     1      -2.150  11.973  12.450  1.00  0.00     0.124 S 
ATOM     81  O   UNL     1      -3.023  12.307  11.327  1.00  0.00    -0.237 OA
ATOM     82  O   UNL     1      -2.836  11.651  13.698  1.00  0.00    -0.237 OA
ATOM     83  O   UNL     1      -0.959  12.805  12.579  1.00  0.00    -0.744 OA
ENDBRANCH  76  80
ENDBRANCH  59  73
BRANCH  60  84
ATOM     84  C   UNL     1      10.181   6.872  11.946  1.00  0.00     0.023 A 
ATOM     85  C   UNL     1      11.076   7.508  11.065  1.00  0.00     0.031 A 
ATOM     86  C   UNL     1      10.690   5.875  12.793  1.00  0.00     0.131 A 
ATOM     87  C   UNL     1      12.408   7.082  10.993  1.00  0.00     0.055 A 
ATOM     88  C   UNL     1      12.039   5.511  12.777  1.00  0.00     0.041 A 
ATOM     89  F   UNL     1       9.878   5.231  13.645  1.00  0.00    -0.206 F 
ATOM     90  C   UNL     1      12.901   6.101  11.858  1.00  0.00     0.022 A 
BRANCH  87  91
ATOM     91  S   UNL     1      13.503   7.680   9.675  1.00  0.00     0.124 S 
ATOM     92  O   UNL     1      14.588   8.293  10.435  1.00  0.00    -0.237 OA
ATOM     93  O   UNL     1      13.839   6.439   8.983  1.00  0.00    -0.237 OA
ATOM     94  O   UNL     1      12.661   8.602   8.919  1.00  0.00    -0.744 OA
ENDBRANCH  87  91
ENDBRANCH  60  84
BRANCH  72  95
ATOM     95  C   UNL     1       5.445   9.205  16.618  1.00  0.00     0.023 A 
ATOM     96  C   UNL     1       4.675   8.516  17.576  1.00  0.00     0.031 A 
ATOM     97  C   UNL     1       6.115  10.373  17.022  1.00  0.00     0.131 A 
ATOM     98  C   UNL     1       4.545   9.032  18.871  1.00  0.00     0.055 A 
ATOM     99  C   UNL     1       6.031  10.850  18.331  1.00  0.00     0.041 A 
ATOM    100  F   UNL     1       6.851  11.075  16.146  1.00  0.00    -0.206 F 
ATOM    101  C   UNL     1       5.228  10.189  19.257  1.00  0.00     0.022 A 
BRANCH  98 102
ATOM    102  S   UNL     1       3.400   8.286  20.065  1.00  0.00     0.124 S 
ATOM    103  O   UNL     1       4.299   7.918  21.157  1.00  0.00    -0.237 OA
ATOM    104  O   UNL     1       2.491   9.393  20.352  1.00  0.00    -0.237 OA
ATOM    105  O   UNL     1       2.814   7.164  19.339  1.00  0.00    -0.744 OA
ENDBRANCH  98 102
ENDBRANCH  72  95
ENDBRANCH  46  47
ENDBRANCH  38  41
ENDBRANCH  36  37
ENDBRANCH  35  36
ENDBRANCH   1  35
TORSDOF 20
