REMARK SMILES C[C@@H]1[C@H](C)CCC[C@H]1NC(=O)C[N@@H+]1CCC[C@@H]1C(=O)NCCCCNC(=O)c1ccc(-c2c3nc(c(-c4cc(S(=O)(=O)[O-])ccc4F)c4ccc([nH]4)c(-c4cc(S(=O)(=O)[O-])ccc4F)c4nc(c(-c5cc(S(=O)(=O)[O-])ccc5F)c5ccc2[nH]5)C=C4)C=C3)cc1
REMARK SMILES IDX 22 1 21 2 20 3 18 4 19 5 17 7 13 8 14 9 15 11 16 12 12 13
REMARK SMILES IDX 10 14 9 15 11 17 8 18 1 19 2 20 3 21 4 22 5 23 7 24 6 25
REMARK SMILES IDX 23 26 24 27 25 28 26 29 27 31 28 32 29 33 90 34 30 35 89 36
REMARK SMILES IDX 31 37 32 38 33 39 83 40 34 41 88 42 82 43 84 44 35 45 87 46
REMARK SMILES IDX 81 47 80 48 36 50 68 51 48 52 67 53 49 54 52 55 66 56 85 57
REMARK SMILES IDX 50 58 51 59 65 61 86 62 53 63 37 64 38 65 46 66 39 67 45 68
REMARK SMILES IDX 47 69 44 70 40 71 41 72 42 73 43 74 69 75 70 76 78 77 71 78
REMARK SMILES IDX 77 79 79 80 76 81 72 82 73 83 74 84 75 85 54 86 55 87 63 88
REMARK SMILES IDX 56 89 62 90 64 91 61 92 57 93 58 94 59 95 60 96
REMARK H PARENT 20 6 13 10 9 16 25 30 84 49 52 60
REMARK Flexibility Score: inf
ROOT
ATOM      1  C   UNL     1      -5.197  -0.628   3.273  1.00  0.00     0.023 C 
ENDROOT
BRANCH   1   2
ATOM      2  C   UNL     1      -5.077  -0.101   1.843  1.00  0.00     0.116 C 
BRANCH   2   3
ATOM      3  N   UNL     1      -4.033   0.884   1.793  1.00  0.00    -0.351 N 
ATOM      4  C   UNL     1      -2.718   0.698   1.543  1.00  0.00     0.278 C 
ATOM      5  O   UNL     1      -1.950   1.498   2.087  1.00  0.00    -0.268 OA
ATOM      6  H   UNL     1      -4.310   1.814   1.962  1.00  0.00     0.163 HD
BRANCH   4   7
ATOM      7  C   UNL     1      -2.195  -0.383   0.577  1.00  0.00     0.274 C 
ATOM      8  N   UNL     1      -2.506  -0.184  -0.871  1.00  0.00    -0.317 N 
ATOM      9  C   UNL     1      -3.402  -1.298  -1.245  1.00  0.00     0.263 C 
ATOM     10  H   UNL     1      -1.603  -0.153  -1.343  1.00  0.00     0.349 HD
ATOM     11  C   UNL     1      -3.259  -2.413  -0.222  1.00  0.00     0.068 C 
ATOM     12  C   UNL     1      -2.461  -1.839   0.927  1.00  0.00     0.081 C 
BRANCH   8  13
ATOM     13  C   UNL     1      -3.136   1.099  -1.302  1.00  0.00     0.364 C 
BRANCH  13  14
ATOM     14  C   UNL     1      -2.317   2.318  -1.775  1.00  0.00     0.275 C 
ATOM     15  N   UNL     1      -1.122   2.754  -1.314  1.00  0.00    -0.348 N 
ATOM     16  H   UNL     1      -0.838   3.625  -1.676  1.00  0.00     0.163 HD
ATOM     17  O   UNL     1      -2.839   3.064  -2.623  1.00  0.00    -0.268 OA
BRANCH  15  18
ATOM     18  C   UNL     1      -0.191   2.161  -0.383  1.00  0.00     0.085 C 
ATOM     19  C   UNL     1       1.496   0.295  -0.247  1.00  0.00     0.010 C 
ATOM     20  C   UNL     1       0.979   1.463  -1.107  1.00  0.00     0.011 C 
ATOM     21  C   UNL     1       2.059   2.494  -1.503  1.00  0.00    -0.009 C 
ATOM     22  C   UNL     1       3.234   1.867  -2.252  1.00  0.00     0.008 C 
ATOM     23  C   UNL     1       2.537   3.298  -0.290  1.00  0.00     0.004 C 
ATOM     24  C   UNL     1       0.235   3.133   0.727  1.00  0.00     0.025 C 
ATOM     25  C   UNL     1       1.377   4.060   0.340  1.00  0.00     0.002 C 
ENDBRANCH  15  18
ENDBRANCH  13  14
ENDBRANCH   8  13
ENDBRANCH   4   7
ENDBRANCH   2   3
ENDBRANCH   1   2
BRANCH   1  26
ATOM     26  C   UNL     1      -5.540   0.459   4.299  1.00  0.00     0.023 C 
BRANCH  26  27
ATOM     27  C   UNL     1      -6.677   1.377   3.872  1.00  0.00     0.116 C 
BRANCH  27  28
ATOM     28  N   UNL     1      -7.834   0.619   3.419  1.00  0.00    -0.352 N 
ATOM     29  C   UNL     1      -9.151   0.810   3.725  1.00  0.00     0.251 C 
ATOM     30  H   UNL     1      -7.641  -0.132   2.812  1.00  0.00     0.163 HD
ATOM     31  O   UNL     1      -9.985  -0.036   3.416  1.00  0.00    -0.269 OA
BRANCH  29  32
ATOM     32  C   UNL     1      -9.526   2.027   4.455  1.00  0.00     0.039 A 
ATOM     33  C   UNL     1     -10.288   1.901   5.614  1.00  0.00     0.014 A 
ATOM     34  C   UNL     1      -9.064   3.275   4.022  1.00  0.00     0.014 A 
ATOM     35  C   UNL     1     -10.563   3.038   6.364  1.00  0.00     0.010 A 
ATOM     36  C   UNL     1      -9.267   4.392   4.820  1.00  0.00     0.010 A 
ATOM     37  C   UNL     1     -10.034   4.286   5.989  1.00  0.00    -0.014 A 
BRANCH  37  38
ATOM     38  C   UNL     1     -10.304   5.484   6.816  1.00  0.00     0.031 A 
ATOM     39  C   UNL     1     -11.115   6.617   6.253  1.00  0.00     0.074 A 
ATOM     40  C   UNL     1      -9.824   5.532   8.074  1.00  0.00     0.049 A 
ATOM     41  N   UNL     1     -11.506   7.719   6.838  1.00  0.00    -0.248 NA
ATOM     42  C   UNL     1     -11.522   6.511   4.843  1.00  0.00     0.031 C 
ATOM     43  C   UNL     1      -8.982   4.506   8.697  1.00  0.00     0.029 A 
ATOM     44  N   UNL     1      -9.988   6.467   9.062  1.00  0.00    -0.354 N 
ATOM     45  C   UNL     1     -12.210   8.430   5.872  1.00  0.00     0.074 A 
ATOM     46  C   UNL     1     -12.121   7.674   4.643  1.00  0.00     0.031 C 
ATOM     47  C   UNL     1      -8.752   4.841   9.976  1.00  0.00     0.029 A 
ATOM     48  C   UNL     1      -9.390   6.123  10.253  1.00  0.00     0.049 A 
ATOM     49  H   UNL     1     -10.487   7.306   8.932  1.00  0.00     0.167 HD
ATOM     50  C   UNL     1     -12.899   9.589   6.010  1.00  0.00     0.034 A 
ATOM     51  C   UNL     1      -9.368   6.770  11.434  1.00  0.00     0.034 A 
ATOM     52  C   UNL     1     -12.974  10.326   7.247  1.00  0.00     0.049 A 
ATOM     53  C   UNL     1     -10.123   8.072  11.549  1.00  0.00     0.074 A 
ATOM     54  C   UNL     1     -13.657  11.500   7.511  1.00  0.00     0.029 A 
ATOM     55  N   UNL     1     -12.342   9.961   8.429  1.00  0.00    -0.354 N 
ATOM     56  N   UNL     1     -10.832   8.703  10.639  1.00  0.00    -0.248 NA
ATOM     57  C   UNL     1     -10.094   8.734  12.857  1.00  0.00     0.031 C 
ATOM     58  C   UNL     1     -13.382  11.880   8.829  1.00  0.00     0.029 A 
ATOM     59  C   UNL     1     -12.600  10.899   9.417  1.00  0.00     0.049 A 
ATOM     60  H   UNL     1     -11.791   9.153   8.548  1.00  0.00     0.167 HD
ATOM     61  C   UNL     1     -11.363   9.818  11.282  1.00  0.00     0.074 A 
ATOM     62  C   UNL     1     -10.921   9.748  12.659  1.00  0.00     0.031 C 
ATOM     63  C   UNL     1     -12.140  10.815  10.783  1.00  0.00     0.034 A 
BRANCH  50  64
ATOM     64  C   UNL     1     -13.608  10.126   4.791  1.00  0.00     0.023 A 
ATOM     65  C   UNL     1     -14.653   9.415   4.174  1.00  0.00     0.031 A 
ATOM     66  C   UNL     1     -13.233  11.360   4.231  1.00  0.00     0.131 A 
ATOM     67  C   UNL     1     -15.245   9.911   3.003  1.00  0.00     0.055 A 
ATOM     68  C   UNL     1     -13.880  11.887   3.111  1.00  0.00     0.041 A 
ATOM     69  F   UNL     1     -12.225  12.072   4.759  1.00  0.00    -0.206 F 
ATOM     70  C   UNL     1     -14.885  11.156   2.483  1.00  0.00     0.022 A 
BRANCH  67  71
ATOM     71  S   UNL     1     -16.403   8.849   2.098  1.00  0.00     0.124 S 
ATOM     72  O   UNL     1     -15.559   7.701   1.775  1.00  0.00    -0.237 OA
ATOM     73  O   UNL     1     -17.452   8.613   3.083  1.00  0.00    -0.237 OA
ATOM     74  O   UNL     1     -16.795   9.667   0.952  1.00  0.00    -0.744 OA
ENDBRANCH  67  71
ENDBRANCH  50  64
BRANCH  51  75
ATOM     75  C   UNL     1      -8.622   6.215  12.601  1.00  0.00     0.023 A 
ATOM     76  C   UNL     1      -9.283   5.904  13.801  1.00  0.00     0.031 A 
ATOM     77  C   UNL     1      -7.224   6.065  12.565  1.00  0.00     0.131 A 
ATOM     78  C   UNL     1      -8.542   5.538  14.935  1.00  0.00     0.055 A 
ATOM     79  C   UNL     1      -6.499   5.630  13.675  1.00  0.00     0.041 A 
ATOM     80  F   UNL     1      -6.540   6.342  11.444  1.00  0.00    -0.206 F 
ATOM     81  C   UNL     1      -7.155   5.385  14.877  1.00  0.00     0.022 A 
BRANCH  78  82
ATOM     82  S   UNL     1      -9.405   5.397  16.525  1.00  0.00     0.124 S 
ATOM     83  O   UNL     1     -10.042   6.705  16.632  1.00  0.00    -0.237 OA
ATOM     84  O   UNL     1     -10.295   4.266  16.286  1.00  0.00    -0.237 OA
ATOM     85  O   UNL     1      -8.324   5.148  17.476  1.00  0.00    -0.744 OA
ENDBRANCH  78  82
ENDBRANCH  51  75
BRANCH  63  86
ATOM     86  C   UNL     1     -12.590  11.876  11.761  1.00  0.00     0.023 A 
ATOM     87  C   UNL     1     -11.669  12.703  12.427  1.00  0.00     0.031 A 
ATOM     88  C   UNL     1     -13.953  12.019  12.076  1.00  0.00     0.131 A 
ATOM     89  C   UNL     1     -12.110  13.561  13.445  1.00  0.00     0.055 A 
ATOM     90  C   UNL     1     -14.394  12.938  13.028  1.00  0.00     0.041 A 
ATOM     91  F   UNL     1     -14.879  11.257  11.472  1.00  0.00    -0.206 F 
ATOM     92  C   UNL     1     -13.468  13.698  13.737  1.00  0.00     0.022 A 
BRANCH  89  93
ATOM     93  S   UNL     1     -10.867  14.373  14.488  1.00  0.00     0.124 S 
ATOM     94  O   UNL     1     -10.086  13.238  14.967  1.00  0.00    -0.237 OA
ATOM     95  O   UNL     1     -10.194  15.255  13.540  1.00  0.00    -0.237 OA
ATOM     96  O   UNL     1     -11.667  15.052  15.506  1.00  0.00    -0.744 OA
ENDBRANCH  89  93
ENDBRANCH  63  86
ENDBRANCH  37  38
ENDBRANCH  29  32
ENDBRANCH  27  28
ENDBRANCH  26  27
ENDBRANCH   1  26
TORSDOF 17
