REMARK SMILES O=C(NCCCCNC(=O)[C@@H]1CC=CC[C@H]1C(=O)N1CC[NH+](Cc2ccc3c(c2)OCO3)CC1)c1ccc(-c2c3nc(c(-c4cc(S(=O)(=O)[O-])ccc4F)c4ccc([nH]4)c(-c4cc(S(=O)(=O)[O-])ccc4F)c4nc(c(-c5cc(S(=O)(=O)[O-])ccc5F)c5ccc2[nH]5)C=C4)C=C3)cc1
REMARK SMILES IDX 5 1 4 2 3 3 1 4 2 5 35 7 36 8 97 9 37 10 96 11 38 12 39 13
REMARK SMILES IDX 40 14 90 15 41 16 95 17 89 18 91 19 42 20 94 21 88 22 87 23
REMARK SMILES IDX 43 25 75 26 55 27 74 28 56 29 59 30 73 31 92 32 57 33 58 34
REMARK SMILES IDX 72 36 93 37 60 38 44 39 45 40 53 41 46 42 52 43 54 44 51 45
REMARK SMILES IDX 47 46 48 47 49 48 50 49 76 50 77 51 85 52 78 53 84 54 86 55
REMARK SMILES IDX 83 56 79 57 80 58 81 59 82 60 61 61 62 62 70 63 63 64 69 65
REMARK SMILES IDX 71 66 68 67 64 68 65 69 66 70 67 71 6 72 7 73 8 74 9 75
REMARK SMILES IDX 10 77 11 78 12 79 16 80 13 81 15 82 14 83 17 84 18 85 19 86
REMARK SMILES IDX 20 87 34 88 21 89 33 90 22 91 23 93 24 94 25 95 29 96 26 97
REMARK SMILES IDX 28 98 27 99 30 100 32 101 31 102
REMARK H PARENT 3 6 91 24 59 35 8 76 22 92
REMARK Flexibility Score: inf
ROOT
ATOM      1  C   UNL     1       8.856   0.515  11.251  1.00  0.00     0.023 C 
ENDROOT
BRANCH   1   2
ATOM      2  C   UNL     1      10.365   0.399  11.396  1.00  0.00     0.116 C 
BRANCH   2   3
ATOM      3  N   UNL     1      11.054   1.677  11.283  1.00  0.00    -0.352 N 
ATOM      4  O   UNL     1      12.631   3.213  11.799  1.00  0.00    -0.269 OA
ATOM      5  C   UNL     1      12.212   2.065  11.911  1.00  0.00     0.251 C 
ATOM      6  H   UNL     1      10.641   2.341  10.685  1.00  0.00     0.163 HD
BRANCH   5   7
ATOM      7  C   UNL     1      12.916   1.079  12.749  1.00  0.00     0.039 A 
ATOM      8  C   UNL     1      13.204  -0.188  12.235  1.00  0.00     0.014 A 
ATOM      9  C   UNL     1      13.223   1.401  14.072  1.00  0.00     0.014 A 
ATOM     10  C   UNL     1      13.678  -1.177  13.084  1.00  0.00     0.010 A 
ATOM     11  C   UNL     1      13.780   0.428  14.902  1.00  0.00     0.010 A 
ATOM     12  C   UNL     1      13.988  -0.875  14.420  1.00  0.00    -0.014 A 
BRANCH  12  13
ATOM     13  C   UNL     1      14.594  -1.924  15.273  1.00  0.00     0.031 A 
ATOM     14  C   UNL     1      13.866  -2.471  16.466  1.00  0.00     0.074 A 
ATOM     15  C   UNL     1      15.808  -2.395  14.931  1.00  0.00     0.049 A 
ATOM     16  N   UNL     1      14.258  -3.378  17.324  1.00  0.00    -0.248 NA
ATOM     17  C   UNL     1      12.529  -1.923  16.739  1.00  0.00     0.031 C 
ATOM     18  C   UNL     1      16.596  -1.929  13.785  1.00  0.00     0.029 A 
ATOM     19  N   UNL     1      16.586  -3.372  15.491  1.00  0.00    -0.354 N 
ATOM     20  C   UNL     1      13.228  -3.499  18.251  1.00  0.00     0.074 A 
ATOM     21  C   UNL     1      12.205  -2.550  17.862  1.00  0.00     0.031 C 
ATOM     22  C   UNL     1      17.722  -2.650  13.702  1.00  0.00     0.029 A 
ATOM     23  C   UNL     1      17.774  -3.573  14.828  1.00  0.00     0.049 A 
ATOM     24  H   UNL     1      16.321  -3.881  16.291  1.00  0.00     0.167 HD
ATOM     25  C   UNL     1      13.149  -4.330  19.321  1.00  0.00     0.034 A 
ATOM     26  C   UNL     1      18.805  -4.390  15.111  1.00  0.00     0.034 A 
ATOM     27  C   UNL     1      14.187  -5.268  19.683  1.00  0.00     0.049 A 
ATOM     28  C   UNL     1      18.708  -5.270  16.325  1.00  0.00     0.074 A 
ATOM     29  C   UNL     1      14.204  -6.175  20.729  1.00  0.00     0.029 A 
ATOM     30  N   UNL     1      15.397  -5.416  19.015  1.00  0.00    -0.354 N 
ATOM     31  N   UNL     1      17.726  -5.375  17.190  1.00  0.00    -0.248 NA
ATOM     32  C   UNL     1      19.856  -6.140  16.601  1.00  0.00     0.031 C 
ATOM     33  C   UNL     1      15.446  -6.821  20.732  1.00  0.00     0.029 A 
ATOM     34  C   UNL     1      16.179  -6.374  19.644  1.00  0.00     0.049 A 
ATOM     35  H   UNL     1      15.662  -4.913  18.211  1.00  0.00     0.167 HD
ATOM     36  C   UNL     1      18.134  -6.336  18.108  1.00  0.00     0.074 A 
ATOM     37  C   UNL     1      19.439  -6.794  17.674  1.00  0.00     0.031 C 
ATOM     38  C   UNL     1      17.489  -6.798  19.210  1.00  0.00     0.034 A 
BRANCH  25  39
ATOM     39  C   UNL     1      11.926  -4.221  20.201  1.00  0.00     0.023 A 
ATOM     40  C   UNL     1      10.640  -4.538  19.730  1.00  0.00     0.031 A 
ATOM     41  C   UNL     1      12.047  -3.777  21.530  1.00  0.00     0.131 A 
ATOM     42  C   UNL     1       9.522  -4.345  20.559  1.00  0.00     0.055 A 
ATOM     43  C   UNL     1      10.940  -3.659  22.374  1.00  0.00     0.041 A 
ATOM     44  F   UNL     1      13.246  -3.440  22.031  1.00  0.00    -0.206 F 
ATOM     45  C   UNL     1       9.666  -3.931  21.885  1.00  0.00     0.022 A 
BRANCH  42  46
ATOM     46  S   UNL     1       7.867  -4.516  19.837  1.00  0.00     0.124 S 
ATOM     47  O   UNL     1       7.913  -3.535  18.755  1.00  0.00    -0.237 OA
ATOM     48  O   UNL     1       7.843  -5.916  19.430  1.00  0.00    -0.237 OA
ATOM     49  O   UNL     1       6.974  -4.171  20.942  1.00  0.00    -0.744 OA
ENDBRANCH  42  46
ENDBRANCH  25  39
BRANCH  26  50
ATOM     50  C   UNL     1      20.022  -4.378  14.254  1.00  0.00     0.023 A 
ATOM     51  C   UNL     1      20.397  -5.507  13.511  1.00  0.00     0.031 A 
ATOM     52  C   UNL     1      20.835  -3.232  14.172  1.00  0.00     0.131 A 
ATOM     53  C   UNL     1      21.571  -5.477  12.743  1.00  0.00     0.055 A 
ATOM     54  C   UNL     1      21.972  -3.189  13.366  1.00  0.00     0.041 A 
ATOM     55  F   UNL     1      20.515  -2.122  14.858  1.00  0.00    -0.206 F 
ATOM     56  C   UNL     1      22.352  -4.322  12.654  1.00  0.00     0.022 A 
BRANCH  53  57
ATOM     57  S   UNL     1      22.103  -6.999  11.914  1.00  0.00     0.124 S 
ATOM     58  O   UNL     1      22.211  -7.926  13.034  1.00  0.00    -0.237 OA
ATOM     59  O   UNL     1      21.002  -7.237  10.986  1.00  0.00    -0.237 OA
ATOM     60  O   UNL     1      23.369  -6.621  11.290  1.00  0.00    -0.744 OA
ENDBRANCH  53  57
ENDBRANCH  26  50
BRANCH  38  61
ATOM     61  C   UNL     1      18.192  -7.877  19.994  1.00  0.00     0.023 A 
ATOM     62  C   UNL     1      19.378  -7.617  20.702  1.00  0.00     0.031 A 
ATOM     63  C   UNL     1      17.687  -9.188  20.003  1.00  0.00     0.131 A 
ATOM     64  C   UNL     1      20.055  -8.667  21.339  1.00  0.00     0.055 A 
ATOM     65  C   UNL     1      18.332 -10.218  20.689  1.00  0.00     0.041 A 
ATOM     66  F   UNL     1      16.559  -9.491  19.340  1.00  0.00    -0.206 F 
ATOM     67  C   UNL     1      19.531  -9.963  21.350  1.00  0.00     0.022 A 
BRANCH  64  68
ATOM     68  S   UNL     1      21.681  -8.338  22.071  1.00  0.00     0.124 S 
ATOM     69  O   UNL     1      22.442  -7.866  20.919  1.00  0.00    -0.237 OA
ATOM     70  O   UNL     1      21.370  -7.334  23.084  1.00  0.00    -0.237 OA
ATOM     71  O   UNL     1      22.092  -9.639  22.594  1.00  0.00    -0.744 OA
ENDBRANCH  64  68
ENDBRANCH  38  61
ENDBRANCH  12  13
ENDBRANCH   5   7
ENDBRANCH   2   3
ENDBRANCH   1   2
BRANCH   1  72
ATOM     72  C   UNL     1       8.389   1.237   9.987  1.00  0.00     0.023 C 
BRANCH  72  73
ATOM     73  C   UNL     1       8.807   0.566   8.676  1.00  0.00     0.116 C 
BRANCH  73  74
ATOM     74  N   UNL     1       7.971  -0.580   8.400  1.00  0.00    -0.356 N 
ATOM     75  C   UNL     1       6.777  -0.689   7.761  1.00  0.00     0.224 C 
ATOM     76  H   UNL     1       8.331  -1.433   8.734  1.00  0.00     0.163 HD
ATOM     77  O   UNL     1       6.267  -1.812   7.784  1.00  0.00    -0.275 OA
BRANCH  75  78
ATOM     78  C   UNL     1       6.155   0.462   6.948  1.00  0.00     0.095 C 
ATOM     79  C   UNL     1       6.015   1.775   7.743  1.00  0.00     0.041 C 
ATOM     80  C   UNL     1       4.756   0.036   6.448  1.00  0.00     0.095 C 
ATOM     81  C   UNL     1       5.136   2.813   7.117  1.00  0.00    -0.030 C 
ATOM     82  C   UNL     1       4.047   1.145   5.640  1.00  0.00     0.041 C 
ATOM     83  C   UNL     1       4.254   2.530   6.155  1.00  0.00    -0.030 C 
BRANCH  80  84
ATOM     84  C   UNL     1       4.606  -1.228   5.595  1.00  0.00     0.227 C 
ATOM     85  O   UNL     1       3.650  -1.984   5.793  1.00  0.00    -0.275 OA
ATOM     86  N   UNL     1       5.313  -1.266   4.398  1.00  0.00    -0.331 N 
ATOM     87  C   UNL     1       4.578  -1.770   3.246  1.00  0.00     0.181 C 
ATOM     88  C   UNL     1       6.740  -1.569   4.361  1.00  0.00     0.181 C 
ATOM     89  C   UNL     1       5.233  -1.379   1.911  1.00  0.00     0.284 C 
ATOM     90  C   UNL     1       7.385  -1.148   3.023  1.00  0.00     0.284 C 
ATOM     91  N   UNL     1       6.685  -1.584   1.802  1.00  0.00    -0.328 N 
ATOM     92  H   UNL     1       7.003  -0.959   1.062  1.00  0.00     0.348 HD
BRANCH  91  93
ATOM     93  C   UNL     1       7.105  -2.880   1.252  1.00  0.00     0.299 C 
BRANCH  93  94
ATOM     94  C   UNL     1       7.016  -4.073   2.175  1.00  0.00     0.010 A 
ATOM     95  C   UNL     1       5.808  -4.797   2.303  1.00  0.00     0.013 A 
ATOM     96  C   UNL     1       8.111  -4.409   2.990  1.00  0.00     0.060 A 
ATOM     97  C   UNL     1       5.650  -5.761   3.303  1.00  0.00     0.051 A 
ATOM     98  C   UNL     1       7.919  -5.349   3.977  1.00  0.00     0.166 A 
ATOM     99  C   UNL     1       6.717  -5.994   4.141  1.00  0.00     0.165 A 
ATOM    100  O   UNL     1       8.830  -5.697   4.925  1.00  0.00    -0.454 OA
ATOM    101  O   UNL     1       6.721  -6.827   5.215  1.00  0.00    -0.454 OA
ATOM    102  C   UNL     1       8.017  -6.531   5.778  1.00  0.00     0.468 C 
ENDBRANCH  93  94
ENDBRANCH  91  93
ENDBRANCH  80  84
ENDBRANCH  75  78
ENDBRANCH  73  74
ENDBRANCH  72  73
ENDBRANCH   1  72
TORSDOF 17
