REMARK SMILES CC(=O)c1nnn(-c2ccc(C(=O)NCCCCNC(=O)c3ccc(-c4c5nc(c(-c6cc(S(=O)(=O)[O-])ccc6F)c6ccc([nH]6)c(-c6cc(S(=O)(=O)[O-])ccc6F)c6nc(c(-c7cc(S(=O)(=O)[O-])ccc7F)c7ccc4[nH]7)C=C6)C=C5)cc3)cc2)c1C
REMARK SMILES IDX 17 1 16 2 15 3 14 4 12 5 13 6 11 8 8 9 9 10 86 11 10 12
REMARK SMILES IDX 85 13 7 14 4 15 5 16 87 17 6 18 88 19 2 20 1 21 3 22 18 23
REMARK SMILES IDX 19 24 20 25 21 27 22 28 23 29 84 30 24 31 83 32 25 33 26 34
REMARK SMILES IDX 27 35 77 36 28 37 82 38 76 39 78 40 29 41 81 42 75 43 74 44
REMARK SMILES IDX 30 46 62 47 42 48 61 49 43 50 46 51 60 52 79 53 44 54 45 55
REMARK SMILES IDX 59 57 80 58 47 59 31 60 32 61 40 62 33 63 39 64 41 65 38 66
REMARK SMILES IDX 34 67 35 68 36 69 37 70 63 71 64 72 72 73 65 74 71 75 73 76
REMARK SMILES IDX 70 77 66 78 67 79 68 80 69 81 48 82 49 83 57 84 50 85 56 86
REMARK SMILES IDX 58 87 55 88 51 89 52 90 53 91 54 92
REMARK H PARENT 14 7 19 26 78 45 46 56
REMARK Flexibility Score: inf
ROOT
ATOM      1  C   UNL     1       9.749  -2.687  -7.583  1.00  0.00     0.023 C 
ENDROOT
BRANCH   1   2
ATOM      2  C   UNL     1       8.542  -2.435  -6.668  1.00  0.00     0.023 C 
BRANCH   2   3
ATOM      3  C   UNL     1       8.493  -1.042  -6.026  1.00  0.00     0.116 C 
BRANCH   3   4
ATOM      4  N   UNL     1       8.100  -0.029  -6.992  1.00  0.00    -0.352 N 
ATOM      5  C   UNL     1       6.900   0.562  -7.304  1.00  0.00     0.251 C 
ATOM      6  O   UNL     1       6.902   1.420  -8.188  1.00  0.00    -0.269 OA
ATOM      7  H   UNL     1       8.851   0.303  -7.536  1.00  0.00     0.163 HD
BRANCH   5   8
ATOM      8  C   UNL     1       5.619   0.267  -6.599  1.00  0.00     0.039 A 
ATOM      9  C   UNL     1       3.269  -0.024  -5.107  1.00  0.00     0.067 A 
ATOM     10  C   UNL     1       3.430   1.113  -5.896  1.00  0.00     0.029 A 
ATOM     11  C   UNL     1       4.202  -1.062  -5.151  1.00  0.00     0.029 A 
ATOM     12  C   UNL     1       4.622   1.264  -6.615  1.00  0.00     0.016 A 
ATOM     13  C   UNL     1       5.349  -0.929  -5.931  1.00  0.00     0.016 A 
BRANCH   9  14
ATOM     14  N   UNL     1       2.202  -0.111  -4.197  1.00  0.00    -0.217 N 
ATOM     15  C   UNL     1       0.963  -0.555  -2.465  1.00  0.00     0.151 A 
ATOM     16  N   UNL     1       0.160  -0.406  -3.571  1.00  0.00    -0.126 NA
ATOM     17  C   UNL     1       2.279  -0.318  -2.830  1.00  0.00     0.073 A 
ATOM     18  N   UNL     1       0.918  -0.032  -4.593  1.00  0.00    -0.061 NA
ATOM     19  C   UNL     1       3.554  -0.218  -2.077  1.00  0.00     0.069 C 
BRANCH  15  20
ATOM     20  C   UNL     1       0.402  -0.879  -1.160  1.00  0.00     0.181 C 
ATOM     21  C   UNL     1       0.796  -0.031   0.022  1.00  0.00     0.095 C 
ATOM     22  O   UNL     1      -0.396  -1.806  -1.016  1.00  0.00    -0.293 OA
ENDBRANCH  15  20
ENDBRANCH   9  14
ENDBRANCH   5   8
ENDBRANCH   3   4
ENDBRANCH   2   3
ENDBRANCH   1   2
BRANCH   1  23
ATOM     23  C   UNL     1      11.092  -2.773  -6.864  1.00  0.00     0.116 C 
BRANCH  23  24
ATOM     24  N   UNL     1      11.156  -3.886  -5.920  1.00  0.00    -0.352 N 
ATOM     25  C   UNL     1      12.089  -4.102  -4.920  1.00  0.00     0.251 C 
ATOM     26  H   UNL     1      10.450  -4.566  -6.005  1.00  0.00     0.163 HD
ATOM     27  O   UNL     1      12.289  -5.226  -4.490  1.00  0.00    -0.269 OA
BRANCH  25  28
ATOM     28  C   UNL     1      12.827  -2.942  -4.382  1.00  0.00     0.039 A 
ATOM     29  C   UNL     1      14.203  -3.002  -4.151  1.00  0.00     0.014 A 
ATOM     30  C   UNL     1      12.114  -1.768  -4.145  1.00  0.00     0.014 A 
ATOM     31  C   UNL     1      14.871  -1.839  -3.770  1.00  0.00     0.010 A 
ATOM     32  C   UNL     1      12.790  -0.598  -3.886  1.00  0.00     0.010 A 
ATOM     33  C   UNL     1      14.165  -0.628  -3.666  1.00  0.00    -0.014 A 
BRANCH  33  34
ATOM     34  C   UNL     1      14.880   0.641  -3.500  1.00  0.00     0.031 A 
ATOM     35  C   UNL     1      15.945   0.881  -4.517  1.00  0.00     0.074 A 
ATOM     36  C   UNL     1      14.474   1.633  -2.675  1.00  0.00     0.049 A 
ATOM     37  N   UNL     1      17.220   0.966  -4.327  1.00  0.00    -0.248 NA
ATOM     38  C   UNL     1      15.561   0.884  -5.939  1.00  0.00     0.031 C 
ATOM     39  C   UNL     1      13.271   1.674  -1.837  1.00  0.00     0.029 A 
ATOM     40  N   UNL     1      14.996   2.881  -2.499  1.00  0.00    -0.354 N 
ATOM     41  C   UNL     1      17.772   1.288  -5.564  1.00  0.00     0.074 A 
ATOM     42  C   UNL     1      16.748   1.010  -6.535  1.00  0.00     0.031 C 
ATOM     43  C   UNL     1      13.034   2.944  -1.440  1.00  0.00     0.029 A 
ATOM     44  C   UNL     1      14.150   3.779  -1.847  1.00  0.00     0.049 A 
ATOM     45  H   UNL     1      15.898   3.128  -2.807  1.00  0.00     0.167 HD
ATOM     46  C   UNL     1      18.933   1.997  -5.656  1.00  0.00     0.034 A 
ATOM     47  C   UNL     1      14.337   5.115  -1.664  1.00  0.00     0.034 A 
ATOM     48  C   UNL     1      19.665   1.956  -4.408  1.00  0.00     0.049 A 
ATOM     49  C   UNL     1      15.790   5.366  -1.806  1.00  0.00     0.074 A 
ATOM     50  C   UNL     1      20.134   0.934  -3.601  1.00  0.00     0.029 A 
ATOM     51  N   UNL     1      19.650   3.071  -3.600  1.00  0.00    -0.354 N 
ATOM     52  N   UNL     1      16.680   4.900  -0.974  1.00  0.00    -0.248 NA
ATOM     53  C   UNL     1      16.296   5.715  -3.123  1.00  0.00     0.031 C 
ATOM     54  C   UNL     1      19.841   1.359  -2.270  1.00  0.00     0.029 A 
ATOM     55  C   UNL     1      19.315   2.650  -2.334  1.00  0.00     0.049 A 
ATOM     56  H   UNL     1      19.843   3.996  -3.877  1.00  0.00     0.167 HD
ATOM     57  C   UNL     1      17.725   4.472  -1.776  1.00  0.00     0.074 A 
ATOM     58  C   UNL     1      17.477   5.092  -3.078  1.00  0.00     0.031 C 
ATOM     59  C   UNL     1      18.529   3.434  -1.397  1.00  0.00     0.034 A 
BRANCH  46  60
ATOM     60  C   UNL     1      19.230   3.016  -6.739  1.00  0.00     0.023 A 
ATOM     61  C   UNL     1      20.483   3.660  -6.706  1.00  0.00     0.031 A 
ATOM     62  C   UNL     1      18.276   3.586  -7.616  1.00  0.00     0.131 A 
ATOM     63  C   UNL     1      20.710   4.844  -7.433  1.00  0.00     0.055 A 
ATOM     64  C   UNL     1      18.531   4.721  -8.391  1.00  0.00     0.041 A 
ATOM     65  F   UNL     1      17.017   3.145  -7.707  1.00  0.00    -0.206 F 
ATOM     66  C   UNL     1      19.743   5.377  -8.280  1.00  0.00     0.022 A 
BRANCH  63  67
ATOM     67  S   UNL     1      22.229   5.776  -7.112  1.00  0.00     0.124 S 
ATOM     68  O   UNL     1      22.167   5.946  -5.664  1.00  0.00    -0.237 OA
ATOM     69  O   UNL     1      23.252   4.863  -7.611  1.00  0.00    -0.237 OA
ATOM     70  O   UNL     1      22.049   6.997  -7.894  1.00  0.00    -0.744 OA
ENDBRANCH  63  67
ENDBRANCH  46  60
BRANCH  47  71
ATOM     71  C   UNL     1      13.325   6.209  -1.665  1.00  0.00     0.023 A 
ATOM     72  C   UNL     1      13.586   7.493  -1.136  1.00  0.00     0.031 A 
ATOM     73  C   UNL     1      12.157   6.075  -2.448  1.00  0.00     0.131 A 
ATOM     74  C   UNL     1      12.709   8.571  -1.407  1.00  0.00     0.055 A 
ATOM     75  C   UNL     1      11.296   7.143  -2.715  1.00  0.00     0.041 A 
ATOM     76  F   UNL     1      11.860   4.917  -3.059  1.00  0.00    -0.206 F 
ATOM     77  C   UNL     1      11.576   8.401  -2.205  1.00  0.00     0.022 A 
BRANCH  74  78
ATOM     78  S   UNL     1      13.086  10.254  -0.808  1.00  0.00     0.124 S 
ATOM     79  O   UNL     1      12.825  10.139   0.622  1.00  0.00    -0.237 OA
ATOM     80  O   UNL     1      14.479  10.426  -1.204  1.00  0.00    -0.237 OA
ATOM     81  O   UNL     1      12.137  11.095  -1.539  1.00  0.00    -0.744 OA
ENDBRANCH  74  78
ENDBRANCH  47  71
BRANCH  59  82
ATOM     82  C   UNL     1      18.448   2.940   0.039  1.00  0.00     0.023 A 
ATOM     83  C   UNL     1      17.264   2.531   0.701  1.00  0.00     0.031 A 
ATOM     84  C   UNL     1      19.659   2.796   0.740  1.00  0.00     0.131 A 
ATOM     85  C   UNL     1      17.324   2.027   2.017  1.00  0.00     0.055 A 
ATOM     86  C   UNL     1      19.717   2.274   2.032  1.00  0.00     0.041 A 
ATOM     87  F   UNL     1      20.824   3.142   0.167  1.00  0.00    -0.206 F 
ATOM     88  C   UNL     1      18.548   1.896   2.680  1.00  0.00     0.022 A 
BRANCH  85  89
ATOM     89  S   UNL     1      15.805   1.566   2.917  1.00  0.00     0.124 S 
ATOM     90  O   UNL     1      14.886   2.662   2.631  1.00  0.00    -0.237 OA
ATOM     91  O   UNL     1      15.465   0.277   2.321  1.00  0.00    -0.237 OA
ATOM     92  O   UNL     1      16.247   1.491   4.311  1.00  0.00    -0.744 OA
ENDBRANCH  85  89
ENDBRANCH  59  82
ENDBRANCH  33  34
ENDBRANCH  25  28
ENDBRANCH  23  24
ENDBRANCH   1  23
TORSDOF 16
