REMARK SMILES COCCCN1C(=O)CC[C@@H](C(=O)NCCCCNC(=O)c2ccc(-c3c4nc(c(-c5cc(S(=O)(=O)[O-])ccc5F)c5ccc([nH]5)c(-c5cc(S(=O)(=O)[O-])ccc5F)c5nc(c(-c6cc(S(=O)(=O)[O-])ccc6F)c6ccc3[nH]6)C=C5)C=C4)cc2)[C@@H]1c1ccc(F)cc1
REMARK SMILES IDX 16 1 15 2 14 3 12 4 13 5 11 7 6 8 7 9 85 10 8 11 9 12 10 13
REMARK SMILES IDX 5 14 4 15 3 16 2 17 1 18 86 19 87 20 92 21 88 22 91 23 89 24
REMARK SMILES IDX 90 25 17 26 18 27 19 28 20 29 21 31 22 32 23 33 84 34 24 35
REMARK SMILES IDX 83 36 25 37 26 38 27 39 77 40 28 41 82 42 76 43 78 44 29 45
REMARK SMILES IDX 81 46 75 47 74 48 30 50 62 51 42 52 61 53 43 54 46 55 60 56
REMARK SMILES IDX 79 57 44 58 45 59 59 61 80 62 47 63 31 64 32 65 40 66 33 67
REMARK SMILES IDX 39 68 41 69 38 70 34 71 35 72 36 73 37 74 63 75 64 76 72 77
REMARK SMILES IDX 65 78 71 79 73 80 70 81 66 82 67 83 68 84 69 85 48 86 49 87
REMARK SMILES IDX 57 88 50 89 56 90 58 91 55 92 51 93 52 94 53 95 54 96
REMARK H PARENT 14 6 19 30 78 49 46 60
REMARK Flexibility Score: inf
ROOT
ATOM      1  C   UNL     1       4.889   6.653  -1.611  1.00  0.00     0.023 C 
ENDROOT
BRANCH   1   2
ATOM      2  C   UNL     1       3.885   5.663  -1.030  1.00  0.00     0.116 C 
BRANCH   2   3
ATOM      3  N   UNL     1       4.154   4.303  -1.452  1.00  0.00    -0.356 N 
ATOM      4  C   UNL     1       4.529   3.215  -0.722  1.00  0.00     0.225 C 
ATOM      5  O   UNL     1       4.811   2.188  -1.338  1.00  0.00    -0.275 OA
ATOM      6  H   UNL     1       4.049   4.139  -2.417  1.00  0.00     0.163 HD
BRANCH   4   7
ATOM      7  C   UNL     1       4.588   3.304   0.802  1.00  0.00     0.106 C 
ATOM      8  N   UNL     1       2.423   2.146   1.274  1.00  0.00    -0.335 N 
ATOM      9  C   UNL     1       3.025   0.918   1.512  1.00  0.00     0.223 C 
ATOM     10  C   UNL     1       3.171   3.407   1.396  1.00  0.00     0.128 C 
ATOM     11  O   UNL     1       2.382  -0.095   1.789  1.00  0.00    -0.275 OA
ATOM     12  C   UNL     1       4.524   0.816   1.319  1.00  0.00     0.101 C 
ATOM     13  C   UNL     1       5.312   2.111   1.425  1.00  0.00     0.026 C 
BRANCH   8  14
ATOM     14  C   UNL     1       0.958   2.224   1.160  1.00  0.00     0.122 C 
BRANCH  14  15
ATOM     15  C   UNL     1       0.459   2.679  -0.214  1.00  0.00     0.050 C 
BRANCH  15  16
ATOM     16  C   UNL     1       0.887   1.810  -1.393  1.00  0.00     0.161 C 
BRANCH  16  17
ATOM     17  O   UNL     1       0.119   0.615  -1.506  1.00  0.00    -0.385 OA
ATOM     18  C   UNL     1       0.683  -0.500  -0.830  1.00  0.00     0.194 C 
ENDBRANCH  16  17
ENDBRANCH  15  16
ENDBRANCH  14  15
ENDBRANCH   8  14
BRANCH  10  19
ATOM     19  C   UNL     1       3.170   3.956   2.837  1.00  0.00    -0.024 A 
ATOM     20  C   UNL     1       2.644   3.230   3.924  1.00  0.00     0.009 A 
ATOM     21  C   UNL     1       3.650   5.256   3.089  1.00  0.00     0.009 A 
ATOM     22  C   UNL     1       2.579   3.788   5.203  1.00  0.00     0.039 A 
ATOM     23  C   UNL     1       3.595   5.809   4.372  1.00  0.00     0.039 A 
ATOM     24  C   UNL     1       3.053   5.073   5.415  1.00  0.00     0.123 A 
ATOM     25  F   UNL     1       2.979   5.612   6.638  1.00  0.00    -0.207 F 
ENDBRANCH  10  19
ENDBRANCH   4   7
ENDBRANCH   2   3
ENDBRANCH   1   2
BRANCH   1  26
ATOM     26  C   UNL     1       4.880   6.753  -3.136  1.00  0.00     0.023 C 
BRANCH  26  27
ATOM     27  C   UNL     1       3.521   7.048  -3.762  1.00  0.00     0.116 C 
BRANCH  27  28
ATOM     28  N   UNL     1       2.953   8.305  -3.304  1.00  0.00    -0.352 N 
ATOM     29  C   UNL     1       2.449   9.351  -4.043  1.00  0.00     0.251 C 
ATOM     30  H   UNL     1       2.924   8.424  -2.327  1.00  0.00     0.163 HD
ATOM     31  O   UNL     1       2.163  10.402  -3.484  1.00  0.00    -0.269 OA
BRANCH  29  32
ATOM     32  C   UNL     1       2.291   9.207  -5.508  1.00  0.00     0.039 A 
ATOM     33  C   UNL     1       2.713  10.248  -6.338  1.00  0.00     0.014 A 
ATOM     34  C   UNL     1       1.742   8.047  -6.062  1.00  0.00     0.014 A 
ATOM     35  C   UNL     1       2.646  10.097  -7.726  1.00  0.00     0.010 A 
ATOM     36  C   UNL     1       1.754   7.866  -7.442  1.00  0.00     0.010 A 
ATOM     37  C   UNL     1       2.201   8.890  -8.291  1.00  0.00    -0.014 A 
BRANCH  37  38
ATOM     38  C   UNL     1       2.178   8.688  -9.765  1.00  0.00     0.031 A 
ATOM     39  C   UNL     1       0.870   8.444 -10.470  1.00  0.00     0.074 A 
ATOM     40  C   UNL     1       3.334   8.666 -10.460  1.00  0.00     0.049 A 
ATOM     41  N   UNL     1       0.646   8.165 -11.729  1.00  0.00    -0.248 NA
ATOM     42  C   UNL     1      -0.343   8.489  -9.640  1.00  0.00     0.031 C 
ATOM     43  C   UNL     1       4.668   8.855  -9.887  1.00  0.00     0.029 A 
ATOM     44  N   UNL     1       3.575   8.467 -11.797  1.00  0.00    -0.354 N 
ATOM     45  C   UNL     1      -0.730   7.990 -11.840  1.00  0.00     0.074 A 
ATOM     46  C   UNL     1      -1.276   8.125 -10.506  1.00  0.00     0.031 C 
ATOM     47  C   UNL     1       5.582   8.792 -10.868  1.00  0.00     0.029 A 
ATOM     48  C   UNL     1       4.910   8.504 -12.132  1.00  0.00     0.049 A 
ATOM     49  H   UNL     1       2.860   8.312 -12.455  1.00  0.00     0.167 HD
ATOM     50  C   UNL     1      -1.471   7.762 -12.952  1.00  0.00     0.034 A 
ATOM     51  C   UNL     1       5.524   8.314 -13.317  1.00  0.00     0.034 A 
ATOM     52  C   UNL     1      -0.911   7.638 -14.276  1.00  0.00     0.049 A 
ATOM     53  C   UNL     1       4.682   8.026 -14.536  1.00  0.00     0.074 A 
ATOM     54  C   UNL     1      -1.573   7.451 -15.478  1.00  0.00     0.029 A 
ATOM     55  N   UNL     1       0.446   7.678 -14.575  1.00  0.00    -0.354 N 
ATOM     56  N   UNL     1       3.377   7.907 -14.630  1.00  0.00    -0.248 NA
ATOM     57  C   UNL     1       5.394   7.859 -15.809  1.00  0.00     0.031 C 
ATOM     58  C   UNL     1      -0.617   7.302 -16.488  1.00  0.00     0.029 A 
ATOM     59  C   UNL     1       0.640   7.488 -15.935  1.00  0.00     0.049 A 
ATOM     60  H   UNL     1       1.164   7.820 -13.917  1.00  0.00     0.167 HD
ATOM     61  C   UNL     1       3.113   7.692 -15.981  1.00  0.00     0.074 A 
ATOM     62  C   UNL     1       4.391   7.710 -16.661  1.00  0.00     0.031 C 
ATOM     63  C   UNL     1       1.921   7.504 -16.604  1.00  0.00     0.034 A 
BRANCH  50  64
ATOM     64  C   UNL     1      -2.964   7.607 -12.774  1.00  0.00     0.023 A 
ATOM     65  C   UNL     1      -3.760   8.647 -12.260  1.00  0.00     0.031 A 
ATOM     66  C   UNL     1      -3.599   6.394 -13.095  1.00  0.00     0.131 A 
ATOM     67  C   UNL     1      -5.122   8.429 -12.006  1.00  0.00     0.055 A 
ATOM     68  C   UNL     1      -4.973   6.214 -12.925  1.00  0.00     0.041 A 
ATOM     69  F   UNL     1      -2.892   5.356 -13.568  1.00  0.00    -0.206 F 
ATOM     70  C   UNL     1      -5.741   7.229 -12.362  1.00  0.00     0.022 A 
BRANCH  67  71
ATOM     71  S   UNL     1      -6.036   9.678 -11.061  1.00  0.00     0.124 S 
ATOM     72  O   UNL     1      -5.261   9.735  -9.823  1.00  0.00    -0.237 OA
ATOM     73  O   UNL     1      -5.950  10.851 -11.922  1.00  0.00    -0.237 OA
ATOM     74  O   UNL     1      -7.370   9.098 -10.925  1.00  0.00    -0.744 OA
ENDBRANCH  67  71
ENDBRANCH  50  64
BRANCH  51  75
ATOM     75  C   UNL     1       7.012   8.378 -13.419  1.00  0.00     0.023 A 
ATOM     76  C   UNL     1       7.642   9.356 -14.206  1.00  0.00     0.031 A 
ATOM     77  C   UNL     1       7.825   7.430 -12.773  1.00  0.00     0.131 A 
ATOM     78  C   UNL     1       9.036   9.332 -14.369  1.00  0.00     0.055 A 
ATOM     79  C   UNL     1       9.216   7.446 -12.890  1.00  0.00     0.041 A 
ATOM     80  F   UNL     1       7.275   6.474 -12.006  1.00  0.00    -0.206 F 
ATOM     81  C   UNL     1       9.828   8.393 -13.705  1.00  0.00     0.022 A 
BRANCH  78  82
ATOM     82  S   UNL     1       9.793  10.488 -15.545  1.00  0.00     0.124 S 
ATOM     83  O   UNL     1       9.102  10.145 -16.783  1.00  0.00    -0.237 OA
ATOM     84  O   UNL     1       9.456  11.780 -14.957  1.00  0.00    -0.237 OA
ATOM     85  O   UNL     1      11.211  10.136 -15.502  1.00  0.00    -0.744 OA
ENDBRANCH  78  82
ENDBRANCH  51  75
BRANCH  63  86
ATOM     86  C   UNL     1       1.942   7.367 -18.108  1.00  0.00     0.023 A 
ATOM     87  C   UNL     1       2.556   6.279 -18.751  1.00  0.00     0.031 A 
ATOM     88  C   UNL     1       1.341   8.354 -18.912  1.00  0.00     0.131 A 
ATOM     89  C   UNL     1       2.609   6.234 -20.153  1.00  0.00     0.055 A 
ATOM     90  C   UNL     1       1.337   8.269 -20.305  1.00  0.00     0.041 A 
ATOM     91  F   UNL     1       0.743   9.420 -18.354  1.00  0.00    -0.206 F 
ATOM     92  C   UNL     1       1.987   7.211 -20.933  1.00  0.00     0.022 A 
BRANCH  89  93
ATOM     93  S   UNL     1       3.596   4.935 -20.947  1.00  0.00     0.124 S 
ATOM     94  O   UNL     1       4.915   5.155 -20.362  1.00  0.00    -0.237 OA
ATOM     95  O   UNL     1       2.908   3.719 -20.526  1.00  0.00    -0.237 OA
ATOM     96  O   UNL     1       3.490   5.245 -22.371  1.00  0.00    -0.744 OA
ENDBRANCH  89  93
ENDBRANCH  63  86
ENDBRANCH  37  38
ENDBRANCH  29  32
ENDBRANCH  27  28
ENDBRANCH  26  27
ENDBRANCH   1  26
TORSDOF 19
