REMARK SMILES COc1ccc(C2=NN(C(=O)CCC(=O)NCCCCNC(=O)c3ccc(-c4c5nc(c(-c6cc(S(=O)(=O)[O-])ccc6F)c6ccc([nH]6)c(-c6cc(S(=O)(=O)[O-])ccc6F)c6nc(c(-c7cc(S(=O)(=O)[O-])ccc7F)c7ccc4[nH]7)C=C6)C=C5)cc3)[C@H](c3ccc(Cl)cc3Cl)C2)cc1
REMARK SMILES IDX 17 1 16 2 14 3 15 4 13 6 12 7 10 8 11 9 9 10 7 11 8 12 96 13
REMARK SMILES IDX 87 14 6 15 3 16 4 17 98 18 5 19 97 20 2 21 1 22 88 23 89 24
REMARK SMILES IDX 94 25 90 26 93 27 95 28 91 29 92 30 18 31 19 32 20 33 21 34
REMARK SMILES IDX 22 35 23 37 24 38 25 39 86 40 26 41 85 42 27 43 28 44 29 45
REMARK SMILES IDX 79 46 30 47 84 48 78 49 80 50 31 51 83 52 77 53 76 54 32 56
REMARK SMILES IDX 64 57 44 58 63 59 45 60 48 61 62 62 81 63 46 64 47 65 61 67
REMARK SMILES IDX 82 68 49 69 33 70 34 71 42 72 35 73 41 74 43 75 40 76 36 77
REMARK SMILES IDX 37 78 38 79 39 80 65 81 66 82 74 83 67 84 73 85 75 86 72 87
REMARK SMILES IDX 68 88 69 89 70 90 71 91 50 92 51 93 59 94 52 95 58 96 60 97
REMARK SMILES IDX 57 98 53 99 54 100 55 101 56 102
REMARK H PARENT 16 5 21 36 80 55 48 66
REMARK Flexibility Score: inf
ROOT
ATOM      1  C   UNL     1       3.510  -3.414  -7.213  1.00  0.00     0.116 C 
ENDROOT
BRANCH   1   2
ATOM      2  N   UNL     1       4.443  -3.832  -8.456  1.00  0.00    -0.356 N 
ATOM      3  C   UNL     1       4.518  -3.683  -9.810  1.00  0.00     0.220 C 
ATOM      4  O   UNL     1       5.552  -4.144 -10.318  1.00  0.00    -0.275 OA
ATOM      5  H   UNL     1       5.204  -4.368  -8.136  1.00  0.00     0.163 HD
BRANCH   3   6
ATOM      6  C   UNL     1       3.529  -2.982 -10.748  1.00  0.00     0.110 C 
BRANCH   6   7
ATOM      7  C   UNL     1       2.030  -3.180 -10.639  1.00  0.00     0.112 C 
BRANCH   7   8
ATOM      8  C   UNL     1       1.636  -2.483  -9.403  1.00  0.00     0.243 C 
ATOM      9  O   UNL     1       1.116  -1.373  -9.420  1.00  0.00    -0.273 OA
BRANCH   8  10
ATOM     10  N   UNL     1       2.028  -3.188  -8.296  1.00  0.00    -0.225 N 
ATOM     11  C   UNL     1       2.575  -3.112  -5.386  1.00  0.00     0.071 C 
ATOM     12  N   UNL     1       2.263  -2.172  -6.664  1.00  0.00    -0.174 NA
ATOM     13  C   UNL     1       2.981  -4.942  -5.942  1.00  0.00     0.091 C 
ATOM     14  C   UNL     1       2.478  -5.060  -7.841  1.00  0.00     0.149 C 
BRANCH  11  15
ATOM     15  C   UNL     1       1.911  -3.057  -3.947  1.00  0.00    -0.002 A 
ATOM     16  C   UNL     1       0.676  -2.776  -1.349  1.00  0.00     0.118 A 
ATOM     17  C   UNL     1      -0.076  -2.615  -2.451  1.00  0.00     0.047 A 
ATOM     18  C   UNL     1       1.958  -3.353  -1.559  1.00  0.00     0.047 A 
ATOM     19  C   UNL     1       0.534  -2.824  -3.687  1.00  0.00     0.014 A 
ATOM     20  C   UNL     1       2.583  -3.484  -2.834  1.00  0.00     0.014 A 
BRANCH  16  21
ATOM     21  O   UNL     1       0.146  -2.501  -0.124  1.00  0.00    -0.497 OA
ATOM     22  C   UNL     1      -0.666  -1.339   0.105  1.00  0.00     0.278 C 
ENDBRANCH  16  21
ENDBRANCH  11  15
BRANCH  14  23
ATOM     23  C   UNL     1       1.697  -6.367  -8.197  1.00  0.00    -0.004 A 
ATOM     24  C   UNL     1       1.302  -7.216  -7.135  1.00  0.00     0.009 A 
ATOM     25  C   UNL     1       1.762  -7.004  -9.465  1.00  0.00     0.047 A 
ATOM     26  C   UNL     1       0.991  -8.573  -7.315  1.00  0.00     0.021 A 
ATOM     27  C   UNL     1       1.320  -8.326  -9.666  1.00  0.00     0.041 A 
ATOM     28  Cl  UNL     1       2.664  -6.406 -10.815  1.00  0.00    -0.084 Cl
ATOM     29  C   UNL     1       0.966  -9.114  -8.586  1.00  0.00     0.042 A 
ATOM     30  Cl  UNL     1       0.598 -10.777  -8.815  1.00  0.00    -0.084 Cl
ENDBRANCH  14  23
ENDBRANCH   8  10
ENDBRANCH   7   8
ENDBRANCH   6   7
ENDBRANCH   3   6
ENDBRANCH   1   2
BRANCH   1  31
ATOM     31  C   UNL     1       1.353  -3.791  -6.713  1.00  0.00     0.023 C 
BRANCH  31  32
ATOM     32  C   UNL     1       0.190  -2.270  -6.422  1.00  0.00     0.023 C 
BRANCH  32  33
ATOM     33  C   UNL     1       0.794  -0.746  -5.652  1.00  0.00     0.116 C 
BRANCH  33  34
ATOM     34  N   UNL     1       0.344  -0.130  -4.374  1.00  0.00    -0.352 N 
ATOM     35  C   UNL     1       1.221   0.674  -3.567  1.00  0.00     0.251 C 
ATOM     36  H   UNL     1      -0.582  -0.278  -4.073  1.00  0.00     0.163 HD
ATOM     37  O   UNL     1       1.058   1.897  -3.606  1.00  0.00    -0.269 OA
BRANCH  35  38
ATOM     38  C   UNL     1       2.106   0.131  -2.428  1.00  0.00     0.039 A 
ATOM     39  C   UNL     1       1.718   0.442  -1.116  1.00  0.00     0.014 A 
ATOM     40  C   UNL     1       3.350  -0.509  -2.516  1.00  0.00     0.014 A 
ATOM     41  C   UNL     1       2.365  -0.094   0.044  1.00  0.00     0.010 A 
ATOM     42  C   UNL     1       4.006  -1.060  -1.335  1.00  0.00     0.010 A 
ATOM     43  C   UNL     1       3.450  -0.969  -0.031  1.00  0.00    -0.014 A 
BRANCH  43  44
ATOM     44  C   UNL     1       4.013  -1.594   1.272  1.00  0.00     0.031 A 
ATOM     45  C   UNL     1       5.165  -0.888   1.929  1.00  0.00     0.074 A 
ATOM     46  C   UNL     1       3.492  -2.629   2.005  1.00  0.00     0.049 A 
ATOM     47  N   UNL     1       5.718  -1.118   3.093  1.00  0.00    -0.248 NA
ATOM     48  C   UNL     1       5.729   0.252   1.200  1.00  0.00     0.031 C 
ATOM     49  C   UNL     1       2.300  -3.365   1.678  1.00  0.00     0.029 A 
ATOM     50  N   UNL     1       3.846  -3.258   3.197  1.00  0.00    -0.354 N 
ATOM     51  C   UNL     1       6.663  -0.119   3.263  1.00  0.00     0.074 A 
ATOM     52  C   UNL     1       6.654   0.671   2.047  1.00  0.00     0.031 C 
ATOM     53  C   UNL     1       2.013  -4.339   2.540  1.00  0.00     0.029 A 
ATOM     54  C   UNL     1       3.011  -4.314   3.575  1.00  0.00     0.049 A 
ATOM     55  H   UNL     1       4.625  -2.981   3.733  1.00  0.00     0.167 HD
ATOM     56  C   UNL     1       7.444   0.139   4.340  1.00  0.00     0.034 A 
ATOM     57  C   UNL     1       2.970  -5.174   4.618  1.00  0.00     0.034 A 
ATOM     58  C   UNL     1       7.490  -0.661   5.540  1.00  0.00     0.049 A 
ATOM     59  C   UNL     1       3.964  -4.970   5.714  1.00  0.00     0.074 A 
ATOM     60  C   UNL     1       8.305  -0.489   6.646  1.00  0.00     0.029 A 
ATOM     61  N   UNL     1       6.718  -1.788   5.793  1.00  0.00    -0.354 N 
ATOM     62  N   UNL     1       4.857  -4.019   5.822  1.00  0.00    -0.248 NA
ATOM     63  C   UNL     1       3.934  -5.915   6.835  1.00  0.00     0.031 C 
ATOM     64  C   UNL     1       8.099  -1.561   7.519  1.00  0.00     0.029 A 
ATOM     65  C   UNL     1       7.077  -2.346   7.015  1.00  0.00     0.049 A 
ATOM     66  H   UNL     1       6.019  -2.139   5.196  1.00  0.00     0.167 HD
ATOM     67  C   UNL     1       5.468  -4.225   7.048  1.00  0.00     0.074 A 
ATOM     68  C   UNL     1       4.829  -5.378   7.649  1.00  0.00     0.031 C 
ATOM     69  C   UNL     1       6.467  -3.508   7.616  1.00  0.00     0.034 A 
BRANCH  56  70
ATOM     70  C   UNL     1       8.382   1.310   4.207  1.00  0.00     0.023 A 
ATOM     71  C   UNL     1       7.905   2.623   4.056  1.00  0.00     0.031 A 
ATOM     72  C   UNL     1       9.768   1.092   4.134  1.00  0.00     0.131 A 
ATOM     73  C   UNL     1       8.801   3.652   3.736  1.00  0.00     0.055 A 
ATOM     74  C   UNL     1      10.662   2.138   3.919  1.00  0.00     0.041 A 
ATOM     75  F   UNL     1      10.271  -0.148   4.239  1.00  0.00    -0.206 F 
ATOM     76  C   UNL     1      10.179   3.425   3.696  1.00  0.00     0.022 A 
BRANCH  73  77
ATOM     77  S   UNL     1       8.127   5.237   3.169  1.00  0.00     0.124 S 
ATOM     78  O   UNL     1       7.355   4.824   1.999  1.00  0.00    -0.237 OA
ATOM     79  O   UNL     1       7.352   5.682   4.322  1.00  0.00    -0.237 OA
ATOM     80  O   UNL     1       9.319   6.029   2.873  1.00  0.00    -0.744 OA
ENDBRANCH  73  77
ENDBRANCH  56  70
BRANCH  57  81
ATOM     81  C   UNL     1       1.980  -6.312   4.692  1.00  0.00     0.023 A 
ATOM     82  C   UNL     1       1.067  -6.453   5.757  1.00  0.00     0.031 A 
ATOM     83  C   UNL     1       2.007  -7.343   3.732  1.00  0.00     0.131 A 
ATOM     84  C   UNL     1       0.276  -7.615   5.867  1.00  0.00     0.055 A 
ATOM     85  C   UNL     1       1.175  -8.465   3.812  1.00  0.00     0.041 A 
ATOM     86  F   UNL     1       2.857  -7.282   2.694  1.00  0.00    -0.206 F 
ATOM     87  C   UNL     1       0.315  -8.615   4.893  1.00  0.00     0.022 A 
BRANCH  84  88
ATOM     88  S   UNL     1      -0.718  -7.874   7.368  1.00  0.00     0.124 S 
ATOM     89  O   UNL     1       0.296  -7.789   8.413  1.00  0.00    -0.237 OA
ATOM     90  O   UNL     1      -1.666  -6.768   7.299  1.00  0.00    -0.237 OA
ATOM     91  O   UNL     1      -1.298  -9.201   7.170  1.00  0.00    -0.744 OA
ENDBRANCH  84  88
ENDBRANCH  57  81
BRANCH  69  92
ATOM     92  C   UNL     1       6.909  -3.938   8.989  1.00  0.00     0.023 A 
ATOM     93  C   UNL     1       7.468  -5.206   9.221  1.00  0.00     0.031 A 
ATOM     94  C   UNL     1       6.734  -3.080  10.088  1.00  0.00     0.131 A 
ATOM     95  C   UNL     1       7.761  -5.609  10.530  1.00  0.00     0.055 A 
ATOM     96  C   UNL     1       7.110  -3.454  11.377  1.00  0.00     0.041 A 
ATOM     97  F   UNL     1       6.187  -1.864   9.928  1.00  0.00    -0.206 F 
ATOM     98  C   UNL     1       7.611  -4.732  11.607  1.00  0.00     0.022 A 
BRANCH  95  99
ATOM     99  S   UNL     1       8.209  -7.342  10.819  1.00  0.00     0.124 S 
ATOM    100  O   UNL     1       7.053  -8.047  10.276  1.00  0.00    -0.237 OA
ATOM    101  O   UNL     1       9.449  -7.475  10.060  1.00  0.00    -0.237 OA
ATOM    102  O   UNL     1       8.359  -7.418  12.271  1.00  0.00    -0.744 OA
ENDBRANCH  95  99
ENDBRANCH  69  92
ENDBRANCH  43  44
ENDBRANCH  35  38
ENDBRANCH  33  34
ENDBRANCH  32  33
ENDBRANCH  31  32
ENDBRANCH   1  31
TORSDOF 20
