REMARK SMILES O=C(COc1ccc(/C=N/NC(=O)c2cc3cc([N+](=O)[O-])ccc3o2)cc1)NCCCCNC(=O)c1ccc(-c2c3nc(c(-c4cc(S(=O)(=O)[O-])ccc4F)c4ccc([nH]4)c(-c4cc(S(=O)(=O)[O-])ccc4F)c4nc(c(-c5cc(S(=O)(=O)[O-])ccc5F)c5ccc2[nH]5)C=C4)C=C3)cc1
REMARK SMILES IDX 29 1 28 2 1 3 2 4 3 6 4 7 5 8 6 9 27 10 7 11 26 12 8 13 9 14
REMARK SMILES IDX 10 15 11 16 12 17 13 19 14 20 15 21 25 22 16 23 24 24 17 25
REMARK SMILES IDX 23 26 18 27 22 28 19 29 20 30 21 31 30 32 31 33 32 34 33 35
REMARK SMILES IDX 34 36 35 38 36 39 37 40 98 41 38 42 97 43 39 44 40 45 41 46
REMARK SMILES IDX 91 47 42 48 96 49 90 50 92 51 43 52 95 53 89 54 88 55 44 57
REMARK SMILES IDX 76 58 56 59 75 60 57 61 60 62 74 63 93 64 58 65 59 66 73 68
REMARK SMILES IDX 94 69 61 70 45 71 46 72 54 73 47 74 53 75 55 76 52 77 48 78
REMARK SMILES IDX 49 79 50 80 51 81 77 82 78 83 86 84 79 85 85 86 87 87 84 88
REMARK SMILES IDX 80 89 81 90 82 91 83 92 62 93 63 94 71 95 64 96 70 97 72 98
REMARK SMILES IDX 69 99 65 100 66 101 67 102 68 103
REMARK H PARENT 28 5 11 18 33 37 92 56 60 67
REMARK Flexibility Score: inf
ROOT
ATOM      1  C   UNL     1       2.116  -1.715  -1.688  1.00  0.00     0.116 C 
ENDROOT
BRANCH   1   2
ATOM      2  N   UNL     1       2.791  -0.794  -0.799  1.00  0.00    -0.353 N 
ATOM      3  O   UNL     1       1.028   0.666  -0.570  1.00  0.00    -0.271 OA
ATOM      4  C   UNL     1       2.138   0.275  -0.218  1.00  0.00     0.257 C 
ATOM      5  H   UNL     1       3.745  -0.934  -0.601  1.00  0.00     0.163 HD
BRANCH   4   6
ATOM      6  C   UNL     1       2.889   0.908   0.958  1.00  0.00     0.329 C 
BRANCH   6   7
ATOM      7  O   UNL     1       3.738   0.052   1.716  1.00  0.00    -0.484 OA
BRANCH   7   8
ATOM      8  C   UNL     1       3.118  -0.799   2.593  1.00  0.00     0.120 A 
ATOM      9  C   UNL     1       3.722  -0.939   3.844  1.00  0.00     0.047 A 
ATOM     10  C   UNL     1       2.035  -1.617   2.262  1.00  0.00     0.047 A 
ATOM     11  C   UNL     1       3.252  -1.895   4.750  1.00  0.00     0.013 A 
ATOM     12  C   UNL     1       1.583  -2.597   3.147  1.00  0.00     0.013 A 
ATOM     13  C   UNL     1       2.197  -2.740   4.387  1.00  0.00    -0.005 A 
BRANCH  13  14
ATOM     14  C   UNL     1       1.802  -3.881   5.238  1.00  0.00     0.141 C 
ATOM     15  N   UNL     1       2.173  -3.926   6.470  1.00  0.00    -0.180 NA
BRANCH  15  16
ATOM     16  N   UNL     1       2.014  -5.045   7.217  1.00  0.00    -0.240 N 
ATOM     17  C   UNL     1       1.298  -6.212   7.086  1.00  0.00     0.307 C 
ATOM     18  H   UNL     1       2.535  -5.016   8.052  1.00  0.00     0.194 HD
ATOM     19  O   UNL     1       1.726  -7.188   7.712  1.00  0.00    -0.264 OA
BRANCH  17  20
ATOM     20  C   UNL     1       0.034  -6.310   6.386  1.00  0.00     0.194 A 
ATOM     21  C   UNL     1      -0.258  -6.999   5.213  1.00  0.00     0.065 A 
ATOM     22  O   UNL     1      -1.075  -6.342   7.200  1.00  0.00    -0.451 OA
ATOM     23  C   UNL     1      -1.388  -7.815   5.526  1.00  0.00     0.028 A 
ATOM     24  C   UNL     1      -1.849  -7.367   6.757  1.00  0.00     0.135 A 
ATOM     25  C   UNL     1      -1.959  -8.976   4.971  1.00  0.00     0.097 A 
ATOM     26  C   UNL     1      -2.859  -7.978   7.496  1.00  0.00     0.055 A 
ATOM     27  C   UNL     1      -2.890  -9.684   5.758  1.00  0.00     0.270 A 
ATOM     28  C   UNL     1      -3.344  -9.190   6.993  1.00  0.00     0.089 A 
BRANCH  27  29
ATOM     29  N   UNL     1      -3.318 -11.022   5.324  1.00  0.00     0.062 N 
ATOM     30  O   UNL     1      -3.048 -11.365   4.165  1.00  0.00    -0.258 OA
ATOM     31  O   UNL     1      -3.914 -11.732   6.148  1.00  0.00    -0.258 OA
ENDBRANCH  27  29
ENDBRANCH  17  20
ENDBRANCH  15  16
ENDBRANCH  13  14
ENDBRANCH   7   8
ENDBRANCH   6   7
ENDBRANCH   4   6
ENDBRANCH   1   2
BRANCH   1  32
ATOM     32  C   UNL     1       2.505  -1.538  -3.149  1.00  0.00     0.023 C 
BRANCH  32  33
ATOM     33  C   UNL     1       3.987  -1.768  -3.450  1.00  0.00     0.023 C 
BRANCH  33  34
ATOM     34  C   UNL     1       4.540  -3.132  -3.045  1.00  0.00     0.116 C 
BRANCH  34  35
ATOM     35  N   UNL     1       3.914  -4.234  -3.757  1.00  0.00    -0.352 N 
ATOM     36  C   UNL     1       4.497  -5.255  -4.473  1.00  0.00     0.251 C 
ATOM     37  H   UNL     1       2.931  -4.253  -3.723  1.00  0.00     0.163 HD
ATOM     38  O   UNL     1       3.786  -6.012  -5.131  1.00  0.00    -0.269 OA
BRANCH  36  39
ATOM     39  C   UNL     1       5.969  -5.421  -4.481  1.00  0.00     0.039 A 
ATOM     40  C   UNL     1       6.614  -5.668  -5.696  1.00  0.00     0.014 A 
ATOM     41  C   UNL     1       6.716  -5.330  -3.303  1.00  0.00     0.014 A 
ATOM     42  C   UNL     1       8.009  -5.746  -5.740  1.00  0.00     0.010 A 
ATOM     43  C   UNL     1       8.109  -5.334  -3.361  1.00  0.00     0.010 A 
ATOM     44  C   UNL     1       8.773  -5.536  -4.580  1.00  0.00    -0.014 A 
BRANCH  44  45
ATOM     45  C   UNL     1      10.261  -5.514  -4.627  1.00  0.00     0.031 A 
ATOM     46  C   UNL     1      11.061  -6.537  -3.865  1.00  0.00     0.074 A 
ATOM     47  C   UNL     1      10.895  -4.535  -5.304  1.00  0.00     0.049 A 
ATOM     48  N   UNL     1      12.358  -6.635  -3.720  1.00  0.00    -0.248 NA
ATOM     49  C   UNL     1      10.298  -7.569  -3.149  1.00  0.00     0.031 C 
ATOM     50  C   UNL     1      10.235  -3.464  -6.056  1.00  0.00     0.029 A 
ATOM     51  N   UNL     1      12.233  -4.272  -5.466  1.00  0.00    -0.354 N 
ATOM     52  C   UNL     1      12.567  -7.729  -2.886  1.00  0.00     0.074 A 
ATOM     53  C   UNL     1      11.258  -8.222  -2.511  1.00  0.00     0.031 C 
ATOM     54  C   UNL     1      11.168  -2.682  -6.620  1.00  0.00     0.029 A 
ATOM     55  C   UNL     1      12.492  -3.157  -6.231  1.00  0.00     0.049 A 
ATOM     56  H   UNL     1      12.942  -4.830  -5.072  1.00  0.00     0.167 HD
ATOM     57  C   UNL     1      13.740  -8.283  -2.488  1.00  0.00     0.034 A 
ATOM     58  C   UNL     1      13.660  -2.574  -6.569  1.00  0.00     0.034 A 
ATOM     59  C   UNL     1      15.038  -7.786  -2.880  1.00  0.00     0.049 A 
ATOM     60  C   UNL     1      14.950  -3.186  -6.082  1.00  0.00     0.074 A 
ATOM     61  C   UNL     1      16.285  -8.309  -2.583  1.00  0.00     0.029 A 
ATOM     62  N   UNL     1      15.260  -6.647  -3.644  1.00  0.00    -0.354 N 
ATOM     63  N   UNL     1      15.130  -4.252  -5.336  1.00  0.00    -0.248 NA
ATOM     64  C   UNL     1      16.194  -2.520  -6.490  1.00  0.00     0.031 C 
ATOM     65  C   UNL     1      17.258  -7.446  -3.098  1.00  0.00     0.029 A 
ATOM     66  C   UNL     1      16.622  -6.431  -3.794  1.00  0.00     0.049 A 
ATOM     67  H   UNL     1      14.553  -6.077  -4.025  1.00  0.00     0.167 HD
ATOM     68  C   UNL     1      16.509  -4.403  -5.218  1.00  0.00     0.074 A 
ATOM     69  C   UNL     1      17.111  -3.328  -5.979  1.00  0.00     0.031 C 
ATOM     70  C   UNL     1      17.214  -5.349  -4.546  1.00  0.00     0.034 A 
BRANCH  57  71
ATOM     71  C   UNL     1      13.670  -9.470  -1.555  1.00  0.00     0.023 A 
ATOM     72  C   UNL     1      13.059 -10.677  -1.937  1.00  0.00     0.031 A 
ATOM     73  C   UNL     1      14.205  -9.388  -0.257  1.00  0.00     0.131 A 
ATOM     74  C   UNL     1      12.928 -11.721  -1.008  1.00  0.00     0.055 A 
ATOM     75  C   UNL     1      14.149 -10.463   0.633  1.00  0.00     0.041 A 
ATOM     76  F   UNL     1      14.783  -8.256   0.174  1.00  0.00    -0.206 F 
ATOM     77  C   UNL     1      13.493 -11.633   0.265  1.00  0.00     0.022 A 
BRANCH  74  78
ATOM     78  S   UNL     1      11.875 -13.134  -1.439  1.00  0.00     0.124 S 
ATOM     79  O   UNL     1      10.596 -12.479  -1.702  1.00  0.00    -0.237 OA
ATOM     80  O   UNL     1      12.557 -13.693  -2.600  1.00  0.00    -0.237 OA
ATOM     81  O   UNL     1      11.906 -13.964  -0.236  1.00  0.00    -0.744 OA
ENDBRANCH  74  78
ENDBRANCH  57  71
BRANCH  58  82
ATOM     82  C   UNL     1      13.676  -1.336  -7.402  1.00  0.00     0.023 A 
ATOM     83  C   UNL     1      14.270  -1.329  -8.674  1.00  0.00     0.031 A 
ATOM     84  C   UNL     1      13.144  -0.127  -6.919  1.00  0.00     0.131 A 
ATOM     85  C   UNL     1      14.364  -0.131  -9.398  1.00  0.00     0.055 A 
ATOM     86  C   UNL     1      13.187   1.051  -7.668  1.00  0.00     0.041 A 
ATOM     87  F   UNL     1      12.563  -0.076  -5.709  1.00  0.00    -0.206 F 
ATOM     88  C   UNL     1      13.813   1.056  -8.910  1.00  0.00     0.022 A 
BRANCH  85  89
ATOM     89  S   UNL     1      15.303  -0.124 -10.950  1.00  0.00     0.124 S 
ATOM     90  O   UNL     1      16.615  -0.579 -10.503  1.00  0.00    -0.237 OA
ATOM     91  O   UNL     1      14.542  -1.063 -11.768  1.00  0.00    -0.237 OA
ATOM     92  O   UNL     1      15.239   1.270 -11.380  1.00  0.00    -0.744 OA
ENDBRANCH  85  89
ENDBRANCH  58  82
BRANCH  70  93
ATOM     93  C   UNL     1      18.720  -5.290  -4.650  1.00  0.00     0.023 A 
ATOM     94  C   UNL     1      19.462  -4.224  -4.109  1.00  0.00     0.031 A 
ATOM     95  C   UNL     1      19.423  -6.313  -5.312  1.00  0.00     0.131 A 
ATOM     96  C   UNL     1      20.853  -4.177  -4.290  1.00  0.00     0.055 A 
ATOM     97  C   UNL     1      20.813  -6.294  -5.431  1.00  0.00     0.041 A 
ATOM     98  F   UNL     1      18.767  -7.353  -5.852  1.00  0.00    -0.206 F 
ATOM     99  C   UNL     1      21.535  -5.215  -4.931  1.00  0.00     0.022 A 
BRANCH  96 100
ATOM    100  S   UNL     1      21.751  -2.692  -3.762  1.00  0.00     0.124 S 
ATOM    101  O   UNL     1      21.086  -1.646  -4.532  1.00  0.00    -0.237 OA
ATOM    102  O   UNL     1      21.508  -2.676  -2.323  1.00  0.00    -0.237 OA
ATOM    103  O   UNL     1      23.131  -2.968  -4.154  1.00  0.00    -0.744 OA
ENDBRANCH  96 100
ENDBRANCH  70  93
ENDBRANCH  44  45
ENDBRANCH  36  39
ENDBRANCH  34  35
ENDBRANCH  33  34
ENDBRANCH  32  33
ENDBRANCH   1  32
TORSDOF 20
