REMARK SMILES COc1ccccc1-c1nnc(S[C@@H](C)C(=O)NCCCCNC(=O)c2ccc(-c3c4nc(c(-c5cc(S(=O)(=O)[O-])ccc5F)c5ccc([nH]5)c(-c5cc(S(=O)(=O)[O-])ccc5F)c5nc(c(-c6cc(S(=O)(=O)[O-])ccc6F)c6ccc3[nH]6)C=C5)C=C4)cc2)n1-c1ccccc1
REMARK SMILES IDX 20 1 19 2 18 3 16 4 17 5 14 7 15 8 13 9 12 10 9 11 10 12
REMARK SMILES IDX 89 13 11 14 8 15 3 16 4 17 5 18 7 19 6 20 2 21 1 22 90 23
REMARK SMILES IDX 91 24 95 25 92 26 94 27 93 28 21 29 22 30 23 31 24 32 25 34
REMARK SMILES IDX 26 35 27 36 88 37 28 38 87 39 29 40 30 41 31 42 81 43 32 44
REMARK SMILES IDX 86 45 80 46 82 47 33 48 85 49 79 50 78 51 34 53 66 54 46 55
REMARK SMILES IDX 65 56 47 57 50 58 64 59 83 60 48 61 49 62 63 64 84 65 51 66
REMARK SMILES IDX 35 67 36 68 44 69 37 70 43 71 45 72 42 73 38 74 39 75 40 76
REMARK SMILES IDX 41 77 67 78 68 79 76 80 69 81 75 82 77 83 74 84 70 85 71 86
REMARK SMILES IDX 72 87 73 88 52 89 53 90 61 91 54 92 60 93 62 94 59 95 55 96
REMARK SMILES IDX 56 97 57 98 58 99
REMARK H PARENT 18 6 23 33 82 52 50 63
REMARK Flexibility Score: inf
ROOT
ATOM      1  C   UNL     1       5.322  -1.831   2.508  1.00  0.00     0.023 C 
ENDROOT
BRANCH   1   2
ATOM      2  C   UNL     1       5.771  -0.429   2.069  1.00  0.00     0.116 C 
BRANCH   2   3
ATOM      3  N   UNL     1       5.707   0.646   3.034  1.00  0.00    -0.355 N 
ATOM      4  C   UNL     1       5.443   1.983   2.906  1.00  0.00     0.233 C 
ATOM      5  O   UNL     1       5.400   2.594   3.987  1.00  0.00    -0.274 OA
ATOM      6  H   UNL     1       5.889   0.362   3.959  1.00  0.00     0.163 HD
BRANCH   4   7
ATOM      7  C   UNL     1       5.300   2.801   1.605  1.00  0.00     0.141 C 
ATOM      8  C   UNL     1       4.269   3.931   1.591  1.00  0.00     0.030 C 
BRANCH   7   9
ATOM      9  S   UNL     1       5.397   2.105  -0.027  1.00  0.00    -0.073 SA
BRANCH   9  10
ATOM     10  C   UNL     1       4.040   1.090  -0.446  1.00  0.00     0.196 A 
ATOM     11  C   UNL     1       3.104  -0.897  -0.196  1.00  0.00     0.173 A 
ATOM     12  N   UNL     1       3.705  -0.850  -1.367  1.00  0.00    -0.129 NA
ATOM     13  N   UNL     1       3.094   0.463   0.377  1.00  0.00    -0.270 N 
ATOM     14  N   UNL     1       4.182   0.406  -1.562  1.00  0.00    -0.122 NA
BRANCH  11  15
ATOM     15  C   UNL     1       2.379  -2.142   0.243  1.00  0.00     0.062 A 
ATOM     16  C   UNL     1       0.728  -1.721   0.735  1.00  0.00     0.129 A 
ATOM     17  C   UNL     1       0.035  -2.382   2.189  1.00  0.00     0.047 A 
ATOM     18  C   UNL     1       0.955  -3.534   3.220  1.00  0.00     0.004 A 
ATOM     19  C   UNL     1       3.297  -3.456   1.107  1.00  0.00     0.016 A 
ATOM     20  C   UNL     1       2.617  -4.147   2.673  1.00  0.00     0.001 A 
BRANCH  16  21
ATOM     21  O   UNL     1       0.081  -0.584   0.291  1.00  0.00    -0.496 OA
ATOM     22  C   UNL     1       0.138  -0.299  -1.103  1.00  0.00     0.278 C 
ENDBRANCH  16  21
ENDBRANCH  11  15
BRANCH  13  23
ATOM     23  C   UNL     1       2.463   1.073   1.566  1.00  0.00     0.050 A 
ATOM     24  C   UNL     1       1.602   2.164   1.501  1.00  0.00     0.027 A 
ATOM     25  C   UNL     1       2.789   0.694   2.871  1.00  0.00     0.027 A 
ATOM     26  C   UNL     1       1.150   2.809   2.691  1.00  0.00     0.002 A 
ATOM     27  C   UNL     1       2.316   1.264   4.059  1.00  0.00     0.002 A 
ATOM     28  C   UNL     1       1.506   2.363   3.966  1.00  0.00     0.000 A 
ENDBRANCH  13  23
ENDBRANCH   9  10
ENDBRANCH   7   9
ENDBRANCH   4   7
ENDBRANCH   2   3
ENDBRANCH   1   2
BRANCH   1  29
ATOM     29  C   UNL     1       3.937  -2.189   3.175  1.00  0.00     0.023 C 
BRANCH  29  30
ATOM     30  C   UNL     1       2.240  -2.204   2.385  1.00  0.00     0.116 C 
BRANCH  30  31
ATOM     31  N   UNL     1       1.326  -3.735   1.270  1.00  0.00    -0.352 N 
ATOM     32  C   UNL     1       0.842  -5.242   1.355  1.00  0.00     0.251 C 
ATOM     33  H   UNL     1       1.126  -3.391   0.370  1.00  0.00     0.163 HD
ATOM     34  O   UNL     1       0.591  -5.777   0.265  1.00  0.00    -0.269 OA
BRANCH  32  35
ATOM     35  C   UNL     1       0.548  -6.148   2.638  1.00  0.00     0.039 A 
ATOM     36  C   UNL     1      -0.800  -6.328   2.938  1.00  0.00     0.014 A 
ATOM     37  C   UNL     1       1.385  -6.314   3.737  1.00  0.00     0.014 A 
ATOM     38  C   UNL     1      -1.299  -5.888   4.177  1.00  0.00     0.010 A 
ATOM     39  C   UNL     1       0.925  -5.792   4.960  1.00  0.00     0.010 A 
ATOM     40  C   UNL     1      -0.420  -5.341   5.094  1.00  0.00    -0.014 A 
BRANCH  40  41
ATOM     41  C   UNL     1      -0.824  -4.351   6.173  1.00  0.00     0.031 A 
ATOM     42  C   UNL     1      -0.292  -4.852   7.445  1.00  0.00     0.074 A 
ATOM     43  C   UNL     1      -1.433  -3.117   6.211  1.00  0.00     0.049 A 
ATOM     44  N   UNL     1      -0.798  -5.886   8.032  1.00  0.00    -0.248 NA
ATOM     45  C   UNL     1       1.076  -4.510   7.878  1.00  0.00     0.031 C 
ATOM     46  C   UNL     1      -1.848  -2.219   5.130  1.00  0.00     0.029 A 
ATOM     47  N   UNL     1      -1.812  -2.357   7.315  1.00  0.00    -0.354 N 
ATOM     48  C   UNL     1       0.029  -6.085   9.107  1.00  0.00     0.074 A 
ATOM     49  C   UNL     1       1.292  -5.545   8.698  1.00  0.00     0.031 C 
ATOM     50  C   UNL     1      -2.216  -0.995   5.605  1.00  0.00     0.029 A 
ATOM     51  C   UNL     1      -2.258  -1.034   7.061  1.00  0.00     0.049 A 
ATOM     52  H   UNL     1      -1.771  -2.721   8.229  1.00  0.00     0.167 HD
ATOM     53  C   UNL     1      -0.505  -6.237  10.347  1.00  0.00     0.034 A 
ATOM     54  C   UNL     1      -2.735  -0.084   7.946  1.00  0.00     0.034 A 
ATOM     55  C   UNL     1      -1.952  -6.428  10.260  1.00  0.00     0.049 A 
ATOM     56  C   UNL     1      -3.245  -0.835   9.114  1.00  0.00     0.074 A 
ATOM     57  C   UNL     1      -2.781  -7.286   9.555  1.00  0.00     0.029 A 
ATOM     58  N   UNL     1      -2.764  -5.376  10.638  1.00  0.00    -0.354 N 
ATOM     59  N   UNL     1      -4.293  -1.606   9.061  1.00  0.00    -0.248 NA
ATOM     60  C   UNL     1      -2.308  -1.121  10.185  1.00  0.00     0.031 C 
ATOM     61  C   UNL     1      -3.898  -6.494   9.148  1.00  0.00     0.029 A 
ATOM     62  C   UNL     1      -3.765  -5.223   9.707  1.00  0.00     0.049 A 
ATOM     63  H   UNL     1      -2.645  -4.823  11.444  1.00  0.00     0.167 HD
ATOM     64  C   UNL     1      -3.917  -2.744   9.753  1.00  0.00     0.074 A 
ATOM     65  C   UNL     1      -2.716  -2.354  10.495  1.00  0.00     0.031 C 
ATOM     66  C   UNL     1      -4.433  -3.964   9.424  1.00  0.00     0.034 A 
BRANCH  53  67
ATOM     67  C   UNL     1       0.182  -5.766  11.608  1.00  0.00     0.023 A 
ATOM     68  C   UNL     1      -0.515  -6.002  12.800  1.00  0.00     0.031 A 
ATOM     69  C   UNL     1       1.311  -4.916  11.719  1.00  0.00     0.131 A 
ATOM     70  C   UNL     1      -0.186  -5.309  13.972  1.00  0.00     0.055 A 
ATOM     71  C   UNL     1       1.673  -4.278  12.905  1.00  0.00     0.041 A 
ATOM     72  F   UNL     1       2.101  -4.579  10.697  1.00  0.00    -0.206 F 
ATOM     73  C   UNL     1       0.900  -4.443  14.034  1.00  0.00     0.022 A 
BRANCH  70  74
ATOM     74  S   UNL     1      -1.329  -5.432  15.361  1.00  0.00     0.124 S 
ATOM     75  O   UNL     1      -2.578  -5.010  14.736  1.00  0.00    -0.237 OA
ATOM     76  O   UNL     1      -1.222  -6.846  15.706  1.00  0.00    -0.237 OA
ATOM     77  O   UNL     1      -0.767  -4.503  16.337  1.00  0.00    -0.744 OA
ENDBRANCH  70  74
ENDBRANCH  53  67
BRANCH  54  78
ATOM     78  C   UNL     1      -2.594   1.428   8.029  1.00  0.00     0.023 A 
ATOM     79  C   UNL     1      -3.351   2.286   8.896  1.00  0.00     0.031 A 
ATOM     80  C   UNL     1      -1.444   2.011   7.462  1.00  0.00     0.131 A 
ATOM     81  C   UNL     1      -2.933   3.629   9.157  1.00  0.00     0.055 A 
ATOM     82  C   UNL     1      -1.030   3.323   7.738  1.00  0.00     0.041 A 
ATOM     83  F   UNL     1      -0.621   1.286   6.689  1.00  0.00    -0.206 F 
ATOM     84  C   UNL     1      -1.763   4.132   8.592  1.00  0.00     0.022 A 
BRANCH  81  85
ATOM     85  S   UNL     1      -3.839   4.754  10.304  1.00  0.00     0.124 S 
ATOM     86  O   UNL     1      -5.095   4.983   9.600  1.00  0.00    -0.237 OA
ATOM     87  O   UNL     1      -3.913   3.972  11.532  1.00  0.00    -0.237 OA
ATOM     88  O   UNL     1      -2.971   5.932  10.390  1.00  0.00    -0.744 OA
ENDBRANCH  81  85
ENDBRANCH  54  78
BRANCH  66  89
ATOM     89  C   UNL     1      -5.697  -4.008   8.577  1.00  0.00     0.023 A 
ATOM     90  C   UNL     1      -5.867  -3.423   7.299  1.00  0.00     0.031 A 
ATOM     91  C   UNL     1      -6.767  -4.767   9.086  1.00  0.00     0.131 A 
ATOM     92  C   UNL     1      -7.075  -3.610   6.591  1.00  0.00     0.055 A 
ATOM     93  C   UNL     1      -7.947  -4.970   8.373  1.00  0.00     0.041 A 
ATOM     94  F   UNL     1      -6.671  -5.353  10.291  1.00  0.00    -0.206 F 
ATOM     95  C   UNL     1      -8.108  -4.388   7.123  1.00  0.00     0.022 A 
BRANCH  92  96
ATOM     96  S   UNL     1      -7.341  -2.825   4.965  1.00  0.00     0.124 S 
ATOM     97  O   UNL     1      -6.972  -1.433   5.194  1.00  0.00    -0.237 OA
ATOM     98  O   UNL     1      -6.447  -3.588   4.097  1.00  0.00    -0.237 OA
ATOM     99  O   UNL     1      -8.767  -3.043   4.708  1.00  0.00    -0.744 OA
ENDBRANCH  92  96
ENDBRANCH  66  89
ENDBRANCH  40  41
ENDBRANCH  32  35
ENDBRANCH  30  31
ENDBRANCH  29  30
ENDBRANCH   1  29
TORSDOF 19
