REMARK SMILES C[C@@H]1SCCC[C@]1(CC(=O)NCCCCNC(=O)c1ccc(-c2c3nc(c(-c4cc(S(=O)(=O)[O-])ccc4F)c4ccc([nH]4)c(-c4cc(S(=O)(=O)[O-])ccc4F)c4nc(c(-c5cc(S(=O)(=O)[O-])ccc5F)c5ccc2[nH]5)C=C4)C=C3)cc1)[NH+]1CCOCC1
REMARK SMILES IDX 14 1 13 2 12 3 11 4 9 5 10 6 8 8 7 9 1 10 2 11 3 12 4 13
REMARK SMILES IDX 6 14 5 15 82 16 83 17 87 18 84 20 86 21 85 22 15 23 16 24
REMARK SMILES IDX 17 25 18 27 19 28 20 29 81 30 21 31 80 32 22 33 23 34 24 35
REMARK SMILES IDX 74 36 25 37 79 38 73 39 75 40 26 41 78 42 72 43 71 44 27 46
REMARK SMILES IDX 59 47 39 48 58 49 40 50 43 51 57 52 76 53 41 54 42 55 56 57
REMARK SMILES IDX 77 58 44 59 28 60 29 61 37 62 30 63 36 64 38 65 35 66 31 67
REMARK SMILES IDX 32 68 33 69 34 70 60 71 61 72 69 73 62 74 68 75 70 76 67 77
REMARK SMILES IDX 63 78 64 79 65 80 66 81 45 82 46 83 54 84 47 85 53 86 55 87
REMARK SMILES IDX 52 88 48 89 49 90 50 91 51 92
REMARK H PARENT 11 7 82 19 16 26 75 45 43 56
REMARK Flexibility Score: inf
ROOT
ATOM      1  C   UNL     1       1.121  -2.969   3.347  1.00  0.00     0.023 C 
ENDROOT
BRANCH   1   2
ATOM      2  C   UNL     1       0.526  -1.737   2.697  1.00  0.00     0.023 C 
BRANCH   2   3
ATOM      3  C   UNL     1      -0.188  -0.757   3.627  1.00  0.00     0.116 C 
BRANCH   3   4
ATOM      4  N   UNL     1       0.726   0.195   4.213  1.00  0.00    -0.356 N 
ATOM      5  C   UNL     1       0.912   1.512   3.962  1.00  0.00     0.226 C 
ATOM      6  O   UNL     1       1.486   2.148   4.858  1.00  0.00    -0.275 OA
ATOM      7  H   UNL     1       1.312  -0.176   4.912  1.00  0.00     0.163 HD
BRANCH   5   8
ATOM      8  C   UNL     1       0.431   2.254   2.708  1.00  0.00     0.169 C 
BRANCH   8   9
ATOM      9  C   UNL     1       0.935   1.982   1.212  1.00  0.00     0.118 C 
ATOM     10  C   UNL     1       0.403   0.265  -0.812  1.00  0.00     0.026 C 
ATOM     11  C   UNL     1       0.081   0.805   0.581  1.00  0.00     0.105 C 
ATOM     12  S   UNL     1      -1.747   1.069   0.594  1.00  0.00    -0.152 SA
ATOM     13  C   UNL     1      -1.799   2.611  -0.334  1.00  0.00     0.070 C 
ATOM     14  C   UNL     1       0.575   3.282   0.389  1.00  0.00     0.071 C 
ATOM     15  C   UNL     1      -0.914   3.662   0.318  1.00  0.00     0.017 C 
BRANCH   9  16
ATOM     16  N   UNL     1       2.411   1.827   1.082  1.00  0.00    -0.325 N 
ATOM     17  C   UNL     1       3.369   1.688   2.177  1.00  0.00     0.291 C 
ATOM     18  C   UNL     1       3.121   1.659  -0.190  1.00  0.00     0.291 C 
ATOM     19  H   UNL     1       1.593   2.413   1.252  1.00  0.00     0.348 HD
ATOM     20  C   UNL     1       4.034   0.309   2.125  1.00  0.00     0.221 C 
ATOM     21  C   UNL     1       3.959   0.354  -0.230  1.00  0.00     0.221 C 
ATOM     22  O   UNL     1       4.803   0.195   0.919  1.00  0.00    -0.370 OA
ENDBRANCH   9  16
ENDBRANCH   8   9
ENDBRANCH   5   8
ENDBRANCH   3   4
ENDBRANCH   2   3
ENDBRANCH   1   2
BRANCH   1  23
ATOM     23  C   UNL     1       0.085  -3.904   3.934  1.00  0.00     0.116 C 
BRANCH  23  24
ATOM     24  N   UNL     1      -0.932  -4.325   2.978  1.00  0.00    -0.352 N 
ATOM     25  C   UNL     1      -1.521  -5.564   2.849  1.00  0.00     0.251 C 
ATOM     26  H   UNL     1      -1.237  -3.636   2.345  1.00  0.00     0.163 HD
ATOM     27  O   UNL     1      -2.266  -5.804   1.917  1.00  0.00    -0.269 OA
BRANCH  25  28
ATOM     28  C   UNL     1      -1.180  -6.597   3.849  1.00  0.00     0.039 A 
ATOM     29  C   UNL     1      -0.819  -7.870   3.412  1.00  0.00     0.014 A 
ATOM     30  C   UNL     1      -1.125  -6.262   5.204  1.00  0.00     0.014 A 
ATOM     31  C   UNL     1      -0.341  -8.790   4.342  1.00  0.00     0.010 A 
ATOM     32  C   UNL     1      -0.520  -7.128   6.098  1.00  0.00     0.010 A 
ATOM     33  C   UNL     1      -0.153  -8.413   5.683  1.00  0.00    -0.014 A 
BRANCH  33  34
ATOM     34  C   UNL     1       0.382  -9.375   6.673  1.00  0.00     0.031 A 
ATOM     35  C   UNL     1      -0.466  -9.779   7.849  1.00  0.00     0.074 A 
ATOM     36  C   UNL     1       1.630  -9.857   6.517  1.00  0.00     0.049 A 
ATOM     37  N   UNL     1      -0.205 -10.637   8.800  1.00  0.00    -0.248 NA
ATOM     38  C   UNL     1      -1.762  -9.097   8.002  1.00  0.00     0.031 C 
ATOM     39  C   UNL     1       2.564  -9.460   5.458  1.00  0.00     0.029 A 
ATOM     40  N   UNL     1       2.324 -10.796   7.232  1.00  0.00    -0.354 N 
ATOM     41  C   UNL     1      -1.297 -10.589   9.660  1.00  0.00     0.074 A 
ATOM     42  C   UNL     1      -2.174  -9.550   9.174  1.00  0.00     0.031 C 
ATOM     43  C   UNL     1       3.681 -10.198   5.557  1.00  0.00     0.029 A 
ATOM     44  C   UNL     1       3.558 -11.094   6.701  1.00  0.00     0.049 A 
ATOM     45  H   UNL     1       1.973 -11.219   8.049  1.00  0.00     0.167 HD
ATOM     46  C   UNL     1      -1.565 -11.373  10.732  1.00  0.00     0.034 A 
ATOM     47  C   UNL     1       4.472 -12.005   7.086  1.00  0.00     0.034 A 
ATOM     48  C   UNL     1      -0.679 -12.417  11.182  1.00  0.00     0.049 A 
ATOM     49  C   UNL     1       4.138 -12.890   8.260  1.00  0.00     0.074 A 
ATOM     50  C   UNL     1      -0.851 -13.310  12.223  1.00  0.00     0.029 A 
ATOM     51  N   UNL     1       0.556 -12.705  10.610  1.00  0.00    -0.354 N 
ATOM     52  N   UNL     1       3.066 -12.887   9.021  1.00  0.00    -0.248 NA
ATOM     53  C   UNL     1       5.124 -13.917   8.608  1.00  0.00     0.031 C 
ATOM     54  C   UNL     1       0.304 -14.095  12.319  1.00  0.00     0.029 A 
ATOM     55  C   UNL     1       1.165 -13.747  11.289  1.00  0.00     0.049 A 
ATOM     56  H   UNL     1       0.941 -12.236   9.834  1.00  0.00     0.167 HD
ATOM     57  C   UNL     1       3.239 -13.932   9.923  1.00  0.00     0.074 A 
ATOM     58  C   UNL     1       4.503 -14.559   9.585  1.00  0.00     0.031 C 
ATOM     59  C   UNL     1       2.436 -14.339  10.941  1.00  0.00     0.034 A 
BRANCH  46  60
ATOM     60  C   UNL     1      -2.853 -11.109  11.479  1.00  0.00     0.023 A 
ATOM     61  C   UNL     1      -4.109 -11.222  10.853  1.00  0.00     0.031 A 
ATOM     62  C   UNL     1      -2.827 -10.685  12.819  1.00  0.00     0.131 A 
ATOM     63  C   UNL     1      -5.272 -10.832  11.534  1.00  0.00     0.055 A 
ATOM     64  C   UNL     1      -3.997 -10.384  13.520  1.00  0.00     0.041 A 
ATOM     65  F   UNL     1      -1.660 -10.531  13.465  1.00  0.00    -0.206 F 
ATOM     66  C   UNL     1      -5.228 -10.440  12.873  1.00  0.00     0.022 A 
BRANCH  63  67
ATOM     67  S   UNL     1      -6.820 -10.692  10.596  1.00  0.00     0.124 S 
ATOM     68  O   UNL     1      -6.463  -9.698   9.586  1.00  0.00    -0.237 OA
ATOM     69  O   UNL     1      -7.021 -12.052  10.112  1.00  0.00    -0.237 OA
ATOM     70  O   UNL     1      -7.785 -10.235  11.594  1.00  0.00    -0.744 OA
ENDBRANCH  63  67
ENDBRANCH  46  60
BRANCH  47  71
ATOM     71  C   UNL     1       5.758 -12.153   6.345  1.00  0.00     0.023 A 
ATOM     72  C   UNL     1       6.070 -13.338   5.660  1.00  0.00     0.031 A 
ATOM     73  C   UNL     1       6.711 -11.119   6.337  1.00  0.00     0.131 A 
ATOM     74  C   UNL     1       7.322 -13.482   5.040  1.00  0.00     0.055 A 
ATOM     75  C   UNL     1       7.934 -11.247   5.674  1.00  0.00     0.041 A 
ATOM     76  F   UNL     1       6.461  -9.960   6.967  1.00  0.00    -0.206 F 
ATOM     77  C   UNL     1       8.250 -12.440   5.032  1.00  0.00     0.022 A 
BRANCH  74  78
ATOM     78  S   UNL     1       7.754 -15.088   4.316  1.00  0.00     0.124 S 
ATOM     79  O   UNL     1       7.600 -15.982   5.457  1.00  0.00    -0.237 OA
ATOM     80  O   UNL     1       6.758 -15.220   3.257  1.00  0.00    -0.237 OA
ATOM     81  O   UNL     1       9.128 -14.895   3.855  1.00  0.00    -0.744 OA
ENDBRANCH  74  78
ENDBRANCH  47  71
BRANCH  59  82
ATOM     82  C   UNL     1       2.904 -15.539  11.728  1.00  0.00     0.023 A 
ATOM     83  C   UNL     1       4.088 -15.505  12.484  1.00  0.00     0.031 A 
ATOM     84  C   UNL     1       2.181 -16.744  11.682  1.00  0.00     0.131 A 
ATOM     85  C   UNL     1       4.563 -16.677  13.088  1.00  0.00     0.055 A 
ATOM     86  C   UNL     1       2.619 -17.887  12.352  1.00  0.00     0.041 A 
ATOM     87  F   UNL     1       1.042 -16.833  10.977  1.00  0.00    -0.206 F 
ATOM     88  C   UNL     1       3.827 -17.863  13.041  1.00  0.00     0.022 A 
BRANCH  85  89
ATOM     89  S   UNL     1       6.228 -16.664  13.808  1.00  0.00     0.124 S 
ATOM     90  O   UNL     1       7.040 -16.205  12.685  1.00  0.00    -0.237 OA
ATOM     91  O   UNL     1       6.080 -15.724  14.914  1.00  0.00    -0.237 OA
ATOM     92  O   UNL     1       6.441 -18.056  14.200  1.00  0.00    -0.744 OA
ENDBRANCH  85  89
ENDBRANCH  59  82
ENDBRANCH  33  34
ENDBRANCH  25  28
ENDBRANCH  23  24
ENDBRANCH   1  23
TORSDOF 16
