REMARK SMILES CC1(C)[C@H](C(=O)NCCCCNC(=O)c2ccc(-c3c4nc(c(-c5cc(S(=O)(=O)[O-])ccc5F)c5ccc([nH]5)c(-c5cc(S(=O)(=O)[O-])ccc5F)c5nc(c(-c6cc(S(=O)(=O)[O-])ccc6F)c6ccc3[nH]6)C=C5)C=C4)cc2)[C@@H]1c1nc2ccc(F)cc2s1
REMARK SMILES IDX 10 1 9 2 8 3 7 4 5 5 6 6 4 8 1 9 2 10 3 11 78 12 79 13 80 14
REMARK SMILES IDX 88 15 81 16 87 17 82 18 86 19 83 20 84 21 85 22 11 23 12 24
REMARK SMILES IDX 13 25 14 27 15 28 16 29 77 30 17 31 76 32 18 33 19 34 20 35
REMARK SMILES IDX 70 36 21 37 75 38 69 39 71 40 22 41 74 42 68 43 67 44 23 46
REMARK SMILES IDX 55 47 35 48 54 49 36 50 39 51 53 52 72 53 37 54 38 55 52 57
REMARK SMILES IDX 73 58 40 59 24 60 25 61 33 62 26 63 32 64 34 65 31 66 27 67
REMARK SMILES IDX 28 68 29 69 30 70 56 71 57 72 65 73 58 74 64 75 66 76 63 77
REMARK SMILES IDX 59 78 60 79 61 80 62 81 41 82 42 83 50 84 43 85 49 86 51 87
REMARK SMILES IDX 48 88 44 89 45 90 46 91 47 92
REMARK H PARENT 7 7 12 26 71 45 39 56
REMARK Flexibility Score: inf
ROOT
ATOM      1  C   UNL     1      -0.487   5.228  -1.915  1.00  0.00     0.023 C 
ENDROOT
BRANCH   1   2
ATOM      2  C   UNL     1       0.029   4.037  -1.115  1.00  0.00     0.023 C 
BRANCH   2   3
ATOM      3  C   UNL     1      -1.051   3.099  -0.588  1.00  0.00     0.116 C 
BRANCH   3   4
ATOM      4  N   UNL     1      -1.472   2.119  -1.552  1.00  0.00    -0.356 N 
ATOM      5  C   UNL     1      -1.507   0.754  -1.550  1.00  0.00     0.224 C 
ATOM      6  O   UNL     1      -1.952   0.241  -2.580  1.00  0.00    -0.275 OA
ATOM      7  H   UNL     1      -1.806   2.516  -2.389  1.00  0.00     0.163 HD
BRANCH   5   8
ATOM      8  C   UNL     1      -1.070  -0.194  -0.487  1.00  0.00     0.095 C 
ATOM      9  C   UNL     1       0.957  -1.561   0.320  1.00  0.00     0.013 C 
ATOM     10  C   UNL     1       0.257  -0.215   0.288  1.00  0.00    -0.013 C 
ATOM     11  C   UNL     1       1.242   0.914   0.144  1.00  0.00     0.013 C 
ATOM     12  C   UNL     1      -1.081  -0.120   1.005  1.00  0.00     0.068 C 
BRANCH  12  13
ATOM     13  C   UNL     1      -1.751   0.995   1.784  1.00  0.00     0.098 A 
ATOM     14  N   UNL     1      -3.064   1.036   1.807  1.00  0.00    -0.241 NA
ATOM     15  S   UNL     1      -0.968   2.120   2.812  1.00  0.00    -0.118 S 
ATOM     16  C   UNL     1      -3.486   2.175   2.465  1.00  0.00     0.082 A 
ATOM     17  C   UNL     1      -2.466   2.952   3.023  1.00  0.00     0.057 A 
ATOM     18  C   UNL     1      -4.822   2.610   2.583  1.00  0.00     0.033 A 
ATOM     19  C   UNL     1      -2.729   4.183   3.642  1.00  0.00     0.060 A 
ATOM     20  C   UNL     1      -5.097   3.831   3.204  1.00  0.00     0.041 A 
ATOM     21  C   UNL     1      -4.058   4.602   3.707  1.00  0.00     0.124 A 
ATOM     22  F   UNL     1      -4.342   5.779   4.278  1.00  0.00    -0.207 F 
ENDBRANCH  12  13
ENDBRANCH   5   8
ENDBRANCH   3   4
ENDBRANCH   2   3
ENDBRANCH   1   2
BRANCH   1  23
ATOM     23  C   UNL     1      -1.499   6.115  -1.195  1.00  0.00     0.116 C 
BRANCH  23  24
ATOM     24  N   UNL     1      -1.056   6.573   0.117  1.00  0.00    -0.352 N 
ATOM     25  C   UNL     1      -1.119   7.841   0.654  1.00  0.00     0.251 C 
ATOM     26  H   UNL     1      -0.659   5.884   0.697  1.00  0.00     0.163 HD
ATOM     27  O   UNL     1      -0.633   8.073   1.753  1.00  0.00    -0.269 OA
BRANCH  25  28
ATOM     28  C   UNL     1      -1.737   8.918  -0.147  1.00  0.00     0.039 A 
ATOM     29  C   UNL     1      -0.984  10.055  -0.445  1.00  0.00     0.014 A 
ATOM     30  C   UNL     1      -3.009   8.740  -0.696  1.00  0.00     0.014 A 
ATOM     31  C   UNL     1      -1.460  10.963  -1.393  1.00  0.00     0.010 A 
ATOM     32  C   UNL     1      -3.449   9.608  -1.689  1.00  0.00     0.010 A 
ATOM     33  C   UNL     1      -2.665  10.709  -2.069  1.00  0.00    -0.014 A 
BRANCH  33  34
ATOM     34  C   UNL     1      -3.106  11.540  -3.219  1.00  0.00     0.031 A 
ATOM     35  C   UNL     1      -4.391  12.311  -3.139  1.00  0.00     0.074 A 
ATOM     36  C   UNL     1      -2.406  11.504  -4.372  1.00  0.00     0.049 A 
ATOM     37  N   UNL     1      -5.029  12.958  -4.080  1.00  0.00    -0.248 NA
ATOM     38  C   UNL     1      -5.064  12.324  -1.832  1.00  0.00     0.031 C 
ATOM     39  C   UNL     1      -1.163  10.758  -4.586  1.00  0.00     0.029 A 
ATOM     40  N   UNL     1      -2.654  12.087  -5.589  1.00  0.00    -0.354 N 
ATOM     41  C   UNL     1      -6.189  13.441  -3.485  1.00  0.00     0.074 A 
ATOM     42  C   UNL     1      -6.187  12.965  -2.117  1.00  0.00     0.031 C 
ATOM     43  C   UNL     1      -0.754  10.937  -5.852  1.00  0.00     0.029 A 
ATOM     44  C   UNL     1      -1.728  11.766  -6.555  1.00  0.00     0.049 A 
ATOM     45  H   UNL     1      -3.422  12.680  -5.756  1.00  0.00     0.167 HD
ATOM     46  C   UNL     1      -7.155  14.225  -4.026  1.00  0.00     0.034 A 
ATOM     47  C   UNL     1      -1.682  12.078  -7.865  1.00  0.00     0.034 A 
ATOM     48  C   UNL     1      -7.133  14.703  -5.386  1.00  0.00     0.049 A 
ATOM     49  C   UNL     1      -2.788  12.912  -8.456  1.00  0.00     0.074 A 
ATOM     50  C   UNL     1      -8.014  15.568  -6.012  1.00  0.00     0.029 A 
ATOM     51  N   UNL     1      -6.185  14.346  -6.337  1.00  0.00    -0.354 N 
ATOM     52  N   UNL     1      -3.856  13.401  -7.868  1.00  0.00    -0.248 NA
ATOM     53  C   UNL     1      -2.686  13.230  -9.886  1.00  0.00     0.031 C 
ATOM     54  C   UNL     1      -7.633  15.687  -7.354  1.00  0.00     0.029 A 
ATOM     55  C   UNL     1      -6.482  14.943  -7.553  1.00  0.00     0.049 A 
ATOM     56  H   UNL     1      -5.415  13.755  -6.172  1.00  0.00     0.167 HD
ATOM     57  C   UNL     1      -4.543  14.099  -8.855  1.00  0.00     0.074 A 
ATOM     58  C   UNL     1      -3.766  13.976 -10.072  1.00  0.00     0.031 C 
ATOM     59  C   UNL     1      -5.710  14.787  -8.762  1.00  0.00     0.034 A 
BRANCH  46  60
ATOM     60  C   UNL     1      -8.323  14.585  -3.142  1.00  0.00     0.023 A 
ATOM     61  C   UNL     1      -8.155  15.359  -1.981  1.00  0.00     0.031 A 
ATOM     62  C   UNL     1      -9.613  14.113  -3.439  1.00  0.00     0.131 A 
ATOM     63  C   UNL     1      -9.239  15.568  -1.116  1.00  0.00     0.055 A 
ATOM     64  C   UNL     1     -10.705  14.391  -2.615  1.00  0.00     0.041 A 
ATOM     65  F   UNL     1      -9.830  13.353  -4.525  1.00  0.00    -0.206 F 
ATOM     66  C   UNL     1     -10.519  15.108  -1.437  1.00  0.00     0.022 A 
BRANCH  63  67
ATOM     67  S   UNL     1      -8.920  16.320   0.503  1.00  0.00     0.124 S 
ATOM     68  O   UNL     1      -7.959  15.382   1.079  1.00  0.00    -0.237 OA
ATOM     69  O   UNL     1      -8.395  17.632   0.143  1.00  0.00    -0.237 OA
ATOM     70  O   UNL     1     -10.233  16.326   1.143  1.00  0.00    -0.744 OA
ENDBRANCH  63  67
ENDBRANCH  46  60
BRANCH  47  71
ATOM     71  C   UNL     1      -0.572  11.575  -8.721  1.00  0.00     0.023 A 
ATOM     72  C   UNL     1       0.377  12.457  -9.260  1.00  0.00     0.031 A 
ATOM     73  C   UNL     1      -0.462  10.209  -9.035  1.00  0.00     0.131 A 
ATOM     74  C   UNL     1       1.378  11.968 -10.114  1.00  0.00     0.055 A 
ATOM     75  C   UNL     1       0.559   9.722  -9.852  1.00  0.00     0.041 A 
ATOM     76  F   UNL     1      -1.341   9.326  -8.537  1.00  0.00    -0.206 F 
ATOM     77  C   UNL     1       1.482  10.605 -10.405  1.00  0.00     0.022 A 
BRANCH  74  78
ATOM     78  S   UNL     1       2.515  13.151 -10.886  1.00  0.00     0.124 S 
ATOM     79  O   UNL     1       1.597  14.001 -11.635  1.00  0.00    -0.237 OA
ATOM     80  O   UNL     1       3.153  13.761  -9.725  1.00  0.00    -0.237 OA
ATOM     81  O   UNL     1       3.387  12.304 -11.699  1.00  0.00    -0.744 OA
ENDBRANCH  74  78
ENDBRANCH  47  71
BRANCH  59  82
ATOM     82  C   UNL     1      -6.192  15.476 -10.011  1.00  0.00     0.023 A 
ATOM     83  C   UNL     1      -6.703  14.749 -11.100  1.00  0.00     0.031 A 
ATOM     84  C   UNL     1      -6.134  16.877 -10.113  1.00  0.00     0.131 A 
ATOM     85  C   UNL     1      -7.100  15.426 -12.263  1.00  0.00     0.055 A 
ATOM     86  C   UNL     1      -6.575  17.547 -11.254  1.00  0.00     0.041 A 
ATOM     87  F   UNL     1      -5.653  17.615  -9.100  1.00  0.00    -0.206 F 
ATOM     88  C   UNL     1      -7.054  16.821 -12.341  1.00  0.00     0.022 A 
BRANCH  85  89
ATOM     89  S   UNL     1      -7.633  14.455 -13.699  1.00  0.00     0.124 S 
ATOM     90  O   UNL     1      -6.416  13.722 -14.037  1.00  0.00    -0.237 OA
ATOM     91  O   UNL     1      -8.726  13.657 -13.153  1.00  0.00    -0.237 OA
ATOM     92  O   UNL     1      -8.035  15.471 -14.671  1.00  0.00    -0.744 OA
ENDBRANCH  85  89
ENDBRANCH  59  82
ENDBRANCH  33  34
ENDBRANCH  25  28
ENDBRANCH  23  24
ENDBRANCH   1  23
TORSDOF 15
