REMARK SMILES CC1=C(C(=O)Nc2ccccc2)[C@@H](c2ccc(C(=O)NCCCCNC(=O)c3ccc(-c4c5nc(c(-c6cc(S(=O)(=O)[O-])ccc6F)c6ccc([nH]6)c(-c6cc(S(=O)(=O)[O-])ccc6F)c6nc(c(-c7cc(S(=O)(=O)[O-])ccc7F)c7ccc4[nH]7)C=C6)C=C5)cc3)cc2)n2ncnc2N1
REMARK SMILES IDX 22 1 21 2 20 3 18 4 19 5 17 7 14 8 15 9 92 10 16 11 91 12
REMARK SMILES IDX 13 13 1 14 2 15 3 16 98 17 97 18 93 20 96 21 94 22 95 23
REMARK SMILES IDX 4 24 5 25 6 26 7 28 8 29 12 30 9 31 11 32 10 33 23 34 24 35
REMARK SMILES IDX 25 36 26 37 27 39 28 40 29 41 90 42 30 43 89 44 31 45 32 46
REMARK SMILES IDX 33 47 83 48 34 49 88 50 82 51 84 52 35 53 87 54 81 55 80 56
REMARK SMILES IDX 36 58 68 59 48 60 67 61 49 62 52 63 66 64 85 65 50 66 51 67
REMARK SMILES IDX 65 69 86 70 53 71 37 72 38 73 46 74 39 75 45 76 47 77 44 78
REMARK SMILES IDX 40 79 41 80 42 81 43 82 69 83 70 84 78 85 71 86 77 87 79 88
REMARK SMILES IDX 76 89 72 90 73 91 74 92 75 93 54 94 55 95 63 96 56 97 62 98
REMARK SMILES IDX 64 99 61 100 57 101 58 102 59 103 60 104
REMARK H PARENT 20 6 98 19 6 27 25 38 84 57 52 68
REMARK Flexibility Score: inf
ROOT
ATOM      1  C   UNL     1       6.344   8.206  -1.138  1.00  0.00     0.023 C 
ENDROOT
BRANCH   1   2
ATOM      2  C   UNL     1       5.028   8.550  -1.853  1.00  0.00     0.116 C 
BRANCH   2   3
ATOM      3  N   UNL     1       4.881   7.787  -3.080  1.00  0.00    -0.352 N 
ATOM      4  C   UNL     1       4.250   6.602  -3.370  1.00  0.00     0.251 C 
ATOM      5  O   UNL     1       4.313   6.188  -4.528  1.00  0.00    -0.269 OA
ATOM      6  H   UNL     1       5.320   8.201  -3.858  1.00  0.00     0.163 HD
BRANCH   4   7
ATOM      7  C   UNL     1       3.466   5.821  -2.372  1.00  0.00     0.039 A 
ATOM      8  C   UNL     1       1.798   4.388  -0.598  1.00  0.00    -0.019 A 
ATOM      9  C   UNL     1       1.616   4.271  -1.980  1.00  0.00     0.007 A 
ATOM     10  C   UNL     1       2.860   5.171  -0.123  1.00  0.00     0.007 A 
ATOM     11  C   UNL     1       2.438   4.992  -2.855  1.00  0.00     0.014 A 
ATOM     12  C   UNL     1       3.701   5.849  -1.000  1.00  0.00     0.014 A 
BRANCH   8  13
ATOM     13  C   UNL     1       0.891   3.725   0.424  1.00  0.00     0.179 C 
ATOM     14  C   UNL     1      -0.045   0.061   1.416  1.00  0.00     0.065 C 
ATOM     15  C   UNL     1      -0.040   1.443   0.816  1.00  0.00     0.026 C 
ATOM     16  C   UNL     1       1.062   2.205   0.585  1.00  0.00     0.065 C 
ATOM     17  N   UNL     1      -1.314   1.967   0.621  1.00  0.00    -0.328 N 
ATOM     18  C   UNL     1      -1.558   3.255   0.332  1.00  0.00     0.226 A 
ATOM     19  H   UNL     1      -2.082   1.357   0.700  1.00  0.00     0.169 HD
ATOM     20  N   UNL     1      -0.508   4.119   0.222  1.00  0.00    -0.219 N 
ATOM     21  N   UNL     1      -2.683   3.904   0.176  1.00  0.00    -0.200 NA
ATOM     22  N   UNL     1      -0.939   5.390   0.092  1.00  0.00    -0.157 NA
ATOM     23  C   UNL     1      -2.261   5.201   0.026  1.00  0.00     0.248 A 
BRANCH  16  24
ATOM     24  C   UNL     1       2.491   1.801   0.745  1.00  0.00     0.255 C 
ATOM     25  O   UNL     1       3.235   2.519   1.419  1.00  0.00    -0.269 OA
ATOM     26  N   UNL     1       3.037   0.667   0.215  1.00  0.00    -0.322 N 
ATOM     27  H   UNL     1       4.020   0.626   0.263  1.00  0.00     0.170 HD
BRANCH  26  28
ATOM     28  C   UNL     1       2.438  -0.445  -0.385  1.00  0.00     0.041 A 
ATOM     29  C   UNL     1       2.742  -1.684   0.195  1.00  0.00     0.026 A 
ATOM     30  C   UNL     1       1.498  -0.368  -1.409  1.00  0.00     0.026 A 
ATOM     31  C   UNL     1       1.992  -2.812  -0.131  1.00  0.00     0.002 A 
ATOM     32  C   UNL     1       0.784  -1.516  -1.774  1.00  0.00     0.002 A 
ATOM     33  C   UNL     1       1.002  -2.724  -1.106  1.00  0.00     0.000 A 
ENDBRANCH  26  28
ENDBRANCH  16  24
ENDBRANCH   8  13
ENDBRANCH   4   7
ENDBRANCH   2   3
ENDBRANCH   1   2
BRANCH   1  34
ATOM     34  C   UNL     1       7.617   8.761  -1.793  1.00  0.00     0.023 C 
BRANCH  34  35
ATOM     35  C   UNL     1       7.763  10.275  -1.731  1.00  0.00     0.116 C 
BRANCH  35  36
ATOM     36  N   UNL     1       7.846  10.792  -0.360  1.00  0.00    -0.352 N 
ATOM     37  C   UNL     1       7.702  12.106   0.074  1.00  0.00     0.251 C 
ATOM     38  H   UNL     1       8.026  10.125   0.341  1.00  0.00     0.163 HD
ATOM     39  O   UNL     1       8.201  12.481   1.119  1.00  0.00    -0.269 OA
BRANCH  37  40
ATOM     40  C   UNL     1       6.896  13.017  -0.761  1.00  0.00     0.039 A 
ATOM     41  C   UNL     1       7.236  14.350  -1.004  1.00  0.00     0.014 A 
ATOM     42  C   UNL     1       5.782  12.447  -1.361  1.00  0.00     0.014 A 
ATOM     43  C   UNL     1       6.469  15.075  -1.919  1.00  0.00     0.010 A 
ATOM     44  C   UNL     1       5.205  13.068  -2.428  1.00  0.00     0.010 A 
ATOM     45  C   UNL     1       5.456  14.415  -2.633  1.00  0.00    -0.014 A 
BRANCH  45  46
ATOM     46  C   UNL     1       4.675  15.043  -3.690  1.00  0.00     0.031 A 
ATOM     47  C   UNL     1       5.491  15.560  -4.815  1.00  0.00     0.074 A 
ATOM     48  C   UNL     1       3.331  14.891  -3.769  1.00  0.00     0.049 A 
ATOM     49  N   UNL     1       5.733  16.793  -5.108  1.00  0.00    -0.248 NA
ATOM     50  C   UNL     1       6.290  14.602  -5.600  1.00  0.00     0.031 C 
ATOM     51  C   UNL     1       2.443  14.119  -2.887  1.00  0.00     0.029 A 
ATOM     52  N   UNL     1       2.476  15.301  -4.741  1.00  0.00    -0.354 N 
ATOM     53  C   UNL     1       6.478  16.763  -6.282  1.00  0.00     0.074 A 
ATOM     54  C   UNL     1       6.998  15.426  -6.375  1.00  0.00     0.031 C 
ATOM     55  C   UNL     1       1.248  13.924  -3.491  1.00  0.00     0.029 A 
ATOM     56  C   UNL     1       1.218  14.699  -4.718  1.00  0.00     0.049 A 
ATOM     57  H   UNL     1       2.726  15.975  -5.414  1.00  0.00     0.167 HD
ATOM     58  C   UNL     1       6.358  17.753  -7.210  1.00  0.00     0.034 A 
ATOM     59  C   UNL     1       0.227  14.819  -5.647  1.00  0.00     0.034 A 
ATOM     60  C   UNL     1       5.660  18.894  -6.650  1.00  0.00     0.049 A 
ATOM     61  C   UNL     1       0.512  16.075  -6.388  1.00  0.00     0.074 A 
ATOM     62  C   UNL     1       5.878  19.724  -5.566  1.00  0.00     0.029 A 
ATOM     63  N   UNL     1       4.326  19.050  -6.966  1.00  0.00    -0.354 N 
ATOM     64  N   UNL     1       0.491  17.252  -5.820  1.00  0.00    -0.248 NA
ATOM     65  C   UNL     1       1.335  15.984  -7.585  1.00  0.00     0.031 C 
ATOM     66  C   UNL     1       4.588  19.902  -4.980  1.00  0.00     0.029 A 
ATOM     67  C   UNL     1       3.644  19.267  -5.792  1.00  0.00     0.049 A 
ATOM     68  H   UNL     1       3.934  19.014  -7.868  1.00  0.00     0.167 HD
ATOM     69  C   UNL     1       1.618  17.904  -6.301  1.00  0.00     0.074 A 
ATOM     70  C   UNL     1       2.046  17.109  -7.455  1.00  0.00     0.031 C 
ATOM     71  C   UNL     1       2.275  18.841  -5.551  1.00  0.00     0.034 A 
BRANCH  58  72
ATOM     72  C   UNL     1       6.504  17.570  -8.707  1.00  0.00     0.023 A 
ATOM     73  C   UNL     1       6.337  18.718  -9.507  1.00  0.00     0.031 A 
ATOM     74  C   UNL     1       6.511  16.339  -9.402  1.00  0.00     0.131 A 
ATOM     75  C   UNL     1       6.072  18.611 -10.882  1.00  0.00     0.055 A 
ATOM     76  C   UNL     1       6.315  16.243 -10.783  1.00  0.00     0.041 A 
ATOM     77  F   UNL     1       6.614  15.155  -8.790  1.00  0.00    -0.206 F 
ATOM     78  C   UNL     1       6.057  17.380 -11.528  1.00  0.00     0.022 A 
BRANCH  75  79
ATOM     79  S   UNL     1       5.559  20.102 -11.772  1.00  0.00     0.124 S 
ATOM     80  O   UNL     1       4.448  20.567 -10.949  1.00  0.00    -0.237 OA
ATOM     81  O   UNL     1       6.774  20.908 -11.730  1.00  0.00    -0.237 OA
ATOM     82  O   UNL     1       5.190  19.597 -13.092  1.00  0.00    -0.744 OA
ENDBRANCH  75  79
ENDBRANCH  58  72
BRANCH  59  83
ATOM     83  C   UNL     1      -0.688  13.746  -6.147  1.00  0.00     0.023 A 
ATOM     84  C   UNL     1      -1.901  14.000  -6.829  1.00  0.00     0.031 A 
ATOM     85  C   UNL     1      -0.228  12.408  -6.167  1.00  0.00     0.131 A 
ATOM     86  C   UNL     1      -2.592  12.947  -7.484  1.00  0.00     0.055 A 
ATOM     87  C   UNL     1      -0.910  11.377  -6.818  1.00  0.00     0.041 A 
ATOM     88  F   UNL     1       0.953  12.074  -5.622  1.00  0.00    -0.206 F 
ATOM     89  C   UNL     1      -2.091  11.643  -7.488  1.00  0.00     0.022 A 
BRANCH  86  90
ATOM     90  S   UNL     1      -4.130  13.264  -8.420  1.00  0.00     0.124 S 
ATOM     91  O   UNL     1      -5.066  13.637  -7.365  1.00  0.00    -0.237 OA
ATOM     92  O   UNL     1      -3.729  14.325  -9.336  1.00  0.00    -0.237 OA
ATOM     93  O   UNL     1      -4.414  11.979  -9.062  1.00  0.00    -0.744 OA
ENDBRANCH  86  90
ENDBRANCH  59  83
BRANCH  71  94
ATOM     94  C   UNL     1       1.615  19.334  -4.273  1.00  0.00     0.023 A 
ATOM     95  C   UNL     1       1.247  18.520  -3.174  1.00  0.00     0.031 A 
ATOM     96  C   UNL     1       1.468  20.724  -4.123  1.00  0.00     0.131 A 
ATOM     97  C   UNL     1       0.745  19.106  -1.992  1.00  0.00     0.055 A 
ATOM     98  C   UNL     1       0.993  21.302  -2.946  1.00  0.00     0.041 A 
ATOM     99  F   UNL     1       1.823  21.556  -5.116  1.00  0.00    -0.206 F 
ATOM    100  C   UNL     1       0.624  20.494  -1.877  1.00  0.00     0.022 A 
BRANCH  97 101
ATOM    101  S   UNL     1       0.218  18.075  -0.581  1.00  0.00     0.124 S 
ATOM    102  O   UNL     1      -0.642  17.070  -1.195  1.00  0.00    -0.237 OA
ATOM    103  O   UNL     1       1.488  17.591  -0.048  1.00  0.00    -0.237 OA
ATOM    104  O   UNL     1      -0.482  19.022   0.290  1.00  0.00    -0.744 OA
ENDBRANCH  97 101
ENDBRANCH  71  94
ENDBRANCH  45  46
ENDBRANCH  37  40
ENDBRANCH  35  36
ENDBRANCH  34  35
ENDBRANCH   1  34
TORSDOF 17
