REMARK SMILES CC1=C[C@@H](CNS(=O)(=O)c2cccs2)[C@H](C(C)C)C[C@H]1CC(=O)NCCCCNC(=O)c1ccc(-c2c3nc(c(-c4cc(S(=O)(=O)[O-])ccc4F)c4ccc([nH]4)c(-c4cc(S(=O)(=O)[O-])ccc4F)c4nc(c(-c5cc(S(=O)(=O)[O-])ccc5F)c5ccc2[nH]5)C=C4)C=C3)cc1
REMARK SMILES IDX 25 1 24 2 22 3 23 4 21 6 20 7 1 8 2 9 3 10 4 11 19 12 15 13
REMARK SMILES IDX 5 14 6 15 7 17 8 18 9 19 10 20 11 21 14 22 12 23 13 24 16 25
REMARK SMILES IDX 17 26 18 27 26 28 27 29 28 30 29 31 30 32 31 34 32 35 33 36
REMARK SMILES IDX 94 37 34 38 93 39 35 40 36 41 37 42 87 43 38 44 92 45 86 46
REMARK SMILES IDX 88 47 39 48 91 49 85 50 84 51 40 53 72 54 52 55 71 56 53 57
REMARK SMILES IDX 56 58 70 59 89 60 54 61 55 62 69 64 90 65 57 66 41 67 42 68
REMARK SMILES IDX 50 69 43 70 49 71 51 72 48 73 44 74 45 75 46 76 47 77 73 78
REMARK SMILES IDX 74 79 82 80 75 81 81 82 83 83 80 84 76 85 77 86 78 87 79 88
REMARK SMILES IDX 58 89 59 90 67 91 60 92 66 93 68 94 65 95 61 96 62 97 63 98
REMARK SMILES IDX 64 99
REMARK H PARENT 24 5 6 16 29 33 88 52 56 63
REMARK Flexibility Score: inf
ROOT
ATOM      1  C   UNL     1       2.809   0.481  -1.787  1.00  0.00     0.116 C 
ENDROOT
BRANCH   1   2
ATOM      2  N   UNL     1       3.133  -0.868  -1.345  1.00  0.00    -0.356 N 
ATOM      3  C   UNL     1       2.327  -1.925  -1.036  1.00  0.00     0.220 C 
ATOM      4  O   UNL     1       2.847  -2.978  -0.663  1.00  0.00    -0.275 OA
ATOM      5  H   UNL     1       4.097  -1.048  -1.252  1.00  0.00     0.163 HD
BRANCH   3   6
ATOM      6  C   UNL     1       0.820  -1.812  -1.149  1.00  0.00     0.108 C 
BRANCH   6   7
ATOM      7  C   UNL     1       0.084  -1.548   0.188  1.00  0.00     0.024 C 
ATOM      8  C   UNL     1       1.721  -0.483   1.861  1.00  0.00     0.039 C 
ATOM      9  C   UNL     1       0.583  -0.295   0.884  1.00  0.00    -0.073 C 
ATOM     10  C   UNL     1      -0.045   0.894   0.746  1.00  0.00    -0.023 C 
ATOM     11  C   UNL     1      -1.427   0.998   0.152  1.00  0.00     0.030 C 
ATOM     12  C   UNL     1      -1.455  -1.515  -0.055  1.00  0.00     0.013 C 
ATOM     13  C   UNL     1      -2.180  -0.302   0.596  1.00  0.00     0.000 C 
BRANCH  11  14
ATOM     14  C   UNL     1      -1.492   1.190  -1.379  1.00  0.00     0.107 C 
BRANCH  14  15
ATOM     15  N   UNL     1      -0.976   2.495  -1.843  1.00  0.00    -0.210 NA
ATOM     16  H   UNL     1       0.043   2.458  -1.817  1.00  0.00     0.141 HD
BRANCH  15  17
ATOM     17  S   UNL     1      -1.448   2.947  -3.420  1.00  0.00     0.250 S 
ATOM     18  O   UNL     1      -2.890   2.781  -3.487  1.00  0.00    -0.206 OA
ATOM     19  O   UNL     1      -0.824   4.212  -3.691  1.00  0.00    -0.206 OA
BRANCH  17  20
ATOM     20  C   UNL     1      -0.811   1.739  -4.574  1.00  0.00     0.134 A 
ATOM     21  C   UNL     1      -1.044   0.380  -4.708  1.00  0.00     0.033 A 
ATOM     22  S   UNL     1       0.242   2.304  -5.799  1.00  0.00    -0.131 S 
ATOM     23  C   UNL     1      -0.327  -0.199  -5.794  1.00  0.00     0.013 A 
ATOM     24  C   UNL     1       0.403   0.743  -6.482  1.00  0.00     0.066 A 
ENDBRANCH  17  20
ENDBRANCH  15  17
ENDBRANCH  14  15
ENDBRANCH  11  14
BRANCH  13  25
ATOM     25  C   UNL     1      -2.301  -0.429   2.161  1.00  0.00    -0.014 C 
ATOM     26  C   UNL     1      -3.007   0.779   2.791  1.00  0.00     0.007 C 
ATOM     27  C   UNL     1      -3.013  -1.712   2.595  1.00  0.00     0.007 C 
ENDBRANCH  13  25
ENDBRANCH   6   7
ENDBRANCH   3   6
ENDBRANCH   1   2
BRANCH   1  28
ATOM     28  C   UNL     1       2.959   1.531  -0.688  1.00  0.00     0.023 C 
BRANCH  28  29
ATOM     29  C   UNL     1       4.355   1.704  -0.111  1.00  0.00     0.023 C 
BRANCH  29  30
ATOM     30  C   UNL     1       5.320   2.370  -1.070  1.00  0.00     0.116 C 
BRANCH  30  31
ATOM     31  N   UNL     1       4.865   3.697  -1.465  1.00  0.00    -0.352 N 
ATOM     32  C   UNL     1       5.516   4.902  -1.371  1.00  0.00     0.251 C 
ATOM     33  H   UNL     1       3.962   3.735  -1.854  1.00  0.00     0.163 HD
ATOM     34  O   UNL     1       4.898   5.948  -1.541  1.00  0.00    -0.269 OA
BRANCH  32  35
ATOM     35  C   UNL     1       6.955   4.920  -1.046  1.00  0.00     0.039 A 
ATOM     36  C   UNL     1       7.447   5.880  -0.161  1.00  0.00     0.014 A 
ATOM     37  C   UNL     1       7.811   3.969  -1.607  1.00  0.00     0.014 A 
ATOM     38  C   UNL     1       8.792   5.847   0.207  1.00  0.00     0.010 A 
ATOM     39  C   UNL     1       9.116   3.868  -1.156  1.00  0.00     0.010 A 
ATOM     40  C   UNL     1       9.627   4.822  -0.265  1.00  0.00    -0.014 A 
BRANCH  40  41
ATOM     41  C   UNL     1      11.061   4.748   0.101  1.00  0.00     0.031 A 
ATOM     42  C   UNL     1      12.097   4.846  -0.986  1.00  0.00     0.074 A 
ATOM     43  C   UNL     1      11.415   4.504   1.377  1.00  0.00     0.049 A 
ATOM     44  N   UNL     1      13.389   4.661  -0.921  1.00  0.00    -0.248 NA
ATOM     45  C   UNL     1      11.601   5.138  -2.342  1.00  0.00     0.031 C 
ATOM     46  C   UNL     1      10.487   4.335   2.498  1.00  0.00     0.029 A 
ATOM     47  N   UNL     1      12.652   4.341   1.945  1.00  0.00    -0.354 N 
ATOM     48  C   UNL     1      13.851   4.778  -2.228  1.00  0.00     0.074 A 
ATOM     49  C   UNL     1      12.693   4.979  -3.070  1.00  0.00     0.031 C 
ATOM     50  C   UNL     1      11.190   4.120   3.622  1.00  0.00     0.029 A 
ATOM     51  C   UNL     1      12.611   4.091   3.296  1.00  0.00     0.049 A 
ATOM     52  H   UNL     1      13.491   4.398   1.433  1.00  0.00     0.167 HD
ATOM     53  C   UNL     1      15.130   4.750  -2.679  1.00  0.00     0.034 A 
ATOM     54  C   UNL     1      13.612   3.858   4.168  1.00  0.00     0.034 A 
ATOM     55  C   UNL     1      16.268   4.596  -1.809  1.00  0.00     0.049 A 
ATOM     56  C   UNL     1      15.028   3.870   3.651  1.00  0.00     0.074 A 
ATOM     57  C   UNL     1      17.613   4.620  -2.132  1.00  0.00     0.029 A 
ATOM     58  N   UNL     1      16.192   4.396  -0.436  1.00  0.00    -0.354 N 
ATOM     59  N   UNL     1      15.456   4.028   2.419  1.00  0.00    -0.248 NA
ATOM     60  C   UNL     1      16.095   3.686   4.642  1.00  0.00     0.031 C 
ATOM     61  C   UNL     1      18.347   4.386  -0.964  1.00  0.00     0.029 A 
ATOM     62  C   UNL     1      17.464   4.279   0.100  1.00  0.00     0.049 A 
ATOM     63  H   UNL     1      15.355   4.344   0.081  1.00  0.00     0.167 HD
ATOM     64  C   UNL     1      16.845   3.992   2.493  1.00  0.00     0.074 A 
ATOM     65  C   UNL     1      17.180   3.814   3.892  1.00  0.00     0.031 C 
ATOM     66  C   UNL     1      17.764   4.098   1.500  1.00  0.00     0.034 A 
BRANCH  53  67
ATOM     67  C   UNL     1      15.345   4.875  -4.168  1.00  0.00     0.023 A 
ATOM     68  C   UNL     1      14.953   6.024  -4.878  1.00  0.00     0.031 A 
ATOM     69  C   UNL     1      15.908   3.814  -4.898  1.00  0.00     0.131 A 
ATOM     70  C   UNL     1      15.045   6.051  -6.277  1.00  0.00     0.055 A 
ATOM     71  C   UNL     1      16.078   3.881  -6.283  1.00  0.00     0.041 A 
ATOM     72  F   UNL     1      16.283   2.682  -4.282  1.00  0.00    -0.206 F 
ATOM     73  C   UNL     1      15.630   4.998  -6.983  1.00  0.00     0.022 A 
BRANCH  70  74
ATOM     74  S   UNL     1      14.255   7.417  -7.171  1.00  0.00     0.124 S 
ATOM     75  O   UNL     1      12.856   7.249  -6.784  1.00  0.00    -0.237 OA
ATOM     76  O   UNL     1      14.932   8.587  -6.624  1.00  0.00    -0.237 OA
ATOM     77  O   UNL     1      14.547   7.124  -8.572  1.00  0.00    -0.744 OA
ENDBRANCH  70  74
ENDBRANCH  53  67
BRANCH  54  78
ATOM     78  C   UNL     1      13.321   3.605   5.607  1.00  0.00     0.023 A 
ATOM     79  C   UNL     1      13.735   4.512   6.595  1.00  0.00     0.031 A 
ATOM     80  C   UNL     1      12.654   2.439   6.020  1.00  0.00     0.131 A 
ATOM     81  C   UNL     1      13.521   4.217   7.950  1.00  0.00     0.055 A 
ATOM     82  C   UNL     1      12.400   2.173   7.367  1.00  0.00     0.041 A 
ATOM     83  F   UNL     1      12.226   1.544   5.115  1.00  0.00    -0.206 F 
ATOM     84  C   UNL     1      12.847   3.059   8.343  1.00  0.00     0.022 A 
BRANCH  81  85
ATOM     85  S   UNL     1      14.213   5.335   9.201  1.00  0.00     0.124 S 
ATOM     86  O   UNL     1      15.628   5.337   8.849  1.00  0.00    -0.237 OA
ATOM     87  O   UNL     1      13.484   6.571   8.936  1.00  0.00    -0.237 OA
ATOM     88  O   UNL     1      13.883   4.678  10.464  1.00  0.00    -0.744 OA
ENDBRANCH  81  85
ENDBRANCH  54  78
BRANCH  66  89
ATOM     89  C   UNL     1      19.213   4.070   1.911  1.00  0.00     0.023 A 
ATOM     90  C   UNL     1      19.812   2.903   2.414  1.00  0.00     0.031 A 
ATOM     91  C   UNL     1      19.998   5.231   1.806  1.00  0.00     0.131 A 
ATOM     92  C   UNL     1      21.146   2.937   2.845  1.00  0.00     0.055 A 
ATOM     93  C   UNL     1      21.341   5.243   2.183  1.00  0.00     0.041 A 
ATOM     94  F   UNL     1      19.472   6.371   1.331  1.00  0.00    -0.206 F 
ATOM     95  C   UNL     1      21.919   4.095   2.718  1.00  0.00     0.022 A 
BRANCH  92  96
ATOM     96  S   UNL     1      21.835   1.468   3.653  1.00  0.00     0.124 S 
ATOM     97  O   UNL     1      20.939   1.299   4.792  1.00  0.00    -0.237 OA
ATOM     98  O   UNL     1      21.731   0.457   2.605  1.00  0.00    -0.237 OA
ATOM     99  O   UNL     1      23.199   1.870   3.991  1.00  0.00    -0.744 OA
ENDBRANCH  92  96
ENDBRANCH  66  89
ENDBRANCH  40  41
ENDBRANCH  32  35
ENDBRANCH  30  31
ENDBRANCH  29  30
ENDBRANCH  28  29
ENDBRANCH   1  28
TORSDOF 20
