REMARK SMILES C/C(=C\C(=O)c1c(O)n(C)c2ccccc2c1=O)Nc1ccc(C(=O)NCCCCNC(=O)c2ccc(-c3c4nc(c(-c5cc(S(=O)(=O)[O-])ccc5F)c5ccc([nH]5)c(-c5cc(S(=O)(=O)[O-])ccc5F)c5nc(c(-c6cc(S(=O)(=O)[O-])ccc6F)c6ccc3[nH]6)C=C5)C=C4)cc2)cc1
REMARK SMILES IDX 27 1 26 2 24 3 25 4 23 6 20 7 21 8 98 9 22 10 97 11 19 12
REMARK SMILES IDX 2 14 1 15 3 16 4 17 5 18 6 19 7 20 17 21 9 22 16 23 18 24
REMARK SMILES IDX 10 25 11 26 15 27 12 28 14 29 13 30 8 31 28 33 29 34 30 35
REMARK SMILES IDX 31 36 32 37 33 39 34 40 35 41 96 42 36 43 95 44 37 45 38 46
REMARK SMILES IDX 39 47 89 48 40 49 94 50 88 51 90 52 41 53 93 54 87 55 86 56
REMARK SMILES IDX 42 58 74 59 54 60 73 61 55 62 58 63 72 64 91 65 56 66 57 67
REMARK SMILES IDX 71 69 92 70 59 71 43 72 44 73 52 74 45 75 51 76 53 77 50 78
REMARK SMILES IDX 46 79 47 80 48 81 49 82 75 83 76 84 84 85 77 86 83 87 85 88
REMARK SMILES IDX 82 89 78 90 79 91 80 92 81 93 60 94 61 95 69 96 62 97 68 98
REMARK SMILES IDX 70 99 67 100 63 101 64 102 65 103 66 104
REMARK H PARENT 26 5 19 13 8 32 31 38 90 57 58 68
REMARK Flexibility Score: inf
ROOT
ATOM      1  C   UNL     1       1.593   1.425  -6.671  1.00  0.00     0.116 C 
ENDROOT
BRANCH   1   2
ATOM      2  N   UNL     1       2.928   1.791  -6.239  1.00  0.00    -0.352 N 
ATOM      3  C   UNL     1       3.749   1.249  -5.281  1.00  0.00     0.251 C 
ATOM      4  O   UNL     1       4.889   1.699  -5.174  1.00  0.00    -0.269 OA
ATOM      5  H   UNL     1       3.312   2.562  -6.715  1.00  0.00     0.163 HD
BRANCH   3   6
ATOM      6  C   UNL     1       3.287   0.218  -4.313  1.00  0.00     0.039 A 
ATOM      7  C   UNL     1       2.278  -1.404  -2.217  1.00  0.00     0.038 A 
ATOM      8  C   UNL     1       3.366  -0.555  -2.013  1.00  0.00     0.027 A 
ATOM      9  C   UNL     1       1.808  -1.538  -3.533  1.00  0.00     0.027 A 
ATOM     10  C   UNL     1       3.852   0.262  -3.037  1.00  0.00     0.016 A 
ATOM     11  C   UNL     1       2.331  -0.761  -4.578  1.00  0.00     0.016 A 
BRANCH   7  12
ATOM     12  N   UNL     1       1.554  -2.026  -1.172  1.00  0.00    -0.359 N 
ATOM     13  H   UNL     1       1.353  -2.982  -1.295  1.00  0.00     0.166 HD
BRANCH  12  14
ATOM     14  C   UNL     1       1.086  -1.447   0.021  1.00  0.00     0.016 C 
ATOM     15  C   UNL     1       1.895  -0.324   0.624  1.00  0.00     0.064 C 
ATOM     16  C   UNL     1      -0.060  -1.907   0.577  1.00  0.00     0.074 C 
BRANCH  16  17
ATOM     17  C   UNL     1      -0.906  -1.425   1.722  1.00  0.00     0.196 C 
ATOM     18  O   UNL     1      -1.853  -2.115   2.094  1.00  0.00    -0.289 OA
BRANCH  17  19
ATOM     19  C   UNL     1      -0.713  -0.062   2.254  1.00  0.00     0.130 A 
ATOM     20  C   UNL     1      -0.964   1.016   1.485  1.00  0.00     0.206 A 
ATOM     21  C   UNL     1      -0.115   0.136   3.593  1.00  0.00     0.204 A 
ATOM     22  N   UNL     1      -0.579   2.309   1.830  1.00  0.00    -0.315 N 
ATOM     23  C   UNL     1       0.185   1.523   4.013  1.00  0.00     0.047 A 
ATOM     24  O   UNL     1       0.170  -0.813   4.318  1.00  0.00    -0.288 OA
ATOM     25  C   UNL     1      -0.570   3.402   0.850  1.00  0.00     0.153 C 
ATOM     26  C   UNL     1      -0.035   2.580   3.109  1.00  0.00     0.055 A 
ATOM     27  C   UNL     1       0.729   1.744   5.288  1.00  0.00     0.014 A 
ATOM     28  C   UNL     1       0.309   3.872   3.545  1.00  0.00     0.027 A 
ATOM     29  C   UNL     1       1.063   3.034   5.688  1.00  0.00     0.001 A 
ATOM     30  C   UNL     1       0.853   4.096   4.816  1.00  0.00     0.002 A 
BRANCH  20  31
ATOM     31  O   UNL     1      -1.592   0.899   0.257  1.00  0.00    -0.494 OA
ATOM     32  H   UNL     1      -1.880   0.059  -0.044  1.00  0.00     0.295 HD
ENDBRANCH  20  31
ENDBRANCH  17  19
ENDBRANCH  16  17
ENDBRANCH  12  14
ENDBRANCH   7  12
ENDBRANCH   3   6
ENDBRANCH   1   2
BRANCH   1  33
ATOM     33  C   UNL     1       0.758   2.573  -7.231  1.00  0.00     0.023 C 
BRANCH  33  34
ATOM     34  C   UNL     1       1.410   3.450  -8.294  1.00  0.00     0.023 C 
BRANCH  34  35
ATOM     35  C   UNL     1       2.159   2.722  -9.402  1.00  0.00     0.116 C 
BRANCH  35  36
ATOM     36  N   UNL     1       1.317   1.868 -10.228  1.00  0.00    -0.352 N 
ATOM     37  C   UNL     1       1.051   1.933 -11.581  1.00  0.00     0.251 C 
ATOM     38  H   UNL     1       0.869   1.133  -9.749  1.00  0.00     0.163 HD
ATOM     39  O   UNL     1       0.262   1.151 -12.091  1.00  0.00    -0.269 OA
BRANCH  37  40
ATOM     40  C   UNL     1       1.678   3.004 -12.388  1.00  0.00     0.039 A 
ATOM     41  C   UNL     1       3.048   3.248 -12.297  1.00  0.00     0.014 A 
ATOM     42  C   UNL     1       0.861   3.844 -13.148  1.00  0.00     0.014 A 
ATOM     43  C   UNL     1       3.551   4.463 -12.747  1.00  0.00     0.010 A 
ATOM     44  C   UNL     1       1.394   5.016 -13.692  1.00  0.00     0.010 A 
ATOM     45  C   UNL     1       2.722   5.379 -13.419  1.00  0.00    -0.014 A 
BRANCH  45  46
ATOM     46  C   UNL     1       3.244   6.731 -13.759  1.00  0.00     0.031 A 
ATOM     47  C   UNL     1       2.642   7.966 -13.135  1.00  0.00     0.074 A 
ATOM     48  C   UNL     1       4.318   6.844 -14.565  1.00  0.00     0.049 A 
ATOM     49  N   UNL     1       2.979   9.220 -13.297  1.00  0.00    -0.248 NA
ATOM     50  C   UNL     1       1.512   7.771 -12.211  1.00  0.00     0.031 C 
ATOM     51  C   UNL     1       5.004   5.719 -15.199  1.00  0.00     0.029 A 
ATOM     52  N   UNL     1       5.040   7.942 -14.961  1.00  0.00    -0.354 N 
ATOM     53  C   UNL     1       2.096   9.960 -12.517  1.00  0.00     0.074 A 
ATOM     54  C   UNL     1       1.183   9.019 -11.909  1.00  0.00     0.031 C 
ATOM     55  C   UNL     1       6.085   6.174 -15.846  1.00  0.00     0.029 A 
ATOM     56  C   UNL     1       6.127   7.631 -15.745  1.00  0.00     0.049 A 
ATOM     57  H   UNL     1       4.803   8.863 -14.708  1.00  0.00     0.167 HD
ATOM     58  C   UNL     1       2.060  11.299 -12.313  1.00  0.00     0.034 A 
ATOM     59  C   UNL     1       7.049   8.424 -16.328  1.00  0.00     0.034 A 
ATOM     60  C   UNL     1       2.994  12.225 -12.902  1.00  0.00     0.049 A 
ATOM     61  C   UNL     1       6.967   9.913 -16.118  1.00  0.00     0.074 A 
ATOM     62  C   UNL     1       3.042  13.601 -12.755  1.00  0.00     0.029 A 
ATOM     63  N   UNL     1       4.049  11.876 -13.733  1.00  0.00    -0.354 N 
ATOM     64  N   UNL     1       6.123  10.594 -15.378  1.00  0.00    -0.248 NA
ATOM     65  C   UNL     1       7.952  10.744 -16.822  1.00  0.00     0.031 C 
ATOM     66  C   UNL     1       4.093  14.087 -13.533  1.00  0.00     0.029 A 
ATOM     67  C   UNL     1       4.742  13.012 -14.119  1.00  0.00     0.049 A 
ATOM     68  H   UNL     1       4.272  10.957 -14.007  1.00  0.00     0.167 HD
ATOM     69  C   UNL     1       6.483  11.931 -15.518  1.00  0.00     0.074 A 
ATOM     70  C   UNL     1       7.638  11.960 -16.392  1.00  0.00     0.031 C 
ATOM     71  C   UNL     1       5.901  13.031 -14.979  1.00  0.00     0.034 A 
BRANCH  58  72
ATOM     72  C   UNL     1       0.991  11.864 -11.409  1.00  0.00     0.023 A 
ATOM     73  C   UNL     1       0.012  12.732 -11.929  1.00  0.00     0.031 A 
ATOM     74  C   UNL     1       1.009  11.637 -10.021  1.00  0.00     0.131 A 
ATOM     75  C   UNL     1      -0.893  13.360 -11.064  1.00  0.00     0.055 A 
ATOM     76  C   UNL     1       0.083  12.239  -9.168  1.00  0.00     0.041 A 
ATOM     77  F   UNL     1       1.921  10.816  -9.477  1.00  0.00    -0.206 F 
ATOM     78  C   UNL     1      -0.866  13.114  -9.687  1.00  0.00     0.022 A 
BRANCH  75  79
ATOM     79  S   UNL     1      -2.101  14.566 -11.678  1.00  0.00     0.124 S 
ATOM     80  O   UNL     1      -3.366  13.924 -11.328  1.00  0.00    -0.237 OA
ATOM     81  O   UNL     1      -1.769  15.757 -10.901  1.00  0.00    -0.237 OA
ATOM     82  O   UNL     1      -1.820  14.648 -13.107  1.00  0.00    -0.744 OA
ENDBRANCH  75  79
ENDBRANCH  58  72
BRANCH  59  83
ATOM     83  C   UNL     1       8.144   7.793 -17.121  1.00  0.00     0.023 A 
ATOM     84  C   UNL     1       7.855   7.009 -18.254  1.00  0.00     0.031 A 
ATOM     85  C   UNL     1       9.476   7.853 -16.681  1.00  0.00     0.131 A 
ATOM     86  C   UNL     1       8.867   6.246 -18.850  1.00  0.00     0.055 A 
ATOM     87  C   UNL     1      10.496   7.151 -17.326  1.00  0.00     0.041 A 
ATOM     88  F   UNL     1       9.799   8.579 -15.600  1.00  0.00    -0.206 F 
ATOM     89  C   UNL     1      10.189   6.324 -18.403  1.00  0.00     0.022 A 
BRANCH  86  90
ATOM     90  S   UNL     1       8.470   5.010 -20.118  1.00  0.00     0.124 S 
ATOM     91  O   UNL     1       9.246   5.485 -21.259  1.00  0.00    -0.237 OA
ATOM     92  O   UNL     1       8.951   3.779 -19.495  1.00  0.00    -0.237 OA
ATOM     93  O   UNL     1       7.021   5.109 -20.254  1.00  0.00    -0.744 OA
ENDBRANCH  86  90
ENDBRANCH  59  83
BRANCH  71  94
ATOM     94  C   UNL     1       6.484  14.385 -15.301  1.00  0.00     0.023 A 
ATOM     95  C   UNL     1       7.039  15.175 -14.276  1.00  0.00     0.031 A 
ATOM     96  C   UNL     1       6.345  14.952 -16.579  1.00  0.00     0.131 A 
ATOM     97  C   UNL     1       7.395  16.503 -14.537  1.00  0.00     0.055 A 
ATOM     98  C   UNL     1       6.741  16.263 -16.845  1.00  0.00     0.041 A 
ATOM     99  F   UNL     1       5.811  14.241 -17.585  1.00  0.00    -0.206 F 
ATOM    100  C   UNL     1       7.256  17.050 -15.818  1.00  0.00     0.022 A 
BRANCH  97 101
ATOM    101  S   UNL     1       7.972  17.597 -13.210  1.00  0.00     0.124 S 
ATOM    102  O   UNL     1       9.302  17.973 -13.684  1.00  0.00    -0.237 OA
ATOM    103  O   UNL     1       6.975  18.664 -13.236  1.00  0.00    -0.237 OA
ATOM    104  O   UNL     1       7.952  16.750 -12.021  1.00  0.00    -0.744 OA
ENDBRANCH  97 101
ENDBRANCH  71  94
ENDBRANCH  45  46
ENDBRANCH  37  40
ENDBRANCH  35  36
ENDBRANCH  34  35
ENDBRANCH  33  34
ENDBRANCH   1  33
TORSDOF 19
