REMARK SMILES Cc1cccc(C(=O)NCCCCNC(=O)c2ccc(-c3c4nc(c(-c5cc(S(=O)(=O)[O-])ccc5F)c5ccc([nH]5)c(-c5cc(S(=O)(=O)[O-])ccc5F)c5nc(c(-c6cc(S(=O)(=O)[O-])ccc6F)c6ccc3[nH]6)C=C5)C=C4)cc2)c1NC(=O)Cc1ccccc1
REMARK SMILES IDX 11 1 10 2 9 3 7 4 8 5 6 7 1 8 2 9 3 10 80 11 4 12 5 13 81 14
REMARK SMILES IDX 82 15 83 17 84 18 85 19 86 20 90 21 87 22 89 23 88 24 12 25
REMARK SMILES IDX 13 26 14 27 15 28 16 30 17 31 18 32 79 33 19 34 78 35 20 36
REMARK SMILES IDX 21 37 22 38 72 39 23 40 77 41 71 42 73 43 24 44 76 45 70 46
REMARK SMILES IDX 69 47 25 49 57 50 37 51 56 52 38 53 41 54 55 55 74 56 39 57
REMARK SMILES IDX 40 58 54 60 75 61 42 62 26 63 27 64 35 65 28 66 34 67 36 68
REMARK SMILES IDX 33 69 29 70 30 71 31 72 32 73 58 74 59 75 67 76 60 77 66 78
REMARK SMILES IDX 68 79 65 80 61 81 62 82 63 83 64 84 43 85 44 86 52 87 45 88
REMARK SMILES IDX 51 89 53 90 50 91 46 92 47 93 48 94 49 95
REMARK H PARENT 9 6 81 16 14 29 73 48 41 59
REMARK Flexibility Score: inf
ROOT
ATOM      1  C   UNL     1       2.123   3.921  -0.421  1.00  0.00     0.023 C 
ENDROOT
BRANCH   1   2
ATOM      2  C   UNL     1       1.501   3.690   0.969  1.00  0.00     0.116 C 
BRANCH   2   3
ATOM      3  N   UNL     1       0.051   3.829   1.153  1.00  0.00    -0.352 N 
ATOM      4  C   UNL     1      -0.936   2.868   1.279  1.00  0.00     0.253 C 
ATOM      5  O   UNL     1      -1.958   3.112   1.917  1.00  0.00    -0.269 OA
ATOM      6  H   UNL     1      -0.271   4.759   1.194  1.00  0.00     0.163 HD
BRANCH   4   7
ATOM      7  C   UNL     1      -0.808   1.532   0.653  1.00  0.00     0.063 A 
ATOM      8  C   UNL     1       1.841   0.068  -1.468  1.00  0.00     0.046 C 
ATOM      9  C   UNL     1       0.527   0.154  -0.740  1.00  0.00    -0.027 A 
ATOM     10  C   UNL     1       0.096  -0.983  -0.037  1.00  0.00     0.005 A 
ATOM     11  C   UNL     1      -0.173   1.358  -0.566  1.00  0.00     0.056 A 
ATOM     12  C   UNL     1      -0.880  -0.869   0.946  1.00  0.00     0.001 A 
ATOM     13  C   UNL     1      -1.260   0.406   1.358  1.00  0.00     0.016 A 
BRANCH  11  14
ATOM     14  N   UNL     1      -0.274   2.254  -1.656  1.00  0.00    -0.325 N 
ATOM     15  C   UNL     1      -1.206   3.194  -2.024  1.00  0.00     0.228 C 
ATOM     16  H   UNL     1       0.483   2.190  -2.283  1.00  0.00     0.169 HD
ATOM     17  O   UNL     1      -0.962   3.820  -3.067  1.00  0.00    -0.274 OA
BRANCH  15  18
ATOM     18  C   UNL     1      -2.554   3.384  -1.333  1.00  0.00     0.135 C 
BRANCH  18  19
ATOM     19  C   UNL     1      -2.928   4.804  -0.931  1.00  0.00    -0.039 A 
ATOM     20  C   UNL     1      -4.279   5.181  -0.881  1.00  0.00     0.004 A 
ATOM     21  C   UNL     1      -1.984   5.746  -0.509  1.00  0.00     0.004 A 
ATOM     22  C   UNL     1      -4.660   6.459  -0.452  1.00  0.00     0.000 A 
ATOM     23  C   UNL     1      -2.358   7.020  -0.077  1.00  0.00     0.000 A 
ATOM     24  C   UNL     1      -3.698   7.380  -0.050  1.00  0.00     0.000 A 
ENDBRANCH  18  19
ENDBRANCH  15  18
ENDBRANCH  11  14
ENDBRANCH   4   7
ENDBRANCH   2   3
ENDBRANCH   1   2
BRANCH   1  25
ATOM     25  C   UNL     1       1.784   5.147  -1.266  1.00  0.00     0.023 C 
BRANCH  25  26
ATOM     26  C   UNL     1       1.996   6.498  -0.598  1.00  0.00     0.116 C 
BRANCH  26  27
ATOM     27  N   UNL     1       3.021   7.329  -1.236  1.00  0.00    -0.352 N 
ATOM     28  C   UNL     1       3.341   8.646  -0.964  1.00  0.00     0.251 C 
ATOM     29  H   UNL     1       3.546   6.896  -1.947  1.00  0.00     0.163 HD
ATOM     30  O   UNL     1       4.210   9.263  -1.579  1.00  0.00    -0.269 OA
BRANCH  28  31
ATOM     31  C   UNL     1       2.719   9.261   0.228  1.00  0.00     0.039 A 
ATOM     32  C   UNL     1       3.569   9.484   1.316  1.00  0.00     0.014 A 
ATOM     33  C   UNL     1       1.336   9.232   0.387  1.00  0.00     0.014 A 
ATOM     34  C   UNL     1       3.053   9.384   2.601  1.00  0.00     0.010 A 
ATOM     35  C   UNL     1       0.834   9.064   1.665  1.00  0.00     0.010 A 
ATOM     36  C   UNL     1       1.710   9.035   2.756  1.00  0.00    -0.014 A 
BRANCH  36  37
ATOM     37  C   UNL     1       1.203   8.464   4.000  1.00  0.00     0.031 A 
ATOM     38  C   UNL     1       0.414   9.303   4.931  1.00  0.00     0.074 A 
ATOM     39  C   UNL     1       1.521   7.194   4.352  1.00  0.00     0.049 A 
ATOM     40  N   UNL     1       0.337   9.097   6.202  1.00  0.00    -0.248 NA
ATOM     41  C   UNL     1      -0.268  10.524   4.510  1.00  0.00     0.031 C 
ATOM     42  C   UNL     1       0.996   6.443   5.493  1.00  0.00     0.029 A 
ATOM     43  N   UNL     1       2.521   6.351   3.878  1.00  0.00    -0.354 N 
ATOM     44  C   UNL     1      -0.599   9.960   6.719  1.00  0.00     0.074 A 
ATOM     45  C   UNL     1      -0.829  10.910   5.661  1.00  0.00     0.031 C 
ATOM     46  C   UNL     1       1.881   5.489   5.823  1.00  0.00     0.029 A 
ATOM     47  C   UNL     1       3.050   5.684   4.987  1.00  0.00     0.049 A 
ATOM     48  H   UNL     1       2.802   6.245   2.941  1.00  0.00     0.167 HD
ATOM     49  C   UNL     1      -1.152   9.683   7.934  1.00  0.00     0.034 A 
ATOM     50  C   UNL     1       4.330   5.803   5.447  1.00  0.00     0.034 A 
ATOM     51  C   UNL     1      -0.384   8.647   8.637  1.00  0.00     0.049 A 
ATOM     52  C   UNL     1       4.410   6.229   6.903  1.00  0.00     0.074 A 
ATOM     53  C   UNL     1      -0.609   7.308   8.905  1.00  0.00     0.029 A 
ATOM     54  N   UNL     1       0.949   8.892   8.968  1.00  0.00    -0.354 N 
ATOM     55  N   UNL     1       3.415   6.748   7.570  1.00  0.00    -0.248 NA
ATOM     56  C   UNL     1       5.626   6.136   7.706  1.00  0.00     0.031 C 
ATOM     57  C   UNL     1       0.625   6.731   9.319  1.00  0.00     0.029 A 
ATOM     58  C   UNL     1       1.588   7.727   9.349  1.00  0.00     0.049 A 
ATOM     59  H   UNL     1       1.377   9.778   8.936  1.00  0.00     0.167 HD
ATOM     60  C   UNL     1       3.830   7.091   8.833  1.00  0.00     0.074 A 
ATOM     61  C   UNL     1       5.214   6.649   8.879  1.00  0.00     0.031 C 
ATOM     62  C   UNL     1       3.003   7.732   9.717  1.00  0.00     0.034 A 
BRANCH  49  63
ATOM     63  C   UNL     1      -2.510  10.178   8.425  1.00  0.00     0.023 A 
ATOM     64  C   UNL     1      -3.046   9.630   9.616  1.00  0.00     0.031 A 
ATOM     65  C   UNL     1      -3.381  11.058   7.744  1.00  0.00     0.131 A 
ATOM     66  C   UNL     1      -4.359   9.926  10.046  1.00  0.00     0.055 A 
ATOM     67  C   UNL     1      -4.669  11.382   8.191  1.00  0.00     0.041 A 
ATOM     68  F   UNL     1      -3.073  11.635   6.581  1.00  0.00    -0.206 F 
ATOM     69  C   UNL     1      -5.171  10.808   9.341  1.00  0.00     0.022 A 
BRANCH  66  70
ATOM     70  S   UNL     1      -5.038   9.091  11.507  1.00  0.00     0.124 S 
ATOM     71  O   UNL     1      -4.968   7.686  11.120  1.00  0.00    -0.237 OA
ATOM     72  O   UNL     1      -4.128   9.522  12.561  1.00  0.00    -0.237 OA
ATOM     73  O   UNL     1      -6.394   9.631  11.608  1.00  0.00    -0.744 OA
ENDBRANCH  66  70
ENDBRANCH  49  63
BRANCH  50  74
ATOM     74  C   UNL     1       5.342   6.137   4.412  1.00  0.00     0.023 A 
ATOM     75  C   UNL     1       5.533   5.205   3.374  1.00  0.00     0.031 A 
ATOM     76  C   UNL     1       5.823   7.439   4.227  1.00  0.00     0.131 A 
ATOM     77  C   UNL     1       6.037   5.622   2.137  1.00  0.00     0.055 A 
ATOM     78  C   UNL     1       6.372   7.841   3.003  1.00  0.00     0.041 A 
ATOM     79  F   UNL     1       5.652   8.373   5.174  1.00  0.00    -0.206 F 
ATOM     80  C   UNL     1       6.436   6.945   1.936  1.00  0.00     0.022 A 
BRANCH  77  81
ATOM     81  S   UNL     1       5.946   4.501   0.713  1.00  0.00     0.124 S 
ATOM     82  O   UNL     1       7.340   4.115   0.528  1.00  0.00    -0.237 OA
ATOM     83  O   UNL     1       5.057   3.441   1.182  1.00  0.00    -0.237 OA
ATOM     84  O   UNL     1       5.376   5.353  -0.329  1.00  0.00    -0.744 OA
ENDBRANCH  77  81
ENDBRANCH  50  74
BRANCH  62  85
ATOM     85  C   UNL     1       3.430   8.350  11.041  1.00  0.00     0.023 A 
ATOM     86  C   UNL     1       4.768   8.578  11.401  1.00  0.00     0.031 A 
ATOM     87  C   UNL     1       2.470   8.799  11.981  1.00  0.00     0.131 A 
ATOM     88  C   UNL     1       5.113   9.117  12.656  1.00  0.00     0.055 A 
ATOM     89  C   UNL     1       2.811   9.411  13.194  1.00  0.00     0.041 A 
ATOM     90  F   UNL     1       1.153   8.676  11.760  1.00  0.00    -0.206 F 
ATOM     91  C   UNL     1       4.142   9.554  13.550  1.00  0.00     0.022 A 
BRANCH  88  92
ATOM     92  S   UNL     1       6.867   9.162  13.117  1.00  0.00     0.124 S 
ATOM     93  O   UNL     1       7.219   7.745  13.100  1.00  0.00    -0.237 OA
ATOM     94  O   UNL     1       7.450   9.971  12.053  1.00  0.00    -0.237 OA
ATOM     95  O   UNL     1       6.862   9.783  14.440  1.00  0.00    -0.744 OA
ENDBRANCH  88  92
ENDBRANCH  62  85
ENDBRANCH  36  37
ENDBRANCH  28  31
ENDBRANCH  26  27
ENDBRANCH  25  26
ENDBRANCH   1  25
TORSDOF 17
