REMARK SMILES C[C@@H](C(=O)NCCCCNC(=O)c1ccc(-c2c3nc(c(-c4cc(S(=O)(=O)[O-])ccc4F)c4ccc([nH]4)c(-c4cc(S(=O)(=O)[O-])ccc4F)c4nc(c(-c5cc(S(=O)(=O)[O-])ccc5F)c5ccc2[nH]5)C=C4)C=C3)cc1)c1ccccc1-c1ccn(C(F)F)c(=O)c1
REMARK SMILES IDX 7 1 6 2 5 3 3 4 4 5 2 7 1 8 76 9 77 10 81 11 78 12 80 13
REMARK SMILES IDX 79 14 82 15 83 16 91 17 84 18 89 19 85 20 90 21 86 22 87 23
REMARK SMILES IDX 88 24 8 25 9 26 10 27 11 28 12 30 13 31 14 32 75 33 15 34
REMARK SMILES IDX 74 35 16 36 17 37 18 38 68 39 19 40 73 41 67 42 69 43 20 44
REMARK SMILES IDX 72 45 66 46 65 47 21 49 53 50 33 51 52 52 34 53 37 54 51 55
REMARK SMILES IDX 70 56 35 57 36 58 50 60 71 61 38 62 22 63 23 64 31 65 24 66
REMARK SMILES IDX 30 67 32 68 29 69 25 70 26 71 27 72 28 73 54 74 55 75 63 76
REMARK SMILES IDX 56 77 62 78 64 79 61 80 57 81 58 82 59 83 60 84 39 85 40 86
REMARK SMILES IDX 48 87 41 88 47 89 49 90 46 91 42 92 43 93 44 94 45 95
REMARK H PARENT 5 6 10 29 69 48 37 59
REMARK Flexibility Score: inf
ROOT
ATOM      1  C   UNL     1       4.375   1.132  -0.795  1.00  0.00     0.023 C 
ENDROOT
BRANCH   1   2
ATOM      2  C   UNL     1       3.457   2.087  -0.022  1.00  0.00     0.116 C 
BRANCH   2   3
ATOM      3  N   UNL     1       2.403   2.691  -0.825  1.00  0.00    -0.356 N 
ATOM      4  C   UNL     1       1.062   2.399  -0.904  1.00  0.00     0.227 C 
ATOM      5  O   UNL     1       0.379   3.086  -1.665  1.00  0.00    -0.274 OA
ATOM      6  H   UNL     1       2.699   3.429  -1.405  1.00  0.00     0.163 HD
BRANCH   4   7
ATOM      7  C   UNL     1       0.505   1.196  -0.115  1.00  0.00     0.106 C 
ATOM      8  C   UNL     1       1.030  -0.015  -0.893  1.00  0.00     0.023 C 
BRANCH   7   9
ATOM      9  C   UNL     1      -1.019   1.204   0.176  1.00  0.00    -0.028 A 
ATOM     10  C   UNL     1      -1.656   2.454   0.357  1.00  0.00     0.005 A 
ATOM     11  C   UNL     1      -1.827   0.044   0.359  1.00  0.00    -0.014 A 
ATOM     12  C   UNL     1      -3.029   2.562   0.600  1.00  0.00     0.000 A 
ATOM     13  C   UNL     1      -3.209   0.171   0.608  1.00  0.00     0.009 A 
ATOM     14  C   UNL     1      -3.809   1.422   0.711  1.00  0.00     0.001 A 
BRANCH  11  15
ATOM     15  C   UNL     1      -1.305  -1.339   0.317  1.00  0.00    -0.011 A 
ATOM     16  C   UNL     1      -0.541  -1.924   1.402  1.00  0.00     0.027 A 
ATOM     17  C   UNL     1      -1.454  -2.027  -0.830  1.00  0.00     0.080 A 
ATOM     18  C   UNL     1       0.215  -3.006   1.178  1.00  0.00     0.095 A 
ATOM     19  C   UNL     1      -0.654  -3.259  -1.075  1.00  0.00     0.255 A 
ATOM     20  N   UNL     1       0.219  -3.622  -0.060  1.00  0.00    -0.258 N 
ATOM     21  O   UNL     1      -0.763  -3.825  -2.158  1.00  0.00    -0.269 OA
BRANCH  20  22
ATOM     22  C   UNL     1       1.186  -4.643  -0.369  1.00  0.00     0.451 C 
ATOM     23  F   UNL     1       0.589  -5.818  -0.677  1.00  0.00    -0.185 F 
ATOM     24  F   UNL     1       1.956  -4.271  -1.423  1.00  0.00    -0.185 F 
ENDBRANCH  20  22
ENDBRANCH  11  15
ENDBRANCH   7   9
ENDBRANCH   4   7
ENDBRANCH   2   3
ENDBRANCH   1   2
BRANCH   1  25
ATOM     25  C   UNL     1       5.154   1.764  -1.946  1.00  0.00     0.023 C 
BRANCH  25  26
ATOM     26  C   UNL     1       6.178   2.800  -1.511  1.00  0.00     0.116 C 
BRANCH  26  27
ATOM     27  N   UNL     1       7.195   2.251  -0.622  1.00  0.00    -0.352 N 
ATOM     28  C   UNL     1       8.556   2.463  -0.645  1.00  0.00     0.251 C 
ATOM     29  H   UNL     1       6.867   1.650   0.086  1.00  0.00     0.163 HD
ATOM     30  O   UNL     1       9.298   1.829   0.091  1.00  0.00    -0.269 OA
BRANCH  28  31
ATOM     31  C   UNL     1       9.091   3.446  -1.607  1.00  0.00     0.039 A 
ATOM     32  C   UNL     1      10.095   3.057  -2.495  1.00  0.00     0.014 A 
ATOM     33  C   UNL     1       8.512   4.714  -1.690  1.00  0.00     0.014 A 
ATOM     34  C   UNL     1      10.463   3.917  -3.532  1.00  0.00     0.010 A 
ATOM     35  C   UNL     1       8.819   5.530  -2.769  1.00  0.00     0.010 A 
ATOM     36  C   UNL     1       9.793   5.139  -3.702  1.00  0.00    -0.014 A 
BRANCH  36  37
ATOM     37  C   UNL     1      10.085   6.052  -4.835  1.00  0.00     0.031 A 
ATOM     38  C   UNL     1      10.578   7.441  -4.543  1.00  0.00     0.074 A 
ATOM     39  C   UNL     1       9.772   5.689  -6.093  1.00  0.00     0.049 A 
ATOM     40  N   UNL     1      10.679   8.473  -5.338  1.00  0.00    -0.248 NA
ATOM     41  C   UNL     1      10.950   7.712  -3.147  1.00  0.00     0.031 C 
ATOM     42  C   UNL     1       9.234   4.386  -6.492  1.00  0.00     0.029 A 
ATOM     43  N   UNL     1       9.827   6.399  -7.266  1.00  0.00    -0.354 N 
ATOM     44  C   UNL     1      11.083   9.530  -4.529  1.00  0.00     0.074 A 
ATOM     45  C   UNL     1      11.146   9.020  -3.175  1.00  0.00     0.031 C 
ATOM     46  C   UNL     1       9.003   4.393  -7.815  1.00  0.00     0.029 A 
ATOM     47  C   UNL     1       9.331   5.711  -8.349  1.00  0.00     0.049 A 
ATOM     48  H   UNL     1      10.187   7.313  -7.327  1.00  0.00     0.167 HD
ATOM     49  C   UNL     1      11.389  10.802  -4.888  1.00  0.00     0.034 A 
ATOM     50  C   UNL     1       9.132   6.108  -9.621  1.00  0.00     0.034 A 
ATOM     51  C   UNL     1      11.347  11.274  -6.250  1.00  0.00     0.049 A 
ATOM     52  C   UNL     1       9.502   7.514 -10.012  1.00  0.00     0.074 A 
ATOM     53  C   UNL     1      11.715  12.511  -6.748  1.00  0.00     0.029 A 
ATOM     54  N   UNL     1      10.903  10.525  -7.334  1.00  0.00    -0.354 N 
ATOM     55  N   UNL     1       9.935   8.493  -9.251  1.00  0.00    -0.248 NA
ATOM     56  C   UNL     1       9.367   7.866 -11.431  1.00  0.00     0.031 C 
ATOM     57  C   UNL     1      11.440  12.529  -8.121  1.00  0.00     0.029 A 
ATOM     58  C   UNL     1      10.965  11.282  -8.494  1.00  0.00     0.049 A 
ATOM     59  H   UNL     1      10.589   9.593  -7.285  1.00  0.00     0.167 HD
ATOM     60  C   UNL     1      10.149   9.571 -10.104  1.00  0.00     0.074 A 
ATOM     61  C   UNL     1       9.800   9.120 -11.437  1.00  0.00     0.031 C 
ATOM     62  C   UNL     1      10.604  10.816  -9.813  1.00  0.00     0.034 A 
BRANCH  49  63
ATOM     63  C   UNL     1      11.758  11.759  -3.778  1.00  0.00     0.023 A 
ATOM     64  C   UNL     1      12.857  11.521  -2.932  1.00  0.00     0.031 A 
ATOM     65  C   UNL     1      10.955  12.880  -3.507  1.00  0.00     0.131 A 
ATOM     66  C   UNL     1      13.050  12.317  -1.794  1.00  0.00     0.055 A 
ATOM     67  C   UNL     1      11.214  13.730  -2.429  1.00  0.00     0.041 A 
ATOM     68  F   UNL     1       9.882  13.153  -4.266  1.00  0.00    -0.206 F 
ATOM     69  C   UNL     1      12.253  13.436  -1.550  1.00  0.00     0.022 A 
BRANCH  66  70
ATOM     70  S   UNL     1      14.228  11.746  -0.536  1.00  0.00     0.124 S 
ATOM     71  O   UNL     1      13.711  10.413  -0.232  1.00  0.00    -0.237 OA
ATOM     72  O   UNL     1      15.498  11.791  -1.251  1.00  0.00    -0.237 OA
ATOM     73  O   UNL     1      14.080  12.723   0.540  1.00  0.00    -0.744 OA
ENDBRANCH  66  70
ENDBRANCH  49  63
BRANCH  50  74
ATOM     74  C   UNL     1       8.535   5.166 -10.607  1.00  0.00     0.023 A 
ATOM     75  C   UNL     1       9.304   4.621 -11.647  1.00  0.00     0.031 A 
ATOM     76  C   UNL     1       7.184   4.787 -10.512  1.00  0.00     0.131 A 
ATOM     77  C   UNL     1       8.709   3.745 -12.569  1.00  0.00     0.055 A 
ATOM     78  C   UNL     1       6.607   3.886 -11.409  1.00  0.00     0.041 A 
ATOM     79  F   UNL     1       6.413   5.270  -9.525  1.00  0.00    -0.206 F 
ATOM     80  C   UNL     1       7.370   3.365 -12.450  1.00  0.00     0.022 A 
BRANCH  77  81
ATOM     81  S   UNL     1       9.708   3.129 -13.951  1.00  0.00     0.124 S 
ATOM     82  O   UNL     1      10.031   4.363 -14.659  1.00  0.00    -0.237 OA
ATOM     83  O   UNL     1      10.816   2.477 -13.260  1.00  0.00    -0.237 OA
ATOM     84  O   UNL     1       8.799   2.225 -14.653  1.00  0.00    -0.744 OA
ENDBRANCH  77  81
ENDBRANCH  50  74
BRANCH  62  85
ATOM     85  C   UNL     1      10.800  11.763 -10.970  1.00  0.00     0.023 A 
ATOM     86  C   UNL     1       9.715  12.321 -11.665  1.00  0.00     0.031 A 
ATOM     87  C   UNL     1      12.101  12.123 -11.365  1.00  0.00     0.131 A 
ATOM     88  C   UNL     1       9.951  13.185 -12.745  1.00  0.00     0.055 A 
ATOM     89  C   UNL     1      12.329  13.019 -12.409  1.00  0.00     0.041 A 
ATOM     90  F   UNL     1      13.171  11.616 -10.732  1.00  0.00    -0.206 F 
ATOM     91  C   UNL     1      11.250  13.550 -13.111  1.00  0.00     0.022 A 
BRANCH  88  92
ATOM     92  S   UNL     1       8.537  13.789 -13.708  1.00  0.00     0.124 S 
ATOM     93  O   UNL     1       7.971  12.548 -14.226  1.00  0.00    -0.237 OA
ATOM     94  O   UNL     1       7.742  14.480 -12.698  1.00  0.00    -0.237 OA
ATOM     95  O   UNL     1       9.151  14.657 -14.711  1.00  0.00    -0.744 OA
ENDBRANCH  88  92
ENDBRANCH  62  85
ENDBRANCH  36  37
ENDBRANCH  28  31
ENDBRANCH  26  27
ENDBRANCH  25  26
ENDBRANCH   1  25
TORSDOF 17
