REMARK SMILES C[NH+](C)[C@@H]1CC[N@@H+](Cc2ccc(C(=O)NCCCCNC(=O)c3ccc(-c4c5nc(c(-c6cc(S(=O)(=O)[O-])ccc6F)c6ccc([nH]6)c(-c6cc(S(=O)(=O)[O-])ccc6F)c6nc(c(-c7cc(S(=O)(=O)[O-])ccc7F)c7ccc4[nH]7)C=C6)C=C5)cc3)cn2)C1
REMARK SMILES IDX 17 1 16 2 15 3 13 4 14 5 12 7 9 8 10 9 87 10 11 11 86 12
REMARK SMILES IDX 8 13 7 14 4 15 5 16 88 17 6 18 2 20 1 21 3 22 18 24 19 25
REMARK SMILES IDX 20 26 21 27 22 29 23 30 24 31 85 32 25 33 84 34 26 35 27 36
REMARK SMILES IDX 28 37 78 38 29 39 83 40 77 41 79 42 30 43 82 44 76 45 75 46
REMARK SMILES IDX 31 48 63 49 43 50 62 51 44 52 47 53 61 54 80 55 45 56 46 57
REMARK SMILES IDX 60 59 81 60 48 61 32 62 33 63 41 64 34 65 40 66 42 67 39 68
REMARK SMILES IDX 35 69 36 70 37 71 38 72 64 73 65 74 73 75 66 76 72 77 74 78
REMARK SMILES IDX 71 79 67 80 68 81 69 82 70 83 49 84 50 85 58 86 51 87 57 88
REMARK SMILES IDX 59 89 56 90 52 91 53 92 54 93 55 94
REMARK H PARENT 15 6 7 19 2 23 20 28 79 47 47 58
REMARK Flexibility Score: inf
ROOT
ATOM      1  C   UNL     1       5.627  -1.124  -3.739  1.00  0.00     0.023 C 
ENDROOT
BRANCH   1   2
ATOM      2  C   UNL     1       4.142  -0.865  -3.997  1.00  0.00     0.116 C 
BRANCH   2   3
ATOM      3  N   UNL     1       3.714  -1.481  -5.241  1.00  0.00    -0.352 N 
ATOM      4  C   UNL     1       3.038  -2.651  -5.481  1.00  0.00     0.252 C 
ATOM      5  O   UNL     1       2.710  -2.927  -6.632  1.00  0.00    -0.269 OA
ATOM      6  H   UNL     1       3.949  -0.972  -6.050  1.00  0.00     0.163 HD
BRANCH   4   7
ATOM      7  C   UNL     1       2.621  -3.551  -4.387  1.00  0.00     0.058 A 
ATOM      8  C   UNL     1       1.512  -5.055  -2.361  1.00  0.00     0.095 A 
ATOM      9  C   UNL     1       2.813  -4.584  -2.217  1.00  0.00     0.030 A 
ATOM     10  N   UNL     1       0.809  -4.894  -3.511  1.00  0.00    -0.255 NA
ATOM     11  C   UNL     1       3.375  -3.840  -3.252  1.00  0.00     0.017 A 
ATOM     12  C   UNL     1       1.375  -4.151  -4.494  1.00  0.00     0.125 A 
BRANCH   8  13
ATOM     13  C   UNL     1       0.783  -5.671  -1.181  1.00  0.00     0.319 C 
BRANCH  13  14
ATOM     14  N   UNL     1      -0.055  -4.775  -0.360  1.00  0.00    -0.325 N 
ATOM     15  C   UNL     1       0.571  -2.416  -0.346  1.00  0.00     0.245 C 
ATOM     16  C   UNL     1      -0.487  -2.659  -1.427  1.00  0.00     0.132 C 
ATOM     17  C   UNL     1       0.674  -3.763   0.413  1.00  0.00     0.328 C 
ATOM     18  C   UNL     1      -1.068  -4.034  -1.119  1.00  0.00     0.269 C 
ATOM     19  H   UNL     1      -0.486  -5.452   0.270  1.00  0.00     0.348 HD
BRANCH  15  20
ATOM     20  N   UNL     1       0.374  -1.262   0.556  1.00  0.00    -0.333 N 
ATOM     21  C   UNL     1       0.798  -0.011  -0.074  1.00  0.00     0.332 C 
ATOM     22  C   UNL     1      -0.992  -1.127   1.066  1.00  0.00     0.332 C 
ATOM     23  H   UNL     1       0.969  -1.456   1.362  1.00  0.00     0.348 HD
ENDBRANCH  15  20
ENDBRANCH  13  14
ENDBRANCH   8  13
ENDBRANCH   4   7
ENDBRANCH   2   3
ENDBRANCH   1   2
BRANCH   1  24
ATOM     24  C   UNL     1       6.571  -0.327  -4.639  1.00  0.00     0.023 C 
BRANCH  24  25
ATOM     25  C   UNL     1       6.545   1.179  -4.416  1.00  0.00     0.116 C 
BRANCH  25  26
ATOM     26  N   UNL     1       6.949   1.564  -3.072  1.00  0.00    -0.352 N 
ATOM     27  C   UNL     1       7.649   2.690  -2.689  1.00  0.00     0.251 C 
ATOM     28  H   UNL     1       6.693   0.947  -2.349  1.00  0.00     0.163 HD
ATOM     29  O   UNL     1       8.012   2.835  -1.536  1.00  0.00    -0.269 OA
BRANCH  27  30
ATOM     30  C   UNL     1       7.985   3.687  -3.729  1.00  0.00     0.039 A 
ATOM     31  C   UNL     1       9.323   4.035  -3.927  1.00  0.00     0.014 A 
ATOM     32  C   UNL     1       6.984   4.191  -4.562  1.00  0.00     0.014 A 
ATOM     33  C   UNL     1       9.669   4.829  -5.022  1.00  0.00     0.010 A 
ATOM     34  C   UNL     1       7.339   4.928  -5.685  1.00  0.00     0.010 A 
ATOM     35  C   UNL     1       8.685   5.241  -5.934  1.00  0.00    -0.014 A 
BRANCH  35  36
ATOM     36  C   UNL     1       9.020   6.003  -7.163  1.00  0.00     0.031 A 
ATOM     37  C   UNL     1       8.490   7.398  -7.332  1.00  0.00     0.074 A 
ATOM     38  C   UNL     1       9.699   5.408  -8.162  1.00  0.00     0.049 A 
ATOM     39  N   UNL     1       8.487   8.164  -8.391  1.00  0.00    -0.248 NA
ATOM     40  C   UNL     1       7.840   7.990  -6.154  1.00  0.00     0.031 C 
ATOM     41  C   UNL     1      10.251   4.052  -8.122  1.00  0.00     0.029 A 
ATOM     42  N   UNL     1      10.022   5.860  -9.417  1.00  0.00    -0.354 N 
ATOM     43  C   UNL     1       7.813   9.321  -8.017  1.00  0.00     0.074 A 
ATOM     44  C   UNL     1       7.375   9.126  -6.649  1.00  0.00     0.031 C 
ATOM     45  C   UNL     1      10.854   3.789  -9.293  1.00  0.00     0.029 A 
ATOM     46  C   UNL     1      10.685   4.932 -10.185  1.00  0.00     0.049 A 
ATOM     47  H   UNL     1       9.799   6.764  -9.737  1.00  0.00     0.167 HD
ATOM     48  C   UNL     1       7.597  10.449  -8.740  1.00  0.00     0.034 A 
ATOM     49  C   UNL     1      11.088   4.988 -11.470  1.00  0.00     0.034 A 
ATOM     50  C   UNL     1       8.051  10.627 -10.097  1.00  0.00     0.049 A 
ATOM     51  C   UNL     1      10.801   6.232 -12.271  1.00  0.00     0.074 A 
ATOM     52  C   UNL     1       7.918  11.735 -10.916  1.00  0.00     0.029 A 
ATOM     53  N   UNL     1       8.727   9.666 -10.839  1.00  0.00    -0.354 N 
ATOM     54  N   UNL     1      10.169   7.323 -11.903  1.00  0.00    -0.248 NA
ATOM     55  C   UNL     1      11.280   6.251 -13.659  1.00  0.00     0.031 C 
ATOM     56  C   UNL     1       8.467  11.427 -12.166  1.00  0.00     0.029 A 
ATOM     57  C   UNL     1       9.000  10.149 -12.109  1.00  0.00     0.049 A 
ATOM     58  H   UNL     1       8.977   8.773 -10.510  1.00  0.00     0.167 HD
ATOM     59  C   UNL     1      10.209   8.172 -13.005  1.00  0.00     0.074 A 
ATOM     60  C   UNL     1      10.922   7.466 -14.050  1.00  0.00     0.031 C 
ATOM     61  C   UNL     1       9.712   9.428 -13.137  1.00  0.00     0.034 A 
BRANCH  48  62
ATOM     62  C   UNL     1       6.807  11.548  -8.072  1.00  0.00     0.023 A 
ATOM     63  C   UNL     1       7.272  12.180  -6.904  1.00  0.00     0.031 A 
ATOM     64  C   UNL     1       5.545  11.923  -8.563  1.00  0.00     0.131 A 
ATOM     65  C   UNL     1       6.441  13.072  -6.212  1.00  0.00     0.055 A 
ATOM     66  C   UNL     1       4.760  12.883  -7.920  1.00  0.00     0.041 A 
ATOM     67  F   UNL     1       5.038  11.342  -9.662  1.00  0.00    -0.206 F 
ATOM     68  C   UNL     1       5.197  13.448  -6.725  1.00  0.00     0.022 A 
BRANCH  65  69
ATOM     69  S   UNL     1       6.933  13.590  -4.545  1.00  0.00     0.124 S 
ATOM     70  O   UNL     1       7.044  12.305  -3.859  1.00  0.00    -0.237 OA
ATOM     71  O   UNL     1       8.187  14.294  -4.791  1.00  0.00    -0.237 OA
ATOM     72  O   UNL     1       5.821  14.429  -4.104  1.00  0.00    -0.744 OA
ENDBRANCH  65  69
ENDBRANCH  48  62
BRANCH  49  73
ATOM     73  C   UNL     1      11.796   3.834 -12.089  1.00  0.00     0.023 A 
ATOM     74  C   UNL     1      13.145   3.938 -12.462  1.00  0.00     0.031 A 
ATOM     75  C   UNL     1      11.130   2.623 -12.344  1.00  0.00     0.131 A 
ATOM     76  C   UNL     1      13.777   2.863 -13.106  1.00  0.00     0.055 A 
ATOM     77  C   UNL     1      11.775   1.541 -12.946  1.00  0.00     0.041 A 
ATOM     78  F   UNL     1       9.841   2.471 -11.998  1.00  0.00    -0.206 F 
ATOM     79  C   UNL     1      13.104   1.662 -13.340  1.00  0.00     0.022 A 
BRANCH  76  80
ATOM     80  S   UNL     1      15.480   3.082 -13.689  1.00  0.00     0.124 S 
ATOM     81  O   UNL     1      15.335   4.197 -14.617  1.00  0.00    -0.237 OA
ATOM     82  O   UNL     1      16.190   3.368 -12.447  1.00  0.00    -0.237 OA
ATOM     83  O   UNL     1      15.797   1.794 -14.303  1.00  0.00    -0.744 OA
ENDBRANCH  76  80
ENDBRANCH  49  73
BRANCH  61  84
ATOM     84  C   UNL     1       9.985  10.137 -14.438  1.00  0.00     0.023 A 
ATOM     85  C   UNL     1       9.347   9.768 -15.634  1.00  0.00     0.031 A 
ATOM     86  C   UNL     1      10.898  11.206 -14.472  1.00  0.00     0.131 A 
ATOM     87  C   UNL     1       9.661  10.439 -16.826  1.00  0.00     0.055 A 
ATOM     88  C   UNL     1      11.172  11.899 -15.651  1.00  0.00     0.041 A 
ATOM     89  F   UNL     1      11.533  11.596 -13.355  1.00  0.00    -0.206 F 
ATOM     90  C   UNL     1      10.558  11.511 -16.839  1.00  0.00     0.022 A 
BRANCH  87  91
ATOM     91  S   UNL     1       8.921   9.859 -18.377  1.00  0.00     0.124 S 
ATOM     92  O   UNL     1       9.451   8.503 -18.478  1.00  0.00    -0.237 OA
ATOM     93  O   UNL     1       7.491   9.966 -18.102  1.00  0.00    -0.237 OA
ATOM     94  O   UNL     1       9.430  10.800 -19.373  1.00  0.00    -0.744 OA
ENDBRANCH  87  91
ENDBRANCH  61  84
ENDBRANCH  35  36
ENDBRANCH  27  30
ENDBRANCH  25  26
ENDBRANCH  24  25
ENDBRANCH   1  24
TORSDOF 17
