REMARK SMILES C[C@H]1CC[C@H]([NH2+]Cc2c(C(=O)NCCCCNC(=O)c3ccc(-c4c5nc(c(-c6cc(S(=O)(=O)[O-])ccc6F)c6ccc([nH]6)c(-c6cc(S(=O)(=O)[O-])ccc6F)c6nc(c(-c7cc(S(=O)(=O)[O-])ccc7F)c7ccc4[nH]7)C=C6)C=C5)cc3)n(Cc3ccccc3F)c3ccccc23)CC1
REMARK SMILES IDX 14 1 13 2 12 3 10 4 11 5 9 7 8 8 97 9 83 10 92 11 96 12
REMARK SMILES IDX 93 13 95 14 94 15 7 16 6 17 5 20 1 21 2 22 3 23 99 24 4 25
REMARK SMILES IDX 98 26 84 27 85 28 86 29 90 30 87 31 89 32 91 33 88 34 15 35
REMARK SMILES IDX 16 36 17 37 18 38 19 40 20 41 21 42 82 43 22 44 81 45 23 46
REMARK SMILES IDX 24 47 25 48 75 49 26 50 80 51 74 52 76 53 27 54 79 55 73 56
REMARK SMILES IDX 72 57 28 59 60 60 40 61 59 62 41 63 44 64 58 65 77 66 42 67
REMARK SMILES IDX 43 68 57 70 78 71 45 72 29 73 30 74 38 75 31 76 37 77 39 78
REMARK SMILES IDX 36 79 32 80 33 81 34 82 35 83 61 84 62 85 70 86 63 87 69 88
REMARK SMILES IDX 71 89 68 90 64 91 65 92 66 93 67 94 46 95 47 96 55 97 48 98
REMARK SMILES IDX 54 99 56 100 53 101 49 102 50 103 51 104 52 105
REMARK H PARENT 12 6 6 18 6 19 17 39 76 58 44 69
REMARK Flexibility Score: inf
ROOT
ATOM      1  C   UNL     1      -4.522   1.652   2.171  1.00  0.00     0.023 C 
ENDROOT
BRANCH   1   2
ATOM      2  C   UNL     1      -3.892   0.354   1.678  1.00  0.00     0.116 C 
BRANCH   2   3
ATOM      3  N   UNL     1      -2.899  -0.282   2.502  1.00  0.00    -0.351 N 
ATOM      4  C   UNL     1      -2.277  -1.505   2.332  1.00  0.00     0.268 C 
ATOM      5  O   UNL     1      -1.363  -1.718   3.133  1.00  0.00    -0.268 OA
ATOM      6  H   UNL     1      -2.624   0.225   3.300  1.00  0.00     0.163 HD
BRANCH   4   7
ATOM      7  C   UNL     1      -2.690  -2.514   1.337  1.00  0.00     0.117 A 
ATOM      8  C   UNL     1      -3.328  -2.445   0.081  1.00  0.00     0.045 A 
ATOM      9  C   UNL     1      -3.853  -3.755  -0.163  1.00  0.00     0.009 A 
ATOM     10  N   UNL     1      -2.305  -3.880   1.420  1.00  0.00    -0.331 N 
ATOM     11  C   UNL     1      -3.010  -4.636   0.490  1.00  0.00     0.049 A 
ATOM     12  C   UNL     1      -4.850  -4.264  -1.024  1.00  0.00     0.011 A 
ATOM     13  C   UNL     1      -2.986  -5.998   0.141  1.00  0.00     0.027 A 
ATOM     14  C   UNL     1      -4.951  -5.640  -1.229  1.00  0.00     0.001 A 
ATOM     15  C   UNL     1      -3.996  -6.491  -0.691  1.00  0.00     0.002 A 
BRANCH   8  16
ATOM     16  C   UNL     1      -3.558  -1.384  -0.961  1.00  0.00     0.300 C 
BRANCH  16  17
ATOM     17  N   UNL     1      -2.631  -0.270  -1.009  1.00  0.00    -0.340 N 
ATOM     18  H   UNL     1      -3.027   0.387  -1.681  1.00  0.00     0.346 HD
ATOM     19  H   UNL     1      -2.563  -0.039  -0.018  1.00  0.00     0.346 HD
BRANCH  17  20
ATOM     20  C   UNL     1      -1.217  -0.384  -1.358  1.00  0.00     0.182 C 
ATOM     21  C   UNL     1       3.073  -0.048  -0.299  1.00  0.00     0.007 C 
ATOM     22  C   UNL     1       1.556  -0.149  -0.272  1.00  0.00    -0.014 C 
ATOM     23  C   UNL     1       1.063  -1.441  -0.931  1.00  0.00     0.009 C 
ATOM     24  C   UNL     1       0.907   1.045  -0.969  1.00  0.00     0.009 C 
ATOM     25  C   UNL     1      -0.448  -1.565  -0.764  1.00  0.00     0.065 C 
ATOM     26  C   UNL     1      -0.608   0.953  -0.875  1.00  0.00     0.065 C 
ENDBRANCH  17  20
ENDBRANCH  16  17
ENDBRANCH   8  16
BRANCH  10  27
ATOM     27  C   UNL     1      -1.232  -4.457   2.250  1.00  0.00     0.161 C 
BRANCH  27  28
ATOM     28  C   UNL     1      -1.700  -5.169   3.500  1.00  0.00     0.008 A 
ATOM     29  C   UNL     1      -2.488  -6.333   3.462  1.00  0.00     0.008 A 
ATOM     30  C   UNL     1      -1.283  -4.731   4.760  1.00  0.00     0.128 A 
ATOM     31  C   UNL     1      -2.881  -6.996   4.627  1.00  0.00     0.001 A 
ATOM     32  C   UNL     1      -1.683  -5.378   5.931  1.00  0.00     0.039 A 
ATOM     33  F   UNL     1      -0.440  -3.697   4.870  1.00  0.00    -0.207 F 
ATOM     34  C   UNL     1      -2.491  -6.510   5.866  1.00  0.00     0.003 A 
ENDBRANCH  27  28
ENDBRANCH  10  27
ENDBRANCH   4   7
ENDBRANCH   2   3
ENDBRANCH   1   2
BRANCH   1  35
ATOM     35  C   UNL     1      -3.717   2.944   1.931  1.00  0.00     0.023 C 
BRANCH  35  36
ATOM     36  C   UNL     1      -3.138   3.194   0.529  1.00  0.00     0.116 C 
BRANCH  36  37
ATOM     37  N   UNL     1      -4.062   3.305  -0.585  1.00  0.00    -0.352 N 
ATOM     38  C   UNL     1      -4.518   4.415  -1.259  1.00  0.00     0.251 C 
ATOM     39  H   UNL     1      -4.420   2.448  -0.911  1.00  0.00     0.163 HD
ATOM     40  O   UNL     1      -4.769   4.296  -2.459  1.00  0.00    -0.269 OA
BRANCH  38  41
ATOM     41  C   UNL     1      -4.897   5.659  -0.547  1.00  0.00     0.039 A 
ATOM     42  C   UNL     1      -4.364   6.038   0.681  1.00  0.00     0.014 A 
ATOM     43  C   UNL     1      -5.969   6.390  -1.088  1.00  0.00     0.014 A 
ATOM     44  C   UNL     1      -5.022   6.972   1.456  1.00  0.00     0.010 A 
ATOM     45  C   UNL     1      -6.603   7.369  -0.334  1.00  0.00     0.010 A 
ATOM     46  C   UNL     1      -6.173   7.594   0.970  1.00  0.00    -0.014 A 
BRANCH  46  47
ATOM     47  C   UNL     1      -6.818   8.538   1.872  1.00  0.00     0.031 A 
ATOM     48  C   UNL     1      -5.959   9.690   2.265  1.00  0.00     0.074 A 
ATOM     49  C   UNL     1      -8.093   8.417   2.285  1.00  0.00     0.049 A 
ATOM     50  N   UNL     1      -5.513  10.007   3.437  1.00  0.00    -0.248 NA
ATOM     51  C   UNL     1      -5.401  10.495   1.169  1.00  0.00     0.031 C 
ATOM     52  C   UNL     1      -9.139   7.548   1.744  1.00  0.00     0.029 A 
ATOM     53  N   UNL     1      -8.755   9.157   3.215  1.00  0.00    -0.354 N 
ATOM     54  C   UNL     1      -4.754  11.166   3.255  1.00  0.00     0.074 A 
ATOM     55  C   UNL     1      -4.590  11.315   1.832  1.00  0.00     0.031 C 
ATOM     56  C   UNL     1     -10.343   7.998   2.167  1.00  0.00     0.029 A 
ATOM     57  C   UNL     1     -10.135   9.081   3.115  1.00  0.00     0.049 A 
ATOM     58  H   UNL     1      -8.295   9.698   3.897  1.00  0.00     0.167 HD
ATOM     59  C   UNL     1      -4.470  12.021   4.280  1.00  0.00     0.034 A 
ATOM     60  C   UNL     1     -11.027   9.933   3.678  1.00  0.00     0.034 A 
ATOM     61  C   UNL     1      -4.683  11.395   5.555  1.00  0.00     0.049 A 
ATOM     62  C   UNL     1     -10.335  10.698   4.746  1.00  0.00     0.074 A 
ATOM     63  C   UNL     1      -4.114  10.328   6.220  1.00  0.00     0.029 A 
ATOM     64  N   UNL     1      -5.852  11.674   6.219  1.00  0.00    -0.354 N 
ATOM     65  N   UNL     1      -9.945  10.197   5.883  1.00  0.00    -0.248 NA
ATOM     66  C   UNL     1      -9.698  11.950   4.362  1.00  0.00     0.031 C 
ATOM     67  C   UNL     1      -5.186   9.729   6.939  1.00  0.00     0.029 A 
ATOM     68  C   UNL     1      -6.334  10.492   6.714  1.00  0.00     0.049 A 
ATOM     69  H   UNL     1      -6.268  12.560   6.320  1.00  0.00     0.167 HD
ATOM     70  C   UNL     1      -8.724  10.807   6.129  1.00  0.00     0.074 A 
ATOM     71  C   UNL     1      -8.675  11.948   5.219  1.00  0.00     0.031 C 
ATOM     72  C   UNL     1      -7.742  10.177   6.838  1.00  0.00     0.034 A 
BRANCH  59  73
ATOM     73  C   UNL     1      -4.326  13.521   4.122  1.00  0.00     0.023 A 
ATOM     74  C   UNL     1      -4.577  14.194   2.913  1.00  0.00     0.031 A 
ATOM     75  C   UNL     1      -4.158  14.349   5.253  1.00  0.00     0.131 A 
ATOM     76  C   UNL     1      -4.673  15.590   2.846  1.00  0.00     0.055 A 
ATOM     77  C   UNL     1      -4.316  15.740   5.201  1.00  0.00     0.041 A 
ATOM     78  F   UNL     1      -3.903  13.828   6.463  1.00  0.00    -0.206 F 
ATOM     79  C   UNL     1      -4.582  16.369   3.993  1.00  0.00     0.022 A 
BRANCH  76  80
ATOM     80  S   UNL     1      -4.948  16.409   1.251  1.00  0.00     0.124 S 
ATOM     81  O   UNL     1      -6.215  17.094   1.479  1.00  0.00    -0.237 OA
ATOM     82  O   UNL     1      -3.771  17.268   1.153  1.00  0.00    -0.237 OA
ATOM     83  O   UNL     1      -4.984  15.302   0.299  1.00  0.00    -0.744 OA
ENDBRANCH  76  80
ENDBRANCH  59  73
BRANCH  60  84
ATOM     84  C   UNL     1     -12.250  10.467   3.034  1.00  0.00     0.023 A 
ATOM     85  C   UNL     1     -12.309  10.586   1.633  1.00  0.00     0.031 A 
ATOM     86  C   UNL     1     -13.213  11.161   3.785  1.00  0.00     0.131 A 
ATOM     87  C   UNL     1     -13.258  11.422   1.030  1.00  0.00     0.055 A 
ATOM     88  C   UNL     1     -14.170  11.984   3.180  1.00  0.00     0.041 A 
ATOM     89  F   UNL     1     -13.192  11.115   5.126  1.00  0.00    -0.206 F 
ATOM     90  C   UNL     1     -14.186  12.129   1.796  1.00  0.00     0.022 A 
BRANCH  87  91
ATOM     91  S   UNL     1     -13.242  11.664  -0.767  1.00  0.00     0.124 S 
ATOM     92  O   UNL     1     -14.665  11.627  -1.100  1.00  0.00    -0.237 OA
ATOM     93  O   UNL     1     -12.601  12.969  -0.883  1.00  0.00    -0.237 OA
ATOM     94  O   UNL     1     -12.467  10.527  -1.255  1.00  0.00    -0.744 OA
ENDBRANCH  87  91
ENDBRANCH  60  84
BRANCH  72  95
ATOM     95  C   UNL     1      -8.065   8.911   7.596  1.00  0.00     0.023 A 
ATOM     96  C   UNL     1      -7.577   8.822   8.913  1.00  0.00     0.031 A 
ATOM     97  C   UNL     1      -8.587   7.741   7.015  1.00  0.00     0.131 A 
ATOM     98  C   UNL     1      -7.562   7.595   9.583  1.00  0.00     0.055 A 
ATOM     99  C   UNL     1      -8.645   6.532   7.718  1.00  0.00     0.041 A 
ATOM    100  F   UNL     1      -8.964   7.701   5.729  1.00  0.00    -0.206 F 
ATOM    101  C   UNL     1      -8.110   6.450   9.000  1.00  0.00     0.022 A 
BRANCH  98 102
ATOM    102  S   UNL     1      -6.654   7.428  11.142  1.00  0.00     0.124 S 
ATOM    103  O   UNL     1      -7.733   7.185  12.100  1.00  0.00    -0.237 OA
ATOM    104  O   UNL     1      -5.788   6.277  10.875  1.00  0.00    -0.237 OA
ATOM    105  O   UNL     1      -5.961   8.697  11.288  1.00  0.00    -0.744 OA
ENDBRANCH  98 102
ENDBRANCH  72  95
ENDBRANCH  46  47
ENDBRANCH  38  41
ENDBRANCH  36  37
ENDBRANCH  35  36
ENDBRANCH   1  35
TORSDOF 19
