REMARK SMILES CCSc1nc(CC(=O)N[C@@H](C(=O)NCCCCNC(=O)c2ccc(-c3c4nc(c(-c5cc(S(=O)(=O)[O-])ccc5F)c5ccc([nH]5)c(-c5cc(S(=O)(=O)[O-])ccc5F)c5nc(c(-c6cc(S(=O)(=O)[O-])ccc6F)c6ccc3[nH]6)C=C5)C=C4)cc2)C2=C(C)N=N[C@@H]2C)cs1
REMARK SMILES IDX 15 1 14 2 12 3 13 4 11 6 10 7 8 8 9 9 7 11 6 12 4 13 5 14
REMARK SMILES IDX 93 15 92 16 3 17 2 18 1 19 85 20 86 21 90 22 87 23 88 24
REMARK SMILES IDX 89 25 91 26 16 27 17 28 18 29 19 30 20 31 21 33 22 34 23 35
REMARK SMILES IDX 84 36 24 37 83 38 25 39 26 40 27 41 77 42 28 43 82 44 76 45
REMARK SMILES IDX 78 46 29 47 81 48 75 49 74 50 30 52 62 53 42 54 61 55 43 56
REMARK SMILES IDX 46 57 60 58 79 59 44 60 45 61 59 63 80 64 47 65 31 66 32 67
REMARK SMILES IDX 40 68 33 69 39 70 41 71 38 72 34 73 35 74 36 75 37 76 63 77
REMARK SMILES IDX 64 78 72 79 65 80 71 81 73 82 70 83 66 84 67 85 68 86 69 87
REMARK SMILES IDX 48 88 49 89 57 90 50 91 56 92 58 93 55 94 51 95 52 96 53 97
REMARK SMILES IDX 54 98
REMARK H PARENT 14 5 10 10 19 32 78 51 46 62
REMARK Flexibility Score: inf
ROOT
ATOM      1  C   UNL     1       5.109   3.033  -0.474  1.00  0.00     0.116 C 
ENDROOT
BRANCH   1   2
ATOM      2  N   UNL     1       4.489   2.423  -1.626  1.00  0.00    -0.354 N 
ATOM      3  C   UNL     1       4.027   1.144  -1.770  1.00  0.00     0.247 C 
ATOM      4  O   UNL     1       3.030   1.030  -2.494  1.00  0.00    -0.272 OA
ATOM      5  H   UNL     1       4.385   3.005  -2.413  1.00  0.00     0.163 HD
BRANCH   3   6
ATOM      6  C   UNL     1       4.648  -0.112  -1.026  1.00  0.00     0.202 C 
BRANCH   6   7
ATOM      7  N   UNL     1       6.029   0.067  -0.582  1.00  0.00    -0.340 N 
ATOM      8  C   UNL     1       6.534   0.181   0.684  1.00  0.00     0.226 C 
ATOM      9  O   UNL     1       7.720   0.506   0.797  1.00  0.00    -0.275 OA
ATOM     10  H   UNL     1       6.697   0.113  -1.304  1.00  0.00     0.164 HD
BRANCH   8  11
ATOM     11  C   UNL     1       5.690  -0.090   1.922  1.00  0.00     0.157 C 
BRANCH  11  12
ATOM     12  C   UNL     1       4.776   1.028   2.298  1.00  0.00     0.062 A 
ATOM     13  C   UNL     1       2.777   1.997   2.321  1.00  0.00     0.150 A 
ATOM     14  N   UNL     1       3.445   0.943   1.909  1.00  0.00    -0.234 NA
ATOM     15  S   UNL     1       3.693   3.147   3.205  1.00  0.00    -0.116 S 
ATOM     16  C   UNL     1       5.088   2.163   3.025  1.00  0.00     0.092 A 
BRANCH  13  17
ATOM     17  S   UNL     1       1.083   2.230   1.957  1.00  0.00    -0.096 SA
BRANCH  17  18
ATOM     18  C   UNL     1       0.533   0.539   1.587  1.00  0.00     0.074 C 
ATOM     19  C   UNL     1       0.747   0.169   0.131  1.00  0.00     0.016 C 
ENDBRANCH  17  18
ENDBRANCH  13  17
ENDBRANCH  11  12
ENDBRANCH   8  11
ENDBRANCH   6   7
BRANCH   6  20
ATOM     20  C   UNL     1       4.612  -1.364  -1.876  1.00  0.00     0.011 C 
ATOM     21  C   UNL     1       4.809  -2.651  -1.549  1.00  0.00     0.064 C 
ATOM     22  C   UNL     1       4.203  -1.416  -3.322  1.00  0.00     0.156 C 
ATOM     23  C   UNL     1       5.191  -3.269  -0.252  1.00  0.00     0.069 C 
ATOM     24  N   UNL     1       4.600  -3.510  -2.599  1.00  0.00    -0.160 NA
ATOM     25  N   UNL     1       4.248  -2.875  -3.624  1.00  0.00    -0.181 NA
ATOM     26  C   UNL     1       5.146  -0.718  -4.292  1.00  0.00     0.040 C 
ENDBRANCH   6  20
ENDBRANCH   3   6
ENDBRANCH   1   2
BRANCH   1  27
ATOM     27  C   UNL     1       6.248   3.986  -0.800  1.00  0.00     0.023 C 
BRANCH  27  28
ATOM     28  C   UNL     1       5.813   5.382  -1.242  1.00  0.00     0.023 C 
BRANCH  28  29
ATOM     29  C   UNL     1       4.864   6.121  -0.298  1.00  0.00     0.116 C 
BRANCH  29  30
ATOM     30  N   UNL     1       5.347   6.220   1.074  1.00  0.00    -0.352 N 
ATOM     31  C   UNL     1       5.334   7.312   1.916  1.00  0.00     0.251 C 
ATOM     32  H   UNL     1       5.734   5.397   1.450  1.00  0.00     0.163 HD
ATOM     33  O   UNL     1       5.839   7.241   3.030  1.00  0.00    -0.269 OA
BRANCH  31  34
ATOM     34  C   UNL     1       4.752   8.581   1.430  1.00  0.00     0.039 A 
ATOM     35  C   UNL     1       5.548   9.730   1.426  1.00  0.00     0.014 A 
ATOM     36  C   UNL     1       3.466   8.605   0.883  1.00  0.00     0.014 A 
ATOM     37  C   UNL     1       5.099  10.873   0.761  1.00  0.00     0.010 A 
ATOM     38  C   UNL     1       3.049   9.724   0.169  1.00  0.00     0.010 A 
ATOM     39  C   UNL     1       3.876  10.855   0.071  1.00  0.00    -0.014 A 
BRANCH  39  40
ATOM     40  C   UNL     1       3.473  11.970  -0.826  1.00  0.00     0.031 A 
ATOM     41  C   UNL     1       2.241  12.774  -0.529  1.00  0.00     0.074 A 
ATOM     42  C   UNL     1       4.160  12.179  -1.967  1.00  0.00     0.049 A 
ATOM     43  N   UNL     1       1.653  13.686  -1.259  1.00  0.00    -0.248 NA
ATOM     44  C   UNL     1       1.566  12.492   0.746  1.00  0.00     0.031 C 
ATOM     45  C   UNL     1       5.350  11.434  -2.388  1.00  0.00     0.029 A 
ATOM     46  N   UNL     1       3.945  13.063  -2.996  1.00  0.00    -0.354 N 
ATOM     47  C   UNL     1       0.531  14.081  -0.540  1.00  0.00     0.074 A 
ATOM     48  C   UNL     1       0.497  13.269   0.660  1.00  0.00     0.031 C 
ATOM     49  C   UNL     1       5.763  11.897  -3.578  1.00  0.00     0.029 A 
ATOM     50  C   UNL     1       4.843  12.934  -4.032  1.00  0.00     0.049 A 
ATOM     51  H   UNL     1       3.218  13.726  -2.993  1.00  0.00     0.167 HD
ATOM     52  C   UNL     1      -0.375  15.043  -0.844  1.00  0.00     0.034 A 
ATOM     53  C   UNL     1       4.903  13.560  -5.224  1.00  0.00     0.034 A 
ATOM     54  C   UNL     1      -0.321  15.850  -2.039  1.00  0.00     0.049 A 
ATOM     55  C   UNL     1       3.855  14.586  -5.564  1.00  0.00     0.074 A 
ATOM     56  C   UNL     1      -1.133  16.911  -2.402  1.00  0.00     0.029 A 
ATOM     57  N   UNL     1       0.588  15.675  -3.075  1.00  0.00    -0.354 N 
ATOM     58  N   UNL     1       2.832  14.988  -4.846  1.00  0.00    -0.248 NA
ATOM     59  C   UNL     1       3.966  15.237  -6.876  1.00  0.00     0.031 C 
ATOM     60  C   UNL     1      -0.758  17.333  -3.683  1.00  0.00     0.029 A 
ATOM     61  C   UNL     1       0.327  16.578  -4.096  1.00  0.00     0.049 A 
ATOM     62  H   UNL     1       1.311  15.007  -3.084  1.00  0.00     0.167 HD
ATOM     63  C   UNL     1       2.186  15.950  -5.616  1.00  0.00     0.074 A 
ATOM     64  C   UNL     1       2.942  16.078  -6.845  1.00  0.00     0.031 C 
ATOM     65  C   UNL     1       1.071  16.668  -5.330  1.00  0.00     0.034 A 
BRANCH  52  66
ATOM     66  C   UNL     1      -1.512  15.251   0.124  1.00  0.00     0.023 A 
ATOM     67  C   UNL     1      -1.288  15.698   1.438  1.00  0.00     0.031 A 
ATOM     68  C   UNL     1      -2.835  14.969  -0.259  1.00  0.00     0.131 A 
ATOM     69  C   UNL     1      -2.356  15.774   2.344  1.00  0.00     0.055 A 
ATOM     70  C   UNL     1      -3.905  15.121   0.625  1.00  0.00     0.041 A 
ATOM     71  F   UNL     1      -3.108  14.523  -1.496  1.00  0.00    -0.206 F 
ATOM     72  C   UNL     1      -3.667  15.510   1.940  1.00  0.00     0.022 A 
BRANCH  69  73
ATOM     73  S   UNL     1      -1.986  16.085   4.092  1.00  0.00     0.124 S 
ATOM     74  O   UNL     1      -1.101  14.967   4.410  1.00  0.00    -0.237 OA
ATOM     75  O   UNL     1      -1.363  17.403   4.052  1.00  0.00    -0.237 OA
ATOM     76  O   UNL     1      -3.298  16.034   4.734  1.00  0.00    -0.744 OA
ENDBRANCH  69  73
ENDBRANCH  52  66
BRANCH  53  77
ATOM     77  C   UNL     1       5.968  13.210  -6.204  1.00  0.00     0.023 A 
ATOM     78  C   UNL     1       6.968  14.134  -6.543  1.00  0.00     0.031 A 
ATOM     79  C   UNL     1       5.981  11.956  -6.840  1.00  0.00     0.131 A 
ATOM     80  C   UNL     1       7.922  13.803  -7.518  1.00  0.00     0.055 A 
ATOM     81  C   UNL     1       6.957  11.616  -7.778  1.00  0.00     0.041 A 
ATOM     82  F   UNL     1       5.050  11.035  -6.545  1.00  0.00    -0.206 F 
ATOM     83  C   UNL     1       7.930  12.547  -8.129  1.00  0.00     0.022 A 
BRANCH  80  84
ATOM     84  S   UNL     1       9.123  15.066  -8.021  1.00  0.00     0.124 S 
ATOM     85  O   UNL     1       8.251  16.127  -8.512  1.00  0.00    -0.237 OA
ATOM     86  O   UNL     1       9.820  15.336  -6.768  1.00  0.00    -0.237 OA
ATOM     87  O   UNL     1       9.921  14.389  -9.041  1.00  0.00    -0.744 OA
ENDBRANCH  80  84
ENDBRANCH  53  77
BRANCH  65  88
ATOM     88  C   UNL     1       0.619  17.663  -6.367  1.00  0.00     0.023 A 
ATOM     89  C   UNL     1       0.062  17.247  -7.588  1.00  0.00     0.031 A 
ATOM     90  C   UNL     1       0.757  19.043  -6.134  1.00  0.00     0.131 A 
ATOM     91  C   UNL     1      -0.299  18.201  -8.550  1.00  0.00     0.055 A 
ATOM     92  C   UNL     1       0.350  19.989  -7.075  1.00  0.00     0.041 A 
ATOM     93  F   UNL     1       1.286  19.491  -4.985  1.00  0.00    -0.206 F 
ATOM     94  C   UNL     1      -0.173  19.570  -8.295  1.00  0.00     0.022 A 
BRANCH  91  95
ATOM     95  S   UNL     1      -0.886  17.630 -10.169  1.00  0.00     0.124 S 
ATOM     96  O   UNL     1       0.286  16.928 -10.685  1.00  0.00    -0.237 OA
ATOM     97  O   UNL     1      -2.026  16.791  -9.813  1.00  0.00    -0.237 OA
ATOM     98  O   UNL     1      -1.225  18.868 -10.868  1.00  0.00    -0.744 OA
ENDBRANCH  91  95
ENDBRANCH  65  88
ENDBRANCH  39  40
ENDBRANCH  31  34
ENDBRANCH  29  30
ENDBRANCH  28  29
ENDBRANCH  27  28
ENDBRANCH   1  27
TORSDOF 20
