REMARK SMILES CCCCc1ncc(C[N@H+]2C[C@@H]3c4ccccc4OC[C@]3(C(=O)NCCCCNC(=O)c3ccc(-c4c5nc(c(-c6cc(S(=O)(=O)[O-])ccc6F)c6ccc([nH]6)c(-c6cc(S(=O)(=O)[O-])ccc6F)c6nc(c(-c7cc(S(=O)(=O)[O-])ccc7F)c7ccc4[nH]7)C=C6)C=C5)cc3)C2)[nH]1
REMARK SMILES IDX 25 1 24 2 22 3 23 4 21 6 10 7 11 8 95 9 12 11 13 12 20 13
REMARK SMILES IDX 14 14 18 15 19 16 15 17 17 18 16 19 9 20 8 21 5 22 6 23
REMARK SMILES IDX 96 24 7 25 4 27 3 28 2 29 1 30 26 31 27 32 28 33 29 34 30 35
REMARK SMILES IDX 31 37 32 38 33 39 94 40 34 41 93 42 35 43 36 44 37 45 87 46
REMARK SMILES IDX 38 47 92 48 86 49 88 50 39 51 91 52 85 53 84 54 40 56 72 57
REMARK SMILES IDX 52 58 71 59 53 60 56 61 70 62 89 63 54 64 55 65 69 67 90 68
REMARK SMILES IDX 57 69 41 70 42 71 50 72 43 73 49 74 51 75 48 76 44 77 45 78
REMARK SMILES IDX 46 79 47 80 73 81 74 82 82 83 75 84 81 85 83 86 80 87 76 88
REMARK SMILES IDX 77 89 78 90 79 91 58 92 59 93 67 94 60 95 66 96 68 97 65 98
REMARK SMILES IDX 61 99 62 100 63 101 64 102
REMARK H PARENT 24 5 10 10 96 26 29 36 88 55 56 66
REMARK Flexibility Score: inf
ROOT
ATOM      1  C   UNL     1      -4.242  -4.720   1.761  1.00  0.00     0.116 C 
ENDROOT
BRANCH   1   2
ATOM      2  N   UNL     1      -2.915  -4.739   1.162  1.00  0.00    -0.355 N 
ATOM      3  C   UNL     1      -2.267  -3.623   0.663  1.00  0.00     0.236 C 
ATOM      4  O   UNL     1      -1.037  -3.563   0.751  1.00  0.00    -0.274 OA
ATOM      5  H   UNL     1      -2.447  -5.603   1.109  1.00  0.00     0.163 HD
BRANCH   3   6
ATOM      6  C   UNL     1      -3.177  -2.535  -0.009  1.00  0.00     0.144 C 
ATOM      7  N   UNL     1      -4.152  -1.003   1.633  1.00  0.00    -0.328 N 
ATOM      8  C   UNL     1      -4.289  -0.331   0.357  1.00  0.00     0.272 C 
ATOM      9  C   UNL     1      -2.999  -1.885   1.458  1.00  0.00     0.284 C 
ATOM     10  H   UNL     1      -4.997  -1.528   1.858  1.00  0.00     0.348 HD
ATOM     11  C   UNL     1      -3.238  -1.018  -0.537  1.00  0.00     0.103 C 
ATOM     12  C   UNL     1      -3.569  -0.743  -1.990  1.00  0.00     0.004 A 
ATOM     13  C   UNL     1      -2.457  -3.068  -1.338  1.00  0.00     0.253 C 
ATOM     14  C   UNL     1      -3.769   0.556  -2.482  1.00  0.00     0.008 A 
ATOM     15  C   UNL     1      -3.596  -1.799  -2.889  1.00  0.00     0.123 A 
ATOM     16  O   UNL     1      -3.367  -3.067  -2.459  1.00  0.00    -0.492 OA
ATOM     17  C   UNL     1      -4.014   0.772  -3.841  1.00  0.00     0.001 A 
ATOM     18  C   UNL     1      -3.845  -1.597  -4.244  1.00  0.00     0.047 A 
ATOM     19  C   UNL     1      -4.048  -0.305  -4.723  1.00  0.00     0.004 A 
BRANCH   7  20
ATOM     20  C   UNL     1      -4.112  -0.141   2.817  1.00  0.00     0.319 C 
BRANCH  20  21
ATOM     21  C   UNL     1      -2.950   0.785   2.855  1.00  0.00     0.090 A 
ATOM     22  C   UNL     1      -0.824   1.413   2.893  1.00  0.00     0.106 A 
ATOM     23  N   UNL     1      -1.500   2.487   2.535  1.00  0.00    -0.241 NA
ATOM     24  N   UNL     1      -1.689   0.408   3.251  1.00  0.00    -0.341 N 
ATOM     25  C   UNL     1      -2.817   2.114   2.522  1.00  0.00     0.140 A 
ATOM     26  H   UNL     1      -1.449  -0.430   3.708  1.00  0.00     0.168 HD
BRANCH  22  27
ATOM     27  C   UNL     1       0.664   1.283   2.934  1.00  0.00     0.075 C 
BRANCH  27  28
ATOM     28  C   UNL     1       1.221  -0.103   2.588  1.00  0.00     0.008 C 
BRANCH  28  29
ATOM     29  C   UNL     1       0.919  -0.633   1.182  1.00  0.00    -0.003 C 
ATOM     30  C   UNL     1       1.426   0.241   0.049  1.00  0.00     0.004 C 
ENDBRANCH  28  29
ENDBRANCH  27  28
ENDBRANCH  22  27
ENDBRANCH  20  21
ENDBRANCH   7  20
ENDBRANCH   3   6
ENDBRANCH   1   2
BRANCH   1  31
ATOM     31  C   UNL     1      -5.023  -6.019   1.668  1.00  0.00     0.023 C 
BRANCH  31  32
ATOM     32  C   UNL     1      -4.279  -7.285   2.074  1.00  0.00     0.023 C 
BRANCH  32  33
ATOM     33  C   UNL     1      -3.437  -7.210   3.341  1.00  0.00     0.116 C 
BRANCH  33  34
ATOM     34  N   UNL     1      -4.192  -6.944   4.555  1.00  0.00    -0.352 N 
ATOM     35  C   UNL     1      -4.302  -7.709   5.696  1.00  0.00     0.251 C 
ATOM     36  H   UNL     1      -4.695  -6.097   4.563  1.00  0.00     0.163 HD
ATOM     37  O   UNL     1      -5.021  -7.339   6.620  1.00  0.00    -0.269 OA
BRANCH  35  38
ATOM     38  C   UNL     1      -3.598  -9.007   5.764  1.00  0.00     0.039 A 
ATOM     39  C   UNL     1      -2.244  -9.094   5.440  1.00  0.00     0.014 A 
ATOM     40  C   UNL     1      -4.331 -10.161   6.050  1.00  0.00     0.014 A 
ATOM     41  C   UNL     1      -1.688 -10.340   5.177  1.00  0.00     0.010 A 
ATOM     42  C   UNL     1      -3.734 -11.415   5.890  1.00  0.00     0.010 A 
ATOM     43  C   UNL     1      -2.429 -11.517   5.386  1.00  0.00    -0.014 A 
BRANCH  43  44
ATOM     44  C   UNL     1      -1.815 -12.835   5.071  1.00  0.00     0.031 A 
ATOM     45  C   UNL     1      -2.395 -13.730   4.007  1.00  0.00     0.074 A 
ATOM     46  C   UNL     1      -0.688 -13.198   5.716  1.00  0.00     0.049 A 
ATOM     47  N   UNL     1      -1.973 -14.900   3.599  1.00  0.00    -0.248 NA
ATOM     48  C   UNL     1      -3.603 -13.259   3.311  1.00  0.00     0.031 C 
ATOM     49  C   UNL     1      -0.035 -12.404   6.757  1.00  0.00     0.029 A 
ATOM     50  N   UNL     1       0.119 -14.299   5.581  1.00  0.00    -0.354 N 
ATOM     51  C   UNL     1      -2.871 -15.315   2.622  1.00  0.00     0.074 A 
ATOM     52  C   UNL     1      -3.879 -14.284   2.514  1.00  0.00     0.031 C 
ATOM     53  C   UNL     1       1.104 -13.007   7.118  1.00  0.00     0.029 A 
ATOM     54  C   UNL     1       1.222 -14.275   6.404  1.00  0.00     0.049 A 
ATOM     55  H   UNL     1      -0.071 -15.034   4.955  1.00  0.00     0.167 HD
ATOM     56  C   UNL     1      -2.847 -16.446   1.876  1.00  0.00     0.034 A 
ATOM     57  C   UNL     1       2.209 -15.175   6.583  1.00  0.00     0.034 A 
ATOM     58  C   UNL     1      -1.817 -17.450   1.974  1.00  0.00     0.049 A 
ATOM     59  C   UNL     1       2.197 -16.436   5.763  1.00  0.00     0.074 A 
ATOM     60  C   UNL     1      -1.687 -18.614   1.236  1.00  0.00     0.029 A 
ATOM     61  N   UNL     1      -0.743 -17.413   2.852  1.00  0.00    -0.354 N 
ATOM     62  N   UNL     1       1.355 -16.796   4.822  1.00  0.00    -0.248 NA
ATOM     63  C   UNL     1       3.256 -17.418   6.027  1.00  0.00     0.031 C 
ATOM     64  C   UNL     1      -0.570 -19.307   1.705  1.00  0.00     0.029 A 
ATOM     65  C   UNL     1       0.037 -18.547   2.692  1.00  0.00     0.049 A 
ATOM     66  H   UNL     1      -0.562 -16.688   3.493  1.00  0.00     0.167 HD
ATOM     67  C   UNL     1       1.786 -18.042   4.378  1.00  0.00     0.074 A 
ATOM     68  C   UNL     1       2.984 -18.357   5.129  1.00  0.00     0.031 C 
ATOM     69  C   UNL     1       1.232 -18.853   3.443  1.00  0.00     0.034 A 
BRANCH  56  70
ATOM     70  C   UNL     1      -3.947 -16.681   0.869  1.00  0.00     0.023 A 
ATOM     71  C   UNL     1      -4.816 -17.779   1.019  1.00  0.00     0.031 A 
ATOM     72  C   UNL     1      -4.045 -15.912  -0.304  1.00  0.00     0.131 A 
ATOM     73  C   UNL     1      -5.720 -18.099  -0.003  1.00  0.00     0.055 A 
ATOM     74  C   UNL     1      -4.973 -16.213  -1.303  1.00  0.00     0.041 A 
ATOM     75  F   UNL     1      -3.240 -14.854  -0.495  1.00  0.00    -0.206 F 
ATOM     76  C   UNL     1      -5.806 -17.319  -1.160  1.00  0.00     0.022 A 
BRANCH  73  77
ATOM     77  S   UNL     1      -6.773 -19.572   0.100  1.00  0.00     0.124 S 
ATOM     78  O   UNL     1      -8.110 -18.991  -0.000  1.00  0.00    -0.237 OA
ATOM     79  O   UNL     1      -6.338 -20.340  -1.063  1.00  0.00    -0.237 OA
ATOM     80  O   UNL     1      -6.444 -20.149   1.398  1.00  0.00    -0.744 OA
ENDBRANCH  73  77
ENDBRANCH  56  70
BRANCH  57  81
ATOM     81  C   UNL     1       3.292 -14.873   7.564  1.00  0.00     0.023 A 
ATOM     82  C   UNL     1       2.994 -14.656   8.923  1.00  0.00     0.031 A 
ATOM     83  C   UNL     1       4.613 -14.662   7.137  1.00  0.00     0.131 A 
ATOM     84  C   UNL     1       3.977 -14.152   9.782  1.00  0.00     0.055 A 
ATOM     85  C   UNL     1       5.611 -14.237   8.016  1.00  0.00     0.041 A 
ATOM     86  F   UNL     1       4.945 -14.844   5.850  1.00  0.00    -0.206 F 
ATOM     87  C   UNL     1       5.289 -13.957   9.341  1.00  0.00     0.022 A 
BRANCH  84  88
ATOM     88  S   UNL     1       3.543 -13.573  11.447  1.00  0.00     0.124 S 
ATOM     89  O   UNL     1       4.313 -14.478  12.293  1.00  0.00    -0.237 OA
ATOM     90  O   UNL     1       4.009 -12.188  11.413  1.00  0.00    -0.237 OA
ATOM     91  O   UNL     1       2.094 -13.734  11.500  1.00  0.00    -0.744 OA
ENDBRANCH  84  88
ENDBRANCH  57  81
BRANCH  69  92
ATOM     92  C   UNL     1       1.889 -20.183   3.168  1.00  0.00     0.023 A 
ATOM     93  C   UNL     1       2.432 -20.454   1.898  1.00  0.00     0.031 A 
ATOM     94  C   UNL     1       1.840 -21.226   4.109  1.00  0.00     0.131 A 
ATOM     95  C   UNL     1       2.867 -21.748   1.589  1.00  0.00     0.055 A 
ATOM     96  C   UNL     1       2.317 -22.503   3.811  1.00  0.00     0.041 A 
ATOM     97  F   UNL     1       1.323 -21.017   5.331  1.00  0.00    -0.206 F 
ATOM     98  C   UNL     1       2.819 -22.772   2.541  1.00  0.00     0.022 A 
BRANCH  95  99
ATOM     99  S   UNL     1       3.429 -22.174  -0.082  1.00  0.00     0.124 S 
ATOM    100  O   UNL     1       4.803 -22.606   0.163  1.00  0.00    -0.237 OA
ATOM    101  O   UNL     1       2.499 -23.235  -0.459  1.00  0.00    -0.237 OA
ATOM    102  O   UNL     1       3.295 -20.927  -0.828  1.00  0.00    -0.744 OA
ENDBRANCH  95  99
ENDBRANCH  69  92
ENDBRANCH  43  44
ENDBRANCH  35  38
ENDBRANCH  33  34
ENDBRANCH  32  33
ENDBRANCH  31  32
ENDBRANCH   1  31
TORSDOF 19
