REMARK SMILES CC[C@@](C)(NC(=O)c1cc(C)c(Br)s1)C(=O)NCCCCNC(=O)c1ccc(-c2c3nc(c(-c4cc(S(=O)(=O)[O-])ccc4F)c4ccc([nH]4)c(-c4cc(S(=O)(=O)[O-])ccc4F)c4nc(c(-c5cc(S(=O)(=O)[O-])ccc5F)c5ccc2[nH]5)C=C4)C=C3)cc1
REMARK SMILES IDX 20 1 19 2 18 3 17 4 15 5 16 6 3 8 4 9 2 10 1 11 5 12 6 13
REMARK SMILES IDX 7 15 8 16 9 17 14 18 10 19 12 20 11 21 13 22 21 23 22 24
REMARK SMILES IDX 23 25 24 27 25 28 26 29 87 30 27 31 86 32 28 33 29 34 30 35
REMARK SMILES IDX 80 36 31 37 85 38 79 39 81 40 32 41 84 42 78 43 77 44 33 46
REMARK SMILES IDX 65 47 45 48 64 49 46 50 49 51 63 52 82 53 47 54 48 55 62 57
REMARK SMILES IDX 83 58 50 59 34 60 35 61 43 62 36 63 42 64 44 65 41 66 37 67
REMARK SMILES IDX 38 68 39 69 40 70 66 71 67 72 75 73 68 74 74 75 76 76 73 77
REMARK SMILES IDX 69 78 70 79 71 80 72 81 51 82 52 83 60 84 53 85 59 86 61 87
REMARK SMILES IDX 58 88 54 89 55 90 56 91 57 92
REMARK H PARENT 17 7 5 14 22 26 81 45 49 56
REMARK Flexibility Score: inf
ROOT
ATOM      1  C   UNL     1       3.677   3.958   5.450  1.00  0.00     0.023 C 
ENDROOT
BRANCH   1   2
ATOM      2  C   UNL     1       2.272   3.943   4.827  1.00  0.00     0.023 C 
BRANCH   2   3
ATOM      3  C   UNL     1       2.012   4.262   3.337  1.00  0.00     0.116 C 
BRANCH   3   4
ATOM      4  N   UNL     1       2.620   3.456   2.280  1.00  0.00    -0.354 N 
ATOM      5  C   UNL     1       2.289   2.281   1.640  1.00  0.00     0.245 C 
ATOM      6  O   UNL     1       3.005   1.958   0.688  1.00  0.00    -0.272 OA
ATOM      7  H   UNL     1       3.462   3.843   1.948  1.00  0.00     0.163 HD
BRANCH   5   8
ATOM      8  C   UNL     1       1.052   1.434   2.033  1.00  0.00     0.116 C 
ATOM      9  C   UNL     1      -0.163   2.249   1.519  1.00  0.00     0.045 C 
BRANCH   8  10
ATOM     10  C   UNL     1       0.946   0.013   1.395  1.00  0.00     0.035 C 
ATOM     11  C   UNL     1       1.036  -0.119  -0.121  1.00  0.00     0.007 C 
ENDBRANCH   8  10
BRANCH   8  12
ATOM     12  N   UNL     1       0.959   1.240   3.503  1.00  0.00    -0.337 N 
ATOM     13  C   UNL     1       1.739   0.487   4.374  1.00  0.00     0.262 C 
ATOM     14  H   UNL     1       0.220   1.728   3.934  1.00  0.00     0.164 HD
ATOM     15  O   UNL     1       1.119   0.051   5.351  1.00  0.00    -0.268 OA
BRANCH  13  16
ATOM     16  C   UNL     1       3.184   0.291   4.216  1.00  0.00     0.093 A 
ATOM     17  C   UNL     1       4.160   1.061   3.622  1.00  0.00     0.030 A 
ATOM     18  S   UNL     1       3.968  -1.011   5.040  1.00  0.00    -0.123 S 
ATOM     19  C   UNL     1       5.511   0.643   3.796  1.00  0.00    -0.025 A 
ATOM     20  C   UNL     1       5.522  -0.476   4.590  1.00  0.00     0.074 A 
ATOM     21  C   UNL     1       6.656   1.413   3.216  1.00  0.00     0.046 C 
ATOM     22  Br  UNL     1       7.091  -1.321   5.179  1.00  0.00    -0.039 Br
ENDBRANCH  13  16
ENDBRANCH   8  12
ENDBRANCH   5   8
ENDBRANCH   3   4
ENDBRANCH   2   3
ENDBRANCH   1   2
BRANCH   1  23
ATOM     23  C   UNL     1       4.560   5.130   5.092  1.00  0.00     0.116 C 
BRANCH  23  24
ATOM     24  N   UNL     1       4.099   6.397   5.670  1.00  0.00    -0.352 N 
ATOM     25  C   UNL     1       4.674   7.649   5.509  1.00  0.00     0.251 C 
ATOM     26  H   UNL     1       3.292   6.354   6.233  1.00  0.00     0.163 HD
ATOM     27  O   UNL     1       4.502   8.534   6.349  1.00  0.00    -0.269 OA
BRANCH  25  28
ATOM     28  C   UNL     1       5.484   7.889   4.305  1.00  0.00     0.039 A 
ATOM     29  C   UNL     1       6.637   8.678   4.279  1.00  0.00     0.014 A 
ATOM     30  C   UNL     1       5.066   7.218   3.165  1.00  0.00     0.014 A 
ATOM     31  C   UNL     1       7.376   8.725   3.097  1.00  0.00     0.010 A 
ATOM     32  C   UNL     1       5.943   7.016   2.148  1.00  0.00     0.010 A 
ATOM     33  C   UNL     1       7.013   7.880   2.036  1.00  0.00    -0.014 A 
BRANCH  33  34
ATOM     34  C   UNL     1       7.729   7.804   0.776  1.00  0.00     0.031 A 
ATOM     35  C   UNL     1       9.159   7.468   0.910  1.00  0.00     0.074 A 
ATOM     36  C   UNL     1       7.085   7.802  -0.415  1.00  0.00     0.049 A 
ATOM     37  N   UNL     1      10.144   8.288   0.786  1.00  0.00    -0.248 NA
ATOM     38  C   UNL     1       9.548   6.145   1.421  1.00  0.00     0.031 C 
ATOM     39  C   UNL     1       5.640   7.860  -0.685  1.00  0.00     0.029 A 
ATOM     40  N   UNL     1       7.600   7.622  -1.657  1.00  0.00    -0.354 N 
ATOM     41  C   UNL     1      11.292   7.524   0.924  1.00  0.00     0.074 A 
ATOM     42  C   UNL     1      10.870   6.297   1.547  1.00  0.00     0.031 C 
ATOM     43  C   UNL     1       5.397   7.476  -1.957  1.00  0.00     0.029 A 
ATOM     44  C   UNL     1       6.666   7.307  -2.641  1.00  0.00     0.049 A 
ATOM     45  H   UNL     1       8.562   7.706  -1.848  1.00  0.00     0.167 HD
ATOM     46  C   UNL     1      12.434   7.873   0.270  1.00  0.00     0.034 A 
ATOM     47  C   UNL     1       6.920   6.921  -3.922  1.00  0.00     0.034 A 
ATOM     48  C   UNL     1      12.303   9.189  -0.324  1.00  0.00     0.049 A 
ATOM     49  C   UNL     1       8.271   7.456  -4.247  1.00  0.00     0.074 A 
ATOM     50  C   UNL     1      12.027  10.448   0.176  1.00  0.00     0.029 A 
ATOM     51  N   UNL     1      12.021   9.256  -1.673  1.00  0.00    -0.354 N 
ATOM     52  N   UNL     1       8.524   8.738  -4.297  1.00  0.00    -0.248 NA
ATOM     53  C   UNL     1       9.431   6.620  -3.963  1.00  0.00     0.031 C 
ATOM     54  C   UNL     1      11.118  11.019  -0.764  1.00  0.00     0.029 A 
ATOM     55  C   UNL     1      10.976  10.134  -1.837  1.00  0.00     0.049 A 
ATOM     56  H   UNL     1      12.485   8.764  -2.389  1.00  0.00     0.167 HD
ATOM     57  C   UNL     1       9.716   8.900  -3.603  1.00  0.00     0.074 A 
ATOM     58  C   UNL     1      10.284   7.552  -3.520  1.00  0.00     0.031 C 
ATOM     59  C   UNL     1       9.982  10.040  -2.895  1.00  0.00     0.034 A 
BRANCH  46  60
ATOM     60  C   UNL     1      13.523   6.927  -0.162  1.00  0.00     0.023 A 
ATOM     61  C   UNL     1      14.677   7.503  -0.726  1.00  0.00     0.031 A 
ATOM     62  C   UNL     1      13.387   5.531  -0.317  1.00  0.00     0.131 A 
ATOM     63  C   UNL     1      15.568   6.732  -1.487  1.00  0.00     0.055 A 
ATOM     64  C   UNL     1      14.316   4.755  -1.014  1.00  0.00     0.041 A 
ATOM     65  F   UNL     1      12.309   4.858   0.100  1.00  0.00    -0.206 F 
ATOM     66  C   UNL     1      15.397   5.359  -1.634  1.00  0.00     0.022 A 
BRANCH  63  67
ATOM     67  S   UNL     1      16.847   7.595  -2.435  1.00  0.00     0.124 S 
ATOM     68  O   UNL     1      16.053   8.551  -3.199  1.00  0.00    -0.237 OA
ATOM     69  O   UNL     1      17.682   8.150  -1.375  1.00  0.00    -0.237 OA
ATOM     70  O   UNL     1      17.462   6.527  -3.220  1.00  0.00    -0.744 OA
ENDBRANCH  63  67
ENDBRANCH  46  60
BRANCH  47  71
ATOM     71  C   UNL     1       6.197   5.872  -4.704  1.00  0.00     0.023 A 
ATOM     72  C   UNL     1       6.294   5.728  -6.107  1.00  0.00     0.031 A 
ATOM     73  C   UNL     1       5.549   4.820  -4.013  1.00  0.00     0.131 A 
ATOM     74  C   UNL     1       5.757   4.581  -6.750  1.00  0.00     0.055 A 
ATOM     75  C   UNL     1       5.022   3.694  -4.651  1.00  0.00     0.041 A 
ATOM     76  F   UNL     1       5.478   4.808  -2.672  1.00  0.00    -0.206 F 
ATOM     77  C   UNL     1       5.132   3.565  -6.024  1.00  0.00     0.022 A 
BRANCH  74  78
ATOM     78  S   UNL     1       5.938   4.341  -8.552  1.00  0.00     0.124 S 
ATOM     79  O   UNL     1       5.067   5.376  -9.095  1.00  0.00    -0.237 OA
ATOM     80  O   UNL     1       7.371   4.526  -8.752  1.00  0.00    -0.237 OA
ATOM     81  O   UNL     1       5.467   2.971  -8.765  1.00  0.00    -0.744 OA
ENDBRANCH  74  78
ENDBRANCH  47  71
BRANCH  59  82
ATOM     82  C   UNL     1       9.050  11.232  -3.061  1.00  0.00     0.023 A 
ATOM     83  C   UNL     1       7.656  11.208  -2.818  1.00  0.00     0.031 A 
ATOM     84  C   UNL     1       9.633  12.478  -3.347  1.00  0.00     0.131 A 
ATOM     85  C   UNL     1       6.903  12.399  -2.882  1.00  0.00     0.055 A 
ATOM     86  C   UNL     1       8.890  13.658  -3.383  1.00  0.00     0.041 A 
ATOM     87  F   UNL     1      10.957  12.578  -3.557  1.00  0.00    -0.206 F 
ATOM     88  C   UNL     1       7.519  13.622  -3.158  1.00  0.00     0.022 A 
BRANCH  85  89
ATOM     89  S   UNL     1       5.097  12.372  -2.625  1.00  0.00     0.124 S 
ATOM     90  O   UNL     1       4.644  11.297  -3.499  1.00  0.00    -0.237 OA
ATOM     91  O   UNL     1       4.982  12.120  -1.191  1.00  0.00    -0.237 OA
ATOM     92  O   UNL     1       4.675  13.712  -3.040  1.00  0.00    -0.744 OA
ENDBRANCH  85  89
ENDBRANCH  59  82
ENDBRANCH  33  34
ENDBRANCH  25  28
ENDBRANCH  23  24
ENDBRANCH   1  23
TORSDOF 17
