REMARK SMILES O=C(NCCCCNC(=O)[C@H]1CCCN(C(=O)c2cc(Br)ccc2Cl)C1)c1ccc(-c2c3nc(c(-c4cc(S(=O)(=O)[O-])ccc4F)c4ccc([nH]4)c(-c4cc(S(=O)(=O)[O-])ccc4F)c4nc(c(-c5cc(S(=O)(=O)[O-])ccc5F)c5ccc2[nH]5)C=C4)C=C3)cc1
REMARK SMILES IDX 5 1 4 2 3 3 1 4 2 5 27 7 28 8 89 9 29 10 88 11 30 12 31 13
REMARK SMILES IDX 32 14 82 15 33 16 87 17 81 18 83 19 34 20 86 21 80 22 79 23
REMARK SMILES IDX 35 25 67 26 47 27 66 28 48 29 51 30 65 31 84 32 49 33 50 34
REMARK SMILES IDX 64 36 85 37 52 38 36 39 37 40 45 41 38 42 44 43 46 44 43 45
REMARK SMILES IDX 39 46 40 47 41 48 42 49 68 50 69 51 77 52 70 53 76 54 78 55
REMARK SMILES IDX 75 56 71 57 72 58 73 59 74 60 53 61 54 62 62 63 55 64 61 65
REMARK SMILES IDX 63 66 60 67 56 68 57 69 58 70 59 71 6 72 7 73 8 74 9 75
REMARK SMILES IDX 10 77 11 78 12 79 26 80 13 81 15 82 14 83 16 84 17 85 18 86
REMARK SMILES IDX 19 87 24 88 20 89 23 90 25 91 21 92 22 93
REMARK H PARENT 3 6 83 24 51 35 8 76
REMARK Flexibility Score: inf
ROOT
ATOM      1  C   UNL     1       5.916  -4.226  10.513  1.00  0.00     0.023 C 
ENDROOT
BRANCH   1   2
ATOM      2  C   UNL     1       4.593  -4.626  11.153  1.00  0.00     0.116 C 
BRANCH   2   3
ATOM      3  N   UNL     1       4.508  -6.050  11.436  1.00  0.00    -0.352 N 
ATOM      4  O   UNL     1       4.143  -7.883  12.696  1.00  0.00    -0.269 OA
ATOM      5  C   UNL     1       4.026  -6.672  12.563  1.00  0.00     0.251 C 
ATOM      6  H   UNL     1       4.839  -6.648  10.727  1.00  0.00     0.163 HD
BRANCH   5   7
ATOM      7  C   UNL     1       3.392  -5.855  13.618  1.00  0.00     0.039 A 
ATOM      8  C   UNL     1       2.419  -4.905  13.293  1.00  0.00     0.014 A 
ATOM      9  C   UNL     1       3.796  -6.034  14.943  1.00  0.00     0.014 A 
ATOM     10  C   UNL     1       1.933  -4.052  14.277  1.00  0.00     0.010 A 
ATOM     11  C   UNL     1       3.256  -5.221  15.940  1.00  0.00     0.010 A 
ATOM     12  C   UNL     1       2.339  -4.209  15.610  1.00  0.00    -0.014 A 
BRANCH  12  13
ATOM     13  C   UNL     1       1.766  -3.345  16.669  1.00  0.00     0.031 A 
ATOM     14  C   UNL     1       2.635  -2.382  17.424  1.00  0.00     0.074 A 
ATOM     15  C   UNL     1       0.459  -3.466  16.968  1.00  0.00     0.049 A 
ATOM     16  N   UNL     1       2.338  -1.630  18.451  1.00  0.00    -0.248 NA
ATOM     17  C   UNL     1       4.027  -2.263  16.970  1.00  0.00     0.031 C 
ATOM     18  C   UNL     1      -0.476  -4.371  16.295  1.00  0.00     0.029 A 
ATOM     19  N   UNL     1      -0.304  -2.845  17.922  1.00  0.00    -0.354 N 
ATOM     20  C   UNL     1       3.510  -0.961  18.785  1.00  0.00     0.074 A 
ATOM     21  C   UNL     1       4.530  -1.426  17.866  1.00  0.00     0.031 C 
ATOM     22  C   UNL     1      -1.685  -4.251  16.861  1.00  0.00     0.029 A 
ATOM     23  C   UNL     1      -1.595  -3.313  17.974  1.00  0.00     0.049 A 
ATOM     24  H   UNL     1       0.038  -2.134  18.511  1.00  0.00     0.167 HD
ATOM     25  C   UNL     1       3.709  -0.044  19.766  1.00  0.00     0.034 A 
ATOM     26  C   UNL     1      -2.584  -3.058  18.851  1.00  0.00     0.034 A 
ATOM     27  C   UNL     1       2.673   0.395  20.672  1.00  0.00     0.049 A 
ATOM     28  C   UNL     1      -2.332  -2.083  19.965  1.00  0.00     0.074 A 
ATOM     29  C   UNL     1       2.744   1.350  21.671  1.00  0.00     0.029 A 
ATOM     30  N   UNL     1       1.377  -0.110  20.701  1.00  0.00    -0.354 N 
ATOM     31  N   UNL     1      -1.226  -1.438  20.258  1.00  0.00    -0.248 NA
ATOM     32  C   UNL     1      -3.457  -1.796  20.863  1.00  0.00     0.031 C 
ATOM     33  C   UNL     1       1.519   1.371  22.348  1.00  0.00     0.029 A 
ATOM     34  C   UNL     1       0.654   0.486  21.724  1.00  0.00     0.049 A 
ATOM     35  H   UNL     1       1.023  -0.791  20.085  1.00  0.00     0.167 HD
ATOM     36  C   UNL     1      -1.529  -0.650  21.362  1.00  0.00     0.074 A 
ATOM     37  C   UNL     1      -2.921  -0.900  21.681  1.00  0.00     0.031 C 
ATOM     38  C   UNL     1      -0.730   0.212  22.041  1.00  0.00     0.034 A 
BRANCH  25  39
ATOM     39  C   UNL     1       5.112   0.494  19.936  1.00  0.00     0.023 A 
ATOM     40  C   UNL     1       5.762   1.211  18.916  1.00  0.00     0.031 A 
ATOM     41  C   UNL     1       5.831   0.240  21.118  1.00  0.00     0.131 A 
ATOM     42  C   UNL     1       7.113   1.563  19.057  1.00  0.00     0.055 A 
ATOM     43  C   UNL     1       7.149   0.672  21.288  1.00  0.00     0.041 A 
ATOM     44  F   UNL     1       5.274  -0.455  22.122  1.00  0.00    -0.206 F 
ATOM     45  C   UNL     1       7.805   1.320  20.246  1.00  0.00     0.022 A 
BRANCH  42  46
ATOM     46  S   UNL     1       8.003   2.179  17.600  1.00  0.00     0.124 S 
ATOM     47  O   UNL     1       7.742   1.122  16.624  1.00  0.00    -0.237 OA
ATOM     48  O   UNL     1       7.348   3.457  17.348  1.00  0.00    -0.237 OA
ATOM     49  O   UNL     1       9.389   2.264  18.055  1.00  0.00    -0.744 OA
ENDBRANCH  42  46
ENDBRANCH  25  39
BRANCH  26  50
ATOM     50  C   UNL     1      -3.873  -3.790  18.726  1.00  0.00     0.023 A 
ATOM     51  C   UNL     1      -5.048  -3.136  18.328  1.00  0.00     0.031 A 
ATOM     52  C   UNL     1      -3.930  -5.176  18.964  1.00  0.00     0.131 A 
ATOM     53  C   UNL     1      -6.237  -3.869  18.193  1.00  0.00     0.055 A 
ATOM     54  C   UNL     1      -5.105  -5.906  18.788  1.00  0.00     0.041 A 
ATOM     55  F   UNL     1      -2.827  -5.847  19.332  1.00  0.00    -0.206 F 
ATOM     56  C   UNL     1      -6.271  -5.250  18.405  1.00  0.00     0.022 A 
BRANCH  53  57
ATOM     57  S   UNL     1      -7.758  -2.983  17.758  1.00  0.00     0.124 S 
ATOM     58  O   UNL     1      -7.904  -2.071  18.887  1.00  0.00    -0.237 OA
ATOM     59  O   UNL     1      -7.401  -2.373  16.482  1.00  0.00    -0.237 OA
ATOM     60  O   UNL     1      -8.760  -4.044  17.679  1.00  0.00    -0.744 OA
ENDBRANCH  53  57
ENDBRANCH  26  50
BRANCH  38  61
ATOM     61  C   UNL     1      -1.361   0.985  23.170  1.00  0.00     0.023 A 
ATOM     62  C   UNL     1      -1.722   0.371  24.381  1.00  0.00     0.031 A 
ATOM     63  C   UNL     1      -1.587   2.366  23.031  1.00  0.00     0.131 A 
ATOM     64  C   UNL     1      -2.320   1.132  25.396  1.00  0.00     0.055 A 
ATOM     65  C   UNL     1      -2.139   3.127  24.061  1.00  0.00     0.041 A 
ATOM     66  F   UNL     1      -1.263   3.000  21.892  1.00  0.00    -0.206 F 
ATOM     67  C   UNL     1      -2.515   2.509  25.250  1.00  0.00     0.022 A 
BRANCH  64  68
ATOM     68  S   UNL     1      -2.889   0.293  26.900  1.00  0.00     0.124 S 
ATOM     69  O   UNL     1      -3.915  -0.603  26.376  1.00  0.00    -0.237 OA
ATOM     70  O   UNL     1      -1.670  -0.346  27.385  1.00  0.00    -0.237 OA
ATOM     71  O   UNL     1      -3.388   1.385  27.735  1.00  0.00    -0.744 OA
ENDBRANCH  64  68
ENDBRANCH  38  61
ENDBRANCH  12  13
ENDBRANCH   5   7
ENDBRANCH   2   3
ENDBRANCH   1   2
BRANCH   1  72
ATOM     72  C   UNL     1       6.265  -4.972   9.227  1.00  0.00     0.023 C 
BRANCH  72  73
ATOM     73  C   UNL     1       5.242  -4.822   8.100  1.00  0.00     0.116 C 
BRANCH  73  74
ATOM     74  N   UNL     1       5.287  -3.501   7.501  1.00  0.00    -0.356 N 
ATOM     75  C   UNL     1       5.839  -3.057   6.338  1.00  0.00     0.224 C 
ATOM     76  H   UNL     1       4.840  -2.801   8.030  1.00  0.00     0.163 HD
ATOM     77  O   UNL     1       5.761  -1.851   6.094  1.00  0.00    -0.275 OA
BRANCH  75  78
ATOM     78  C   UNL     1       6.500  -3.996   5.337  1.00  0.00     0.098 C 
ATOM     79  C   UNL     1       7.709  -4.752   5.915  1.00  0.00     0.017 C 
ATOM     80  C   UNL     1       5.444  -4.876   4.656  1.00  0.00     0.133 C 
ATOM     81  C   UNL     1       8.194  -5.889   5.021  1.00  0.00     0.022 C 
ATOM     82  N   UNL     1       6.064  -5.937   3.864  1.00  0.00    -0.338 N 
ATOM     83  C   UNL     1       7.024  -6.762   4.592  1.00  0.00     0.120 C 
BRANCH  82  84
ATOM     84  C   UNL     1       5.807  -6.012   2.500  1.00  0.00     0.255 C 
ATOM     85  O   UNL     1       5.079  -5.241   1.881  1.00  0.00    -0.269 OA
BRANCH  84  86
ATOM     86  C   UNL     1       6.513  -7.037   1.716  1.00  0.00     0.059 A 
ATOM     87  C   UNL     1       7.599  -6.611   0.940  1.00  0.00     0.031 A 
ATOM     88  C   UNL     1       6.133  -8.382   1.741  1.00  0.00     0.053 A 
ATOM     89  C   UNL     1       8.327  -7.551   0.217  1.00  0.00     0.018 A 
ATOM     90  C   UNL     1       6.879  -9.316   1.017  1.00  0.00     0.022 A 
ATOM     91  Cl  UNL     1       4.788  -8.949   2.659  1.00  0.00    -0.083 Cl
ATOM     92  Br  UNL     1       9.806  -6.997  -0.820  1.00  0.00    -0.051 Br
ATOM     93  C   UNL     1       7.979  -8.902   0.259  1.00  0.00     0.017 A 
ENDBRANCH  84  86
ENDBRANCH  82  84
ENDBRANCH  75  78
ENDBRANCH  73  74
ENDBRANCH  72  73
ENDBRANCH   1  72
TORSDOF 16
