REMARK SMILES CC(C)[C@H](NS(=O)(=O)c1cccc(F)c1)C(=O)NCCCCNC(=O)c1ccc(-c2c3nc(c(-c4cc(S(=O)(=O)[O-])ccc4F)c4ccc([nH]4)c(-c4cc(S(=O)(=O)[O-])ccc4F)c4nc(c(-c5cc(S(=O)(=O)[O-])ccc5F)c5ccc2[nH]5)C=C4)C=C3)cc1
REMARK SMILES IDX 20 1 19 2 18 3 16 4 17 5 4 7 2 8 1 9 3 10 5 11 6 13 7 14
REMARK SMILES IDX 8 15 9 16 10 17 15 18 11 19 13 20 12 21 14 22 21 23 22 24
REMARK SMILES IDX 23 25 24 26 25 28 26 29 27 30 88 31 28 32 87 33 29 34 30 35
REMARK SMILES IDX 31 36 81 37 32 38 86 39 80 40 82 41 33 42 85 43 79 44 78 45
REMARK SMILES IDX 34 47 66 48 46 49 65 50 47 51 50 52 64 53 83 54 48 55 49 56
REMARK SMILES IDX 63 58 84 59 51 60 35 61 36 62 44 63 37 64 43 65 45 66 42 67
REMARK SMILES IDX 38 68 39 69 40 70 41 71 67 72 68 73 76 74 69 75 75 76 77 77
REMARK SMILES IDX 74 78 70 79 71 80 72 81 73 82 52 83 53 84 61 85 54 86 60 87
REMARK SMILES IDX 62 88 59 89 55 90 56 91 57 92 58 93
REMARK H PARENT 18 6 5 12 23 27 82 46 50 57
REMARK Flexibility Score: inf
ROOT
ATOM      1  C   UNL     1       1.186   2.601  -4.148  1.00  0.00     0.023 C 
ENDROOT
BRANCH   1   2
ATOM      2  C   UNL     1       0.007   2.480  -3.193  1.00  0.00     0.116 C 
BRANCH   2   3
ATOM      3  N   UNL     1      -0.937   1.459  -3.597  1.00  0.00    -0.355 N 
ATOM      4  C   UNL     1      -1.565   0.502  -2.855  1.00  0.00     0.238 C 
ATOM      5  O   UNL     1      -2.495  -0.111  -3.385  1.00  0.00    -0.273 OA
ATOM      6  H   UNL     1      -1.160   1.454  -4.556  1.00  0.00     0.163 HD
BRANCH   4   7
ATOM      7  C   UNL     1      -1.139   0.183  -1.414  1.00  0.00     0.161 C 
BRANCH   7   8
ATOM      8  C   UNL     1      -1.583   1.208  -0.326  1.00  0.00     0.010 C 
ATOM      9  C   UNL     1      -0.474   1.660   0.630  1.00  0.00     0.009 C 
ATOM     10  C   UNL     1      -2.357   2.436  -0.825  1.00  0.00     0.009 C 
ENDBRANCH   7   8
BRANCH   7  11
ATOM     11  N   UNL     1       0.297  -0.144  -1.368  1.00  0.00    -0.198 NA
ATOM     12  H   UNL     1       0.636   0.182  -0.463  1.00  0.00     0.142 HD
BRANCH  11  13
ATOM     13  S   UNL     1       0.852  -1.708  -1.538  1.00  0.00     0.241 S 
ATOM     14  O   UNL     1       2.293  -1.601  -1.582  1.00  0.00    -0.207 OA
ATOM     15  O   UNL     1       0.191  -2.524  -0.542  1.00  0.00    -0.207 OA
BRANCH  13  16
ATOM     16  C   UNL     1       0.297  -2.229  -3.139  1.00  0.00     0.085 A 
ATOM     17  C   UNL     1       1.128  -2.072  -4.256  1.00  0.00     0.022 A 
ATOM     18  C   UNL     1      -0.929  -2.888  -3.254  1.00  0.00     0.061 A 
ATOM     19  C   UNL     1       0.706  -2.546  -5.502  1.00  0.00     0.004 A 
ATOM     20  C   UNL     1      -1.336  -3.343  -4.501  1.00  0.00     0.124 A 
ATOM     21  C   UNL     1      -0.533  -3.177  -5.624  1.00  0.00     0.039 A 
ATOM     22  F   UNL     1      -2.515  -3.966  -4.620  1.00  0.00    -0.207 F 
ENDBRANCH  13  16
ENDBRANCH  11  13
ENDBRANCH   7  11
ENDBRANCH   4   7
ENDBRANCH   2   3
ENDBRANCH   1   2
BRANCH   1  23
ATOM     23  C   UNL     1       0.816   3.094  -5.548  1.00  0.00     0.023 C 
BRANCH  23  24
ATOM     24  C   UNL     1      -0.028   4.365  -5.591  1.00  0.00     0.116 C 
BRANCH  24  25
ATOM     25  N   UNL     1       0.612   5.495  -4.934  1.00  0.00    -0.352 N 
ATOM     26  C   UNL     1       0.870   6.751  -5.430  1.00  0.00     0.251 C 
ATOM     27  H   UNL     1       0.900   5.338  -4.005  1.00  0.00     0.163 HD
ATOM     28  O   UNL     1       1.553   7.537  -4.781  1.00  0.00    -0.269 OA
BRANCH  26  29
ATOM     29  C   UNL     1       0.351   7.125  -6.763  1.00  0.00     0.039 A 
ATOM     30  C   UNL     1       1.224   7.686  -7.696  1.00  0.00     0.014 A 
ATOM     31  C   UNL     1      -0.981   6.873  -7.103  1.00  0.00     0.014 A 
ATOM     32  C   UNL     1       0.781   7.913  -9.001  1.00  0.00     0.010 A 
ATOM     33  C   UNL     1      -1.395   7.024  -8.423  1.00  0.00     0.010 A 
ATOM     34  C   UNL     1      -0.516   7.538  -9.389  1.00  0.00    -0.014 A 
BRANCH  34  35
ATOM     35  C   UNL     1      -0.964   7.658 -10.802  1.00  0.00     0.031 A 
ATOM     36  C   UNL     1      -2.118   8.556 -11.156  1.00  0.00     0.074 A 
ATOM     37  C   UNL     1      -0.367   6.915 -11.758  1.00  0.00     0.049 A 
ATOM     38  N   UNL     1      -2.701   8.729 -12.314  1.00  0.00    -0.248 NA
ATOM     39  C   UNL     1      -2.709   9.346 -10.064  1.00  0.00     0.031 C 
ATOM     40  C   UNL     1       0.742   5.984 -11.534  1.00  0.00     0.029 A 
ATOM     41  N   UNL     1      -0.606   6.822 -13.107  1.00  0.00    -0.354 N 
ATOM     42  C   UNL     1      -3.729   9.637 -12.090  1.00  0.00     0.074 A 
ATOM     43  C   UNL     1      -3.724   9.940 -10.675  1.00  0.00     0.031 C 
ATOM     44  C   UNL     1       1.108   5.444 -12.708  1.00  0.00     0.029 A 
ATOM     45  C   UNL     1       0.228   5.943 -13.760  1.00  0.00     0.049 A 
ATOM     46  H   UNL     1      -1.310   7.337 -13.565  1.00  0.00     0.167 HD
ATOM     47  C   UNL     1      -4.584  10.184 -12.986  1.00  0.00     0.034 A 
ATOM     48  C   UNL     1       0.274   5.567 -15.054  1.00  0.00     0.034 A 
ATOM     49  C   UNL     1      -4.565   9.894 -14.397  1.00  0.00     0.049 A 
ATOM     50  C   UNL     1      -0.711   6.164 -16.025  1.00  0.00     0.074 A 
ATOM     51  C   UNL     1      -5.354  10.441 -15.393  1.00  0.00     0.029 A 
ATOM     52  N   UNL     1      -3.721   8.980 -15.013  1.00  0.00    -0.354 N 
ATOM     53  N   UNL     1      -1.665   7.036 -15.795  1.00  0.00    -0.248 NA
ATOM     54  C   UNL     1      -0.616   5.730 -17.425  1.00  0.00     0.031 C 
ATOM     55  C   UNL     1      -5.040   9.807 -16.598  1.00  0.00     0.029 A 
ATOM     56  C   UNL     1      -3.997   8.924 -16.370  1.00  0.00     0.049 A 
ATOM     57  H   UNL     1      -3.029   8.451 -14.555  1.00  0.00     0.167 HD
ATOM     58  C   UNL     1      -2.268   7.271 -17.027  1.00  0.00     0.074 A 
ATOM     59  C   UNL     1      -1.568   6.454 -17.997  1.00  0.00     0.031 C 
ATOM     60  C   UNL     1      -3.302   8.096 -17.326  1.00  0.00     0.034 A 
BRANCH  47  61
ATOM     61  C   UNL     1      -5.626  11.144 -12.475  1.00  0.00     0.023 A 
ATOM     62  C   UNL     1      -5.279  12.410 -11.975  1.00  0.00     0.031 A 
ATOM     63  C   UNL     1      -6.989  10.807 -12.541  1.00  0.00     0.131 A 
ATOM     64  C   UNL     1      -6.283  13.284 -11.532  1.00  0.00     0.055 A 
ATOM     65  C   UNL     1      -7.987  11.704 -12.156  1.00  0.00     0.041 A 
ATOM     66  F   UNL     1      -7.374   9.603 -12.993  1.00  0.00    -0.206 F 
ATOM     67  C   UNL     1      -7.635  12.950 -11.644  1.00  0.00     0.022 A 
BRANCH  64  68
ATOM     68  S   UNL     1      -5.795  14.843 -10.747  1.00  0.00     0.124 S 
ATOM     69  O   UNL     1      -5.109  14.367  -9.549  1.00  0.00    -0.237 OA
ATOM     70  O   UNL     1      -4.951  15.460 -11.763  1.00  0.00    -0.237 OA
ATOM     71  O   UNL     1      -7.069  15.517 -10.502  1.00  0.00    -0.744 OA
ENDBRANCH  64  68
ENDBRANCH  47  61
BRANCH  48  72
ATOM     72  C   UNL     1       1.277   4.560 -15.501  1.00  0.00     0.023 A 
ATOM     73  C   UNL     1       2.332   4.915 -16.356  1.00  0.00     0.031 A 
ATOM     74  C   UNL     1       1.197   3.223 -15.071  1.00  0.00     0.131 A 
ATOM     75  C   UNL     1       3.253   3.941 -16.771  1.00  0.00     0.055 A 
ATOM     76  C   UNL     1       2.139   2.267 -15.453  1.00  0.00     0.041 A 
ATOM     77  F   UNL     1       0.211   2.834 -14.246  1.00  0.00    -0.206 F 
ATOM     78  C   UNL     1       3.172   2.623 -16.313  1.00  0.00     0.022 A 
BRANCH  75  79
ATOM     79  S   UNL     1       4.551   4.411 -17.948  1.00  0.00     0.124 S 
ATOM     80  O   UNL     1       3.769   4.768 -19.125  1.00  0.00    -0.237 OA
ATOM     81  O   UNL     1       5.208   5.514 -17.253  1.00  0.00    -0.237 OA
ATOM     82  O   UNL     1       5.352   3.195 -18.074  1.00  0.00    -0.744 OA
ENDBRANCH  75  79
ENDBRANCH  48  72
BRANCH  60  83
ATOM     83  C   UNL     1      -3.729   8.190 -18.768  1.00  0.00     0.023 A 
ATOM     84  C   UNL     1      -4.388   7.130 -19.412  1.00  0.00     0.031 A 
ATOM     85  C   UNL     1      -3.528   9.383 -19.486  1.00  0.00     0.131 A 
ATOM     86  C   UNL     1      -4.802   7.274 -20.744  1.00  0.00     0.055 A 
ATOM     87  C   UNL     1      -3.986   9.539 -20.794  1.00  0.00     0.041 A 
ATOM     88  F   UNL     1      -2.905  10.426 -18.914  1.00  0.00    -0.206 F 
ATOM     89  C   UNL     1      -4.623   8.479 -21.432  1.00  0.00     0.022 A 
BRANCH  86  90
ATOM     90  S   UNL     1      -5.549   5.853 -21.585  1.00  0.00     0.124 S 
ATOM     91  O   UNL     1      -4.450   4.893 -21.590  1.00  0.00    -0.237 OA
ATOM     92  O   UNL     1      -6.675   5.527 -20.715  1.00  0.00    -0.237 OA
ATOM     93  O   UNL     1      -5.916   6.383 -22.897  1.00  0.00    -0.744 OA
ENDBRANCH  86  90
ENDBRANCH  60  83
ENDBRANCH  34  35
ENDBRANCH  26  29
ENDBRANCH  24  25
ENDBRANCH  23  24
ENDBRANCH   1  23
TORSDOF 18
