REMARK SMILES O=C(NCCCCNC(=O)c1nn2cc(Br)cnc2c1Br)c1ccc(-c2c3nc(c(-c4cc(S(=O)(=O)[O-])ccc4F)c4ccc([nH]4)c(-c4cc(S(=O)(=O)[O-])ccc4F)c4nc(c(-c5cc(S(=O)(=O)[O-])ccc5F)c5ccc2[nH]5)C=C4)C=C3)cc1
REMARK SMILES IDX 4 1 3 2 1 3 2 4 22 6 23 7 84 8 24 9 83 10 25 11 26 12 27 13
REMARK SMILES IDX 77 14 28 15 82 16 76 17 78 18 29 19 81 20 75 21 74 22 30 24
REMARK SMILES IDX 62 25 42 26 61 27 43 28 46 29 60 30 79 31 44 32 45 33 59 35
REMARK SMILES IDX 80 36 47 37 31 38 32 39 40 40 33 41 39 42 41 43 38 44 34 45
REMARK SMILES IDX 35 46 36 47 37 48 63 49 64 50 72 51 65 52 71 53 73 54 70 55
REMARK SMILES IDX 66 56 67 57 68 58 69 59 48 60 49 61 57 62 50 63 56 64 58 65
REMARK SMILES IDX 55 66 51 67 52 68 53 69 54 70 5 71 6 72 7 73 8 74 9 75 10 77
REMARK SMILES IDX 11 78 12 79 20 80 13 81 19 82 21 83 14 84 18 85 15 86 17 87
REMARK SMILES IDX 16 88
REMARK H PARENT 3 5 78 23 46 34 8 76
REMARK Flexibility Score: inf
ROOT
ATOM      1  C   UNL     1       4.708  -0.129  -1.214  1.00  0.00     0.116 C 
ENDROOT
BRANCH   1   2
ATOM      2  N   UNL     1       3.331   0.323  -1.242  1.00  0.00    -0.352 N 
ATOM      3  O   UNL     1       1.280   0.908  -0.639  1.00  0.00    -0.269 OA
ATOM      4  C   UNL     1       2.305   0.294  -0.335  1.00  0.00     0.251 C 
ATOM      5  H   UNL     1       3.079   0.740  -2.097  1.00  0.00     0.163 HD
BRANCH   4   6
ATOM      6  C   UNL     1       2.330  -0.487   0.929  1.00  0.00     0.039 A 
ATOM      7  C   UNL     1       3.485  -0.880   1.607  1.00  0.00     0.014 A 
ATOM      8  C   UNL     1       1.078  -0.863   1.446  1.00  0.00     0.014 A 
ATOM      9  C   UNL     1       3.403  -1.744   2.693  1.00  0.00     0.010 A 
ATOM     10  C   UNL     1       0.990  -1.694   2.557  1.00  0.00     0.010 A 
ATOM     11  C   UNL     1       2.157  -2.177   3.146  1.00  0.00    -0.014 A 
BRANCH  11  12
ATOM     12  C   UNL     1       2.118  -3.054   4.314  1.00  0.00     0.031 A 
ATOM     13  C   UNL     1       2.621  -2.457   5.590  1.00  0.00     0.074 A 
ATOM     14  C   UNL     1       1.513  -4.259   4.292  1.00  0.00     0.049 A 
ATOM     15  N   UNL     1       3.522  -2.909   6.402  1.00  0.00    -0.248 NA
ATOM     16  C   UNL     1       2.093  -1.135   5.970  1.00  0.00     0.031 C 
ATOM     17  C   UNL     1       0.731  -4.850   3.204  1.00  0.00     0.029 A 
ATOM     18  N   UNL     1       1.354  -5.155   5.306  1.00  0.00    -0.354 N 
ATOM     19  C   UNL     1       3.550  -2.029   7.484  1.00  0.00     0.074 A 
ATOM     20  C   UNL     1       2.745  -0.896   7.107  1.00  0.00     0.031 C 
ATOM     21  C   UNL     1      -0.020  -5.859   3.697  1.00  0.00     0.029 A 
ATOM     22  C   UNL     1       0.321  -6.063   5.095  1.00  0.00     0.049 A 
ATOM     23  H   UNL     1       1.917  -5.159   6.113  1.00  0.00     0.167 HD
ATOM     24  C   UNL     1       4.085  -2.360   8.693  1.00  0.00     0.034 A 
ATOM     25  C   UNL     1      -0.278  -6.844   6.032  1.00  0.00     0.034 A 
ATOM     26  C   UNL     1       4.984  -3.478   8.601  1.00  0.00     0.049 A 
ATOM     27  C   UNL     1       0.670  -6.961   7.169  1.00  0.00     0.074 A 
ATOM     28  C   UNL     1       6.158  -3.722   7.913  1.00  0.00     0.029 A 
ATOM     29  N   UNL     1       4.544  -4.713   9.013  1.00  0.00    -0.354 N 
ATOM     30  N   UNL     1       1.833  -7.545   7.086  1.00  0.00    -0.248 NA
ATOM     31  C   UNL     1       0.522  -6.027   8.275  1.00  0.00     0.031 C 
ATOM     32  C   UNL     1       6.060  -5.082   7.497  1.00  0.00     0.029 A 
ATOM     33  C   UNL     1       4.864  -5.591   8.005  1.00  0.00     0.049 A 
ATOM     34  H   UNL     1       4.089  -4.926   9.860  1.00  0.00     0.167 HD
ATOM     35  C   UNL     1       2.684  -6.762   7.850  1.00  0.00     0.074 A 
ATOM     36  C   UNL     1       1.803  -5.894   8.628  1.00  0.00     0.031 C 
ATOM     37  C   UNL     1       4.022  -6.692   7.588  1.00  0.00     0.034 A 
BRANCH  24  38
ATOM     38  C   UNL     1       3.574  -1.843  10.014  1.00  0.00     0.023 A 
ATOM     39  C   UNL     1       4.331  -2.072  11.179  1.00  0.00     0.031 A 
ATOM     40  C   UNL     1       2.253  -1.380  10.213  1.00  0.00     0.131 A 
ATOM     41  C   UNL     1       3.765  -1.881  12.454  1.00  0.00     0.055 A 
ATOM     42  C   UNL     1       1.716  -1.132  11.478  1.00  0.00     0.041 A 
ATOM     43  F   UNL     1       1.387  -1.239   9.200  1.00  0.00    -0.206 F 
ATOM     44  C   UNL     1       2.465  -1.403  12.610  1.00  0.00     0.022 A 
BRANCH  41  45
ATOM     45  S   UNL     1       4.699  -2.411  13.916  1.00  0.00     0.124 S 
ATOM     46  O   UNL     1       4.987  -3.805  13.601  1.00  0.00    -0.237 OA
ATOM     47  O   UNL     1       5.837  -1.497  13.895  1.00  0.00    -0.237 OA
ATOM     48  O   UNL     1       3.758  -2.204  15.015  1.00  0.00    -0.744 OA
ENDBRANCH  41  45
ENDBRANCH  24  38
BRANCH  25  49
ATOM     49  C   UNL     1      -1.732  -7.154   6.141  1.00  0.00     0.023 A 
ATOM     50  C   UNL     1      -2.219  -8.184   6.973  1.00  0.00     0.031 A 
ATOM     51  C   UNL     1      -2.696  -6.269   5.606  1.00  0.00     0.131 A 
ATOM     52  C   UNL     1      -3.606  -8.298   7.232  1.00  0.00     0.055 A 
ATOM     53  C   UNL     1      -4.064  -6.393   5.854  1.00  0.00     0.041 A 
ATOM     54  F   UNL     1      -2.336  -5.191   4.893  1.00  0.00    -0.206 F 
ATOM     55  C   UNL     1      -4.525  -7.404   6.679  1.00  0.00     0.022 A 
BRANCH  52  56
ATOM     56  S   UNL     1      -4.228  -9.545   8.405  1.00  0.00     0.124 S 
ATOM     57  O   UNL     1      -4.202 -10.760   7.600  1.00  0.00    -0.237 OA
ATOM     58  O   UNL     1      -3.261  -9.468   9.495  1.00  0.00    -0.237 OA
ATOM     59  O   UNL     1      -5.566  -9.055   8.740  1.00  0.00    -0.744 OA
ENDBRANCH  52  56
ENDBRANCH  25  49
BRANCH  37  60
ATOM     60  C   UNL     1       4.628  -7.676   6.612  1.00  0.00     0.023 A 
ATOM     61  C   UNL     1       4.280  -7.764   5.244  1.00  0.00     0.031 A 
ATOM     62  C   UNL     1       5.718  -8.440   7.062  1.00  0.00     0.131 A 
ATOM     63  C   UNL     1       5.019  -8.602   4.384  1.00  0.00     0.055 A 
ATOM     64  C   UNL     1       6.454  -9.257   6.205  1.00  0.00     0.041 A 
ATOM     65  F   UNL     1       6.116  -8.367   8.343  1.00  0.00    -0.206 F 
ATOM     66  C   UNL     1       6.106  -9.342   4.862  1.00  0.00     0.022 A 
BRANCH  63  67
ATOM     67  S   UNL     1       4.594  -8.723   2.615  1.00  0.00     0.124 S 
ATOM     68  O   UNL     1       3.187  -9.107   2.632  1.00  0.00    -0.237 OA
ATOM     69  O   UNL     1       4.888  -7.381   2.121  1.00  0.00    -0.237 OA
ATOM     70  O   UNL     1       5.499  -9.761   2.116  1.00  0.00    -0.744 OA
ENDBRANCH  63  67
ENDBRANCH  37  60
ENDBRANCH  11  12
ENDBRANCH   4   6
ENDBRANCH   1   2
BRANCH   1  71
ATOM     71  C   UNL     1       4.909  -1.627  -1.440  1.00  0.00     0.023 C 
BRANCH  71  72
ATOM     72  C   UNL     1       4.425  -2.161  -2.792  1.00  0.00     0.023 C 
BRANCH  72  73
ATOM     73  C   UNL     1       4.830  -1.344  -4.014  1.00  0.00     0.116 C 
BRANCH  73  74
ATOM     74  N   UNL     1       6.268  -1.200  -4.164  1.00  0.00    -0.351 N 
ATOM     75  C   UNL     1       7.021  -1.227  -5.320  1.00  0.00     0.273 C 
ATOM     76  H   UNL     1       6.772  -1.065  -3.329  1.00  0.00     0.163 HD
ATOM     77  O   UNL     1       8.232  -1.069  -5.249  1.00  0.00    -0.267 OA
BRANCH  75  78
ATOM     78  C   UNL     1       6.330  -1.461  -6.591  1.00  0.00     0.167 A 
ATOM     79  N   UNL     1       6.566  -2.580  -7.303  1.00  0.00    -0.160 NA
ATOM     80  C   UNL     1       5.392  -0.641  -7.252  1.00  0.00     0.095 A 
ATOM     81  N   UNL     1       5.744  -2.501  -8.371  1.00  0.00    -0.219 N 
ATOM     82  C   UNL     1       4.973  -1.335  -8.360  1.00  0.00     0.170 A 
ATOM     83  Br  UNL     1       4.824   1.064  -6.719  1.00  0.00    -0.044 Br
ATOM     84  C   UNL     1       5.624  -3.422  -9.404  1.00  0.00     0.132 A 
ATOM     85  N   UNL     1       4.039  -1.072  -9.328  1.00  0.00    -0.235 NA
ATOM     86  C   UNL     1       4.742  -3.217 -10.390  1.00  0.00     0.054 A 
ATOM     87  C   UNL     1       3.931  -1.967 -10.265  1.00  0.00     0.131 A 
ATOM     88  Br  UNL     1       4.481  -4.334 -11.838  1.00  0.00    -0.047 Br
ENDBRANCH  75  78
ENDBRANCH  73  74
ENDBRANCH  72  73
ENDBRANCH  71  72
ENDBRANCH   1  71
TORSDOF 14
