REMARK SMILES COc1cccc([C@@H]2CN(C(=O)CSc3nc(C)n[nH]3)C[C@H]2C(=O)NCCCCNC(=O)c2ccc(-c3c4nc(c(-c5cc(S(=O)(=O)[O-])ccc5F)c5ccc([nH]5)c(-c5cc(S(=O)(=O)[O-])ccc5F)c5nc(c(-c6cc(S(=O)(=O)[O-])ccc6F)c6ccc3[nH]6)C=C5)C=C4)cc2)c1
REMARK SMILES IDX 27 1 26 2 25 3 23 4 24 5 22 7 8 8 9 9 10 10 21 11 7 12 3 13
REMARK SMILES IDX 4 14 96 15 5 16 6 17 2 18 1 19 11 20 12 21 13 22 14 23 15 24
REMARK SMILES IDX 16 25 20 26 17 27 19 28 18 30 28 31 29 32 30 33 31 34 32 36
REMARK SMILES IDX 33 37 34 38 95 39 35 40 94 41 36 42 37 43 38 44 88 45 39 46
REMARK SMILES IDX 93 47 87 48 89 49 40 50 92 51 86 52 85 53 41 55 73 56 53 57
REMARK SMILES IDX 72 58 54 59 57 60 71 61 90 62 55 63 56 64 70 66 91 67 58 68
REMARK SMILES IDX 42 69 43 70 51 71 44 72 50 73 52 74 49 75 45 76 46 77 47 78
REMARK SMILES IDX 48 79 74 80 75 81 83 82 76 83 82 84 84 85 81 86 77 87 78 88
REMARK SMILES IDX 79 89 80 90 59 91 60 92 68 93 61 94 67 95 69 96 66 97 62 98
REMARK SMILES IDX 63 99 64 100 65 101
REMARK H PARENT 25 6 20 29 30 35 89 54 57 65
REMARK Flexibility Score: inf
ROOT
ATOM      1  C   UNL     1       4.213  -5.624  -5.805  1.00  0.00     0.023 C 
ENDROOT
BRANCH   1   2
ATOM      2  C   UNL     1       5.173  -4.464  -5.521  1.00  0.00     0.116 C 
BRANCH   2   3
ATOM      3  N   UNL     1       4.533  -3.164  -5.635  1.00  0.00    -0.356 N 
ATOM      4  C   UNL     1       4.217  -2.221  -4.706  1.00  0.00     0.225 C 
ATOM      5  O   UNL     1       3.681  -1.186  -5.114  1.00  0.00    -0.275 OA
ATOM      6  H   UNL     1       4.282  -2.920  -6.556  1.00  0.00     0.163 HD
BRANCH   4   7
ATOM      7  C   UNL     1       4.474  -2.396  -3.220  1.00  0.00     0.107 C 
ATOM      8  C   UNL     1       3.747  -3.608  -2.609  1.00  0.00     0.053 C 
ATOM      9  C   UNL     1       4.693  -4.084  -1.508  1.00  0.00     0.128 C 
ATOM     10  N   UNL     1       6.011  -3.756  -2.019  1.00  0.00    -0.341 N 
ATOM     11  C   UNL     1       5.953  -2.583  -2.879  1.00  0.00     0.133 C 
BRANCH   8  12
ATOM     12  C   UNL     1       2.328  -3.366  -2.149  1.00  0.00    -0.039 A 
ATOM     13  C   UNL     1       0.689  -2.177  -0.802  1.00  0.00     0.119 A 
ATOM     14  C   UNL     1      -0.321  -3.002  -1.294  1.00  0.00     0.046 A 
ATOM     15  C   UNL     1       2.011  -2.372  -1.210  1.00  0.00     0.050 A 
ATOM     16  C   UNL     1      -0.023  -3.989  -2.230  1.00  0.00     0.004 A 
ATOM     17  C   UNL     1       1.292  -4.165  -2.659  1.00  0.00     0.004 A 
BRANCH  13  18
ATOM     18  O   UNL     1       0.307  -1.242   0.122  1.00  0.00    -0.497 OA
ATOM     19  C   UNL     1       0.916   0.033  -0.066  1.00  0.00     0.278 C 
ENDBRANCH  13  18
ENDBRANCH   8  12
BRANCH  10  20
ATOM     20  C   UNL     1       7.215  -4.350  -1.712  1.00  0.00     0.233 C 
ATOM     21  O   UNL     1       8.278  -3.921  -2.168  1.00  0.00    -0.274 OA
BRANCH  20  22
ATOM     22  C   UNL     1       7.213  -5.628  -0.894  1.00  0.00     0.178 C 
BRANCH  22  23
ATOM     23  S   UNL     1       6.751  -5.404   0.842  1.00  0.00    -0.077 SA
BRANCH  23  24
ATOM     24  C   UNL     1       7.762  -4.096   1.301  1.00  0.00     0.184 A 
ATOM     25  N   UNL     1       7.481  -2.819   1.251  1.00  0.00    -0.206 NA
ATOM     26  N   UNL     1       8.979  -4.288   1.871  1.00  0.00    -0.254 N 
ATOM     27  C   UNL     1       8.603  -2.248   1.802  1.00  0.00     0.148 A 
ATOM     28  N   UNL     1       9.532  -3.116   2.228  1.00  0.00    -0.158 NA
ATOM     29  H   UNL     1       9.400  -5.168   2.004  1.00  0.00     0.192 HD
ATOM     30  C   UNL     1       8.750  -0.786   1.945  1.00  0.00     0.092 C 
ENDBRANCH  23  24
ENDBRANCH  22  23
ENDBRANCH  20  22
ENDBRANCH  10  20
ENDBRANCH   4   7
ENDBRANCH   2   3
ENDBRANCH   1   2
BRANCH   1  31
ATOM     31  C   UNL     1       3.678  -5.722  -7.238  1.00  0.00     0.023 C 
BRANCH  31  32
ATOM     32  C   UNL     1       4.748  -5.865  -8.311  1.00  0.00     0.116 C 
BRANCH  32  33
ATOM     33  N   UNL     1       5.558  -7.069  -8.147  1.00  0.00    -0.352 N 
ATOM     34  C   UNL     1       6.684  -7.422  -8.866  1.00  0.00     0.251 C 
ATOM     35  H   UNL     1       5.271  -7.698  -7.447  1.00  0.00     0.163 HD
ATOM     36  O   UNL     1       7.031  -8.600  -8.930  1.00  0.00    -0.269 OA
BRANCH  34  37
ATOM     37  C   UNL     1       7.442  -6.366  -9.563  1.00  0.00     0.039 A 
ATOM     38  C   UNL     1       7.866  -6.537 -10.879  1.00  0.00     0.014 A 
ATOM     39  C   UNL     1       7.670  -5.163  -8.895  1.00  0.00     0.014 A 
ATOM     40  C   UNL     1       8.421  -5.447 -11.549  1.00  0.00     0.010 A 
ATOM     41  C   UNL     1       8.105  -4.055  -9.593  1.00  0.00     0.010 A 
ATOM     42  C   UNL     1       8.498  -4.188 -10.919  1.00  0.00    -0.014 A 
BRANCH  42  43
ATOM     43  C   UNL     1       8.833  -2.995 -11.707  1.00  0.00     0.031 A 
ATOM     44  C   UNL     1       8.065  -2.888 -12.976  1.00  0.00     0.074 A 
ATOM     45  C   UNL     1       9.631  -1.976 -11.310  1.00  0.00     0.049 A 
ATOM     46  N   UNL     1       8.482  -3.196 -14.158  1.00  0.00    -0.248 NA
ATOM     47  C   UNL     1       6.624  -2.589 -12.923  1.00  0.00     0.031 C 
ATOM     48  C   UNL     1      10.233  -1.772  -9.989  1.00  0.00     0.029 A 
ATOM     49  N   UNL     1      10.019  -0.853 -11.992  1.00  0.00    -0.354 N 
ATOM     50  C   UNL     1       7.455  -2.845 -15.028  1.00  0.00     0.074 A 
ATOM     51  C   UNL     1       6.281  -2.705 -14.210  1.00  0.00     0.031 C 
ATOM     52  C   UNL     1      10.714  -0.512  -9.892  1.00  0.00     0.029 A 
ATOM     53  C   UNL     1      10.635   0.116 -11.200  1.00  0.00     0.049 A 
ATOM     54  H   UNL     1       9.875  -0.739 -12.959  1.00  0.00     0.167 HD
ATOM     55  C   UNL     1       7.747  -2.413 -16.288  1.00  0.00     0.034 A 
ATOM     56  C   UNL     1      11.109   1.332 -11.578  1.00  0.00     0.034 A 
ATOM     57  C   UNL     1       9.146  -2.627 -16.577  1.00  0.00     0.049 A 
ATOM     58  C   UNL     1      11.448   1.233 -13.013  1.00  0.00     0.074 A 
ATOM     59  C   UNL     1       9.961  -3.686 -16.907  1.00  0.00     0.029 A 
ATOM     60  N   UNL     1       9.956  -1.607 -16.146  1.00  0.00    -0.354 N 
ATOM     61  N   UNL     1      12.383   0.443 -13.464  1.00  0.00    -0.248 NA
ATOM     62  C   UNL     1      10.511   1.722 -14.017  1.00  0.00     0.031 C 
ATOM     63  C   UNL     1      11.272  -3.326 -16.468  1.00  0.00     0.029 A 
ATOM     64  C   UNL     1      11.238  -2.039 -15.934  1.00  0.00     0.049 A 
ATOM     65  H   UNL     1       9.654  -0.681 -16.008  1.00  0.00     0.167 HD
ATOM     66  C   UNL     1      11.899  -0.009 -14.673  1.00  0.00     0.074 A 
ATOM     67  C   UNL     1      10.853   0.937 -15.043  1.00  0.00     0.031 C 
ATOM     68  C   UNL     1      12.156  -1.278 -15.104  1.00  0.00     0.034 A 
BRANCH  55  69
ATOM     69  C   UNL     1       6.969  -1.381 -17.085  1.00  0.00     0.023 A 
ATOM     70  C   UNL     1       7.448  -1.068 -18.378  1.00  0.00     0.031 A 
ATOM     71  C   UNL     1       6.012  -0.489 -16.556  1.00  0.00     0.131 A 
ATOM     72  C   UNL     1       7.046   0.107 -19.038  1.00  0.00     0.055 A 
ATOM     73  C   UNL     1       5.576   0.651 -17.240  1.00  0.00     0.041 A 
ATOM     74  F   UNL     1       5.520  -0.608 -15.318  1.00  0.00    -0.206 F 
ATOM     75  C   UNL     1       6.112   0.970 -18.476  1.00  0.00     0.022 A 
BRANCH  72  76
ATOM     76  S   UNL     1       7.875   0.568 -20.584  1.00  0.00     0.124 S 
ATOM     77  O   UNL     1       9.271   0.640 -20.169  1.00  0.00    -0.237 OA
ATOM     78  O   UNL     1       7.517  -0.542 -21.461  1.00  0.00    -0.237 OA
ATOM     79  O   UNL     1       7.261   1.850 -20.927  1.00  0.00    -0.744 OA
ENDBRANCH  72  76
ENDBRANCH  55  69
BRANCH  56  80
ATOM     80  C   UNL     1      11.052   2.620 -10.836  1.00  0.00     0.023 A 
ATOM     81  C   UNL     1      11.884   3.722 -11.134  1.00  0.00     0.031 A 
ATOM     82  C   UNL     1       9.954   2.866  -9.983  1.00  0.00     0.131 A 
ATOM     83  C   UNL     1      11.590   5.002 -10.605  1.00  0.00     0.055 A 
ATOM     84  C   UNL     1       9.665   4.133  -9.469  1.00  0.00     0.041 A 
ATOM     85  F   UNL     1       9.071   1.896  -9.695  1.00  0.00    -0.206 F 
ATOM     86  C   UNL     1      10.476   5.210  -9.790  1.00  0.00     0.022 A 
BRANCH  83  87
ATOM     87  S   UNL     1      12.607   6.450 -11.052  1.00  0.00     0.124 S 
ATOM     88  O   UNL     1      13.874   6.155 -10.393  1.00  0.00    -0.237 OA
ATOM     89  O   UNL     1      12.604   6.397 -12.509  1.00  0.00    -0.237 OA
ATOM     90  O   UNL     1      11.867   7.576 -10.481  1.00  0.00    -0.744 OA
ENDBRANCH  83  87
ENDBRANCH  56  80
BRANCH  68  91
ATOM     91  C   UNL     1      13.412  -1.948 -14.605  1.00  0.00     0.023 A 
ATOM     92  C   UNL     1      13.710  -2.249 -13.259  1.00  0.00     0.031 A 
ATOM     93  C   UNL     1      14.349  -2.327 -15.584  1.00  0.00     0.131 A 
ATOM     94  C   UNL     1      14.918  -2.903 -12.939  1.00  0.00     0.055 A 
ATOM     95  C   UNL     1      15.529  -2.993 -15.267  1.00  0.00     0.041 A 
ATOM     96  F   UNL     1      14.120  -2.067 -16.882  1.00  0.00    -0.206 F 
ATOM     97  C   UNL     1      15.822  -3.278 -13.940  1.00  0.00     0.022 A 
BRANCH  94  98
ATOM     98  S   UNL     1      15.359  -3.251 -11.206  1.00  0.00     0.124 S 
ATOM     99  O   UNL     1      15.116  -1.983 -10.529  1.00  0.00    -0.237 OA
ATOM    100  O   UNL     1      14.451  -4.343 -10.863  1.00  0.00    -0.237 OA
ATOM    101  O   UNL     1      16.770  -3.638 -11.284  1.00  0.00    -0.744 OA
ENDBRANCH  94  98
ENDBRANCH  68  91
ENDBRANCH  42  43
ENDBRANCH  34  37
ENDBRANCH  32  33
ENDBRANCH  31  32
ENDBRANCH   1  31
TORSDOF 20
