REMARK SMILES COc1cccc(NC(=O)[C@@H]2[C@@H](C(=O)NCCCCNC(=O)c3ccc(-c4c5nc(c(-c6cc(S(=O)(=O)[O-])ccc6F)c6ccc([nH]6)c(-c6cc(S(=O)(=O)[O-])ccc6F)c6nc(c(-c7cc(S(=O)(=O)[O-])ccc7F)c7ccc4[nH]7)C=C6)C=C5)cc3)[C@H]3C=C[C@@H]2C3)c1
REMARK SMILES IDX 17 1 16 2 15 3 13 4 14 5 12 7 11 8 89 9 86 10 88 11 90 12
REMARK SMILES IDX 87 13 9 14 8 15 10 17 7 18 3 19 4 20 91 21 5 22 6 23 2 24
REMARK SMILES IDX 1 25 18 26 19 27 20 28 21 29 22 31 23 32 24 33 85 34 25 35
REMARK SMILES IDX 84 36 26 37 27 38 28 39 78 40 29 41 83 42 77 43 79 44 30 45
REMARK SMILES IDX 82 46 76 47 75 48 31 50 63 51 43 52 62 53 44 54 47 55 61 56
REMARK SMILES IDX 80 57 45 58 46 59 60 61 81 62 48 63 32 64 33 65 41 66 34 67
REMARK SMILES IDX 40 68 42 69 39 70 35 71 36 72 37 73 38 74 64 75 65 76 73 77
REMARK SMILES IDX 66 78 72 79 74 80 71 81 67 82 68 83 69 84 70 85 49 86 50 87
REMARK SMILES IDX 58 88 51 89 57 90 59 91 56 92 52 93 53 94 54 95 55 96
REMARK H PARENT 15 6 8 16 20 30 79 49 47 60
REMARK Flexibility Score: inf
ROOT
ATOM      1  C   UNL     1      -0.863  -3.409  -2.331  1.00  0.00     0.023 C 
ENDROOT
BRANCH   1   2
ATOM      2  C   UNL     1      -1.280  -4.865  -2.082  1.00  0.00     0.116 C 
BRANCH   2   3
ATOM      3  N   UNL     1      -0.639  -5.804  -2.992  1.00  0.00    -0.356 N 
ATOM      4  C   UNL     1       0.255  -6.819  -2.788  1.00  0.00     0.224 C 
ATOM      5  O   UNL     1       0.433  -7.599  -3.724  1.00  0.00    -0.275 OA
ATOM      6  H   UNL     1      -0.898  -5.685  -3.934  1.00  0.00     0.163 HD
BRANCH   4   7
ATOM      7  C   UNL     1       1.054  -6.909  -1.490  1.00  0.00     0.098 C 
ATOM      8  C   UNL     1       2.586  -6.713  -1.759  1.00  0.00     0.099 C 
ATOM      9  C   UNL     1       3.191  -7.954  -1.013  1.00  0.00     0.025 C 
ATOM     10  C   UNL     1       0.999  -8.255  -0.717  1.00  0.00     0.025 C 
ATOM     11  C   UNL     1       2.788  -9.217  -1.751  1.00  0.00    -0.027 C 
ATOM     12  C   UNL     1       2.239  -8.084   0.177  1.00  0.00     0.017 C 
ATOM     13  C   UNL     1       1.474  -9.397  -1.560  1.00  0.00    -0.027 C 
BRANCH   8  14
ATOM     14  C   UNL     1       3.549  -5.515  -1.564  1.00  0.00     0.228 C 
ATOM     15  N   UNL     1       3.468  -4.315  -0.945  1.00  0.00    -0.326 N 
ATOM     16  H   UNL     1       4.284  -3.791  -1.116  1.00  0.00     0.169 HD
ATOM     17  O   UNL     1       4.683  -5.674  -2.071  1.00  0.00    -0.274 OA
BRANCH  15  18
ATOM     18  C   UNL     1       2.588  -3.584  -0.139  1.00  0.00     0.044 A 
ATOM     19  C   UNL     1       2.030  -1.601   1.118  1.00  0.00     0.120 A 
ATOM     20  C   UNL     1       0.847  -2.163   1.590  1.00  0.00     0.046 A 
ATOM     21  C   UNL     1       2.943  -2.323   0.332  1.00  0.00     0.072 A 
ATOM     22  C   UNL     1       0.480  -3.392   1.099  1.00  0.00     0.006 A 
ATOM     23  C   UNL     1       1.330  -4.016   0.191  1.00  0.00     0.026 A 
BRANCH  19  24
ATOM     24  O   UNL     1       2.225  -0.261   1.315  1.00  0.00    -0.497 OA
ATOM     25  C   UNL     1       1.558   0.445   0.255  1.00  0.00     0.278 C 
ENDBRANCH  19  24
ENDBRANCH  15  18
ENDBRANCH   8  14
ENDBRANCH   4   7
ENDBRANCH   2   3
ENDBRANCH   1   2
BRANCH   1  26
ATOM     26  C   UNL     1      -1.866  -2.574  -3.132  1.00  0.00     0.023 C 
BRANCH  26  27
ATOM     27  C   UNL     1      -3.242  -2.417  -2.489  1.00  0.00     0.116 C 
BRANCH  27  28
ATOM     28  N   UNL     1      -3.241  -1.723  -1.210  1.00  0.00    -0.352 N 
ATOM     29  C   UNL     1      -4.264  -0.974  -0.655  1.00  0.00     0.251 C 
ATOM     30  H   UNL     1      -2.415  -1.793  -0.678  1.00  0.00     0.163 HD
ATOM     31  O   UNL     1      -4.093  -0.386   0.399  1.00  0.00    -0.269 OA
BRANCH  29  32
ATOM     32  C   UNL     1      -5.544  -0.853  -1.399  1.00  0.00     0.039 A 
ATOM     33  C   UNL     1      -6.078   0.417  -1.628  1.00  0.00     0.014 A 
ATOM     34  C   UNL     1      -6.163  -1.981  -1.940  1.00  0.00     0.014 A 
ATOM     35  C   UNL     1      -7.181   0.559  -2.476  1.00  0.00     0.010 A 
ATOM     36  C   UNL     1      -7.199  -1.829  -2.858  1.00  0.00     0.010 A 
ATOM     37  C   UNL     1      -7.721  -0.557  -3.139  1.00  0.00    -0.014 A 
BRANCH  37  38
ATOM     38  C   UNL     1      -8.831  -0.414  -4.121  1.00  0.00     0.031 A 
ATOM     39  C   UNL     1     -10.149  -1.102  -3.877  1.00  0.00     0.074 A 
ATOM     40  C   UNL     1      -8.633   0.275  -5.264  1.00  0.00     0.049 A 
ATOM     41  N   UNL     1     -11.215  -1.148  -4.635  1.00  0.00    -0.248 NA
ATOM     42  C   UNL     1     -10.264  -1.877  -2.633  1.00  0.00     0.031 C 
ATOM     43  C   UNL     1      -7.380   0.927  -5.654  1.00  0.00     0.029 A 
ATOM     44  N   UNL     1      -9.481   0.538  -6.311  1.00  0.00    -0.354 N 
ATOM     45  C   UNL     1     -12.119  -1.969  -3.968  1.00  0.00     0.074 A 
ATOM     46  C   UNL     1     -11.441  -2.462  -2.788  1.00  0.00     0.031 C 
ATOM     47  C   UNL     1      -7.554   1.544  -6.834  1.00  0.00     0.029 A 
ATOM     48  C   UNL     1      -8.914   1.304  -7.305  1.00  0.00     0.049 A 
ATOM     49  H   UNL     1     -10.408   0.211  -6.348  1.00  0.00     0.167 HD
ATOM     50  C   UNL     1     -13.404  -2.261  -4.290  1.00  0.00     0.034 A 
ATOM     51  C   UNL     1      -9.431   1.762  -8.462  1.00  0.00     0.034 A 
ATOM     52  C   UNL     1     -14.072  -1.744  -5.460  1.00  0.00     0.049 A 
ATOM     53  C   UNL     1     -10.869   1.446  -8.791  1.00  0.00     0.074 A 
ATOM     54  C   UNL     1     -15.387  -1.925  -5.856  1.00  0.00     0.029 A 
ATOM     55  N   UNL     1     -13.476  -0.945  -6.428  1.00  0.00    -0.354 N 
ATOM     56  N   UNL     1     -11.732   0.720  -8.117  1.00  0.00    -0.248 NA
ATOM     57  C   UNL     1     -11.406   2.028 -10.027  1.00  0.00     0.031 C 
ATOM     58  C   UNL     1     -15.567  -1.287  -7.089  1.00  0.00     0.029 A 
ATOM     59  C   UNL     1     -14.388  -0.643  -7.428  1.00  0.00     0.049 A 
ATOM     60  H   UNL     1     -12.541  -0.637  -6.407  1.00  0.00     0.167 HD
ATOM     61  C   UNL     1     -12.924   0.786  -8.834  1.00  0.00     0.074 A 
ATOM     62  C   UNL     1     -12.671   1.639  -9.978  1.00  0.00     0.031 C 
ATOM     63  C   UNL     1     -14.119   0.198  -8.572  1.00  0.00     0.034 A 
BRANCH  50  64
ATOM     64  C   UNL     1     -14.152  -3.194  -3.365  1.00  0.00     0.023 A 
ATOM     65  C   UNL     1     -14.371  -2.872  -2.013  1.00  0.00     0.031 A 
ATOM     66  C   UNL     1     -14.607  -4.444  -3.821  1.00  0.00     0.131 A 
ATOM     67  C   UNL     1     -14.930  -3.822  -1.146  1.00  0.00     0.055 A 
ATOM     68  C   UNL     1     -15.250  -5.348  -2.973  1.00  0.00     0.041 A 
ATOM     69  F   UNL     1     -14.413  -4.819  -5.095  1.00  0.00    -0.206 F 
ATOM     70  C   UNL     1     -15.397  -5.049  -1.621  1.00  0.00     0.022 A 
BRANCH  67  71
ATOM     71  S   UNL     1     -14.877  -3.498   0.639  1.00  0.00     0.124 S 
ATOM     72  O   UNL     1     -13.441  -3.350   0.867  1.00  0.00    -0.237 OA
ATOM     73  O   UNL     1     -15.673  -2.283   0.763  1.00  0.00    -0.237 OA
ATOM     74  O   UNL     1     -15.472  -4.698   1.223  1.00  0.00    -0.744 OA
ENDBRANCH  67  71
ENDBRANCH  50  64
BRANCH  51  75
ATOM     75  C   UNL     1      -8.601   2.579  -9.393  1.00  0.00     0.023 A 
ATOM     76  C   UNL     1      -8.909   3.926  -9.645  1.00  0.00     0.031 A 
ATOM     77  C   UNL     1      -7.510   2.015 -10.076  1.00  0.00     0.131 A 
ATOM     78  C   UNL     1      -8.167   4.650 -10.591  1.00  0.00     0.055 A 
ATOM     79  C   UNL     1      -6.743   2.753 -10.980  1.00  0.00     0.041 A 
ATOM     80  F   UNL     1      -7.165   0.734  -9.865  1.00  0.00    -0.206 F 
ATOM     81  C   UNL     1      -7.079   4.076 -11.252  1.00  0.00     0.022 A 
BRANCH  78  82
ATOM     82  S   UNL     1      -8.694   6.337 -11.004  1.00  0.00     0.124 S 
ATOM     83  O   UNL     1     -10.055   6.116 -11.477  1.00  0.00    -0.237 OA
ATOM     84  O   UNL     1      -8.563   7.016  -9.719  1.00  0.00    -0.237 OA
ATOM     85  O   UNL     1      -7.735   6.752 -12.026  1.00  0.00    -0.744 OA
ENDBRANCH  78  82
ENDBRANCH  51  75
BRANCH  63  86
ATOM     86  C   UNL     1     -15.252   0.502  -9.524  1.00  0.00     0.023 A 
ATOM     87  C   UNL     1     -15.220   0.091 -10.868  1.00  0.00     0.031 A 
ATOM     88  C   UNL     1     -16.364   1.243  -9.086  1.00  0.00     0.131 A 
ATOM     89  C   UNL     1     -16.242   0.487 -11.745  1.00  0.00     0.055 A 
ATOM     90  C   UNL     1     -17.411   1.575  -9.947  1.00  0.00     0.041 A 
ATOM     91  F   UNL     1     -16.448   1.663  -7.813  1.00  0.00    -0.206 F 
ATOM     92  C   UNL     1     -17.345   1.212 -11.289  1.00  0.00     0.022 A 
BRANCH  89  93
ATOM     93  S   UNL     1     -16.049   0.144 -13.515  1.00  0.00     0.124 S 
ATOM     94  O   UNL     1     -14.765   0.774 -13.809  1.00  0.00    -0.237 OA
ATOM     95  O   UNL     1     -16.066  -1.314 -13.553  1.00  0.00    -0.237 OA
ATOM     96  O   UNL     1     -17.211   0.794 -14.119  1.00  0.00    -0.744 OA
ENDBRANCH  89  93
ENDBRANCH  63  86
ENDBRANCH  37  38
ENDBRANCH  29  32
ENDBRANCH  27  28
ENDBRANCH  26  27
ENDBRANCH   1  26
TORSDOF 17
