REMARK SMILES C[C@H](C(=O)NCCCCNC(=O)c1ccc(-c2c3nc(c(-c4cc(S(=O)(=O)[O-])ccc4F)c4ccc([nH]4)c(-c4cc(S(=O)(=O)[O-])ccc4F)c4nc(c(-c5cc(S(=O)(=O)[O-])ccc5F)c5ccc2[nH]5)C=C4)C=C3)cc1)[C@H](C)S(C)(=O)=O
REMARK SMILES IDX 8 1 7 2 6 3 5 4 3 5 4 6 2 8 1 9 76 10 77 11 78 12 79 13
REMARK SMILES IDX 80 14 81 15 9 16 10 17 11 18 12 20 13 21 14 22 75 23 15 24
REMARK SMILES IDX 74 25 16 26 17 27 18 28 68 29 19 30 73 31 67 32 69 33 20 34
REMARK SMILES IDX 72 35 66 36 65 37 21 39 53 40 33 41 52 42 34 43 37 44 51 45
REMARK SMILES IDX 70 46 35 47 36 48 50 50 71 51 38 52 22 53 23 54 31 55 24 56
REMARK SMILES IDX 30 57 32 58 29 59 25 60 26 61 27 62 28 63 54 64 55 65 63 66
REMARK SMILES IDX 56 67 62 68 64 69 61 70 57 71 58 72 59 73 60 74 39 75 40 76
REMARK SMILES IDX 48 77 41 78 47 79 49 80 46 81 42 82 43 83 44 84 45 85
REMARK H PARENT 5 7 10 19 69 38 37 49
REMARK Flexibility Score: inf
ROOT
ATOM      1  C   UNL     1       0.555  -1.234  -4.584  1.00  0.00     0.023 C 
ENDROOT
BRANCH   1   2
ATOM      2  C   UNL     1      -0.615  -0.803  -3.696  1.00  0.00     0.023 C 
BRANCH   2   3
ATOM      3  C   UNL     1      -1.252  -1.930  -2.885  1.00  0.00     0.116 C 
BRANCH   3   4
ATOM      4  N   UNL     1      -0.330  -2.509  -1.920  1.00  0.00    -0.356 N 
ATOM      5  C   UNL     1      -0.333  -2.433  -0.553  1.00  0.00     0.224 C 
ATOM      6  O   UNL     1       0.537  -3.031   0.074  1.00  0.00    -0.275 OA
ATOM      7  H   UNL     1       0.407  -3.035  -2.308  1.00  0.00     0.163 HD
BRANCH   5   8
ATOM      8  C   UNL     1      -1.424  -1.612   0.122  1.00  0.00     0.093 C 
ATOM      9  C   UNL     1      -2.695  -2.467   0.177  1.00  0.00     0.019 C 
BRANCH   8  10
ATOM     10  C   UNL     1      -1.002  -0.912   1.441  1.00  0.00     0.117 C 
ATOM     11  C   UNL     1       0.472  -0.499   1.486  1.00  0.00     0.026 C 
BRANCH  10  12
ATOM     12  S   UNL     1      -1.515  -1.744   2.951  1.00  0.00     0.150 S 
ATOM     13  C   UNL     1      -0.827  -0.766   4.266  1.00  0.00     0.158 C 
ATOM     14  O   UNL     1      -2.954  -1.592   3.063  1.00  0.00    -0.229 OA
ATOM     15  O   UNL     1      -0.904  -3.057   3.027  1.00  0.00    -0.229 OA
ENDBRANCH  10  12
ENDBRANCH   8  10
ENDBRANCH   5   8
ENDBRANCH   3   4
ENDBRANCH   2   3
ENDBRANCH   1   2
BRANCH   1  16
ATOM     16  C   UNL     1       0.268  -2.403  -5.519  1.00  0.00     0.116 C 
BRANCH  16  17
ATOM     17  N   UNL     1      -0.816  -2.132  -6.447  1.00  0.00    -0.352 N 
ATOM     18  C   UNL     1      -0.892  -2.394  -7.794  1.00  0.00     0.251 C 
ATOM     19  H   UNL     1      -1.609  -1.699  -6.056  1.00  0.00     0.163 HD
ATOM     20  O   UNL     1      -1.834  -1.943  -8.440  1.00  0.00    -0.269 OA
BRANCH  18  21
ATOM     21  C   UNL     1       0.168  -3.182  -8.465  1.00  0.00     0.039 A 
ATOM     22  C   UNL     1       0.606  -2.780  -9.729  1.00  0.00     0.014 A 
ATOM     23  C   UNL     1       0.722  -4.318  -7.867  1.00  0.00     0.014 A 
ATOM     24  C   UNL     1       1.625  -3.489 -10.370  1.00  0.00     0.010 A 
ATOM     25  C   UNL     1       1.797  -4.970  -8.468  1.00  0.00     0.010 A 
ATOM     26  C   UNL     1       2.249  -4.576  -9.735  1.00  0.00    -0.014 A 
BRANCH  26  27
ATOM     27  C   UNL     1       3.348  -5.325 -10.403  1.00  0.00     0.031 A 
ATOM     28  C   UNL     1       3.169  -6.781 -10.750  1.00  0.00     0.074 A 
ATOM     29  C   UNL     1       4.515  -4.706 -10.673  1.00  0.00     0.049 A 
ATOM     30  N   UNL     1       4.008  -7.605 -11.325  1.00  0.00    -0.248 NA
ATOM     31  C   UNL     1       1.889  -7.397 -10.374  1.00  0.00     0.031 C 
ATOM     32  C   UNL     1       4.824  -3.311 -10.352  1.00  0.00     0.029 A 
ATOM     33  N   UNL     1       5.656  -5.164 -11.284  1.00  0.00    -0.354 N 
ATOM     34  C   UNL     1       3.363  -8.838 -11.365  1.00  0.00     0.074 A 
ATOM     35  C   UNL     1       2.093  -8.666 -10.693  1.00  0.00     0.031 C 
ATOM     36  C   UNL     1       6.051  -3.015 -10.810  1.00  0.00     0.029 A 
ATOM     37  C   UNL     1       6.638  -4.208 -11.412  1.00  0.00     0.049 A 
ATOM     38  H   UNL     1       5.762  -6.090 -11.600  1.00  0.00     0.167 HD
ATOM     39  C   UNL     1       3.779  -9.998 -11.931  1.00  0.00     0.034 A 
ATOM     40  C   UNL     1       7.870  -4.285 -11.953  1.00  0.00     0.034 A 
ATOM     41  C   UNL     1       5.045 -10.149 -12.608  1.00  0.00     0.049 A 
ATOM     42  C   UNL     1       8.322  -5.594 -12.551  1.00  0.00     0.074 A 
ATOM     43  C   UNL     1       5.542 -11.259 -13.269  1.00  0.00     0.029 A 
ATOM     44  N   UNL     1       6.022  -9.165 -12.700  1.00  0.00    -0.354 N 
ATOM     45  N   UNL     1       7.675  -6.734 -12.637  1.00  0.00    -0.248 NA
ATOM     46  C   UNL     1       9.667  -5.620 -13.139  1.00  0.00     0.031 C 
ATOM     47  C   UNL     1       6.848 -10.976 -13.684  1.00  0.00     0.029 A 
ATOM     48  C   UNL     1       7.133  -9.656 -13.371  1.00  0.00     0.049 A 
ATOM     49  H   UNL     1       5.939  -8.252 -12.341  1.00  0.00     0.167 HD
ATOM     50  C   UNL     1       8.521  -7.598 -13.328  1.00  0.00     0.074 A 
ATOM     51  C   UNL     1       9.714  -6.842 -13.646  1.00  0.00     0.031 C 
ATOM     52  C   UNL     1       8.325  -8.897 -13.676  1.00  0.00     0.034 A 
BRANCH  39  53
ATOM     53  C   UNL     1       2.869 -11.201 -11.808  1.00  0.00     0.023 A 
ATOM     54  C   UNL     1       1.569 -11.209 -12.345  1.00  0.00     0.031 A 
ATOM     55  C   UNL     1       3.296 -12.347 -11.113  1.00  0.00     0.131 A 
ATOM     56  C   UNL     1       0.717 -12.297 -12.105  1.00  0.00     0.055 A 
ATOM     57  C   UNL     1       2.474 -13.465 -10.958  1.00  0.00     0.041 A 
ATOM     58  F   UNL     1       4.517 -12.395 -10.556  1.00  0.00    -0.206 F 
ATOM     59  C   UNL     1       1.169 -13.438 -11.440  1.00  0.00     0.022 A 
BRANCH  56  60
ATOM     60  S   UNL     1      -1.040 -12.130 -12.528  1.00  0.00     0.124 S 
ATOM     61  O   UNL     1      -1.417 -10.947 -11.756  1.00  0.00    -0.237 OA
ATOM     62  O   UNL     1      -1.002 -11.963 -13.976  1.00  0.00    -0.237 OA
ATOM     63  O   UNL     1      -1.627 -13.383 -12.058  1.00  0.00    -0.744 OA
ENDBRANCH  56  60
ENDBRANCH  39  53
BRANCH  40  64
ATOM     64  C   UNL     1       8.769  -3.093 -11.969  1.00  0.00     0.023 A 
ATOM     65  C   UNL     1       9.193  -2.525 -13.181  1.00  0.00     0.031 A 
ATOM     66  C   UNL     1       9.261  -2.536 -10.775  1.00  0.00     0.131 A 
ATOM     67  C   UNL     1      10.122  -1.472 -13.176  1.00  0.00     0.055 A 
ATOM     68  C   UNL     1      10.137  -1.450 -10.773  1.00  0.00     0.041 A 
ATOM     69  F   UNL     1       8.887  -3.038  -9.587  1.00  0.00    -0.206 F 
ATOM     70  C   UNL     1      10.585  -0.921 -11.979  1.00  0.00     0.022 A 
BRANCH  67  71
ATOM     71  S   UNL     1      10.793  -0.898 -14.760  1.00  0.00     0.124 S 
ATOM     72  O   UNL     1      11.382  -2.122 -15.293  1.00  0.00    -0.237 OA
ATOM     73  O   UNL     1       9.596  -0.413 -15.438  1.00  0.00    -0.237 OA
ATOM     74  O   UNL     1      11.749   0.136 -14.369  1.00  0.00    -0.744 OA
ENDBRANCH  67  71
ENDBRANCH  40  64
BRANCH  52  75
ATOM     75  C   UNL     1       9.409  -9.561 -14.494  1.00  0.00     0.023 A 
ATOM     76  C   UNL     1      10.707  -9.759 -13.993  1.00  0.00     0.031 A 
ATOM     77  C   UNL     1       9.142  -9.977 -15.812  1.00  0.00     0.131 A 
ATOM     78  C   UNL     1      11.707 -10.284 -14.826  1.00  0.00     0.055 A 
ATOM     79  C   UNL     1      10.121 -10.570 -16.610  1.00  0.00     0.041 A 
ATOM     80  F   UNL     1       7.923  -9.810 -16.349  1.00  0.00    -0.206 F 
ATOM     81  C   UNL     1      11.418 -10.709 -16.125  1.00  0.00     0.022 A 
BRANCH  78  82
ATOM     82  S   UNL     1      13.422 -10.283 -14.234  1.00  0.00     0.124 S 
ATOM     83  O   UNL     1      13.632  -8.874 -13.916  1.00  0.00    -0.237 OA
ATOM     84  O   UNL     1      13.359 -11.191 -13.094  1.00  0.00    -0.237 OA
ATOM     85  O   UNL     1      14.181 -10.779 -15.381  1.00  0.00    -0.744 OA
ENDBRANCH  78  82
ENDBRANCH  52  75
ENDBRANCH  26  27
ENDBRANCH  18  21
ENDBRANCH  16  17
ENDBRANCH   1  16
TORSDOF 16
