REMARK SMILES CC(=O)NNC(=O)C[NH2+][C@@](C)(C(=O)NCCCCNC(=O)c1ccc(-c2c3nc(c(-c4cc(S(=O)(=O)[O-])ccc4F)c4ccc([nH]4)c(-c4cc(S(=O)(=O)[O-])ccc4F)c4nc(c(-c5cc(S(=O)(=O)[O-])ccc5F)c5ccc2[nH]5)C=C4)C=C3)cc1)C(F)(F)F
REMARK SMILES IDX 16 1 15 2 14 3 12 4 13 5 10 7 11 8 9 9 8 12 6 13 5 14 7 16
REMARK SMILES IDX 4 17 1 18 2 19 3 20 85 22 86 23 87 24 88 25 17 26 18 27
REMARK SMILES IDX 19 28 20 29 21 31 22 32 23 33 84 34 24 35 83 36 25 37 26 38
REMARK SMILES IDX 27 39 77 40 28 41 82 42 76 43 78 44 29 45 81 46 75 47 74 48
REMARK SMILES IDX 30 50 62 51 42 52 61 53 43 54 46 55 60 56 79 57 44 58 45 59
REMARK SMILES IDX 59 61 80 62 47 63 31 64 32 65 40 66 33 67 39 68 41 69 38 70
REMARK SMILES IDX 34 71 35 72 36 73 37 74 63 75 64 76 72 77 65 78 71 79 73 80
REMARK SMILES IDX 70 81 66 82 67 83 68 84 69 85 48 86 49 87 57 88 50 89 56 90
REMARK SMILES IDX 58 91 55 92 51 93 52 94 53 95 54 96
REMARK H PARENT 14 6 9 10 9 11 5 15 4 21 19 30 78 49 46 60
REMARK Flexibility Score: inf
ROOT
ATOM      1  C   UNL     1       5.311  -2.039   5.104  1.00  0.00     0.023 C 
ENDROOT
BRANCH   1   2
ATOM      2  C   UNL     1       4.537  -3.020   5.983  1.00  0.00     0.116 C 
BRANCH   2   3
ATOM      3  N   UNL     1       3.426  -2.370   6.659  1.00  0.00    -0.350 N 
ATOM      4  C   UNL     1       2.065  -2.494   6.560  1.00  0.00     0.290 C 
ATOM      5  O   UNL     1       1.410  -1.741   7.283  1.00  0.00    -0.267 OA
ATOM      6  H   UNL     1       3.711  -1.705   7.327  1.00  0.00     0.163 HD
BRANCH   4   7
ATOM      7  C   UNL     1       1.406  -3.517   5.600  1.00  0.00     0.268 C 
ATOM      8  C   UNL     1       1.789  -4.942   6.052  1.00  0.00     0.101 C 
BRANCH   7   9
ATOM      9  N   UNL     1       1.846  -3.163   4.200  1.00  0.00    -0.318 N 
ATOM     10  H   UNL     1       1.440  -2.258   3.963  1.00  0.00     0.347 HD
ATOM     11  H   UNL     1       2.866  -3.165   4.218  1.00  0.00     0.347 HD
BRANCH   9  12
ATOM     12  C   UNL     1       1.460  -4.121   3.154  1.00  0.00     0.364 C 
BRANCH  12  13
ATOM     13  C   UNL     1       2.088  -3.703   1.814  1.00  0.00     0.293 C 
ATOM     14  N   UNL     1       1.791  -2.464   1.298  1.00  0.00    -0.263 N 
ATOM     15  H   UNL     1       2.154  -2.229   0.414  1.00  0.00     0.191 HD
ATOM     16  O   UNL     1       2.842  -4.457   1.197  1.00  0.00    -0.267 OA
BRANCH  14  17
ATOM     17  N   UNL     1       1.005  -1.523   1.959  1.00  0.00    -0.268 N 
ATOM     18  C   UNL     1       1.046  -0.021   0.009  1.00  0.00     0.116 C 
ATOM     19  C   UNL     1       0.599  -0.331   1.412  1.00  0.00     0.235 C 
ATOM     20  O   UNL     1      -0.098   0.451   2.054  1.00  0.00    -0.274 OA
ATOM     21  H   UNL     1       0.721  -1.726   2.880  1.00  0.00     0.191 HD
ENDBRANCH  14  17
ENDBRANCH  12  13
ENDBRANCH   9  12
ENDBRANCH   7   9
BRANCH   7  22
ATOM     22  C   UNL     1      -0.133  -3.381   5.813  1.00  0.00     0.453 C 
ATOM     23  F   UNL     1      -0.613  -2.183   5.411  1.00  0.00    -0.164 F 
ATOM     24  F   UNL     1      -0.785  -4.318   5.064  1.00  0.00    -0.164 F 
ATOM     25  F   UNL     1      -0.517  -3.600   7.090  1.00  0.00    -0.164 F 
ENDBRANCH   7  22
ENDBRANCH   4   7
ENDBRANCH   2   3
ENDBRANCH   1   2
BRANCH   1  26
ATOM     26  C   UNL     1       6.097  -0.978   5.875  1.00  0.00     0.023 C 
BRANCH  26  27
ATOM     27  C   UNL     1       7.074  -1.523   6.910  1.00  0.00     0.116 C 
BRANCH  27  28
ATOM     28  N   UNL     1       8.045  -2.442   6.340  1.00  0.00    -0.352 N 
ATOM     29  C   UNL     1       9.399  -2.509   6.551  1.00  0.00     0.251 C 
ATOM     30  H   UNL     1       7.680  -3.108   5.714  1.00  0.00     0.163 HD
ATOM     31  O   UNL     1      10.081  -3.253   5.848  1.00  0.00    -0.269 OA
BRANCH  29  32
ATOM     32  C   UNL     1      10.033  -1.673   7.595  1.00  0.00     0.039 A 
ATOM     33  C   UNL     1      11.257  -1.061   7.317  1.00  0.00     0.014 A 
ATOM     34  C   UNL     1       9.432  -1.500   8.845  1.00  0.00     0.014 A 
ATOM     35  C   UNL     1      11.860  -0.250   8.281  1.00  0.00     0.010 A 
ATOM     36  C   UNL     1       9.987  -0.617   9.768  1.00  0.00     0.010 A 
ATOM     37  C   UNL     1      11.221  -0.004   9.508  1.00  0.00    -0.014 A 
BRANCH  37  38
ATOM     38  C   UNL     1      11.864   0.842  10.547  1.00  0.00     0.031 A 
ATOM     39  C   UNL     1      12.248   0.239  11.875  1.00  0.00     0.074 A 
ATOM     40  C   UNL     1      12.083   2.151  10.308  1.00  0.00     0.049 A 
ATOM     41  N   UNL     1      12.811   0.806  12.911  1.00  0.00    -0.248 NA
ATOM     42  C   UNL     1      11.924  -1.182  12.074  1.00  0.00     0.031 C 
ATOM     43  C   UNL     1      11.717   2.857   9.079  1.00  0.00     0.029 A 
ATOM     44  N   UNL     1      12.672   3.118  11.082  1.00  0.00    -0.354 N 
ATOM     45  C   UNL     1      12.896  -0.184  13.886  1.00  0.00     0.074 A 
ATOM     46  C   UNL     1      12.257  -1.362  13.342  1.00  0.00     0.031 C 
ATOM     47  C   UNL     1      12.131   4.132   9.165  1.00  0.00     0.029 A 
ATOM     48  C   UNL     1      12.749   4.348  10.469  1.00  0.00     0.049 A 
ATOM     49  H   UNL     1      13.008   2.949  11.992  1.00  0.00     0.167 HD
ATOM     50  C   UNL     1      13.480  -0.126  15.108  1.00  0.00     0.034 A 
ATOM     51  C   UNL     1      13.263   5.514  10.908  1.00  0.00     0.034 A 
ATOM     52  C   UNL     1      14.127   1.055  15.627  1.00  0.00     0.049 A 
ATOM     53  C   UNL     1      13.894   5.559  12.278  1.00  0.00     0.074 A 
ATOM     54  C   UNL     1      14.796   1.214  16.828  1.00  0.00     0.029 A 
ATOM     55  N   UNL     1      14.181   2.283  14.979  1.00  0.00    -0.354 N 
ATOM     56  N   UNL     1      14.019   4.598  13.165  1.00  0.00    -0.248 NA
ATOM     57  C   UNL     1      14.472   6.842  12.695  1.00  0.00     0.031 C 
ATOM     58  C   UNL     1      15.182   2.553  16.942  1.00  0.00     0.029 A 
ATOM     59  C   UNL     1      14.843   3.211  15.770  1.00  0.00     0.049 A 
ATOM     60  H   UNL     1      13.804   2.468  14.089  1.00  0.00     0.167 HD
ATOM     61  C   UNL     1      14.731   5.152  14.226  1.00  0.00     0.074 A 
ATOM     62  C   UNL     1      15.018   6.524  13.858  1.00  0.00     0.031 C 
ATOM     63  C   UNL     1      15.121   4.578  15.394  1.00  0.00     0.034 A 
BRANCH  50  64
ATOM     64  C   UNL     1      13.414  -1.366  15.972  1.00  0.00     0.023 A 
ATOM     65  C   UNL     1      13.990  -2.584  15.569  1.00  0.00     0.031 A 
ATOM     66  C   UNL     1      12.736  -1.339  17.204  1.00  0.00     0.131 A 
ATOM     67  C   UNL     1      13.804  -3.740  16.343  1.00  0.00     0.055 A 
ATOM     68  C   UNL     1      12.636  -2.471  18.015  1.00  0.00     0.041 A 
ATOM     69  F   UNL     1      12.144  -0.214  17.635  1.00  0.00    -0.206 F 
ATOM     70  C   UNL     1      13.156  -3.686  17.579  1.00  0.00     0.022 A 
BRANCH  67  71
ATOM     71  S   UNL     1      14.276  -5.342  15.636  1.00  0.00     0.124 S 
ATOM     72  O   UNL     1      13.472  -5.374  14.416  1.00  0.00    -0.237 OA
ATOM     73  O   UNL     1      15.715  -5.194  15.449  1.00  0.00    -0.237 OA
ATOM     74  O   UNL     1      13.875  -6.302  16.662  1.00  0.00    -0.744 OA
ENDBRANCH  67  71
ENDBRANCH  50  64
BRANCH  51  75
ATOM     75  C   UNL     1      13.220   6.735  10.050  1.00  0.00     0.023 A 
ATOM     76  C   UNL     1      14.402   7.353   9.610  1.00  0.00     0.031 A 
ATOM     77  C   UNL     1      11.997   7.335   9.702  1.00  0.00     0.131 A 
ATOM     78  C   UNL     1      14.339   8.561   8.899  1.00  0.00     0.055 A 
ATOM     79  C   UNL     1      11.938   8.504   8.941  1.00  0.00     0.041 A 
ATOM     80  F   UNL     1      10.835   6.785  10.091  1.00  0.00    -0.206 F 
ATOM     81  C   UNL     1      13.115   9.133   8.549  1.00  0.00     0.022 A 
BRANCH  78  82
ATOM     82  S   UNL     1      15.887   9.431   8.525  1.00  0.00     0.124 S 
ATOM     83  O   UNL     1      16.451   9.619   9.856  1.00  0.00    -0.237 OA
ATOM     84  O   UNL     1      16.574   8.470   7.667  1.00  0.00    -0.237 OA
ATOM     85  O   UNL     1      15.439  10.650   7.857  1.00  0.00    -0.744 OA
ENDBRANCH  78  82
ENDBRANCH  51  75
BRANCH  63  86
ATOM     86  C   UNL     1      15.961   5.420  16.328  1.00  0.00     0.023 A 
ATOM     87  C   UNL     1      15.469   6.595  16.921  1.00  0.00     0.031 A 
ATOM     88  C   UNL     1      17.291   5.051  16.602  1.00  0.00     0.131 A 
ATOM     89  C   UNL     1      16.322   7.400  17.691  1.00  0.00     0.055 A 
ATOM     90  C   UNL     1      18.111   5.814  17.433  1.00  0.00     0.041 A 
ATOM     91  F   UNL     1      17.818   3.940  16.062  1.00  0.00    -0.206 F 
ATOM     92  C   UNL     1      17.634   7.007  17.968  1.00  0.00     0.022 A 
BRANCH  89  93
ATOM     93  S   UNL     1      15.736   9.035  18.216  1.00  0.00     0.124 S 
ATOM     94  O   UNL     1      15.355   9.642  16.945  1.00  0.00    -0.237 OA
ATOM     95  O   UNL     1      14.639   8.698  19.116  1.00  0.00    -0.237 OA
ATOM     96  O   UNL     1      16.907   9.628  18.860  1.00  0.00    -0.744 OA
ENDBRANCH  89  93
ENDBRANCH  63  86
ENDBRANCH  37  38
ENDBRANCH  29  32
ENDBRANCH  27  28
ENDBRANCH  26  27
ENDBRANCH   1  26
TORSDOF 19
