REMARK SMILES O=C(NCCCCNC(=O)c1cc(F)c(F)cc1NS(=O)(=O)c1ccc2c(c1)CCC2)c1ccc(-c2c3nc(c(-c4cc(S(=O)(=O)[O-])ccc4F)c4ccc([nH]4)c(-c4cc(S(=O)(=O)[O-])ccc4F)c4nc(c(-c5cc(S(=O)(=O)[O-])ccc5F)c5ccc2[nH]5)C=C4)C=C3)cc1
REMARK SMILES IDX 5 1 4 2 3 3 1 4 2 5 32 7 33 8 94 9 34 10 93 11 35 12 36 13
REMARK SMILES IDX 37 14 87 15 38 16 92 17 86 18 88 19 39 20 91 21 85 22 84 23
REMARK SMILES IDX 40 25 72 26 52 27 71 28 53 29 56 30 70 31 89 32 54 33 55 34
REMARK SMILES IDX 69 36 90 37 57 38 41 39 42 40 50 41 43 42 49 43 51 44 48 45
REMARK SMILES IDX 44 46 45 47 46 48 47 49 73 50 74 51 82 52 75 53 81 54 83 55
REMARK SMILES IDX 80 56 76 57 77 58 78 59 79 60 58 61 59 62 67 63 60 64 66 65
REMARK SMILES IDX 68 66 65 67 61 68 62 69 63 70 64 71 6 72 7 73 8 74 9 75
REMARK SMILES IDX 10 77 11 78 12 79 18 80 13 81 17 82 14 83 15 84 16 85 19 86
REMARK SMILES IDX 20 88 21 89 22 90 23 91 24 92 28 93 25 94 27 95 26 96 29 97
REMARK SMILES IDX 31 98 30 99
REMARK H PARENT 3 6 88 24 56 35 8 76 19 87
REMARK Flexibility Score: inf
ROOT
ATOM      1  C   UNL     1       4.862   0.801  -2.749  1.00  0.00     0.023 C 
ENDROOT
BRANCH   1   2
ATOM      2  C   UNL     1       4.575   0.827  -1.254  1.00  0.00     0.116 C 
BRANCH   2   3
ATOM      3  N   UNL     1       3.152   0.848  -0.943  1.00  0.00    -0.352 N 
ATOM      4  O   UNL     1       1.224   0.107  -0.030  1.00  0.00    -0.269 OA
ATOM      5  C   UNL     1       2.449   0.036  -0.081  1.00  0.00     0.251 C 
ATOM      6  H   UNL     1       2.623   1.534  -1.411  1.00  0.00     0.163 HD
BRANCH   5   7
ATOM      7  C   UNL     1       3.180  -0.938   0.760  1.00  0.00     0.039 A 
ATOM      8  C   UNL     1       4.337  -0.551   1.436  1.00  0.00     0.014 A 
ATOM      9  C   UNL     1       2.726  -2.258   0.843  1.00  0.00     0.014 A 
ATOM     10  C   UNL     1       5.128  -1.513   2.048  1.00  0.00     0.010 A 
ATOM     11  C   UNL     1       3.475  -3.207   1.549  1.00  0.00     0.010 A 
ATOM     12  C   UNL     1       4.702  -2.850   2.127  1.00  0.00    -0.014 A 
BRANCH  12  13
ATOM     13  C   UNL     1       5.547  -3.820   2.875  1.00  0.00     0.031 A 
ATOM     14  C   UNL     1       6.206  -4.984   2.187  1.00  0.00     0.074 A 
ATOM     15  C   UNL     1       5.775  -3.585   4.183  1.00  0.00     0.049 A 
ATOM     16  N   UNL     1       7.032  -5.871   2.684  1.00  0.00    -0.248 NA
ATOM     17  C   UNL     1       5.895  -5.188   0.765  1.00  0.00     0.031 C 
ATOM     18  C   UNL     1       5.171  -2.493   4.955  1.00  0.00     0.029 A 
ATOM     19  N   UNL     1       6.595  -4.211   5.085  1.00  0.00    -0.354 N 
ATOM     20  C   UNL     1       7.334  -6.743   1.642  1.00  0.00     0.074 A 
ATOM     21  C   UNL     1       6.573  -6.296   0.494  1.00  0.00     0.031 C 
ATOM     22  C   UNL     1       5.692  -2.486   6.189  1.00  0.00     0.029 A 
ATOM     23  C   UNL     1       6.609  -3.611   6.323  1.00  0.00     0.049 A 
ATOM     24  H   UNL     1       7.123  -5.013   4.867  1.00  0.00     0.167 HD
ATOM     25  C   UNL     1       8.175  -7.809   1.645  1.00  0.00     0.034 A 
ATOM     26  C   UNL     1       7.274  -3.934   7.448  1.00  0.00     0.034 A 
ATOM     27  C   UNL     1       8.927  -8.240   2.801  1.00  0.00     0.049 A 
ATOM     28  C   UNL     1       8.195  -5.122   7.420  1.00  0.00     0.074 A 
ATOM     29  C   UNL     1       9.806  -9.304   2.913  1.00  0.00     0.029 A 
ATOM     30  N   UNL     1       8.890  -7.630   4.050  1.00  0.00    -0.354 N 
ATOM     31  N   UNL     1       8.466  -5.932   6.423  1.00  0.00    -0.248 NA
ATOM     32  C   UNL     1       8.903  -5.436   8.666  1.00  0.00     0.031 C 
ATOM     33  C   UNL     1      10.256  -9.370   4.237  1.00  0.00     0.029 A 
ATOM     34  C   UNL     1       9.712  -8.307   4.939  1.00  0.00     0.049 A 
ATOM     35  H   UNL     1       8.357  -6.832   4.271  1.00  0.00     0.167 HD
ATOM     36  C   UNL     1       9.379  -6.853   6.924  1.00  0.00     0.074 A 
ATOM     37  C   UNL     1       9.644  -6.468   8.296  1.00  0.00     0.031 C 
ATOM     38  C   UNL     1       9.939  -7.928   6.313  1.00  0.00     0.034 A 
BRANCH  25  39
ATOM     39  C   UNL     1       8.297  -8.606   0.367  1.00  0.00     0.023 A 
ATOM     40  C   UNL     1       8.870  -8.059  -0.794  1.00  0.00     0.031 A 
ATOM     41  C   UNL     1       7.837  -9.934   0.311  1.00  0.00     0.131 A 
ATOM     42  C   UNL     1       8.921  -8.818  -1.975  1.00  0.00     0.055 A 
ATOM     43  C   UNL     1       7.952 -10.707  -0.846  1.00  0.00     0.041 A 
ATOM     44  F   UNL     1       7.263 -10.503   1.383  1.00  0.00    -0.206 F 
ATOM     45  C   UNL     1       8.488 -10.146  -2.002  1.00  0.00     0.022 A 
BRANCH  42  46
ATOM     46  S   UNL     1       9.464  -8.010  -3.506  1.00  0.00     0.124 S 
ATOM     47  O   UNL     1       8.469  -6.949  -3.647  1.00  0.00    -0.237 OA
ATOM     48  O   UNL     1      10.816  -7.578  -3.173  1.00  0.00    -0.237 OA
ATOM     49  O   UNL     1       9.376  -9.074  -4.505  1.00  0.00    -0.744 OA
ENDBRANCH  42  46
ENDBRANCH  25  39
BRANCH  26  50
ATOM     50  C   UNL     1       7.062  -3.150   8.697  1.00  0.00     0.023 A 
ATOM     51  C   UNL     1       8.110  -2.440   9.301  1.00  0.00     0.031 A 
ATOM     52  C   UNL     1       5.803  -3.128   9.325  1.00  0.00     0.131 A 
ATOM     53  C   UNL     1       7.892  -1.773  10.517  1.00  0.00     0.055 A 
ATOM     54  C   UNL     1       5.576  -2.416  10.502  1.00  0.00     0.041 A 
ATOM     55  F   UNL     1       4.764  -3.788   8.786  1.00  0.00    -0.206 F 
ATOM     56  C   UNL     1       6.629  -1.745  11.113  1.00  0.00     0.022 A 
BRANCH  53  57
ATOM     57  S   UNL     1       9.309  -1.020  11.361  1.00  0.00     0.124 S 
ATOM     58  O   UNL     1      10.233  -2.144  11.456  1.00  0.00    -0.237 OA
ATOM     59  O   UNL     1       9.684   0.041  10.431  1.00  0.00    -0.237 OA
ATOM     60  O   UNL     1       8.746  -0.565  12.630  1.00  0.00    -0.744 OA
ENDBRANCH  53  57
ENDBRANCH  26  50
BRANCH  38  61
ATOM     61  C   UNL     1      10.898  -8.744   7.144  1.00  0.00     0.023 A 
ATOM     62  C   UNL     1      10.456  -9.471   8.264  1.00  0.00     0.031 A 
ATOM     63  C   UNL     1      12.271  -8.748   6.849  1.00  0.00     0.131 A 
ATOM     64  C   UNL     1      11.389 -10.110   9.093  1.00  0.00     0.055 A 
ATOM     65  C   UNL     1      13.188  -9.438   7.644  1.00  0.00     0.041 A 
ATOM     66  F   UNL     1      12.746  -8.069   5.793  1.00  0.00    -0.206 F 
ATOM     67  C   UNL     1      12.751 -10.109   8.783  1.00  0.00     0.022 A 
BRANCH  64  68
ATOM     68  S   UNL     1      10.809 -10.841  10.649  1.00  0.00     0.124 S 
ATOM     69  O   UNL     1      10.179  -9.699  11.305  1.00  0.00    -0.237 OA
ATOM     70  O   UNL     1       9.905 -11.887  10.183  1.00  0.00    -0.237 OA
ATOM     71  O   UNL     1      12.037 -11.320  11.281  1.00  0.00    -0.744 OA
ENDBRANCH  64  68
ENDBRANCH  38  61
ENDBRANCH  12  13
ENDBRANCH   5   7
ENDBRANCH   2   3
ENDBRANCH   1   2
BRANCH   1  72
ATOM     72  C   UNL     1       4.390   2.030  -3.522  1.00  0.00     0.023 C 
BRANCH  72  73
ATOM     73  C   UNL     1       4.906   3.365  -2.989  1.00  0.00     0.116 C 
BRANCH  73  74
ATOM     74  N   UNL     1       6.357   3.461  -3.062  1.00  0.00    -0.352 N 
ATOM     75  C   UNL     1       7.117   4.414  -3.689  1.00  0.00     0.253 C 
ATOM     76  H   UNL     1       6.857   2.749  -2.600  1.00  0.00     0.163 HD
ATOM     77  O   UNL     1       8.313   4.244  -3.890  1.00  0.00    -0.269 OA
BRANCH  75  78
ATOM     78  C   UNL     1       6.466   5.637  -4.182  1.00  0.00     0.067 A 
ATOM     79  C   UNL     1       5.768   6.429  -3.252  1.00  0.00     0.058 A 
ATOM     80  C   UNL     1       6.486   5.958  -5.552  1.00  0.00     0.065 A 
ATOM     81  C   UNL     1       5.013   7.499  -3.703  1.00  0.00     0.159 A 
ATOM     82  C   UNL     1       5.684   7.023  -5.971  1.00  0.00     0.070 A 
ATOM     83  F   UNL     1       4.289   8.214  -2.833  1.00  0.00    -0.204 F 
ATOM     84  C   UNL     1       4.962   7.787  -5.056  1.00  0.00     0.160 A 
ATOM     85  F   UNL     1       4.181   8.777  -5.508  1.00  0.00    -0.204 F 
BRANCH  80  86
ATOM     86  N   UNL     1       7.143   5.109  -6.526  1.00  0.00    -0.279 N 
ATOM     87  H   UNL     1       6.866   4.169  -6.625  1.00  0.00     0.180 HD
BRANCH  86  88
ATOM     88  S   UNL     1       8.399   5.739  -7.502  1.00  0.00     0.261 S 
ATOM     89  O   UNL     1       9.361   6.372  -6.629  1.00  0.00    -0.201 OA
ATOM     90  O   UNL     1       8.788   4.683  -8.415  1.00  0.00    -0.201 OA
BRANCH  88  91
ATOM     91  C   UNL     1       7.630   7.003  -8.484  1.00  0.00     0.088 A 
ATOM     92  C   UNL     1       8.034   8.339  -8.292  1.00  0.00     0.022 A 
ATOM     93  C   UNL     1       6.539   6.674  -9.300  1.00  0.00     0.026 A 
ATOM     94  C   UNL     1       7.290   9.379  -8.845  1.00  0.00     0.005 A 
ATOM     95  C   UNL     1       5.801   7.723  -9.825  1.00  0.00    -0.043 A 
ATOM     96  C   UNL     1       6.164   9.056  -9.584  1.00  0.00    -0.045 A 
ATOM     97  C   UNL     1       4.492   7.654 -10.548  1.00  0.00     0.036 C 
ATOM     98  C   UNL     1       5.127   9.997 -10.112  1.00  0.00     0.036 C 
ATOM     99  C   UNL     1       4.358   9.089 -11.079  1.00  0.00     0.010 C 
ENDBRANCH  88  91
ENDBRANCH  86  88
ENDBRANCH  80  86
ENDBRANCH  75  78
ENDBRANCH  73  74
ENDBRANCH  72  73
ENDBRANCH   1  72
TORSDOF 17
