REMARK SMILES O=C(C[NH2+]CC1CC1)N[C@@H]1CCCCC[C@H]1C(=O)NCCCCNC(=O)c1ccc(-c2c3nc(c(-c4cc(S(=O)(=O)[O-])ccc4F)c4ccc([nH]4)c(-c4cc(S(=O)(=O)[O-])ccc4F)c4nc(c(-c5cc(S(=O)(=O)[O-])ccc5F)c5ccc2[nH]5)C=C4)C=C3)cc1
REMARK SMILES IDX 20 1 19 2 17 3 18 4 16 6 10 7 9 8 1 9 2 10 3 12 4 13 5 16
REMARK SMILES IDX 6 17 7 18 8 19 11 20 15 22 14 23 13 24 12 25 21 27 22 28
REMARK SMILES IDX 23 29 24 30 25 31 26 33 27 34 28 35 89 36 29 37 88 38 30 39
REMARK SMILES IDX 31 40 32 41 82 42 33 43 87 44 81 45 83 46 34 47 86 48 80 49
REMARK SMILES IDX 79 50 35 52 67 53 47 54 66 55 48 56 51 57 65 58 84 59 49 60
REMARK SMILES IDX 50 61 64 63 85 64 52 65 36 66 37 67 45 68 38 69 44 70 46 71
REMARK SMILES IDX 43 72 39 73 40 74 41 75 42 76 68 77 69 78 77 79 70 80 76 81
REMARK SMILES IDX 78 82 75 83 71 84 72 85 73 86 74 87 53 88 54 89 62 90 55 91
REMARK SMILES IDX 61 92 63 93 60 94 56 95 57 96 58 97 59 98
REMARK H PARENT 19 5 9 11 4 14 4 15 24 32 83 51 51 62
REMARK Flexibility Score: 100.00
ROOT
ATOM      1  C   UNL     1       0.674   0.214   5.477  1.00  0.00     0.116 C 
ENDROOT
BRANCH   1   2
ATOM      2  N   UNL     1       0.173  -0.540   4.352  1.00  0.00    -0.356 N 
ATOM      3  C   UNL     1       0.785  -1.328   3.435  1.00  0.00     0.225 C 
ATOM      4  O   UNL     1       0.060  -2.170   2.886  1.00  0.00    -0.275 OA
ATOM      5  H   UNL     1      -0.801  -0.468   4.228  1.00  0.00     0.163 HD
BRANCH   3   6
ATOM      6  C   UNL     1       2.277  -1.266   3.062  1.00  0.00     0.101 C 
BRANCH   6   7
ATOM      7  C   UNL     1       2.785   0.119   2.601  1.00  0.00     0.094 C 
BRANCH   7   8
ATOM      8  N   UNL     1       3.029   0.107   1.141  1.00  0.00    -0.348 N 
ATOM      9  O   UNL     1       0.858   0.197   0.381  1.00  0.00    -0.268 OA
ATOM     10  C   UNL     1       2.061   0.134   0.161  1.00  0.00     0.275 C 
ATOM     11  H   UNL     1       3.967   0.078   0.843  1.00  0.00     0.163 HD
BRANCH  10  12
ATOM     12  C   UNL     1       2.660   0.057  -1.254  1.00  0.00     0.361 C 
BRANCH  12  13
ATOM     13  N   UNL     1       3.614   1.169  -1.419  1.00  0.00    -0.338 N 
ATOM     14  H   UNL     1       4.281   1.139  -0.647  1.00  0.00     0.346 HD
ATOM     15  H   UNL     1       3.070   2.031  -1.427  1.00  0.00     0.346 HD
BRANCH  13  16
ATOM     16  C   UNL     1       4.356   1.121  -2.671  1.00  0.00     0.264 C 
BRANCH  16  17
ATOM     17  C   UNL     1       3.490   1.322  -3.880  1.00  0.00     0.044 C 
ATOM     18  C   UNL     1       4.087   1.897  -5.144  1.00  0.00     0.010 C 
ATOM     19  C   UNL     1       3.691   0.452  -5.098  1.00  0.00     0.010 C 
ENDBRANCH  16  17
ENDBRANCH  13  16
ENDBRANCH  12  13
ENDBRANCH  10  12
ENDBRANCH   7   8
BRANCH   7  20
ATOM     20  C   UNL     1       4.111   0.610   3.205  1.00  0.00     0.026 CG0
ATOM     21  G   UNL     1       4.188   0.752   4.712  1.00  0.00     0.000 G0
ENDBRANCH   7  20
ENDBRANCH   6   7
BRANCH   6  22
ATOM     22  C   UNL     1       3.201  -2.148   3.913  1.00  0.00     0.015 C 
BRANCH  22  23
ATOM     23  C   UNL     1       3.580  -1.720   5.322  1.00  0.00     0.001 C 
BRANCH  23  24
ATOM     24  C   UNL     1       4.535  -0.537   5.445  1.00  0.00     0.000 C 
BRANCH  24  25
ATOM     25  C   UNL     1       4.188   0.752   4.712  1.00  0.00     0.002 CG0
ATOM     26  G   UNL     1       4.111   0.610   3.205  1.00  0.00     0.000 G0
ENDBRANCH  24  25
ENDBRANCH  23  24
ENDBRANCH  22  23
ENDBRANCH   6  22
ENDBRANCH   3   6
ENDBRANCH   1   2
BRANCH   1  27
ATOM     27  C   UNL     1       0.366   1.707   5.418  1.00  0.00     0.023 C 
BRANCH  27  28
ATOM     28  C   UNL     1      -0.427   2.234   6.616  1.00  0.00     0.023 C 
BRANCH  28  29
ATOM     29  C   UNL     1       0.111   1.903   8.006  1.00  0.00     0.116 C 
BRANCH  29  30
ATOM     30  N   UNL     1       1.424   2.454   8.309  1.00  0.00    -0.352 N 
ATOM     31  C   UNL     1       1.864   2.954   9.521  1.00  0.00     0.251 C 
ATOM     32  H   UNL     1       2.072   2.471   7.568  1.00  0.00     0.163 HD
ATOM     33  O   UNL     1       2.995   3.419   9.629  1.00  0.00    -0.269 OA
BRANCH  31  34
ATOM     34  C   UNL     1       0.923   2.980  10.665  1.00  0.00     0.039 A 
ATOM     35  C   UNL     1       0.633   4.201  11.277  1.00  0.00     0.014 A 
ATOM     36  C   UNL     1       0.229   1.824  11.031  1.00  0.00     0.014 A 
ATOM     37  C   UNL     1      -0.438   4.286  12.172  1.00  0.00     0.010 A 
ATOM     38  C   UNL     1      -0.888   1.930  11.855  1.00  0.00     0.010 A 
ATOM     39  C   UNL     1      -1.250   3.166  12.417  1.00  0.00    -0.014 A 
BRANCH  39  40
ATOM     40  C   UNL     1      -2.499   3.268  13.221  1.00  0.00     0.031 A 
ATOM     41  C   UNL     1      -2.662   2.450  14.473  1.00  0.00     0.074 A 
ATOM     42  C   UNL     1      -3.527   4.018  12.775  1.00  0.00     0.049 A 
ATOM     43  N   UNL     1      -3.709   2.312  15.247  1.00  0.00    -0.248 NA
ATOM     44  C   UNL     1      -1.502   1.645  14.878  1.00  0.00     0.031 C 
ATOM     45  C   UNL     1      -3.527   4.814  11.545  1.00  0.00     0.029 A 
ATOM     46  N   UNL     1      -4.778   4.228  13.301  1.00  0.00    -0.354 N 
ATOM     47  C   UNL     1      -3.342   1.385  16.217  1.00  0.00     0.074 A 
ATOM     48  C   UNL     1      -2.004   0.942  15.880  1.00  0.00     0.031 C 
ATOM     49  C   UNL     1      -4.701   5.455  11.434  1.00  0.00     0.029 A 
ATOM     50  C   UNL     1      -5.556   5.084  12.556  1.00  0.00     0.049 A 
ATOM     51  H   UNL     1      -5.089   3.805  14.134  1.00  0.00     0.167 HD
ATOM     52  C   UNL     1      -4.038   0.966  17.305  1.00  0.00     0.034 A 
ATOM     53  C   UNL     1      -6.816   5.519  12.753  1.00  0.00     0.034 A 
ATOM     54  C   UNL     1      -5.363   1.430  17.638  1.00  0.00     0.049 A 
ATOM     55  C   UNL     1      -7.580   5.035  13.956  1.00  0.00     0.074 A 
ATOM     56  C   UNL     1      -6.137   1.121  18.744  1.00  0.00     0.029 A 
ATOM     57  N   UNL     1      -6.118   2.300  16.860  1.00  0.00    -0.354 N 
ATOM     58  N   UNL     1      -7.203   4.194  14.891  1.00  0.00    -0.248 NA
ATOM     59  C   UNL     1      -8.940   5.563  14.130  1.00  0.00     0.031 C 
ATOM     60  C   UNL     1      -7.376   1.761  18.608  1.00  0.00     0.029 A 
ATOM     61  C   UNL     1      -7.354   2.520  17.449  1.00  0.00     0.049 A 
ATOM     62  H   UNL     1      -5.817   2.703  16.013  1.00  0.00     0.167 HD
ATOM     63  C   UNL     1      -8.270   4.116  15.782  1.00  0.00     0.074 A 
ATOM     64  C   UNL     1      -9.301   4.998  15.274  1.00  0.00     0.031 C 
ATOM     65  C   UNL     1      -8.382   3.388  16.922  1.00  0.00     0.034 A 
BRANCH  52  66
ATOM     66  C   UNL     1      -3.367  -0.063  18.187  1.00  0.00     0.023 A 
ATOM     67  C   UNL     1      -2.138   0.204  18.817  1.00  0.00     0.031 A 
ATOM     68  C   UNL     1      -3.910  -1.351  18.331  1.00  0.00     0.131 A 
ATOM     69  C   UNL     1      -1.435  -0.831  19.450  1.00  0.00     0.055 A 
ATOM     70  C   UNL     1      -3.253  -2.350  19.053  1.00  0.00     0.041 A 
ATOM     71  F   UNL     1      -5.073  -1.674  17.744  1.00  0.00    -0.206 F 
ATOM     72  C   UNL     1      -1.995  -2.101  19.595  1.00  0.00     0.022 A 
BRANCH  69  73
ATOM     73  S   UNL     1       0.303  -0.545  19.889  1.00  0.00     0.124 S 
ATOM     74  O   UNL     1       0.874  -0.167  18.598  1.00  0.00    -0.237 OA
ATOM     75  O   UNL     1       0.206   0.520  20.881  1.00  0.00    -0.237 OA
ATOM     76  O   UNL     1       0.745  -1.840  20.401  1.00  0.00    -0.744 OA
ENDBRANCH  69  73
ENDBRANCH  52  66
BRANCH  53  77
ATOM     77  C   UNL     1      -7.436   6.481  11.800  1.00  0.00     0.023 A 
ATOM     78  C   UNL     1      -7.690   7.806  12.188  1.00  0.00     0.031 A 
ATOM     79  C   UNL     1      -7.798   6.089  10.500  1.00  0.00     0.131 A 
ATOM     80  C   UNL     1      -8.321   8.686  11.296  1.00  0.00     0.055 A 
ATOM     81  C   UNL     1      -8.391   6.980   9.603  1.00  0.00     0.041 A 
ATOM     82  F   UNL     1      -7.565   4.836  10.079  1.00  0.00    -0.206 F 
ATOM     83  C   UNL     1      -8.664   8.285  10.003  1.00  0.00     0.022 A 
BRANCH  80  84
ATOM     84  S   UNL     1      -8.725  10.359  11.868  1.00  0.00     0.124 S 
ATOM     85  O   UNL     1      -9.654  10.085  12.958  1.00  0.00    -0.237 OA
ATOM     86  O   UNL     1      -7.415  10.873  12.255  1.00  0.00    -0.237 OA
ATOM     87  O   UNL     1      -9.314  10.989  10.688  1.00  0.00    -0.744 OA
ENDBRANCH  80  84
ENDBRANCH  53  77
BRANCH  65  88
ATOM     88  C   UNL     1      -9.653   3.557  17.715  1.00  0.00     0.023 A 
ATOM     89  C   UNL     1     -10.889   3.081  17.243  1.00  0.00     0.031 A 
ATOM     90  C   UNL     1      -9.628   4.222  18.953  1.00  0.00     0.131 A 
ATOM     91  C   UNL     1     -12.057   3.321  17.982  1.00  0.00     0.055 A 
ATOM     92  C   UNL     1     -10.785   4.412  19.709  1.00  0.00     0.041 A 
ATOM     93  F   UNL     1      -8.474   4.698  19.449  1.00  0.00    -0.206 F 
ATOM     94  C   UNL     1     -12.011   3.971  19.219  1.00  0.00     0.022 A 
BRANCH  91  95
ATOM     95  S   UNL     1     -13.655   2.841  17.269  1.00  0.00     0.124 S 
ATOM     96  O   UNL     1     -13.681   3.616  16.032  1.00  0.00    -0.237 OA
ATOM     97  O   UNL     1     -13.508   1.398  17.115  1.00  0.00    -0.237 OA
ATOM     98  O   UNL     1     -14.623   3.260  18.282  1.00  0.00    -0.744 OA
ENDBRANCH  91  95
ENDBRANCH  65  88
ENDBRANCH  39  40
ENDBRANCH  31  34
ENDBRANCH  29  30
ENDBRANCH  28  29
ENDBRANCH  27  28
ENDBRANCH   1  27
TORSDOF 19
