REMARK SMILES O=C(NCCCCNC(=O)c1ccc(-c2c3nc(c(-c4cc(S(=O)(=O)[O-])ccc4F)c4ccc([nH]4)c(-c4cc(S(=O)(=O)[O-])ccc4F)c4nc(c(-c5cc(S(=O)(=O)[O-])ccc5F)c5ccc2[nH]5)C=C4)C=C3)cc1)C1=Cc2c(ccc(Cl)c2Cl)O[C@H]1C(F)(F)F
REMARK SMILES IDX 6 1 5 2 4 3 3 4 1 5 2 6 74 8 75 9 85 10 76 11 84 12 77 13
REMARK SMILES IDX 82 14 78 15 80 16 83 17 79 18 81 19 86 20 87 21 88 22 89 23
REMARK SMILES IDX 7 24 8 25 9 26 10 28 11 29 12 30 73 31 13 32 72 33 14 34
REMARK SMILES IDX 15 35 16 36 66 37 17 38 71 39 65 40 67 41 18 42 70 43 64 44
REMARK SMILES IDX 63 45 19 47 51 48 31 49 50 50 32 51 35 52 49 53 68 54 33 55
REMARK SMILES IDX 34 56 48 58 69 59 36 60 20 61 21 62 29 63 22 64 28 65 30 66
REMARK SMILES IDX 27 67 23 68 24 69 25 70 26 71 52 72 53 73 61 74 54 75 60 76
REMARK SMILES IDX 62 77 59 78 55 79 56 80 57 81 58 82 37 83 38 84 46 85 39 86
REMARK SMILES IDX 45 87 47 88 44 89 40 90 41 91 42 92 43 93
REMARK H PARENT 3 7 8 27 67 46 35 57
REMARK Flexibility Score: inf
ROOT
ATOM      1  C   UNL     1       3.839   1.434   4.119  1.00  0.00     0.023 C 
ENDROOT
BRANCH   1   2
ATOM      2  C   UNL     1       4.178   1.851   2.691  1.00  0.00     0.023 C 
BRANCH   2   3
ATOM      3  C   UNL     1       3.963   0.793   1.617  1.00  0.00     0.116 C 
BRANCH   3   4
ATOM      4  N   UNL     1       2.596   0.635   1.153  1.00  0.00    -0.352 N 
ATOM      5  O   UNL     1       0.960   0.074  -0.304  1.00  0.00    -0.270 OA
ATOM      6  C   UNL     1       2.153   0.079  -0.021  1.00  0.00     0.251 C 
ATOM      7  H   UNL     1       1.896   0.970   1.758  1.00  0.00     0.163 HD
BRANCH   6   8
ATOM      8  C   UNL     1       3.131  -0.489  -0.990  1.00  0.00     0.067 C 
ATOM      9  C   UNL     1       3.671  -1.668  -0.640  1.00  0.00     0.027 C 
ATOM     10  C   UNL     1       3.883   0.519  -1.815  1.00  0.00     0.314 C 
ATOM     11  C   UNL     1       5.109  -1.581  -0.315  1.00  0.00     0.037 A 
ATOM     12  O   UNL     1       5.333   0.436  -1.678  1.00  0.00    -0.475 OA
ATOM     13  C   UNL     1       5.842  -0.489  -0.802  1.00  0.00     0.129 A 
ATOM     14  C   UNL     1       5.688  -2.450   0.632  1.00  0.00     0.070 A 
ATOM     15  C   UNL     1       7.125  -0.235  -0.323  1.00  0.00     0.049 A 
ATOM     16  C   UNL     1       6.966  -2.169   1.131  1.00  0.00     0.060 A 
ATOM     17  Cl  UNL     1       4.777  -3.803   1.230  1.00  0.00    -0.082 Cl
ATOM     18  C   UNL     1       7.673  -1.056   0.664  1.00  0.00     0.026 A 
ATOM     19  Cl  UNL     1       7.705  -3.119   2.370  1.00  0.00    -0.083 Cl
BRANCH  10  20
ATOM     20  C   UNL     1       3.480   0.449  -3.304  1.00  0.00     0.429 C 
ATOM     21  F   UNL     1       2.509  -0.460  -3.553  1.00  0.00    -0.167 F 
ATOM     22  F   UNL     1       3.022   1.649  -3.738  1.00  0.00    -0.167 F 
ATOM     23  F   UNL     1       4.528   0.119  -4.099  1.00  0.00    -0.167 F 
ENDBRANCH  10  20
ENDBRANCH   6   8
ENDBRANCH   3   4
ENDBRANCH   2   3
ENDBRANCH   1   2
BRANCH   1  24
ATOM     24  C   UNL     1       4.483   0.146   4.634  1.00  0.00     0.116 C 
BRANCH  24  25
ATOM     25  N   UNL     1       5.933   0.099   4.517  1.00  0.00    -0.352 N 
ATOM     26  C   UNL     1       6.874  -0.341   5.430  1.00  0.00     0.251 C 
ATOM     27  H   UNL     1       6.297   0.428   3.663  1.00  0.00     0.163 HD
ATOM     28  O   UNL     1       8.062  -0.267   5.155  1.00  0.00    -0.269 OA
BRANCH  26  29
ATOM     29  C   UNL     1       6.435  -0.826   6.763  1.00  0.00     0.039 A 
ATOM     30  C   UNL     1       7.050  -0.299   7.902  1.00  0.00     0.014 A 
ATOM     31  C   UNL     1       5.375  -1.726   6.895  1.00  0.00     0.014 A 
ATOM     32  C   UNL     1       6.516  -0.571   9.167  1.00  0.00     0.010 A 
ATOM     33  C   UNL     1       4.798  -1.933   8.147  1.00  0.00     0.010 A 
ATOM     34  C   UNL     1       5.342  -1.332   9.293  1.00  0.00    -0.014 A 
BRANCH  34  35
ATOM     35  C   UNL     1       4.634  -1.451  10.598  1.00  0.00     0.031 A 
ATOM     36  C   UNL     1       4.446  -2.793  11.248  1.00  0.00     0.074 A 
ATOM     37  C   UNL     1       4.073  -0.354  11.149  1.00  0.00     0.049 A 
ATOM     38  N   UNL     1       3.775  -3.103  12.329  1.00  0.00    -0.248 NA
ATOM     39  C   UNL     1       5.067  -3.942  10.574  1.00  0.00     0.031 C 
ATOM     40  C   UNL     1       4.126   0.998  10.585  1.00  0.00     0.029 A 
ATOM     41  N   UNL     1       3.334  -0.200  12.297  1.00  0.00    -0.354 N 
ATOM     42  C   UNL     1       3.876  -4.485  12.455  1.00  0.00     0.074 A 
ATOM     43  C   UNL     1       4.629  -4.953  11.310  1.00  0.00     0.031 C 
ATOM     44  C   UNL     1       3.467   1.841  11.396  1.00  0.00     0.029 A 
ATOM     45  C   UNL     1       2.908   1.091  12.515  1.00  0.00     0.049 A 
ATOM     46  H   UNL     1       3.127  -0.945  12.907  1.00  0.00     0.167 HD
ATOM     47  C   UNL     1       3.400  -5.285  13.443  1.00  0.00     0.034 A 
ATOM     48  C   UNL     1       2.145   1.612  13.495  1.00  0.00     0.034 A 
ATOM     49  C   UNL     1       2.665  -4.803  14.588  1.00  0.00     0.049 A 
ATOM     50  C   UNL     1       1.641   0.708  14.590  1.00  0.00     0.074 A 
ATOM     51  C   UNL     1       2.198  -5.520  15.677  1.00  0.00     0.029 A 
ATOM     52  N   UNL     1       2.282  -3.484  14.791  1.00  0.00    -0.354 N 
ATOM     53  N   UNL     1       1.796  -0.589  14.725  1.00  0.00    -0.248 NA
ATOM     54  C   UNL     1       0.871   1.339  15.669  1.00  0.00     0.031 C 
ATOM     55  C   UNL     1       1.486  -4.647  16.507  1.00  0.00     0.029 A 
ATOM     56  C   UNL     1       1.565  -3.371  15.973  1.00  0.00     0.049 A 
ATOM     57  H   UNL     1       2.490  -2.737  14.185  1.00  0.00     0.167 HD
ATOM     58  C   UNL     1       1.164  -0.923  15.918  1.00  0.00     0.074 A 
ATOM     59  C   UNL     1       0.639   0.309  16.470  1.00  0.00     0.031 C 
ATOM     60  C   UNL     1       1.034  -2.139  16.507  1.00  0.00     0.034 A 
BRANCH  47  61
ATOM     61  C   UNL     1       3.645  -6.768  13.307  1.00  0.00     0.023 A 
ATOM     62  C   UNL     1       4.944  -7.305  13.316  1.00  0.00     0.031 A 
ATOM     63  C   UNL     1       2.568  -7.656  13.137  1.00  0.00     0.131 A 
ATOM     64  C   UNL     1       5.139  -8.673  13.078  1.00  0.00     0.055 A 
ATOM     65  C   UNL     1       2.764  -9.030  12.981  1.00  0.00     0.041 A 
ATOM     66  F   UNL     1       1.305  -7.201  13.104  1.00  0.00    -0.206 F 
ATOM     67  C   UNL     1       4.057  -9.544  12.934  1.00  0.00     0.022 A 
BRANCH  64  68
ATOM     68  S   UNL     1       6.831  -9.274  12.819  1.00  0.00     0.124 S 
ATOM     69  O   UNL     1       7.245  -8.492  11.656  1.00  0.00    -0.237 OA
ATOM     70  O   UNL     1       7.481  -8.938  14.079  1.00  0.00    -0.237 OA
ATOM     71  O   UNL     1       6.653 -10.703  12.569  1.00  0.00    -0.744 OA
ENDBRANCH  64  68
ENDBRANCH  47  61
BRANCH  48  72
ATOM     72  C   UNL     1       1.798   3.062  13.490  1.00  0.00     0.023 A 
ATOM     73  C   UNL     1       2.296   3.929  14.475  1.00  0.00     0.031 A 
ATOM     74  C   UNL     1       0.934   3.594  12.517  1.00  0.00     0.131 A 
ATOM     75  C   UNL     1       1.895   5.274  14.490  1.00  0.00     0.055 A 
ATOM     76  C   UNL     1       0.573   4.942  12.510  1.00  0.00     0.041 A 
ATOM     77  F   UNL     1       0.438   2.808  11.547  1.00  0.00    -0.206 F 
ATOM     78  C   UNL     1       1.046   5.788  13.508  1.00  0.00     0.022 A 
BRANCH  75  79
ATOM     79  S   UNL     1       2.450   6.330  15.856  1.00  0.00     0.124 S 
ATOM     80  O   UNL     1       1.913   5.626  17.015  1.00  0.00    -0.237 OA
ATOM     81  O   UNL     1       3.900   6.293  15.697  1.00  0.00    -0.237 OA
ATOM     82  O   UNL     1       1.826   7.619  15.564  1.00  0.00    -0.744 OA
ENDBRANCH  75  79
ENDBRANCH  48  72
BRANCH  60  83
ATOM     83  C   UNL     1       0.329  -2.181  17.840  1.00  0.00     0.023 A 
ATOM     84  C   UNL     1      -1.047  -1.919  17.958  1.00  0.00     0.031 A 
ATOM     85  C   UNL     1       1.051  -2.473  19.010  1.00  0.00     0.131 A 
ATOM     86  C   UNL     1      -1.649  -1.904  19.225  1.00  0.00     0.055 A 
ATOM     87  C   UNL     1       0.437  -2.510  20.262  1.00  0.00     0.041 A 
ATOM     88  F   UNL     1       2.368  -2.728  18.954  1.00  0.00    -0.206 F 
ATOM     89  C   UNL     1      -0.918  -2.213  20.377  1.00  0.00     0.022 A 
BRANCH  86  90
ATOM     90  S   UNL     1      -3.384  -1.395  19.361  1.00  0.00     0.124 S 
ATOM     91  O   UNL     1      -3.352  -0.050  18.795  1.00  0.00    -0.237 OA
ATOM     92  O   UNL     1      -4.070  -2.406  18.564  1.00  0.00    -0.237 OA
ATOM     93  O   UNL     1      -3.649  -1.456  20.798  1.00  0.00    -0.744 OA
ENDBRANCH  86  90
ENDBRANCH  60  83
ENDBRANCH  34  35
ENDBRANCH  26  29
ENDBRANCH  24  25
ENDBRANCH   1  24
TORSDOF 15
