REMARK SMILES O=C(CN1C(=O)/C(=C2\SC(N3CCN(c4ccccc4F)CC3)=[NH+]C2=O)c2ccccc21)NCCCCNC(=O)c1ccc(-c2c3nc(c(-c4cc(S(=O)(=O)[O-])ccc4F)c4ccc([nH]4)c(-c4cc(S(=O)(=O)[O-])ccc4F)c4nc(c(-c5cc(S(=O)(=O)[O-])ccc5F)c5ccc2[nH]5)C=C4)C=C3)cc1
REMARK SMILES IDX 36 1 35 2 34 3 33 4 1 5 2 6 3 8 4 9 5 10 32 11 6 12 7 13
REMARK SMILES IDX 27 14 31 15 8 16 28 17 30 18 9 19 25 20 29 21 10 22 24 23
REMARK SMILES IDX 26 24 11 25 12 27 23 28 13 29 22 30 14 31 15 32 16 33 20 34
REMARK SMILES IDX 17 35 19 36 21 37 18 38 37 39 38 40 39 41 40 43 41 44 42 45
REMARK SMILES IDX 103 46 43 47 102 48 44 49 45 50 46 51 96 52 47 53 101 54
REMARK SMILES IDX 95 55 97 56 48 57 100 58 94 59 93 60 49 62 81 63 61 64 80 65
REMARK SMILES IDX 62 66 65 67 79 68 98 69 63 70 64 71 78 73 99 74 66 75 50 76
REMARK SMILES IDX 51 77 59 78 52 79 58 80 60 81 57 82 53 83 54 84 55 85 56 86
REMARK SMILES IDX 82 87 83 88 91 89 84 90 90 91 92 92 89 93 85 94 86 95 87 96
REMARK SMILES IDX 88 97 67 98 68 99 76 100 69 101 75 102 77 103 74 104 70 105
REMARK SMILES IDX 71 106 72 107 73 108
REMARK H PARENT 33 7 24 26 38 42 97 61 65 72
REMARK Flexibility Score: inf
ROOT
ATOM      1  C   UNL     1       3.930   2.253   3.248  1.00  0.00     0.023 C 
ENDROOT
BRANCH   1   2
ATOM      2  C   UNL     1       2.448   2.015   2.963  1.00  0.00     0.023 C 
BRANCH   2   3
ATOM      3  C   UNL     1       2.063   1.989   1.487  1.00  0.00     0.116 C 
BRANCH   3   4
ATOM      4  N   UNL     1       2.787   0.995   0.718  1.00  0.00    -0.355 N 
ATOM      5  O   UNL     1       1.024  -0.435   0.461  1.00  0.00    -0.273 OA
ATOM      6  C   UNL     1       2.162  -0.085   0.140  1.00  0.00     0.240 C 
ATOM      7  H   UNL     1       3.760   1.096   0.607  1.00  0.00     0.163 HD
BRANCH   6   8
ATOM      8  C   UNL     1       3.021  -0.984  -0.773  1.00  0.00     0.225 C 
BRANCH   8   9
ATOM      9  N   UNL     1       3.959  -0.430  -1.746  1.00  0.00    -0.298 N 
ATOM     10  C   UNL     1       4.010   0.883  -2.184  1.00  0.00     0.260 C 
ATOM     11  C   UNL     1       4.754  -1.249  -2.575  1.00  0.00     0.053 A 
ATOM     12  O   UNL     1       3.362   1.817  -1.750  1.00  0.00    -0.269 OA
ATOM     13  C   UNL     1       5.004   0.914  -3.329  1.00  0.00     0.071 C 
ATOM     14  C   UNL     1       5.400  -0.485  -3.563  1.00  0.00     0.012 A 
ATOM     15  C   UNL     1       4.910  -2.625  -2.488  1.00  0.00     0.027 A 
ATOM     16  C   UNL     1       5.393   2.071  -3.892  1.00  0.00     0.122 C 
ATOM     17  C   UNL     1       6.255  -1.111  -4.455  1.00  0.00     0.011 A 
ATOM     18  C   UNL     1       5.755  -3.251  -3.403  1.00  0.00     0.002 A 
ATOM     19  S   UNL     1       5.086   3.636  -3.223  1.00  0.00     0.007 SA
ATOM     20  C   UNL     1       6.233   2.294  -5.112  1.00  0.00     0.347 C 
ATOM     21  C   UNL     1       6.426  -2.499  -4.376  1.00  0.00     0.001 A 
ATOM     22  C   UNL     1       6.343   4.333  -4.217  1.00  0.00     0.319 C 
ATOM     23  N   UNL     1       6.778   3.561  -5.155  1.00  0.00    -0.200 N 
ATOM     24  O   UNL     1       6.360   1.471  -6.007  1.00  0.00    -0.240 OA
ATOM     25  N   UNL     1       6.760   5.609  -3.947  1.00  0.00    -0.252 N 
ATOM     26  H   UNL     1       7.433   3.847  -5.832  1.00  0.00     0.316 HD
ATOM     27  C   UNL     1       6.674   6.186  -2.589  1.00  0.00     0.258 C 
ATOM     28  C   UNL     1       6.909   6.585  -5.047  1.00  0.00     0.258 C 
ATOM     29  C   UNL     1       7.762   7.237  -2.334  1.00  0.00     0.162 C 
ATOM     30  C   UNL     1       7.903   7.727  -4.736  1.00  0.00     0.162 C 
ATOM     31  N   UNL     1       7.665   8.250  -3.385  1.00  0.00    -0.361 N 
BRANCH  31  32
ATOM     32  C   UNL     1       7.968   9.570  -3.088  1.00  0.00     0.073 A 
ATOM     33  C   UNL     1       7.227  10.590  -3.706  1.00  0.00     0.029 A 
ATOM     34  C   UNL     1       8.932   9.958  -2.140  1.00  0.00     0.146 A 
ATOM     35  C   UNL     1       7.417  11.933  -3.367  1.00  0.00     0.002 A 
ATOM     36  C   UNL     1       9.145  11.295  -1.813  1.00  0.00     0.041 A 
ATOM     37  F   UNL     1       9.673   9.026  -1.517  1.00  0.00    -0.205 F 
ATOM     38  C   UNL     1       8.376  12.285  -2.421  1.00  0.00     0.003 A 
ENDBRANCH  31  32
ENDBRANCH   8   9
ENDBRANCH   6   8
ENDBRANCH   3   4
ENDBRANCH   2   3
ENDBRANCH   1   2
BRANCH   1  39
ATOM     39  C   UNL     1       4.534   3.506   2.623  1.00  0.00     0.116 C 
BRANCH  39  40
ATOM     40  N   UNL     1       3.981   4.747   3.148  1.00  0.00    -0.352 N 
ATOM     41  C   UNL     1       4.632   5.847   3.665  1.00  0.00     0.251 C 
ATOM     42  H   UNL     1       2.998   4.809   3.132  1.00  0.00     0.163 HD
ATOM     43  O   UNL     1       3.984   6.765   4.159  1.00  0.00    -0.269 OA
BRANCH  41  44
ATOM     44  C   UNL     1       6.113   5.895   3.668  1.00  0.00     0.039 A 
ATOM     45  C   UNL     1       6.843   5.520   2.539  1.00  0.00     0.014 A 
ATOM     46  C   UNL     1       6.780   6.276   4.835  1.00  0.00     0.014 A 
ATOM     47  C   UNL     1       8.217   5.326   2.642  1.00  0.00     0.010 A 
ATOM     48  C   UNL     1       8.174   6.171   4.906  1.00  0.00     0.010 A 
ATOM     49  C   UNL     1       8.898   5.631   3.833  1.00  0.00    -0.014 A 
BRANCH  49  50
ATOM     50  C   UNL     1      10.360   5.362   3.931  1.00  0.00     0.031 A 
ATOM     51  C   UNL     1      10.898   4.351   4.912  1.00  0.00     0.074 A 
ATOM     52  C   UNL     1      11.203   5.996   3.094  1.00  0.00     0.049 A 
ATOM     53  N   UNL     1      12.132   3.949   5.084  1.00  0.00    -0.248 NA
ATOM     54  C   UNL     1       9.932   3.712   5.819  1.00  0.00     0.031 C 
ATOM     55  C   UNL     1      10.800   6.997   2.106  1.00  0.00     0.029 A 
ATOM     56  N   UNL     1      12.560   5.881   2.918  1.00  0.00    -0.354 N 
ATOM     57  C   UNL     1      12.096   3.035   6.132  1.00  0.00     0.074 A 
ATOM     58  C   UNL     1      10.722   2.964   6.578  1.00  0.00     0.031 C 
ATOM     59  C   UNL     1      11.871   7.360   1.388  1.00  0.00     0.029 A 
ATOM     60  C   UNL     1      13.052   6.674   1.908  1.00  0.00     0.049 A 
ATOM     61  H   UNL     1      13.126   5.289   3.464  1.00  0.00     0.167 HD
ATOM     62  C   UNL     1      13.112   2.312   6.663  1.00  0.00     0.034 A 
ATOM     63  C   UNL     1      14.310   6.840   1.449  1.00  0.00     0.034 A 
ATOM     64  C   UNL     1      14.472   2.370   6.188  1.00  0.00     0.049 A 
ATOM     65  C   UNL     1      15.426   6.038   2.065  1.00  0.00     0.074 A 
ATOM     66  C   UNL     1      15.556   1.624   6.616  1.00  0.00     0.029 A 
ATOM     67  N   UNL     1      14.940   3.216   5.192  1.00  0.00    -0.354 N 
ATOM     68  N   UNL     1      15.362   5.126   3.006  1.00  0.00    -0.248 NA
ATOM     69  C   UNL     1      16.784   6.283   1.560  1.00  0.00     0.031 C 
ATOM     70  C   UNL     1      16.689   2.070   5.936  1.00  0.00     0.029 A 
ATOM     71  C   UNL     1      16.304   3.038   5.022  1.00  0.00     0.049 A 
ATOM     72  H   UNL     1      14.385   3.849   4.682  1.00  0.00     0.167 HD
ATOM     73  C   UNL     1      16.667   4.679   3.199  1.00  0.00     0.074 A 
ATOM     74  C   UNL     1      17.495   5.403   2.256  1.00  0.00     0.031 C 
ATOM     75  C   UNL     1      17.131   3.757   4.080  1.00  0.00     0.034 A 
BRANCH  62  76
ATOM     76  C   UNL     1      12.820   1.384   7.819  1.00  0.00     0.023 A 
ATOM     77  C   UNL     1      13.447   1.596   9.063  1.00  0.00     0.031 A 
ATOM     78  C   UNL     1      12.036   0.228   7.662  1.00  0.00     0.131 A 
ATOM     79  C   UNL     1      13.302   0.653  10.088  1.00  0.00     0.055 A 
ATOM     80  C   UNL     1      11.860  -0.688   8.701  1.00  0.00     0.041 A 
ATOM     81  F   UNL     1      11.421  -0.025   6.495  1.00  0.00    -0.206 F 
ATOM     82  C   UNL     1      12.505  -0.483   9.917  1.00  0.00     0.022 A 
BRANCH  79  83
ATOM     83  S   UNL     1      14.197   0.825  11.657  1.00  0.00     0.124 S 
ATOM     84  O   UNL     1      13.099   0.931  12.616  1.00  0.00    -0.237 OA
ATOM     85  O   UNL     1      14.956  -0.422  11.714  1.00  0.00    -0.237 OA
ATOM     86  O   UNL     1      14.988   2.037  11.480  1.00  0.00    -0.744 OA
ENDBRANCH  79  83
ENDBRANCH  62  76
BRANCH  63  87
ATOM     87  C   UNL     1      14.536   7.770   0.305  1.00  0.00     0.023 A 
ATOM     88  C   UNL     1      14.243   9.142   0.419  1.00  0.00     0.031 A 
ATOM     89  C   UNL     1      14.908   7.275  -0.955  1.00  0.00     0.131 A 
ATOM     90  C   UNL     1      14.249   9.954  -0.722  1.00  0.00     0.055 A 
ATOM     91  C   UNL     1      14.976   8.101  -2.078  1.00  0.00     0.041 A 
ATOM     92  F   UNL     1      15.188   5.972  -1.113  1.00  0.00    -0.206 F 
ATOM     93  C   UNL     1      14.623   9.443  -1.969  1.00  0.00     0.022 A 
BRANCH  90  94
ATOM     94  S   UNL     1      13.624  11.657  -0.650  1.00  0.00     0.124 S 
ATOM     95  O   UNL     1      14.838  12.434  -0.881  1.00  0.00    -0.237 OA
ATOM     96  O   UNL     1      12.648  11.677  -1.737  1.00  0.00    -0.237 OA
ATOM     97  O   UNL     1      13.051  11.758   0.688  1.00  0.00    -0.744 OA
ENDBRANCH  90  94
ENDBRANCH  63  87
BRANCH  75  98
ATOM     98  C   UNL     1      18.611   3.453   4.103  1.00  0.00     0.023 A 
ATOM     99  C   UNL     1      19.068   2.153   3.812  1.00  0.00     0.031 A 
ATOM    100  C   UNL     1      19.544   4.394   4.572  1.00  0.00     0.131 A 
ATOM    101  C   UNL     1      20.408   1.815   4.041  1.00  0.00     0.055 A 
ATOM    102  C   UNL     1      20.889   4.067   4.750  1.00  0.00     0.041 A 
ATOM    103  F   UNL     1      19.158   5.644   4.874  1.00  0.00    -0.206 F 
ATOM    104  C   UNL     1      21.323   2.768   4.501  1.00  0.00     0.022 A 
BRANCH 101 105
ATOM    105  S   UNL     1      20.990   0.107   3.847  1.00  0.00     0.124 S 
ATOM    106  O   UNL     1      22.010   0.251   2.812  1.00  0.00    -0.237 OA
ATOM    107  O   UNL     1      21.495  -0.199   5.183  1.00  0.00    -0.237 OA
ATOM    108  O   UNL     1      19.796  -0.629   3.445  1.00  0.00    -0.744 OA
ENDBRANCH 101 105
ENDBRANCH  75  98
ENDBRANCH  49  50
ENDBRANCH  41  44
ENDBRANCH  39  40
ENDBRANCH   1  39
TORSDOF 16
