REMARK SMILES O=C(COc1ccccc1[C@@H]1C2=C(CCCC2=O)Nc2nc(SCc3ccccn3)nn21)NCCCCNC(=O)c1ccc(-c2c3nc(c(-c4cc(S(=O)(=O)[O-])ccc4F)c4ccc([nH]4)c(-c4cc(S(=O)(=O)[O-])ccc4F)c4nc(c(-c5cc(S(=O)(=O)[O-])ccc5F)c5ccc2[nH]5)C=C4)C=C3)cc1
REMARK SMILES IDX 34 1 33 2 1 3 2 4 3 6 4 7 5 8 6 9 10 10 7 11 9 12 8 13 11 14
REMARK SMILES IDX 12 15 32 16 13 17 17 18 20 19 31 20 14 21 19 22 16 23 18 24
REMARK SMILES IDX 21 25 22 26 15 27 23 29 24 30 25 31 26 32 30 33 27 34 29 35
REMARK SMILES IDX 28 36 35 37 36 38 37 39 38 40 39 41 40 43 41 44 42 45 103 46
REMARK SMILES IDX 43 47 102 48 44 49 45 50 46 51 96 52 47 53 101 54 95 55
REMARK SMILES IDX 97 56 48 57 100 58 94 59 93 60 49 62 81 63 61 64 80 65 62 66
REMARK SMILES IDX 65 67 79 68 98 69 63 70 64 71 78 73 99 74 66 75 50 76 51 77
REMARK SMILES IDX 59 78 52 79 58 80 60 81 57 82 53 83 54 84 55 85 56 86 82 87
REMARK SMILES IDX 83 88 91 89 84 90 90 91 92 92 89 93 85 94 86 95 87 96 88 97
REMARK SMILES IDX 67 98 68 99 76 100 69 101 75 102 77 103 74 104 70 105 71 106
REMARK SMILES IDX 72 107 73 108
REMARK H PARENT 33 5 19 28 38 42 97 61 65 72
REMARK Flexibility Score: inf
ROOT
ATOM      1  C   UNL     1       3.433  -1.292   2.244  1.00  0.00     0.116 C 
ENDROOT
BRANCH   1   2
ATOM      2  N   UNL     1       3.679  -0.266   0.506  1.00  0.00    -0.353 N 
ATOM      3  O   UNL     1       2.754  -0.787  -1.756  1.00  0.00    -0.271 OA
ATOM      4  C   UNL     1       3.271  -0.039  -0.931  1.00  0.00     0.257 C 
ATOM      5  H   UNL     1       4.398   0.384   0.682  1.00  0.00     0.163 HD
BRANCH   4   6
ATOM      6  C   UNL     1       3.481   1.421  -1.350  1.00  0.00     0.329 C 
BRANCH   6   7
ATOM      7  O   UNL     1       3.671   2.140  -0.148  1.00  0.00    -0.483 OA
BRANCH   7   8
ATOM      8  C   UNL     1       2.712   3.065   0.175  1.00  0.00     0.125 A 
ATOM      9  C   UNL     1       3.228   4.365   0.034  1.00  0.00     0.047 A 
ATOM     10  C   UNL     1       1.558   2.795   0.958  1.00  0.00     0.024 A 
ATOM     11  C   UNL     1       2.669   5.426   0.726  1.00  0.00     0.004 A 
ATOM     12  C   UNL     1       1.010   3.914   1.633  1.00  0.00     0.010 A 
ATOM     13  C   UNL     1       1.578   5.194   1.550  1.00  0.00     0.001 A 
BRANCH  10  14
ATOM     14  C   UNL     1       0.944   1.419   1.339  1.00  0.00     0.181 C 
ATOM     15  C   UNL     1       1.943   0.294   1.508  1.00  0.00     0.044 C 
ATOM     16  N   UNL     1      -0.164   0.976   0.448  1.00  0.00    -0.218 N 
ATOM     17  C   UNL     1       1.757  -1.053   0.804  1.00  0.00     0.027 C 
ATOM     18  C   UNL     1       3.568   0.915   2.282  1.00  0.00     0.163 C 
ATOM     19  C   UNL     1      -0.361  -0.328   0.015  1.00  0.00     0.227 A 
ATOM     20  N   UNL     1      -1.270   1.721   0.159  1.00  0.00    -0.141 NA
ATOM     21  C   UNL     1       3.226  -2.248   0.325  1.00  0.00     0.055 C 
ATOM     22  N   UNL     1       0.566  -1.289   0.166  1.00  0.00    -0.328 N 
ATOM     23  C   UNL     1       5.229  -0.020   1.848  1.00  0.00     0.081 C 
ATOM     24  O   UNL     1       3.526   1.818   3.113  1.00  0.00    -0.294 OA
ATOM     25  N   UNL     1      -1.527  -0.437  -0.553  1.00  0.00    -0.185 NA
ATOM     26  C   UNL     1      -2.040   0.818  -0.466  1.00  0.00     0.210 A 
ATOM     27  C   UNL     1       5.053  -1.698   0.836  1.00  0.00     0.014 C 
ATOM     28  H   UNL     1       0.385  -2.188  -0.191  1.00  0.00     0.169 HD
BRANCH  26  29
ATOM     29  S   UNL     1      -3.599   1.195  -1.153  1.00  0.00    -0.078 SA
BRANCH  29  30
ATOM     30  C   UNL     1      -4.033  -0.422  -1.893  1.00  0.00     0.134 C 
BRANCH  30  31
ATOM     31  C   UNL     1      -3.151  -0.965  -3.005  1.00  0.00     0.051 A 
ATOM     32  C   UNL     1      -2.374  -0.146  -3.824  1.00  0.00     0.025 A 
ATOM     33  N   UNL     1      -3.191  -2.315  -3.188  1.00  0.00    -0.260 NA
ATOM     34  C   UNL     1      -1.567  -0.725  -4.802  1.00  0.00     0.003 A 
ATOM     35  C   UNL     1      -2.396  -2.848  -4.144  1.00  0.00     0.111 A 
ATOM     36  C   UNL     1      -1.571  -2.102  -4.964  1.00  0.00     0.020 A 
ENDBRANCH  30  31
ENDBRANCH  29  30
ENDBRANCH  26  29
ENDBRANCH  10  14
ENDBRANCH   7   8
ENDBRANCH   6   7
ENDBRANCH   4   6
ENDBRANCH   1   2
BRANCH   1  37
ATOM     37  C   UNL     1       2.837  -2.778   2.720  1.00  0.00     0.023 C 
BRANCH  37  38
ATOM     38  C   UNL     1       3.869  -3.916   2.925  1.00  0.00     0.023 C 
BRANCH  38  39
ATOM     39  C   UNL     1       4.881  -3.684   4.053  1.00  0.00     0.116 C 
BRANCH  39  40
ATOM     40  N   UNL     1       4.282  -3.887   5.362  1.00  0.00    -0.352 N 
ATOM     41  C   UNL     1       4.692  -3.371   6.569  1.00  0.00     0.251 C 
ATOM     42  H   UNL     1       3.484  -4.464   5.387  1.00  0.00     0.163 HD
ATOM     43  O   UNL     1       4.470  -3.994   7.602  1.00  0.00    -0.269 OA
BRANCH  41  44
ATOM     44  C   UNL     1       5.379  -2.067   6.612  1.00  0.00     0.039 A 
ATOM     45  C   UNL     1       6.474  -1.889   7.459  1.00  0.00     0.014 A 
ATOM     46  C   UNL     1       4.894  -1.004   5.844  1.00  0.00     0.014 A 
ATOM     47  C   UNL     1       7.117  -0.655   7.481  1.00  0.00     0.010 A 
ATOM     48  C   UNL     1       5.563   0.210   5.831  1.00  0.00     0.010 A 
ATOM     49  C   UNL     1       6.674   0.392   6.652  1.00  0.00    -0.014 A 
BRANCH  49  50
ATOM     50  C   UNL     1       7.507   1.593   6.532  1.00  0.00     0.031 A 
ATOM     51  C   UNL     1       8.927   1.308   6.188  1.00  0.00     0.074 A 
ATOM     52  C   UNL     1       7.074   2.872   6.546  1.00  0.00     0.049 A 
ATOM     53  N   UNL     1       9.959   1.440   6.952  1.00  0.00    -0.248 NA
ATOM     54  C   UNL     1       9.222   0.649   4.905  1.00  0.00     0.031 C 
ATOM     55  C   UNL     1       5.696   3.358   6.588  1.00  0.00     0.029 A 
ATOM     56  N   UNL     1       7.799   4.024   6.424  1.00  0.00    -0.354 N 
ATOM     57  C   UNL     1      11.063   1.127   6.168  1.00  0.00     0.074 A 
ATOM     58  C   UNL     1      10.540   0.458   5.006  1.00  0.00     0.031 C 
ATOM     59  C   UNL     1       5.674   4.671   6.265  1.00  0.00     0.029 A 
ATOM     60  C   UNL     1       7.039   5.154   6.128  1.00  0.00     0.049 A 
ATOM     61  H   UNL     1       8.776   4.054   6.537  1.00  0.00     0.167 HD
ATOM     62  C   UNL     1      12.286   1.667   6.432  1.00  0.00     0.034 A 
ATOM     63  C   UNL     1       7.490   6.383   5.751  1.00  0.00     0.034 A 
ATOM     64  C   UNL     1      12.340   2.204   7.777  1.00  0.00     0.049 A 
ATOM     65  C   UNL     1       8.878   6.507   6.264  1.00  0.00     0.074 A 
ATOM     66  C   UNL     1      12.049   1.688   9.028  1.00  0.00     0.029 A 
ATOM     67  N   UNL     1      12.338   3.572   7.946  1.00  0.00    -0.354 N 
ATOM     68  N   UNL     1       9.166   6.550   7.536  1.00  0.00    -0.248 NA
ATOM     69  C   UNL     1       9.970   6.091   5.397  1.00  0.00     0.031 C 
ATOM     70  C   UNL     1      11.345   2.735   9.694  1.00  0.00     0.029 A 
ATOM     71  C   UNL     1      11.352   3.855   8.861  1.00  0.00     0.049 A 
ATOM     72  H   UNL     1      12.928   4.221   7.498  1.00  0.00     0.167 HD
ATOM     73  C   UNL     1      10.285   5.744   7.673  1.00  0.00     0.074 A 
ATOM     74  C   UNL     1      10.795   5.572   6.313  1.00  0.00     0.031 C 
ATOM     75  C   UNL     1      10.534   5.053   8.827  1.00  0.00     0.034 A 
BRANCH  62  76
ATOM     76  C   UNL     1      13.298   2.051   5.372  1.00  0.00     0.023 A 
ATOM     77  C   UNL     1      14.514   2.607   5.815  1.00  0.00     0.031 A 
ATOM     78  C   UNL     1      13.030   2.190   3.991  1.00  0.00     0.131 A 
ATOM     79  C   UNL     1      15.322   3.361   4.947  1.00  0.00     0.055 A 
ATOM     80  C   UNL     1      13.877   2.875   3.115  1.00  0.00     0.041 A 
ATOM     81  F   UNL     1      11.897   1.761   3.423  1.00  0.00    -0.206 F 
ATOM     82  C   UNL     1      15.013   3.499   3.598  1.00  0.00     0.022 A 
BRANCH  79  83
ATOM     83  S   UNL     1      16.675   4.327   5.665  1.00  0.00     0.124 S 
ATOM     84  O   UNL     1      15.966   5.111   6.671  1.00  0.00    -0.237 OA
ATOM     85  O   UNL     1      17.557   3.279   6.168  1.00  0.00    -0.237 OA
ATOM     86  O   UNL     1      17.191   5.085   4.528  1.00  0.00    -0.744 OA
ENDBRANCH  79  83
ENDBRANCH  62  76
BRANCH  63  87
ATOM     87  C   UNL     1       6.890   7.310   4.743  1.00  0.00     0.023 A 
ATOM     88  C   UNL     1       7.297   8.656   4.585  1.00  0.00     0.031 A 
ATOM     89  C   UNL     1       6.052   6.791   3.731  1.00  0.00     0.131 A 
ATOM     90  C   UNL     1       6.864   9.411   3.464  1.00  0.00     0.055 A 
ATOM     91  C   UNL     1       5.626   7.541   2.634  1.00  0.00     0.041 A 
ATOM     92  F   UNL     1       5.689   5.500   3.715  1.00  0.00    -0.206 F 
ATOM     93  C   UNL     1       6.035   8.853   2.490  1.00  0.00     0.022 A 
BRANCH  90  94
ATOM     94  S   UNL     1       7.469  11.109   3.179  1.00  0.00     0.124 S 
ATOM     95  O   UNL     1       6.747  11.870   4.191  1.00  0.00    -0.237 OA
ATOM     96  O   UNL     1       8.908  10.970   3.371  1.00  0.00    -0.237 OA
ATOM     97  O   UNL     1       7.065  11.387   1.799  1.00  0.00    -0.744 OA
ENDBRANCH  90  94
ENDBRANCH  63  87
BRANCH  75  98
ATOM     98  C   UNL     1       9.759   5.394  10.087  1.00  0.00     0.023 A 
ATOM     99  C   UNL     1       8.350   5.469  10.187  1.00  0.00     0.031 A 
ATOM    100  C   UNL     1      10.498   5.533  11.278  1.00  0.00     0.131 A 
ATOM    101  C   UNL     1       7.740   5.687  11.440  1.00  0.00     0.055 A 
ATOM    102  C   UNL     1       9.890   5.720  12.518  1.00  0.00     0.041 A 
ATOM    103  F   UNL     1      11.840   5.454  11.262  1.00  0.00    -0.206 F 
ATOM    104  C   UNL     1       8.508   5.805  12.603  1.00  0.00     0.022 A 
BRANCH 101 105
ATOM    105  S   UNL     1       5.930   5.848  11.585  1.00  0.00     0.124 S 
ATOM    106  O   UNL     1       5.578   6.745  10.491  1.00  0.00    -0.237 OA
ATOM    107  O   UNL     1       5.479   4.466  11.452  1.00  0.00    -0.237 OA
ATOM    108  O   UNL     1       5.748   6.420  12.921  1.00  0.00    -0.744 OA
ENDBRANCH 101 105
ENDBRANCH  75  98
ENDBRANCH  49  50
ENDBRANCH  41  44
ENDBRANCH  39  40
ENDBRANCH  38  39
ENDBRANCH  37  38
ENDBRANCH   1  37
TORSDOF 20
