REMARK SMILES CC1=C(CC(=O)NCCCCNC(=O)c2ccc(-c3c4nc(c(-c5cc(S(=O)(=O)[O-])ccc5F)c5ccc([nH]5)c(-c5cc(S(=O)(=O)[O-])ccc5F)c5nc(c(-c6cc(S(=O)(=O)[O-])ccc6F)c6ccc3[nH]6)C=C5)C=C4)cc2)c2cc(F)ccc2/C1=C\c1cccc(OCc2ccccc2)c1
REMARK SMILES IDX 8 1 7 2 5 3 6 4 4 6 3 7 1 8 2 9 85 10 78 11 84 12 86 13
REMARK SMILES IDX 79 14 83 15 80 16 82 17 81 18 87 19 88 20 100 21 89 22 91 23
REMARK SMILES IDX 90 24 92 25 93 26 94 27 95 28 99 29 96 30 98 31 97 32 9 33
REMARK SMILES IDX 10 34 11 35 12 36 13 37 14 39 15 40 16 41 77 42 17 43 76 44
REMARK SMILES IDX 18 45 19 46 20 47 70 48 21 49 75 50 69 51 71 52 22 53 74 54
REMARK SMILES IDX 68 55 67 56 23 58 55 59 35 60 54 61 36 62 39 63 53 64 72 65
REMARK SMILES IDX 37 66 38 67 52 69 73 70 40 71 24 72 25 73 33 74 26 75 32 76
REMARK SMILES IDX 34 77 31 78 27 79 28 80 29 81 30 82 56 83 57 84 65 85 58 86
REMARK SMILES IDX 64 87 66 88 63 89 59 90 60 91 61 92 62 93 41 94 42 95 50 96
REMARK SMILES IDX 43 97 49 98 51 99 48 100 44 101 45 102 46 103 47 104
REMARK H PARENT 7 5 12 38 71 57 39 68
REMARK Flexibility Score: inf
ROOT
ATOM      1  C   UNL     1       2.493  -1.374   2.675  1.00  0.00     0.116 C 
ENDROOT
BRANCH   1   2
ATOM      2  N   UNL     1       1.574  -1.561   3.780  1.00  0.00    -0.356 N 
ATOM      3  C   UNL     1       0.233  -1.313   3.832  1.00  0.00     0.224 C 
ATOM      4  O   UNL     1      -0.367  -1.538   4.886  1.00  0.00    -0.275 OA
ATOM      5  H   UNL     1       1.973  -1.916   4.608  1.00  0.00     0.163 HD
BRANCH   3   6
ATOM      6  C   UNL     1      -0.512  -0.808   2.598  1.00  0.00     0.136 C 
BRANCH   6   7
ATOM      7  C   UNL     1      -0.148   0.593   2.226  1.00  0.00    -0.027 C 
ATOM      8  C   UNL     1       0.762   0.292  -0.150  1.00  0.00     0.045 C 
ATOM      9  C   UNL     1       0.415   1.056   1.085  1.00  0.00    -0.039 C 
ATOM     10  C   UNL     1       0.687   2.496   1.223  1.00  0.00    -0.014 C 
ATOM     11  C   UNL     1      -0.354   1.744   3.125  1.00  0.00    -0.011 A 
ATOM     12  C   UNL     1       0.130   2.919   2.518  1.00  0.00    -0.010 A 
ATOM     13  C   UNL     1       1.373   3.218   0.321  1.00  0.00     0.017 C 
ATOM     14  C   UNL     1      -0.928   1.787   4.388  1.00  0.00     0.048 A 
ATOM     15  C   UNL     1       0.029   4.146   3.161  1.00  0.00     0.012 A 
ATOM     16  C   UNL     1      -1.009   3.018   5.033  1.00  0.00     0.123 A 
ATOM     17  C   UNL     1      -0.541   4.190   4.434  1.00  0.00     0.040 A 
ATOM     18  F   UNL     1      -1.556   3.086   6.254  1.00  0.00    -0.207 F 
BRANCH  13  19
ATOM     19  C   UNL     1       1.645   4.652   0.381  1.00  0.00    -0.021 A 
ATOM     20  C   UNL     1       2.693   5.178   1.139  1.00  0.00     0.008 A 
ATOM     21  C   UNL     1       0.810   5.506  -0.347  1.00  0.00     0.054 A 
ATOM     22  C   UNL     1       2.885   6.559   1.181  1.00  0.00     0.004 A 
ATOM     23  C   UNL     1       1.020   6.882  -0.343  1.00  0.00     0.120 A 
ATOM     24  C   UNL     1       2.050   7.405   0.442  1.00  0.00     0.046 A 
BRANCH  23  25
ATOM     25  O   UNL     1       0.296   7.801  -1.053  1.00  0.00    -0.489 OA
BRANCH  25  26
ATOM     26  C   UNL     1      -0.616   7.320  -2.049  1.00  0.00     0.265 C 
BRANCH  26  27
ATOM     27  C   UNL     1       0.084   6.803  -3.287  1.00  0.00    -0.011 A 
ATOM     28  C   UNL     1       0.962   7.633  -3.998  1.00  0.00     0.007 A 
ATOM     29  C   UNL     1      -0.116   5.488  -3.734  1.00  0.00     0.007 A 
ATOM     30  C   UNL     1       1.639   7.153  -5.120  1.00  0.00     0.000 A 
ATOM     31  C   UNL     1       0.573   5.005  -4.848  1.00  0.00     0.000 A 
ATOM     32  C   UNL     1       1.450   5.838  -5.540  1.00  0.00     0.000 A 
ENDBRANCH  26  27
ENDBRANCH  25  26
ENDBRANCH  23  25
ENDBRANCH  13  19
ENDBRANCH   6   7
ENDBRANCH   3   6
ENDBRANCH   1   2
BRANCH   1  33
ATOM     33  C   UNL     1       3.251  -0.049   2.764  1.00  0.00     0.023 C 
BRANCH  33  34
ATOM     34  C   UNL     1       4.295   0.029   3.876  1.00  0.00     0.023 C 
BRANCH  34  35
ATOM     35  C   UNL     1       5.389  -1.026   3.815  1.00  0.00     0.116 C 
BRANCH  35  36
ATOM     36  N   UNL     1       6.148  -1.015   2.573  1.00  0.00    -0.352 N 
ATOM     37  C   UNL     1       7.477  -1.328   2.386  1.00  0.00     0.251 C 
ATOM     38  H   UNL     1       5.650  -0.751   1.766  1.00  0.00     0.163 HD
ATOM     39  O   UNL     1       7.995  -1.182   1.283  1.00  0.00    -0.269 OA
BRANCH  37  40
ATOM     40  C   UNL     1       8.278  -1.784   3.543  1.00  0.00     0.039 A 
ATOM     41  C   UNL     1       7.779  -2.761   4.407  1.00  0.00     0.014 A 
ATOM     42  C   UNL     1       9.506  -1.173   3.806  1.00  0.00     0.014 A 
ATOM     43  C   UNL     1       8.415  -2.992   5.621  1.00  0.00     0.010 A 
ATOM     44  C   UNL     1      10.190  -1.472   4.989  1.00  0.00     0.010 A 
ATOM     45  C   UNL     1       9.621  -2.342   5.932  1.00  0.00    -0.014 A 
BRANCH  45  46
ATOM     46  C   UNL     1      10.259  -2.593   7.251  1.00  0.00     0.031 A 
ATOM     47  C   UNL     1      10.379  -1.497   8.275  1.00  0.00     0.074 A 
ATOM     48  C   UNL     1      10.667  -3.841   7.549  1.00  0.00     0.049 A 
ATOM     49  N   UNL     1      10.849  -1.560   9.494  1.00  0.00    -0.248 NA
ATOM     50  C   UNL     1       9.915  -0.157   7.883  1.00  0.00     0.031 C 
ATOM     51  C   UNL     1      10.594  -4.980   6.633  1.00  0.00     0.029 A 
ATOM     52  N   UNL     1      11.188  -4.372   8.702  1.00  0.00    -0.354 N 
ATOM     53  C   UNL     1      10.743  -0.275  10.014  1.00  0.00     0.074 A 
ATOM     54  C   UNL     1      10.204   0.559   8.961  1.00  0.00     0.031 C 
ATOM     55  C   UNL     1      10.994  -6.085   7.277  1.00  0.00     0.029 A 
ATOM     56  C   UNL     1      11.417  -5.726   8.628  1.00  0.00     0.049 A 
ATOM     57  H   UNL     1      11.379  -3.835   9.505  1.00  0.00     0.167 HD
ATOM     58  C   UNL     1      11.049   0.164  11.259  1.00  0.00     0.034 A 
ATOM     59  C   UNL     1      11.916  -6.587   9.539  1.00  0.00     0.034 A 
ATOM     60  C   UNL     1      11.579  -0.679  12.300  1.00  0.00     0.049 A 
ATOM     61  C   UNL     1      12.273  -6.071  10.907  1.00  0.00     0.074 A 
ATOM     62  C   UNL     1      11.924  -0.327  13.593  1.00  0.00     0.029 A 
ATOM     63  N   UNL     1      11.833  -2.038  12.177  1.00  0.00    -0.354 N 
ATOM     64  N   UNL     1      12.143  -4.856  11.388  1.00  0.00    -0.248 NA
ATOM     65  C   UNL     1      12.839  -7.035  11.860  1.00  0.00     0.031 C 
ATOM     66  C   UNL     1      12.430  -1.459  14.236  1.00  0.00     0.029 A 
ATOM     67  C   UNL     1      12.345  -2.535  13.366  1.00  0.00     0.049 A 
ATOM     68  H   UNL     1      11.673  -2.572  11.365  1.00  0.00     0.167 HD
ATOM     69  C   UNL     1      12.606  -4.910  12.698  1.00  0.00     0.074 A 
ATOM     70  C   UNL     1      12.985  -6.287  12.947  1.00  0.00     0.031 C 
ATOM     71  C   UNL     1      12.717  -3.909  13.607  1.00  0.00     0.034 A 
BRANCH  58  72
ATOM     72  C   UNL     1      10.807   1.617  11.587  1.00  0.00     0.023 A 
ATOM     73  C   UNL     1      11.886   2.463  11.903  1.00  0.00     0.031 A 
ATOM     74  C   UNL     1       9.503   2.133  11.696  1.00  0.00     0.131 A 
ATOM     75  C   UNL     1      11.640   3.772  12.338  1.00  0.00     0.055 A 
ATOM     76  C   UNL     1       9.265   3.449  12.096  1.00  0.00     0.041 A 
ATOM     77  F   UNL     1       8.440   1.366  11.403  1.00  0.00    -0.206 F 
ATOM     78  C   UNL     1      10.337   4.271  12.430  1.00  0.00     0.022 A 
BRANCH  75  79
ATOM     79  S   UNL     1      12.995   4.862  12.854  1.00  0.00     0.124 S 
ATOM     80  O   UNL     1      12.862   5.971  11.911  1.00  0.00    -0.237 OA
ATOM     81  O   UNL     1      12.631   5.171  14.234  1.00  0.00    -0.237 OA
ATOM     82  O   UNL     1      14.190   4.043  12.685  1.00  0.00    -0.744 OA
ENDBRANCH  75  79
ENDBRANCH  58  72
BRANCH  59  83
ATOM     83  C   UNL     1      12.046  -8.026   9.170  1.00  0.00     0.023 A 
ATOM     84  C   UNL     1      12.868  -8.423   8.098  1.00  0.00     0.031 A 
ATOM     85  C   UNL     1      11.248  -9.002   9.789  1.00  0.00     0.131 A 
ATOM     86  C   UNL     1      12.805  -9.738   7.622  1.00  0.00     0.055 A 
ATOM     87  C   UNL     1      11.248 -10.331   9.360  1.00  0.00     0.041 A 
ATOM     88  F   UNL     1      10.439  -8.669  10.806  1.00  0.00    -0.206 F 
ATOM     89  C   UNL     1      12.013 -10.699   8.257  1.00  0.00     0.022 A 
BRANCH  86  90
ATOM     90  S   UNL     1      13.625 -10.202   6.071  1.00  0.00     0.124 S 
ATOM     91  O   UNL     1      14.543 -11.246   6.512  1.00  0.00    -0.237 OA
ATOM     92  O   UNL     1      12.495 -10.655   5.262  1.00  0.00    -0.237 OA
ATOM     93  O   UNL     1      14.247  -8.960   5.625  1.00  0.00    -0.744 OA
ENDBRANCH  86  90
ENDBRANCH  59  83
BRANCH  71  94
ATOM     94  C   UNL     1      13.286  -4.234  14.967  1.00  0.00     0.023 A 
ATOM     95  C   UNL     1      12.492  -4.085  16.120  1.00  0.00     0.031 A 
ATOM     96  C   UNL     1      14.646  -4.551  15.130  1.00  0.00     0.131 A 
ATOM     97  C   UNL     1      13.075  -4.217  17.387  1.00  0.00     0.055 A 
ATOM     98  C   UNL     1      15.211  -4.723  16.394  1.00  0.00     0.041 A 
ATOM     99  F   UNL     1      15.445  -4.693  14.060  1.00  0.00    -0.206 F 
ATOM    100  C   UNL     1      14.428  -4.542  17.530  1.00  0.00     0.022 A 
BRANCH  97 101
ATOM    101  S   UNL     1      12.121  -3.891  18.896  1.00  0.00     0.124 S 
ATOM    102  O   UNL     1      12.165  -5.189  19.566  1.00  0.00    -0.237 OA
ATOM    103  O   UNL     1      12.903  -2.834  19.532  1.00  0.00    -0.237 OA
ATOM    104  O   UNL     1      10.808  -3.490  18.404  1.00  0.00    -0.744 OA
ENDBRANCH  97 101
ENDBRANCH  71  94
ENDBRANCH  45  46
ENDBRANCH  37  40
ENDBRANCH  35  36
ENDBRANCH  34  35
ENDBRANCH  33  34
ENDBRANCH   1  33
TORSDOF 19
