REMARK SMILES CCc1ccc(C(=O)N2CC[C@H](C(=O)NCCCCNC(=O)c3ccc(-c4c5nc(c(-c6cc(S(=O)(=O)[O-])ccc6F)c6ccc([nH]6)c(-c6cc(S(=O)(=O)[O-])ccc6F)c6nc(c(-c7cc(S(=O)(=O)[O-])ccc7F)c7ccc4[nH]7)C=C6)C=C5)cc3)[C@@H]2C)s1
REMARK SMILES IDX 17 1 16 2 15 3 13 4 14 5 12 7 9 8 10 9 86 10 11 11 87 12
REMARK SMILES IDX 7 13 8 14 6 15 3 16 4 17 88 18 5 19 2 20 1 21 18 22 19 23
REMARK SMILES IDX 20 24 21 25 22 27 23 28 24 29 85 30 25 31 84 32 26 33 27 34
REMARK SMILES IDX 28 35 78 36 29 37 83 38 77 39 79 40 30 41 82 42 76 43 75 44
REMARK SMILES IDX 31 46 63 47 43 48 62 49 44 50 47 51 61 52 80 53 45 54 46 55
REMARK SMILES IDX 60 57 81 58 48 59 32 60 33 61 41 62 34 63 40 64 42 65 39 66
REMARK SMILES IDX 35 67 36 68 37 69 38 70 64 71 65 72 73 73 66 74 72 75 74 76
REMARK SMILES IDX 71 77 67 78 68 79 69 80 70 81 49 82 50 83 58 84 51 85 57 86
REMARK SMILES IDX 59 87 56 88 52 89 53 90 54 91 55 92
REMARK H PARENT 15 6 20 26 79 45 47 56
REMARK Flexibility Score: inf
ROOT
ATOM      1  C   UNL     1      -0.746  -5.799   8.136  1.00  0.00     0.023 C 
ENDROOT
BRANCH   1   2
ATOM      2  C   UNL     1      -0.404  -4.557   8.958  1.00  0.00     0.116 C 
BRANCH   2   3
ATOM      3  N   UNL     1       0.954  -4.616   9.426  1.00  0.00    -0.356 N 
ATOM      4  C   UNL     1       2.154  -4.311   8.912  1.00  0.00     0.225 C 
ATOM      5  O   UNL     1       3.082  -4.623   9.679  1.00  0.00    -0.275 OA
ATOM      6  H   UNL     1       1.019  -4.965  10.345  1.00  0.00     0.163 HD
BRANCH   4   7
ATOM      7  C   UNL     1       2.504  -3.512   7.639  1.00  0.00     0.102 C 
ATOM      8  N   UNL     1       2.404  -4.338   5.369  1.00  0.00    -0.334 N 
ATOM      9  C   UNL     1       3.402  -5.101   6.082  1.00  0.00     0.121 C 
ATOM     10  C   UNL     1       1.806  -3.332   6.262  1.00  0.00     0.094 C 
ATOM     11  C   UNL     1       3.857  -4.109   7.142  1.00  0.00     0.037 C 
ATOM     12  C   UNL     1       0.302  -3.256   6.126  1.00  0.00     0.032 C 
BRANCH   8  13
ATOM     13  C   UNL     1       2.300  -4.486   3.986  1.00  0.00     0.264 C 
ATOM     14  O   UNL     1       2.635  -5.551   3.463  1.00  0.00    -0.268 OA
BRANCH  13  15
ATOM     15  C   UNL     1       1.888  -3.333   3.193  1.00  0.00     0.092 A 
ATOM     16  C   UNL     1       0.978  -1.898   1.376  1.00  0.00     0.005 A 
ATOM     17  C   UNL     1       1.690  -1.176   2.311  1.00  0.00     0.016 A 
ATOM     18  S   UNL     1       0.923  -3.564   1.794  1.00  0.00    -0.135 S 
ATOM     19  C   UNL     1       2.251  -2.005   3.321  1.00  0.00     0.026 A 
BRANCH  16  20
ATOM     20  C   UNL     1       0.304  -1.434   0.114  1.00  0.00     0.043 C 
ATOM     21  C   UNL     1       0.681  -0.015  -0.291  1.00  0.00     0.010 C 
ENDBRANCH  16  20
ENDBRANCH  13  15
ENDBRANCH   8  13
ENDBRANCH   4   7
ENDBRANCH   2   3
ENDBRANCH   1   2
BRANCH   1  22
ATOM     22  C   UNL     1      -1.295  -6.966   8.958  1.00  0.00     0.023 C 
BRANCH  22  23
ATOM     23  C   UNL     1      -2.650  -6.692   9.600  1.00  0.00     0.116 C 
BRANCH  23  24
ATOM     24  N   UNL     1      -3.684  -6.312   8.647  1.00  0.00    -0.352 N 
ATOM     25  C   UNL     1      -5.047  -6.413   8.804  1.00  0.00     0.251 C 
ATOM     26  H   UNL     1      -3.371  -5.940   7.791  1.00  0.00     0.163 HD
ATOM     27  O   UNL     1      -5.803  -6.133   7.881  1.00  0.00    -0.269 OA
BRANCH  25  28
ATOM     28  C   UNL     1      -5.567  -6.926  10.086  1.00  0.00     0.039 A 
ATOM     29  C   UNL     1      -6.410  -8.037  10.075  1.00  0.00     0.014 A 
ATOM     30  C   UNL     1      -5.139  -6.365  11.292  1.00  0.00     0.014 A 
ATOM     31  C   UNL     1      -6.774  -8.631  11.283  1.00  0.00     0.010 A 
ATOM     32  C   UNL     1      -5.434  -7.008  12.488  1.00  0.00     0.010 A 
ATOM     33  C   UNL     1      -6.259  -8.144  12.496  1.00  0.00    -0.014 A 
BRANCH  33  34
ATOM     34  C   UNL     1      -6.597  -8.789  13.790  1.00  0.00     0.031 A 
ATOM     35  C   UNL     1      -7.365  -8.014  14.824  1.00  0.00     0.074 A 
ATOM     36  C   UNL     1      -6.159 -10.035  14.055  1.00  0.00     0.049 A 
ATOM     37  N   UNL     1      -7.694  -8.356  16.043  1.00  0.00    -0.248 NA
ATOM     38  C   UNL     1      -7.784  -6.654  14.448  1.00  0.00     0.031 C 
ATOM     39  C   UNL     1      -5.359 -10.863  13.148  1.00  0.00     0.029 A 
ATOM     40  N   UNL     1      -6.318 -10.823  15.166  1.00  0.00    -0.354 N 
ATOM     41  C   UNL     1      -8.339  -7.249  16.584  1.00  0.00     0.074 A 
ATOM     42  C   UNL     1      -8.287  -6.203  15.586  1.00  0.00     0.031 C 
ATOM     43  C   UNL     1      -5.123 -12.051  13.729  1.00  0.00     0.029 A 
ATOM     44  C   UNL     1      -5.719 -12.057  15.062  1.00  0.00     0.049 A 
ATOM     45  H   UNL     1      -6.815 -10.533  15.965  1.00  0.00     0.167 HD
ATOM     46  C   UNL     1      -8.947  -7.127  17.790  1.00  0.00     0.034 A 
ATOM     47  C   UNL     1      -5.655 -13.075  15.943  1.00  0.00     0.034 A 
ATOM     48  C   UNL     1      -9.009  -8.192  18.760  1.00  0.00     0.049 A 
ATOM     49  C   UNL     1      -6.343 -12.920  17.277  1.00  0.00     0.074 A 
ATOM     50  C   UNL     1      -9.644  -8.203  19.990  1.00  0.00     0.029 A 
ATOM     51  N   UNL     1      -8.412  -9.438  18.610  1.00  0.00    -0.354 N 
ATOM     52  N   UNL     1      -6.998 -11.886  17.755  1.00  0.00    -0.248 NA
ATOM     53  C   UNL     1      -6.296 -14.075  18.183  1.00  0.00     0.031 C 
ATOM     54  C   UNL     1      -9.383  -9.432  20.606  1.00  0.00     0.029 A 
ATOM     55  C   UNL     1      -8.645 -10.216  19.733  1.00  0.00     0.049 A 
ATOM     56  H   UNL     1      -7.899  -9.726  17.821  1.00  0.00     0.167 HD
ATOM     57  C   UNL     1      -7.469 -12.280  19.004  1.00  0.00     0.074 A 
ATOM     58  C   UNL     1      -7.035 -13.649  19.198  1.00  0.00     0.031 C 
ATOM     59  C   UNL     1      -8.199 -11.578  19.908  1.00  0.00     0.034 A 
BRANCH  46  60
ATOM     60  C   UNL     1      -9.568  -5.790  18.119  1.00  0.00     0.023 A 
ATOM     61  C   UNL     1     -10.617  -5.256  17.349  1.00  0.00     0.031 A 
ATOM     62  C   UNL     1      -9.076  -5.016  19.183  1.00  0.00     0.131 A 
ATOM     63  C   UNL     1     -11.075  -3.953  17.594  1.00  0.00     0.055 A 
ATOM     64  C   UNL     1      -9.598  -3.755  19.480  1.00  0.00     0.041 A 
ATOM     65  F   UNL     1      -8.062  -5.462  19.942  1.00  0.00    -0.206 F 
ATOM     66  C   UNL     1     -10.591  -3.209  18.672  1.00  0.00     0.022 A 
BRANCH  63  67
ATOM     67  S   UNL     1     -12.192  -3.188  16.388  1.00  0.00     0.124 S 
ATOM     68  O   UNL     1     -11.382  -3.226  15.172  1.00  0.00    -0.237 OA
ATOM     69  O   UNL     1     -13.345  -4.081  16.415  1.00  0.00    -0.237 OA
ATOM     70  O   UNL     1     -12.423  -1.852  16.933  1.00  0.00    -0.744 OA
ENDBRANCH  63  67
ENDBRANCH  46  60
BRANCH  47  71
ATOM     71  C   UNL     1      -4.925 -14.329  15.604  1.00  0.00     0.023 A 
ATOM     72  C   UNL     1      -5.606 -15.550  15.473  1.00  0.00     0.031 A 
ATOM     73  C   UNL     1      -3.527 -14.335  15.447  1.00  0.00     0.131 A 
ATOM     74  C   UNL     1      -4.887 -16.733  15.243  1.00  0.00     0.055 A 
ATOM     75  C   UNL     1      -2.821 -15.507  15.168  1.00  0.00     0.041 A 
ATOM     76  F   UNL     1      -2.827 -13.194  15.554  1.00  0.00    -0.206 F 
ATOM     77  C   UNL     1      -3.500 -16.718  15.079  1.00  0.00     0.022 A 
BRANCH  74  78
ATOM     78  S   UNL     1      -5.785 -18.310  15.247  1.00  0.00     0.124 S 
ATOM     79  O   UNL     1      -6.394 -18.301  16.572  1.00  0.00    -0.237 OA
ATOM     80  O   UNL     1      -6.696 -18.141  14.120  1.00  0.00    -0.237 OA
ATOM     81  O   UNL     1      -4.730 -19.302  15.050  1.00  0.00    -0.744 OA
ENDBRANCH  74  78
ENDBRANCH  47  71
BRANCH  59  82
ATOM     82  C   UNL     1      -8.613 -12.304  21.164  1.00  0.00     0.023 A 
ATOM     83  C   UNL     1      -7.676 -12.702  22.132  1.00  0.00     0.031 A 
ATOM     84  C   UNL     1      -9.968 -12.605  21.389  1.00  0.00     0.131 A 
ATOM     85  C   UNL     1      -8.099 -13.428  23.256  1.00  0.00     0.055 A 
ATOM     86  C   UNL     1     -10.391 -13.276  22.537  1.00  0.00     0.041 A 
ATOM     87  F   UNL     1     -10.905 -12.248  20.495  1.00  0.00    -0.206 F 
ATOM     88  C   UNL     1      -9.452 -13.703  23.472  1.00  0.00     0.022 A 
BRANCH  85  89
ATOM     89  S   UNL     1      -6.846 -14.086  24.390  1.00  0.00     0.124 S 
ATOM     90  O   UNL     1      -6.044 -14.923  23.504  1.00  0.00    -0.237 OA
ATOM     91  O   UNL     1      -6.200 -12.873  24.879  1.00  0.00    -0.237 OA
ATOM     92  O   UNL     1      -7.633 -14.812  25.386  1.00  0.00    -0.744 OA
ENDBRANCH  85  89
ENDBRANCH  59  82
ENDBRANCH  33  34
ENDBRANCH  25  28
ENDBRANCH  23  24
ENDBRANCH  22  23
ENDBRANCH   1  22
TORSDOF 17
