REMARK SMILES COc1ccccc1N1CC[NH+]([C@@H](C(=O)NCCCCNC(=O)c2ccc(-c3c4nc(c(-c5cc(S(=O)(=O)[O-])ccc5F)c5ccc([nH]5)c(-c5cc(S(=O)(=O)[O-])ccc5F)c5nc(c(-c6cc(S(=O)(=O)[O-])ccc6F)c6ccc3[nH]6)C=C5)C=C4)cc2)c2c[nH]c3ccc(OCC#N)cc23)CC1
REMARK SMILES IDX 18 1 17 2 16 3 14 4 15 5 13 7 12 8 9 9 10 10 101 11 11 12
REMARK SMILES IDX 100 13 8 15 3 16 4 17 5 18 7 19 6 20 2 21 1 22 87 23 88 24
REMARK SMILES IDX 99 25 89 26 90 27 98 28 91 30 93 31 92 32 94 33 95 34 96 35
REMARK SMILES IDX 97 36 19 37 20 38 21 39 22 40 23 42 24 43 25 44 86 45 26 46
REMARK SMILES IDX 85 47 27 48 28 49 29 50 79 51 30 52 84 53 78 54 80 55 31 56
REMARK SMILES IDX 83 57 77 58 76 59 32 61 64 62 44 63 63 64 45 65 48 66 62 67
REMARK SMILES IDX 81 68 46 69 47 70 61 72 82 73 49 74 33 75 34 76 42 77 35 78
REMARK SMILES IDX 41 79 43 80 40 81 36 82 37 83 38 84 39 85 65 86 66 87 74 88
REMARK SMILES IDX 67 89 73 90 75 91 72 92 68 93 69 94 70 95 71 96 50 97 51 98
REMARK SMILES IDX 59 99 52 100 58 101 60 102 57 103 53 104 54 105 55 106
REMARK SMILES IDX 56 107
REMARK H PARENT 16 6 12 14 89 29 21 41 80 60 48 71
REMARK Flexibility Score: inf
ROOT
ATOM      1  C   UNL     1       4.352   0.525  -2.187  1.00  0.00     0.023 C 
ENDROOT
BRANCH   1   2
ATOM      2  C   UNL     1       5.625   0.256  -1.309  1.00  0.00     0.116 C 
BRANCH   2   3
ATOM      3  N   UNL     1       5.819   1.046  -0.059  1.00  0.00    -0.351 N 
ATOM      4  C   UNL     1       5.780   0.940   1.326  1.00  0.00     0.283 C 
ATOM      5  O   UNL     1       6.247   1.944   1.889  1.00  0.00    -0.268 OA
ATOM      6  H   UNL     1       6.060   1.969  -0.301  1.00  0.00     0.163 HD
BRANCH   4   7
ATOM      7  C   UNL     1       5.294  -0.287   2.205  1.00  0.00     0.307 C 
BRANCH   7   8
ATOM      8  N   UNL     1       3.901  -0.870   1.989  1.00  0.00    -0.318 N 
ATOM      9  N   UNL     1       1.872   1.246   1.716  1.00  0.00    -0.357 N 
ATOM     10  C   UNL     1       2.369   0.857   3.041  1.00  0.00     0.178 C 
ATOM     11  C   UNL     1       2.789   0.943   0.617  1.00  0.00     0.178 C 
ATOM     12  C   UNL     1       2.815  -0.609   2.955  1.00  0.00     0.284 C 
ATOM     13  C   UNL     1       3.287  -0.525   0.704  1.00  0.00     0.284 C 
ATOM     14  H   UNL     1       4.197  -1.841   2.088  1.00  0.00     0.349 HD
BRANCH   9  15
ATOM     15  C   UNL     1       1.259   2.494   1.588  1.00  0.00     0.080 A 
ATOM     16  C   UNL     1       0.028   2.674   0.925  1.00  0.00     0.142 A 
ATOM     17  C   UNL     1      -0.514   3.966   0.834  1.00  0.00     0.048 A 
ATOM     18  C   UNL     1       0.145   5.076   1.361  1.00  0.00     0.004 A 
ATOM     19  C   UNL     1       1.921   3.638   2.091  1.00  0.00     0.030 A 
ATOM     20  C   UNL     1       1.372   4.913   1.983  1.00  0.00     0.002 A 
BRANCH  16  21
ATOM     21  O   UNL     1      -0.793   1.741   0.344  1.00  0.00    -0.495 OA
ATOM     22  C   UNL     1      -0.370   0.398   0.193  1.00  0.00     0.278 C 
ENDBRANCH  16  21
ENDBRANCH   9  15
ENDBRANCH   7   8
BRANCH   7  23
ATOM     23  C   UNL     1       5.719  -0.251   3.786  1.00  0.00     0.044 A 
ATOM     24  C   UNL     1       6.077  -1.439   4.430  1.00  0.00     0.094 A 
ATOM     25  C   UNL     1       5.176   0.444   4.977  1.00  0.00     0.013 A 
ATOM     26  N   UNL     1       4.952  -1.750   5.158  1.00  0.00    -0.361 N 
ATOM     27  C   UNL     1       4.463  -0.557   5.647  1.00  0.00     0.046 A 
ATOM     28  C   UNL     1       5.346   1.650   5.754  1.00  0.00     0.057 A 
ATOM     29  H   UNL     1       4.571  -2.646   5.301  1.00  0.00     0.166 HD
ATOM     30  C   UNL     1       3.498  -0.291   6.616  1.00  0.00     0.030 A 
ATOM     31  C   UNL     1       4.610   1.825   6.979  1.00  0.00     0.121 A 
ATOM     32  C   UNL     1       3.571   0.945   7.258  1.00  0.00     0.048 A 
BRANCH  31  33
ATOM     33  O   UNL     1       4.944   2.839   7.880  1.00  0.00    -0.479 OA
BRANCH  33  34
ATOM     34  C   UNL     1       4.714   2.616   9.363  1.00  0.00     0.349 C 
BRANCH  34  35
ATOM     35  C   UNL     1       5.296   1.273   9.775  1.00  0.00     0.104 C 
ATOM     36  N   UNL     1       5.779   0.160  10.116  1.00  0.00    -0.195 NA
ENDBRANCH  34  35
ENDBRANCH  33  34
ENDBRANCH  31  33
ENDBRANCH   7  23
ENDBRANCH   4   7
ENDBRANCH   2   3
ENDBRANCH   1   2
BRANCH   1  37
ATOM     37  C   UNL     1       3.820   1.963  -2.264  1.00  0.00     0.023 C 
BRANCH  37  38
ATOM     38  C   UNL     1       4.084   2.671  -3.581  1.00  0.00     0.116 C 
BRANCH  38  39
ATOM     39  N   UNL     1       3.245   2.176  -4.666  1.00  0.00    -0.352 N 
ATOM     40  C   UNL     1       2.615   2.886  -5.670  1.00  0.00     0.251 C 
ATOM     41  H   UNL     1       3.110   1.201  -4.686  1.00  0.00     0.163 HD
ATOM     42  O   UNL     1       1.824   2.319  -6.407  1.00  0.00    -0.269 OA
BRANCH  40  43
ATOM     43  C   UNL     1       2.880   4.340  -5.823  1.00  0.00     0.039 A 
ATOM     44  C   UNL     1       1.829   5.197  -6.165  1.00  0.00     0.014 A 
ATOM     45  C   UNL     1       4.160   4.859  -5.623  1.00  0.00     0.014 A 
ATOM     46  C   UNL     1       2.055   6.574  -6.247  1.00  0.00     0.010 A 
ATOM     47  C   UNL     1       4.358   6.233  -5.592  1.00  0.00     0.010 A 
ATOM     48  C   UNL     1       3.315   7.106  -5.929  1.00  0.00    -0.014 A 
BRANCH  48  49
ATOM     49  C   UNL     1       3.591   8.564  -5.994  1.00  0.00     0.031 A 
ATOM     50  C   UNL     1       4.638   9.075  -6.950  1.00  0.00     0.074 A 
ATOM     51  C   UNL     1       2.956   9.406  -5.156  1.00  0.00     0.049 A 
ATOM     52  N   UNL     1       5.105  10.287  -7.099  1.00  0.00    -0.248 NA
ATOM     53  C   UNL     1       5.274   8.078  -7.827  1.00  0.00     0.031 C 
ATOM     54  C   UNL     1       1.958   9.013  -4.159  1.00  0.00     0.029 A 
ATOM     55  N   UNL     1       3.058  10.765  -5.002  1.00  0.00    -0.354 N 
ATOM     56  C   UNL     1       6.099  10.193  -8.069  1.00  0.00     0.074 A 
ATOM     57  C   UNL     1       6.221   8.794  -8.412  1.00  0.00     0.031 C 
ATOM     58  C   UNL     1       1.514  10.110  -3.523  1.00  0.00     0.029 A 
ATOM     59  C   UNL     1       2.231  11.276  -4.027  1.00  0.00     0.049 A 
ATOM     60  H   UNL     1       3.665  11.324  -5.539  1.00  0.00     0.167 HD
ATOM     61  C   UNL     1       6.821  11.186  -8.643  1.00  0.00     0.034 A 
ATOM     62  C   UNL     1       2.079  12.541  -3.586  1.00  0.00     0.034 A 
ATOM     63  C   UNL     1       6.664  12.577  -8.299  1.00  0.00     0.049 A 
ATOM     64  C   UNL     1       2.906  13.628  -4.227  1.00  0.00     0.074 A 
ATOM     65  C   UNL     1       7.296  13.678  -8.846  1.00  0.00     0.029 A 
ATOM     66  N   UNL     1       5.811  13.058  -7.311  1.00  0.00    -0.354 N 
ATOM     67  N   UNL     1       3.806  13.529  -5.180  1.00  0.00    -0.248 NA
ATOM     68  C   UNL     1       2.689  14.996  -3.744  1.00  0.00     0.031 C 
ATOM     69  C   UNL     1       6.883  14.814  -8.143  1.00  0.00     0.029 A 
ATOM     70  C   UNL     1       5.926  14.435  -7.213  1.00  0.00     0.049 A 
ATOM     71  H   UNL     1       5.214  12.501  -6.762  1.00  0.00     0.167 HD
ATOM     72  C   UNL     1       4.237  14.829  -5.431  1.00  0.00     0.074 A 
ATOM     73  C   UNL     1       3.484  15.692  -4.543  1.00  0.00     0.031 C 
ATOM     74  C   UNL     1       5.168  15.274  -6.314  1.00  0.00     0.034 A 
BRANCH  61  75
ATOM     75  C   UNL     1       7.848  10.794  -9.680  1.00  0.00     0.023 A 
ATOM     76  C   UNL     1       7.485  10.144 -10.873  1.00  0.00     0.031 A 
ATOM     77  C   UNL     1       9.215  11.045  -9.461  1.00  0.00     0.131 A 
ATOM     78  C   UNL     1       8.477   9.694 -11.758  1.00  0.00     0.055 A 
ATOM     79  C   UNL     1      10.190  10.675 -10.389  1.00  0.00     0.041 A 
ATOM     80  F   UNL     1       9.629  11.641  -8.331  1.00  0.00    -0.206 F 
ATOM     81  C   UNL     1       9.825   9.980 -11.539  1.00  0.00     0.022 A 
BRANCH  78  82
ATOM     82  S   UNL     1       7.990   8.599 -13.120  1.00  0.00     0.124 S 
ATOM     83  O   UNL     1       7.397   7.476 -12.396  1.00  0.00    -0.237 OA
ATOM     84  O   UNL     1       7.064   9.430 -13.879  1.00  0.00    -0.237 OA
ATOM     85  O   UNL     1       9.255   8.300 -13.789  1.00  0.00    -0.744 OA
ENDBRANCH  78  82
ENDBRANCH  61  75
BRANCH  62  86
ATOM     86  C   UNL     1       1.119  12.854  -2.488  1.00  0.00     0.023 A 
ATOM     87  C   UNL     1       0.020  13.702  -2.707  1.00  0.00     0.031 A 
ATOM     88  C   UNL     1       1.308  12.350  -1.188  1.00  0.00     0.131 A 
ATOM     89  C   UNL     1      -0.813  14.062  -1.637  1.00  0.00     0.055 A 
ATOM     90  C   UNL     1       0.440  12.663  -0.140  1.00  0.00     0.041 A 
ATOM     91  F   UNL     1       2.340  11.534  -0.920  1.00  0.00    -0.206 F 
ATOM     92  C   UNL     1      -0.620  13.537  -0.358  1.00  0.00     0.022 A 
BRANCH  89  93
ATOM     93  S   UNL     1      -2.097  15.313  -1.919  1.00  0.00     0.124 S 
ATOM     94  O   UNL     1      -1.311  16.438  -2.414  1.00  0.00    -0.237 OA
ATOM     95  O   UNL     1      -2.956  14.651  -2.894  1.00  0.00    -0.237 OA
ATOM     96  O   UNL     1      -2.687  15.499  -0.595  1.00  0.00    -0.744 OA
ENDBRANCH  89  93
ENDBRANCH  62  86
BRANCH  74  97
ATOM     97  C   UNL     1       5.384  16.765  -6.388  1.00  0.00     0.023 A 
ATOM     98  C   UNL     1       5.921  17.489  -5.310  1.00  0.00     0.031 A 
ATOM     99  C   UNL     1       5.038  17.471  -7.554  1.00  0.00     0.131 A 
ATOM    100  C   UNL     1       6.040  18.884  -5.398  1.00  0.00     0.055 A 
ATOM    101  C   UNL     1       5.224  18.849  -7.661  1.00  0.00     0.041 A 
ATOM    102  F   UNL     1       4.518  16.830  -8.613  1.00  0.00    -0.206 F 
ATOM    103  C   UNL     1       5.714  19.566  -6.573  1.00  0.00     0.022 A 
BRANCH 100 104
ATOM    104  S   UNL     1       6.529  19.808  -3.916  1.00  0.00     0.124 S 
ATOM    105  O   UNL     1       5.491  19.426  -2.965  1.00  0.00    -0.237 OA
ATOM    106  O   UNL     1       7.864  19.283  -3.647  1.00  0.00    -0.237 OA
ATOM    107  O   UNL     1       6.488  21.202  -4.353  1.00  0.00    -0.744 OA
ENDBRANCH 100 104
ENDBRANCH  74  97
ENDBRANCH  48  49
ENDBRANCH  40  43
ENDBRANCH  38  39
ENDBRANCH  37  38
ENDBRANCH   1  37
TORSDOF 21
