REMARK SMILES CCCc1noc(C2C[NH+](CC(=O)NCCCCNC(=O)c3ccc(-c4c5nc(c(-c6cc(S(=O)(=O)[O-])ccc6F)c6ccc([nH]6)c(-c6cc(S(=O)(=O)[O-])ccc6F)c6nc(c(-c7cc(S(=O)(=O)[O-])ccc7F)c7ccc4[nH]7)C=C6)C=C5)cc3)C2)n1
REMARK SMILES IDX 16 1 15 2 14 3 12 4 13 5 11 7 10 8 8 9 9 10 85 11 7 13 4 14
REMARK SMILES IDX 5 15 86 16 6 17 3 18 2 19 1 20 17 21 18 22 19 23 20 24 21 26
REMARK SMILES IDX 22 27 23 28 84 29 24 30 83 31 25 32 26 33 27 34 77 35 28 36
REMARK SMILES IDX 82 37 76 38 78 39 29 40 81 41 75 42 74 43 30 45 62 46 42 47
REMARK SMILES IDX 61 48 43 49 46 50 60 51 79 52 44 53 45 54 59 56 80 57 47 58
REMARK SMILES IDX 31 59 32 60 40 61 33 62 39 63 41 64 38 65 34 66 35 67 36 68
REMARK SMILES IDX 37 69 63 70 64 71 72 72 65 73 71 74 73 75 70 76 66 77 67 78
REMARK SMILES IDX 68 79 69 80 48 81 49 82 57 83 50 84 56 85 58 86 55 87 51 88
REMARK SMILES IDX 52 89 53 90 54 91
REMARK H PARENT 14 6 10 12 19 25 78 44 46 55
REMARK Flexibility Score: inf
ROOT
ATOM      1  C   UNL     1       2.003  -0.965   7.440  1.00  0.00     0.023 C 
ENDROOT
BRANCH   1   2
ATOM      2  C   UNL     1       1.165  -0.998   8.723  1.00  0.00     0.116 C 
BRANCH   2   3
ATOM      3  N   UNL     1      -0.098  -0.286   8.611  1.00  0.00    -0.351 N 
ATOM      4  C   UNL     1      -1.381  -0.738   8.457  1.00  0.00     0.275 C 
ATOM      5  O   UNL     1      -2.271   0.113   8.366  1.00  0.00    -0.269 OA
ATOM      6  H   UNL     1      -0.016   0.694   8.652  1.00  0.00     0.163 HD
BRANCH   4   7
ATOM      7  C   UNL     1      -1.712  -2.234   8.362  1.00  0.00     0.363 C 
BRANCH   7   8
ATOM      8  N   UNL     1      -1.864  -2.857   7.013  1.00  0.00    -0.325 N 
ATOM      9  C   UNL     1      -0.932  -1.523   5.647  1.00  0.00     0.188 C 
ATOM     10  C   UNL     1      -2.379  -1.967   5.927  1.00  0.00     0.282 C 
ATOM     11  C   UNL     1      -0.588  -2.908   6.268  1.00  0.00     0.282 C 
ATOM     12  H   UNL     1      -2.391  -3.686   7.289  1.00  0.00     0.348 HD
BRANCH   9  13
ATOM     13  C   UNL     1      -0.425  -1.303   4.250  1.00  0.00     0.241 A 
ATOM     14  C   UNL     1       0.471  -1.512   2.369  1.00  0.00     0.171 A 
ATOM     15  N   UNL     1       0.766  -0.255   2.709  1.00  0.00    -0.062 NA
ATOM     16  N   UNL     1      -0.276  -2.202   3.299  1.00  0.00    -0.196 NA
ATOM     17  O   UNL     1       0.149  -0.100   3.934  1.00  0.00    -0.339 OA
BRANCH  14  18
ATOM     18  C   UNL     1       1.006  -2.129   1.130  1.00  0.00     0.081 C 
BRANCH  18  19
ATOM     19  C   UNL     1       0.507  -1.477  -0.162  1.00  0.00     0.005 C 
ATOM     20  C   UNL     1       1.058  -0.076  -0.406  1.00  0.00     0.004 C 
ENDBRANCH  18  19
ENDBRANCH  14  18
ENDBRANCH   9  13
ENDBRANCH   7   8
ENDBRANCH   4   7
ENDBRANCH   2   3
ENDBRANCH   1   2
BRANCH   1  21
ATOM     21  C   UNL     1       2.538   0.400   7.019  1.00  0.00     0.023 C 
BRANCH  21  22
ATOM     22  C   UNL     1       3.616   0.960   7.932  1.00  0.00     0.116 C 
BRANCH  22  23
ATOM     23  N   UNL     1       4.764   0.072   8.057  1.00  0.00    -0.352 N 
ATOM     24  C   UNL     1       6.107   0.362   7.971  1.00  0.00     0.251 C 
ATOM     25  H   UNL     1       4.548  -0.873   8.229  1.00  0.00     0.163 HD
ATOM     26  O   UNL     1       6.923  -0.544   7.955  1.00  0.00    -0.269 OA
BRANCH  24  27
ATOM     27  C   UNL     1       6.537   1.773   7.868  1.00  0.00     0.039 A 
ATOM     28  C   UNL     1       7.524   2.115   6.941  1.00  0.00     0.014 A 
ATOM     29  C   UNL     1       5.945   2.756   8.665  1.00  0.00     0.014 A 
ATOM     30  C   UNL     1       7.867   3.457   6.765  1.00  0.00     0.010 A 
ATOM     31  C   UNL     1       6.219   4.095   8.423  1.00  0.00     0.010 A 
ATOM     32  C   UNL     1       7.190   4.460   7.478  1.00  0.00    -0.014 A 
BRANCH  32  33
ATOM     33  C   UNL     1       7.497   5.898   7.284  1.00  0.00     0.031 A 
ATOM     34  C   UNL     1       8.024   6.705   8.440  1.00  0.00     0.074 A 
ATOM     35  C   UNL     1       7.223   6.489   6.104  1.00  0.00     0.049 A 
ATOM     36  N   UNL     1       8.236   7.992   8.526  1.00  0.00    -0.248 NA
ATOM     37  C   UNL     1       8.306   5.965   9.680  1.00  0.00     0.031 C 
ATOM     38  C   UNL     1       6.664   5.817   4.929  1.00  0.00     0.029 A 
ATOM     39  N   UNL     1       7.366   7.793   5.702  1.00  0.00    -0.354 N 
ATOM     40  C   UNL     1       8.651   8.219   9.834  1.00  0.00     0.074 A 
ATOM     41  C   UNL     1       8.592   6.946  10.520  1.00  0.00     0.031 C 
ATOM     42  C   UNL     1       6.534   6.708   3.933  1.00  0.00     0.029 A 
ATOM     43  C   UNL     1       6.956   8.021   4.409  1.00  0.00     0.049 A 
ATOM     44  H   UNL     1       7.727   8.499   6.285  1.00  0.00     0.167 HD
ATOM     45  C   UNL     1       9.068   9.377  10.402  1.00  0.00     0.034 A 
ATOM     46  C   UNL     1       6.915   9.164   3.696  1.00  0.00     0.034 A 
ATOM     47  C   UNL     1       9.147  10.628   9.690  1.00  0.00     0.049 A 
ATOM     48  C   UNL     1       7.387  10.439   4.345  1.00  0.00     0.074 A 
ATOM     49  C   UNL     1       9.613  11.851  10.140  1.00  0.00     0.029 A 
ATOM     50  N   UNL     1       8.748  10.817   8.372  1.00  0.00    -0.354 N 
ATOM     51  N   UNL     1       7.823  10.631   5.570  1.00  0.00    -0.248 NA
ATOM     52  C   UNL     1       7.373  11.649   3.514  1.00  0.00     0.031 C 
ATOM     53  C   UNL     1       9.441  12.789   9.116  1.00  0.00     0.029 A 
ATOM     54  C   UNL     1       8.934  12.140   8.002  1.00  0.00     0.049 A 
ATOM     55  H   UNL     1       8.385  10.113   7.786  1.00  0.00     0.167 HD
ATOM     56  C   UNL     1       8.161  11.979   5.645  1.00  0.00     0.074 A 
ATOM     57  C   UNL     1       7.894  12.546   4.338  1.00  0.00     0.031 C 
ATOM     58  C   UNL     1       8.651  12.686   6.695  1.00  0.00     0.034 A 
BRANCH  45  59
ATOM     59  C   UNL     1       9.448   9.334  11.863  1.00  0.00     0.023 A 
ATOM     60  C   UNL     1      10.507   8.534  12.328  1.00  0.00     0.031 A 
ATOM     61  C   UNL     1       8.713  10.066  12.813  1.00  0.00     0.131 A 
ATOM     62  C   UNL     1      10.743   8.412  13.705  1.00  0.00     0.055 A 
ATOM     63  C   UNL     1       9.011  10.010  14.177  1.00  0.00     0.041 A 
ATOM     64  F   UNL     1       7.678  10.832  12.435  1.00  0.00    -0.206 F 
ATOM     65  C   UNL     1      10.019   9.165  14.632  1.00  0.00     0.022 A 
BRANCH  62  66
ATOM     66  S   UNL     1      11.901   7.137  14.274  1.00  0.00     0.124 S 
ATOM     67  O   UNL     1      11.279   5.922  13.752  1.00  0.00    -0.237 OA
ATOM     68  O   UNL     1      13.150   7.539  13.639  1.00  0.00    -0.237 OA
ATOM     69  O   UNL     1      11.868   7.269  15.729  1.00  0.00    -0.744 OA
ENDBRANCH  62  66
ENDBRANCH  45  59
BRANCH  46  70
ATOM     70  C   UNL     1       6.409   9.162   2.293  1.00  0.00     0.023 A 
ATOM     71  C   UNL     1       7.262   9.462   1.219  1.00  0.00     0.031 A 
ATOM     72  C   UNL     1       5.057   8.899   2.009  1.00  0.00     0.131 A 
ATOM     73  C   UNL     1       6.747   9.536  -0.084  1.00  0.00     0.055 A 
ATOM     74  C   UNL     1       4.560   8.925   0.705  1.00  0.00     0.041 A 
ATOM     75  F   UNL     1       4.201   8.599   2.999  1.00  0.00    -0.206 F 
ATOM     76  C   UNL     1       5.404   9.258  -0.350  1.00  0.00     0.022 A 
BRANCH  73  77
ATOM     77  S   UNL     1       7.844  10.081  -1.421  1.00  0.00     0.124 S 
ATOM     78  O   UNL     1       8.270  11.391  -0.942  1.00  0.00    -0.237 OA
ATOM     79  O   UNL     1       8.863   9.036  -1.421  1.00  0.00    -0.237 OA
ATOM     80  O   UNL     1       6.971  10.098  -2.593  1.00  0.00    -0.744 OA
ENDBRANCH  73  77
ENDBRANCH  46  70
BRANCH  58  81
ATOM     81  C   UNL     1       8.967  14.139   6.450  1.00  0.00     0.023 A 
ATOM     82  C   UNL     1       7.956  15.084   6.204  1.00  0.00     0.031 A 
ATOM     83  C   UNL     1      10.303  14.581   6.452  1.00  0.00     0.131 A 
ATOM     84  C   UNL     1       8.299  16.413   5.916  1.00  0.00     0.055 A 
ATOM     85  C   UNL     1      10.634  15.916   6.223  1.00  0.00     0.041 A 
ATOM     86  F   UNL     1      11.307  13.719   6.680  1.00  0.00    -0.206 F 
ATOM     87  C   UNL     1       9.630  16.839   5.940  1.00  0.00     0.022 A 
BRANCH  84  88
ATOM     88  S   UNL     1       6.987  17.564   5.424  1.00  0.00     0.124 S 
ATOM     89  O   UNL     1       6.439  16.911   4.239  1.00  0.00    -0.237 OA
ATOM     90  O   UNL     1       6.124  17.576   6.601  1.00  0.00    -0.237 OA
ATOM     91  O   UNL     1       7.703  18.812   5.169  1.00  0.00    -0.744 OA
ENDBRANCH  84  88
ENDBRANCH  58  81
ENDBRANCH  32  33
ENDBRANCH  24  27
ENDBRANCH  22  23
ENDBRANCH  21  22
ENDBRANCH   1  21
TORSDOF 18
