REMARK SMILES Cc1cc(F)cc(-n2c(C)nc3cc(C(=O)NCCCCNC(=O)c4ccc(-c5c6nc(c(-c7cc(S(=O)(=O)[O-])ccc7F)c7ccc([nH]7)c(-c7cc(S(=O)(=O)[O-])ccc7F)c7nc(c(-c8cc(S(=O)(=O)[O-])ccc8F)c8ccc5[nH]8)C=C7)C=C6)cc4)ccc32)c1
REMARK SMILES IDX 20 1 19 2 18 3 17 4 15 5 16 6 14 8 8 9 9 10 90 11 10 12
REMARK SMILES IDX 11 13 12 14 89 15 13 16 88 17 7 18 1 19 2 20 3 21 91 22 4 23
REMARK SMILES IDX 5 24 6 25 21 26 22 27 23 28 24 30 25 31 26 32 87 33 27 34
REMARK SMILES IDX 86 35 28 36 29 37 30 38 80 39 31 40 85 41 79 42 81 43 32 44
REMARK SMILES IDX 84 45 78 46 77 47 33 49 65 50 45 51 64 52 46 53 49 54 63 55
REMARK SMILES IDX 82 56 47 57 48 58 62 60 83 61 50 62 34 63 35 64 43 65 36 66
REMARK SMILES IDX 42 67 44 68 41 69 37 70 38 71 39 72 40 73 66 74 67 75 75 76
REMARK SMILES IDX 68 77 74 78 76 79 73 80 69 81 70 82 71 83 72 84 51 85 52 86
REMARK SMILES IDX 60 87 53 88 59 89 61 90 58 91 54 92 55 93 56 94 57 95
REMARK H PARENT 17 7 22 29 81 48 49 59
REMARK Flexibility Score: inf
ROOT
ATOM      1  C   UNL     1       3.895  -6.094   7.392  1.00  0.00     0.023 C 
ENDROOT
BRANCH   1   2
ATOM      2  C   UNL     1       3.346  -5.281   6.207  1.00  0.00     0.023 C 
BRANCH   2   3
ATOM      3  C   UNL     1       4.010  -5.614   4.867  1.00  0.00     0.116 C 
BRANCH   3   4
ATOM      4  N   UNL     1       3.414  -6.793   4.272  1.00  0.00    -0.352 N 
ATOM      5  C   UNL     1       2.534  -6.977   3.237  1.00  0.00     0.251 C 
ATOM      6  O   UNL     1       2.273  -8.141   2.926  1.00  0.00    -0.269 OA
ATOM      7  H   UNL     1       3.700  -7.634   4.697  1.00  0.00     0.163 HD
BRANCH   5   8
ATOM      8  C   UNL     1       1.925  -5.864   2.451  1.00  0.00     0.042 A 
ATOM      9  N   UNL     1       0.233  -3.155  -0.172  1.00  0.00    -0.296 N 
ATOM     10  C   UNL     1      -0.283  -4.069  -1.077  1.00  0.00     0.111 A 
ATOM     11  C   UNL     1       0.846  -3.881   0.833  1.00  0.00     0.073 A 
ATOM     12  C   UNL     1      -1.079  -3.724  -2.283  1.00  0.00     0.088 C 
ATOM     13  N   UNL     1       0.104  -5.297  -0.777  1.00  0.00    -0.233 NA
ATOM     14  C   UNL     1       0.788  -5.200   0.407  1.00  0.00     0.090 A 
ATOM     15  C   UNL     1       1.356  -3.515   2.081  1.00  0.00     0.030 A 
ATOM     16  C   UNL     1       1.370  -6.201   1.199  1.00  0.00     0.044 A 
ATOM     17  C   UNL     1       1.833  -4.543   2.898  1.00  0.00     0.016 A 
BRANCH   9  18
ATOM     18  C   UNL     1       0.146  -1.746  -0.188  1.00  0.00     0.051 A 
ATOM     19  C   UNL     1       2.525   1.224   0.049  1.00  0.00     0.044 C 
ATOM     20  C   UNL     1       1.272   0.402  -0.028  1.00  0.00    -0.046 A 
ATOM     21  C   UNL     1       0.018   1.026  -0.031  1.00  0.00     0.042 A 
ATOM     22  C   UNL     1       1.329  -0.995  -0.089  1.00  0.00     0.030 A 
ATOM     23  C   UNL     1      -1.146   0.263  -0.118  1.00  0.00     0.125 A 
ATOM     24  F   UNL     1      -2.335   0.878  -0.093  1.00  0.00    -0.207 F 
ATOM     25  C   UNL     1      -1.100  -1.122  -0.211  1.00  0.00     0.066 A 
ENDBRANCH   9  18
ENDBRANCH   5   8
ENDBRANCH   3   4
ENDBRANCH   2   3
ENDBRANCH   1   2
BRANCH   1  26
ATOM     26  C   UNL     1       5.414  -6.013   7.553  1.00  0.00     0.116 C 
BRANCH  26  27
ATOM     27  N   UNL     1       5.910  -4.653   7.581  1.00  0.00    -0.352 N 
ATOM     28  C   UNL     1       6.273  -3.771   8.557  1.00  0.00     0.251 C 
ATOM     29  H   UNL     1       6.010  -4.273   6.678  1.00  0.00     0.163 HD
ATOM     30  O   UNL     1       6.775  -2.717   8.154  1.00  0.00    -0.269 OA
BRANCH  28  31
ATOM     31  C   UNL     1       6.034  -3.949  10.012  1.00  0.00     0.039 A 
ATOM     32  C   UNL     1       5.498  -5.085  10.619  1.00  0.00     0.014 A 
ATOM     33  C   UNL     1       6.309  -2.822  10.811  1.00  0.00     0.014 A 
ATOM     34  C   UNL     1       5.121  -5.050  11.955  1.00  0.00     0.010 A 
ATOM     35  C   UNL     1       5.952  -2.787  12.150  1.00  0.00     0.010 A 
ATOM     36  C   UNL     1       5.297  -3.881  12.698  1.00  0.00    -0.014 A 
BRANCH  36  37
ATOM     37  C   UNL     1       4.902  -3.893  14.100  1.00  0.00     0.031 A 
ATOM     38  C   UNL     1       5.682  -4.869  14.906  1.00  0.00     0.074 A 
ATOM     39  C   UNL     1       3.987  -3.044  14.613  1.00  0.00     0.049 A 
ATOM     40  N   UNL     1       5.262  -5.980  15.414  1.00  0.00    -0.248 NA
ATOM     41  C   UNL     1       7.143  -4.701  14.976  1.00  0.00     0.031 C 
ATOM     42  C   UNL     1       3.373  -1.889  13.947  1.00  0.00     0.029 A 
ATOM     43  N   UNL     1       3.471  -2.969  15.873  1.00  0.00    -0.354 N 
ATOM     44  C   UNL     1       6.356  -6.524  16.087  1.00  0.00     0.074 A 
ATOM     45  C   UNL     1       7.512  -5.816  15.608  1.00  0.00     0.031 C 
ATOM     46  C   UNL     1       2.780  -1.098  14.871  1.00  0.00     0.029 A 
ATOM     47  C   UNL     1       2.826  -1.769  16.158  1.00  0.00     0.049 A 
ATOM     48  H   UNL     1       3.549  -3.702  16.527  1.00  0.00     0.167 HD
ATOM     49  C   UNL     1       6.177  -7.313  17.186  1.00  0.00     0.034 A 
ATOM     50  C   UNL     1       2.391  -1.342  17.371  1.00  0.00     0.034 A 
ATOM     51  C   UNL     1       4.796  -7.694  17.307  1.00  0.00     0.049 A 
ATOM     52  C   UNL     1       2.269  -2.522  18.249  1.00  0.00     0.074 A 
ATOM     53  C   UNL     1       3.956  -8.600  16.702  1.00  0.00     0.029 A 
ATOM     54  N   UNL     1       4.019  -6.749  17.927  1.00  0.00    -0.354 N 
ATOM     55  N   UNL     1       1.369  -3.448  18.079  1.00  0.00    -0.248 NA
ATOM     56  C   UNL     1       3.394  -2.887  19.101  1.00  0.00     0.031 C 
ATOM     57  C   UNL     1       2.649  -8.046  16.810  1.00  0.00     0.029 A 
ATOM     58  C   UNL     1       2.713  -6.855  17.535  1.00  0.00     0.049 A 
ATOM     59  H   UNL     1       4.356  -6.084  18.569  1.00  0.00     0.167 HD
ATOM     60  C   UNL     1       2.035  -4.616  18.390  1.00  0.00     0.074 A 
ATOM     61  C   UNL     1       3.188  -4.205  19.184  1.00  0.00     0.031 C 
ATOM     62  C   UNL     1       1.773  -5.764  17.705  1.00  0.00     0.034 A 
BRANCH  49  63
ATOM     63  C   UNL     1       7.104  -7.341  18.385  1.00  0.00     0.023 A 
ATOM     64  C   UNL     1       8.166  -6.435  18.560  1.00  0.00     0.031 A 
ATOM     65  C   UNL     1       6.781  -8.127  19.513  1.00  0.00     0.131 A 
ATOM     66  C   UNL     1       8.854  -6.329  19.777  1.00  0.00     0.055 A 
ATOM     67  C   UNL     1       7.426  -7.978  20.748  1.00  0.00     0.041 A 
ATOM     68  F   UNL     1       5.788  -9.029  19.466  1.00  0.00    -0.206 F 
ATOM     69  C   UNL     1       8.469  -7.072  20.887  1.00  0.00     0.022 A 
BRANCH  66  70
ATOM     70  S   UNL     1      10.263  -5.196  19.934  1.00  0.00     0.124 S 
ATOM     71  O   UNL     1       9.845  -4.341  21.040  1.00  0.00    -0.237 OA
ATOM     72  O   UNL     1      11.353  -6.123  20.227  1.00  0.00    -0.237 OA
ATOM     73  O   UNL     1      10.333  -4.554  18.624  1.00  0.00    -0.744 OA
ENDBRANCH  66  70
ENDBRANCH  49  63
BRANCH  50  74
ATOM     74  C   UNL     1       2.504   0.020  17.944  1.00  0.00     0.023 A 
ATOM     75  C   UNL     1       3.615   0.808  17.597  1.00  0.00     0.031 A 
ATOM     76  C   UNL     1       1.764   0.405  19.078  1.00  0.00     0.131 A 
ATOM     77  C   UNL     1       4.002   1.883  18.409  1.00  0.00     0.055 A 
ATOM     78  C   UNL     1       2.136   1.499  19.870  1.00  0.00     0.041 A 
ATOM     79  F   UNL     1       0.716  -0.326  19.487  1.00  0.00    -0.206 F 
ATOM     80  C   UNL     1       3.274   2.232  19.548  1.00  0.00     0.022 A 
BRANCH  77  81
ATOM     81  S   UNL     1       5.551   2.766  18.075  1.00  0.00     0.124 S 
ATOM     82  O   UNL     1       5.111   4.159  18.060  1.00  0.00    -0.237 OA
ATOM     83  O   UNL     1       6.366   2.376  19.220  1.00  0.00    -0.237 OA
ATOM     84  O   UNL     1       5.975   2.237  16.782  1.00  0.00    -0.744 OA
ENDBRANCH  77  81
ENDBRANCH  50  74
BRANCH  62  85
ATOM     85  C   UNL     1       0.479  -5.859  16.942  1.00  0.00     0.023 A 
ATOM     86  C   UNL     1      -0.348  -6.942  17.270  1.00  0.00     0.031 A 
ATOM     87  C   UNL     1       0.127  -5.075  15.829  1.00  0.00     0.131 A 
ATOM     88  C   UNL     1      -1.442  -7.264  16.465  1.00  0.00     0.055 A 
ATOM     89  C   UNL     1      -1.017  -5.352  15.072  1.00  0.00     0.041 A 
ATOM     90  F   UNL     1       0.908  -4.077  15.397  1.00  0.00    -0.206 F 
ATOM     91  C   UNL     1      -1.796  -6.465  15.376  1.00  0.00     0.022 A 
BRANCH  88  92
ATOM     92  S   UNL     1      -2.306  -8.832  16.727  1.00  0.00     0.124 S 
ATOM     93  O   UNL     1      -3.648  -8.381  17.108  1.00  0.00    -0.237 OA
ATOM     94  O   UNL     1      -2.214  -9.455  15.402  1.00  0.00    -0.237 OA
ATOM     95  O   UNL     1      -1.547  -9.490  17.770  1.00  0.00    -0.744 OA
ENDBRANCH  88  92
ENDBRANCH  62  85
ENDBRANCH  36  37
ENDBRANCH  28  31
ENDBRANCH  26  27
ENDBRANCH   1  26
TORSDOF 15
