REMARK SMILES O=C(NCCCCNC(=O)[C@H]1C[C@H]2CCCC[C@@H]2[N@@H+]1CCn1ccnc1)c1ccc(-c2c3nc(c(-c4cc(S(=O)(=O)[O-])ccc4F)c4ccc([nH]4)c(-c4cc(S(=O)(=O)[O-])ccc4F)c4nc(c(-c5cc(S(=O)(=O)[O-])ccc5F)c5ccc2[nH]5)C=C4)C=C3)cc1
REMARK SMILES IDX 5 1 4 2 3 3 1 4 2 5 27 7 28 8 89 9 29 10 88 11 30 12 31 13
REMARK SMILES IDX 32 14 82 15 33 16 87 17 81 18 83 19 34 20 86 21 80 22 79 23
REMARK SMILES IDX 35 25 67 26 47 27 66 28 48 29 51 30 65 31 84 32 49 33 50 34
REMARK SMILES IDX 64 36 85 37 52 38 36 39 37 40 45 41 38 42 44 43 46 44 43 45
REMARK SMILES IDX 39 46 40 47 41 48 42 49 68 50 69 51 77 52 70 53 76 54 78 55
REMARK SMILES IDX 75 56 71 57 72 58 73 59 74 60 53 61 54 62 62 63 55 64 61 65
REMARK SMILES IDX 63 66 60 67 56 68 57 69 58 70 59 71 6 72 7 73 8 74 9 75
REMARK SMILES IDX 10 77 11 78 12 79 19 80 13 81 18 82 14 84 17 85 15 86 16 87
REMARK SMILES IDX 20 88 21 89 22 90 23 91 26 92 24 93 25 94
REMARK H PARENT 3 6 83 24 51 35 8 76 19 83
REMARK Flexibility Score: inf
ROOT
ATOM      1  C   UNL     1       0.752   7.339   1.495  1.00  0.00     0.023 C 
ENDROOT
BRANCH   1   2
ATOM      2  C   UNL     1       0.284   7.718   2.903  1.00  0.00     0.116 C 
BRANCH   2   3
ATOM      3  N   UNL     1       0.365   9.131   3.220  1.00  0.00    -0.352 N 
ATOM      4  O   UNL     1      -0.142  11.227   3.675  1.00  0.00    -0.269 OA
ATOM      5  C   UNL     1      -0.478  10.201   3.075  1.00  0.00     0.251 C 
ATOM      6  H   UNL     1       1.224   9.378   3.634  1.00  0.00     0.163 HD
BRANCH   5   7
ATOM      7  C   UNL     1      -1.709  10.230   2.235  1.00  0.00     0.039 A 
ATOM      8  C   UNL     1      -2.253   9.143   1.554  1.00  0.00     0.014 A 
ATOM      9  C   UNL     1      -2.340  11.483   2.095  1.00  0.00     0.014 A 
ATOM     10  C   UNL     1      -3.346   9.313   0.705  1.00  0.00     0.010 A 
ATOM     11  C   UNL     1      -3.446  11.656   1.261  1.00  0.00     0.010 A 
ATOM     12  C   UNL     1      -3.935  10.572   0.541  1.00  0.00    -0.014 A 
BRANCH  12  13
ATOM     13  C   UNL     1      -5.162  10.652  -0.256  1.00  0.00     0.031 A 
ATOM     14  C   UNL     1      -6.287   9.819   0.264  1.00  0.00     0.074 A 
ATOM     15  C   UNL     1      -5.368  11.474  -1.306  1.00  0.00     0.049 A 
ATOM     16  N   UNL     1      -6.867   8.812  -0.302  1.00  0.00    -0.248 NA
ATOM     17  C   UNL     1      -6.746  10.070   1.639  1.00  0.00     0.031 C 
ATOM     18  C   UNL     1      -4.509  12.550  -1.800  1.00  0.00     0.029 A 
ATOM     19  N   UNL     1      -6.466  11.562  -2.117  1.00  0.00    -0.354 N 
ATOM     20  C   UNL     1      -7.894   8.418   0.553  1.00  0.00     0.074 A 
ATOM     21  C   UNL     1      -7.681   9.131   1.785  1.00  0.00     0.031 C 
ATOM     22  C   UNL     1      -5.204  13.311  -2.679  1.00  0.00     0.029 A 
ATOM     23  C   UNL     1      -6.501  12.699  -2.920  1.00  0.00     0.049 A 
ATOM     24  H   UNL     1      -7.174  10.878  -2.131  1.00  0.00     0.167 HD
ATOM     25  C   UNL     1      -8.944   7.664   0.119  1.00  0.00     0.034 A 
ATOM     26  C   UNL     1      -7.533  13.131  -3.696  1.00  0.00     0.034 A 
ATOM     27  C   UNL     1      -8.626   6.984  -1.114  1.00  0.00     0.049 A 
ATOM     28  C   UNL     1      -8.384  11.953  -3.985  1.00  0.00     0.074 A 
ATOM     29  C   UNL     1      -7.657   6.073  -1.490  1.00  0.00     0.029 A 
ATOM     30  N   UNL     1      -9.129   7.486  -2.292  1.00  0.00    -0.354 N 
ATOM     31  N   UNL     1      -7.990  10.939  -4.705  1.00  0.00    -0.248 NA
ATOM     32  C   UNL     1      -9.508  11.685  -3.100  1.00  0.00     0.031 C 
ATOM     33  C   UNL     1      -7.269   6.475  -2.802  1.00  0.00     0.029 A 
ATOM     34  C   UNL     1      -8.076   7.553  -3.173  1.00  0.00     0.049 A 
ATOM     35  H   UNL     1     -10.061   7.746  -2.470  1.00  0.00     0.167 HD
ATOM     36  C   UNL     1      -8.510   9.824  -4.069  1.00  0.00     0.074 A 
ATOM     37  C   UNL     1      -9.510  10.350  -3.142  1.00  0.00     0.031 C 
ATOM     38  C   UNL     1      -7.900   8.605  -4.155  1.00  0.00     0.034 A 
BRANCH  25  39
ATOM     39  C   UNL     1     -10.361   7.772   0.638  1.00  0.00     0.023 A 
ATOM     40  C   UNL     1     -11.331   6.903   0.099  1.00  0.00     0.031 A 
ATOM     41  C   UNL     1     -10.862   8.848   1.406  1.00  0.00     0.131 A 
ATOM     42  C   UNL     1     -12.705   7.165   0.254  1.00  0.00     0.055 A 
ATOM     43  C   UNL     1     -12.227   9.066   1.613  1.00  0.00     0.041 A 
ATOM     44  F   UNL     1     -10.072   9.800   1.916  1.00  0.00    -0.206 F 
ATOM     45  C   UNL     1     -13.160   8.240   1.011  1.00  0.00     0.022 A 
BRANCH  42  46
ATOM     46  S   UNL     1     -13.890   6.179  -0.703  1.00  0.00     0.124 S 
ATOM     47  O   UNL     1     -13.362   6.313  -2.056  1.00  0.00    -0.237 OA
ATOM     48  O   UNL     1     -13.755   4.865  -0.085  1.00  0.00    -0.237 OA
ATOM     49  O   UNL     1     -15.164   6.854  -0.462  1.00  0.00    -0.744 OA
ENDBRANCH  42  46
ENDBRANCH  25  39
BRANCH  26  50
ATOM     50  C   UNL     1      -7.991  14.536  -3.899  1.00  0.00     0.023 A 
ATOM     51  C   UNL     1      -8.820  14.935  -4.972  1.00  0.00     0.031 A 
ATOM     52  C   UNL     1      -7.813  15.475  -2.858  1.00  0.00     0.131 A 
ATOM     53  C   UNL     1      -9.420  16.218  -4.973  1.00  0.00     0.055 A 
ATOM     54  C   UNL     1      -8.407  16.738  -2.863  1.00  0.00     0.041 A 
ATOM     55  F   UNL     1      -7.121  15.159  -1.751  1.00  0.00    -0.206 F 
ATOM     56  C   UNL     1      -9.221  17.113  -3.919  1.00  0.00     0.022 A 
BRANCH  53  57
ATOM     57  S   UNL     1     -10.549  16.721  -6.316  1.00  0.00     0.124 S 
ATOM     58  O   UNL     1      -9.652  16.820  -7.457  1.00  0.00    -0.237 OA
ATOM     59  O   UNL     1     -11.515  15.624  -6.340  1.00  0.00    -0.237 OA
ATOM     60  O   UNL     1     -11.092  17.997  -5.847  1.00  0.00    -0.744 OA
ENDBRANCH  53  57
ENDBRANCH  26  50
BRANCH  38  61
ATOM     61  C   UNL     1      -6.815   8.397  -5.192  1.00  0.00     0.023 A 
ATOM     62  C   UNL     1      -5.623   9.152  -5.285  1.00  0.00     0.031 A 
ATOM     63  C   UNL     1      -6.948   7.282  -6.039  1.00  0.00     0.131 A 
ATOM     64  C   UNL     1      -4.622   8.776  -6.205  1.00  0.00     0.055 A 
ATOM     65  C   UNL     1      -5.948   6.902  -6.932  1.00  0.00     0.041 A 
ATOM     66  F   UNL     1      -8.046   6.510  -5.981  1.00  0.00    -0.206 F 
ATOM     67  C   UNL     1      -4.781   7.651  -7.021  1.00  0.00     0.022 A 
BRANCH  64  68
ATOM     68  S   UNL     1      -3.086   9.746  -6.362  1.00  0.00     0.124 S 
ATOM     69  O   UNL     1      -3.561  11.116  -6.508  1.00  0.00    -0.237 OA
ATOM     70  O   UNL     1      -2.388   9.437  -5.117  1.00  0.00    -0.237 OA
ATOM     71  O   UNL     1      -2.454   9.191  -7.561  1.00  0.00    -0.744 OA
ENDBRANCH  64  68
ENDBRANCH  38  61
ENDBRANCH  12  13
ENDBRANCH   5   7
ENDBRANCH   2   3
ENDBRANCH   1   2
BRANCH   1  72
ATOM     72  C   UNL     1       2.143   7.828   1.109  1.00  0.00     0.023 C 
BRANCH  72  73
ATOM     73  C   UNL     1       3.259   7.507   2.091  1.00  0.00     0.116 C 
BRANCH  73  74
ATOM     74  N   UNL     1       3.770   6.154   2.051  1.00  0.00    -0.351 N 
ATOM     75  C   UNL     1       5.055   5.681   2.054  1.00  0.00     0.278 C 
ATOM     76  H   UNL     1       3.078   5.455   2.017  1.00  0.00     0.163 HD
ATOM     77  O   UNL     1       5.187   4.466   2.264  1.00  0.00    -0.268 OA
BRANCH  75  78
ATOM     78  C   UNL     1       6.329   6.548   1.800  1.00  0.00     0.274 C 
ATOM     79  C   UNL     1       6.189   7.622   0.716  1.00  0.00     0.085 C 
ATOM     80  N   UNL     1       6.805   7.235   3.045  1.00  0.00    -0.321 N 
ATOM     81  C   UNL     1       6.474   8.928   1.449  1.00  0.00     0.054 C 
ATOM     82  C   UNL     1       6.323   8.611   2.931  1.00  0.00     0.188 C 
ATOM     83  H   UNL     1       6.415   6.808   3.885  1.00  0.00     0.349 HD
ATOM     84  C   UNL     1       5.723  10.182   1.038  1.00  0.00     0.010 C 
ATOM     85  C   UNL     1       6.822   9.745   3.815  1.00  0.00     0.065 C 
ATOM     86  C   UNL     1       6.179  11.355   1.914  1.00  0.00     0.001 C 
ATOM     87  C   UNL     1       6.121  11.054   3.419  1.00  0.00     0.006 C 
BRANCH  80  88
ATOM     88  C   UNL     1       8.232   7.041   3.364  1.00  0.00     0.285 C 
BRANCH  88  89
ATOM     89  C   UNL     1       9.387   7.270   2.346  1.00  0.00     0.184 C 
BRANCH  89  90
ATOM     90  N   UNL     1       9.815   8.632   2.100  1.00  0.00    -0.332 N 
ATOM     91  C   UNL     1       9.870   9.253   0.879  1.00  0.00     0.107 A 
ATOM     92  C   UNL     1      10.274   9.528   3.024  1.00  0.00     0.199 A 
ATOM     93  C   UNL     1      10.164  10.566   1.162  1.00  0.00     0.130 A 
ATOM     94  N   UNL     1      10.446  10.719   2.494  1.00  0.00    -0.245 NA
ENDBRANCH  89  90
ENDBRANCH  88  89
ENDBRANCH  80  88
ENDBRANCH  75  78
ENDBRANCH  73  74
ENDBRANCH  72  73
ENDBRANCH   1  72
TORSDOF 17
