REMARK SMILES CC[C@H](NS(=O)(=O)Cc1ccccc1)C(=O)NCCCCNC(=O)c1ccc(-c2c3nc(c(-c4cc(S(=O)(=O)[O-])ccc4F)c4ccc([nH]4)c(-c4cc(S(=O)(=O)[O-])ccc4F)c4nc(c(-c5cc(S(=O)(=O)[O-])ccc5F)c5ccc2[nH]5)C=C4)C=C3)cc1
REMARK SMILES IDX 19 1 18 2 17 3 15 4 16 5 3 7 2 8 1 9 4 10 5 12 6 13 7 14
REMARK SMILES IDX 8 15 9 16 10 17 14 18 11 19 13 20 12 21 20 22 21 23 22 24
REMARK SMILES IDX 23 25 24 27 25 28 26 29 87 30 27 31 86 32 28 33 29 34 30 35
REMARK SMILES IDX 80 36 31 37 85 38 79 39 81 40 32 41 84 42 78 43 77 44 33 46
REMARK SMILES IDX 65 47 45 48 64 49 46 50 49 51 63 52 82 53 47 54 48 55 62 57
REMARK SMILES IDX 83 58 50 59 34 60 35 61 43 62 36 63 42 64 44 65 41 66 37 67
REMARK SMILES IDX 38 68 39 69 40 70 66 71 67 72 75 73 68 74 74 75 76 76 73 77
REMARK SMILES IDX 69 78 70 79 71 80 72 81 51 82 52 83 60 84 53 85 59 86 61 87
REMARK SMILES IDX 58 88 54 89 55 90 56 91 57 92
REMARK H PARENT 17 6 4 11 22 26 81 45 49 56
REMARK Flexibility Score: inf
ROOT
ATOM      1  C   UNL     1      -3.411  -0.882   1.459  1.00  0.00     0.023 C 
ENDROOT
BRANCH   1   2
ATOM      2  C   UNL     1      -2.506   0.372   1.508  1.00  0.00     0.116 C 
BRANCH   2   3
ATOM      3  N   UNL     1      -1.739   0.778   2.671  1.00  0.00    -0.355 N 
ATOM      4  C   UNL     1      -0.398   0.852   2.951  1.00  0.00     0.238 C 
ATOM      5  O   UNL     1      -0.063   1.574   3.898  1.00  0.00    -0.273 OA
ATOM      6  H   UNL     1      -2.305   1.063   3.425  1.00  0.00     0.163 HD
BRANCH   4   7
ATOM      7  C   UNL     1       0.677   0.152   2.140  1.00  0.00     0.158 C 
BRANCH   7   8
ATOM      8  C   UNL     1       1.233   1.082   1.041  1.00  0.00     0.027 C 
ATOM      9  C   UNL     1       0.249   1.645   0.029  1.00  0.00     0.006 C 
ENDBRANCH   7   8
BRANCH   7  10
ATOM     10  N   UNL     1       0.287  -1.195   1.669  1.00  0.00    -0.202 NA
ATOM     11  H   UNL     1       0.838  -1.398   0.835  1.00  0.00     0.141 HD
BRANCH  10  12
ATOM     12  S   UNL     1       0.494  -2.499   2.747  1.00  0.00     0.216 S 
ATOM     13  O   UNL     1       0.431  -3.641   1.861  1.00  0.00    -0.212 OA
ATOM     14  O   UNL     1       1.692  -2.269   3.531  1.00  0.00    -0.212 OA
BRANCH  12  15
ATOM     15  C   UNL     1      -0.973  -2.582   3.782  1.00  0.00     0.189 C 
BRANCH  15  16
ATOM     16  C   UNL     1      -1.016  -1.748   5.040  1.00  0.00    -0.032 A 
ATOM     17  C   UNL     1      -0.296  -2.045   6.194  1.00  0.00     0.005 A 
ATOM     18  C   UNL     1      -1.940  -0.703   5.149  1.00  0.00     0.005 A 
ATOM     19  C   UNL     1      -0.436  -1.252   7.349  1.00  0.00     0.000 A 
ATOM     20  C   UNL     1      -2.040   0.140   6.254  1.00  0.00     0.000 A 
ATOM     21  C   UNL     1      -1.273  -0.136   7.366  1.00  0.00     0.000 A 
ENDBRANCH  15  16
ENDBRANCH  12  15
ENDBRANCH  10  12
ENDBRANCH   7  10
ENDBRANCH   4   7
ENDBRANCH   2   3
ENDBRANCH   1   2
BRANCH   1  22
ATOM     22  C   UNL     1      -4.249  -1.530   2.573  1.00  0.00     0.023 C 
BRANCH  22  23
ATOM     23  C   UNL     1      -5.068  -0.717   3.557  1.00  0.00     0.116 C 
BRANCH  23  24
ATOM     24  N   UNL     1      -6.232  -0.111   2.970  1.00  0.00    -0.352 N 
ATOM     25  C   UNL     1      -7.539  -0.177   3.392  1.00  0.00     0.251 C 
ATOM     26  H   UNL     1      -6.072   0.422   2.158  1.00  0.00     0.163 HD
ATOM     27  O   UNL     1      -8.411   0.306   2.673  1.00  0.00    -0.269 OA
BRANCH  25  28
ATOM     28  C   UNL     1      -7.913  -0.843   4.669  1.00  0.00     0.039 A 
ATOM     29  C   UNL     1      -9.076  -1.619   4.686  1.00  0.00     0.014 A 
ATOM     30  C   UNL     1      -7.186  -0.674   5.854  1.00  0.00     0.014 A 
ATOM     31  C   UNL     1      -9.509  -2.213   5.875  1.00  0.00     0.010 A 
ATOM     32  C   UNL     1      -7.577  -1.335   7.024  1.00  0.00     0.010 A 
ATOM     33  C   UNL     1      -8.766  -2.078   7.059  1.00  0.00    -0.014 A 
BRANCH  33  34
ATOM     34  C   UNL     1      -9.289  -2.637   8.339  1.00  0.00     0.031 A 
ATOM     35  C   UNL     1      -9.694  -1.708   9.458  1.00  0.00     0.074 A 
ATOM     36  C   UNL     1      -9.431  -3.969   8.487  1.00  0.00     0.049 A 
ATOM     37  N   UNL     1     -10.236  -1.988  10.616  1.00  0.00    -0.248 NA
ATOM     38  C   UNL     1      -9.430  -0.275   9.256  1.00  0.00     0.031 C 
ATOM     39  C   UNL     1      -9.047  -4.972   7.492  1.00  0.00     0.029 A 
ATOM     40  N   UNL     1      -9.952  -4.711   9.519  1.00  0.00    -0.354 N 
ATOM     41  C   UNL     1     -10.368  -0.771  11.281  1.00  0.00     0.074 A 
ATOM     42  C   UNL     1      -9.782   0.236  10.425  1.00  0.00     0.031 C 
ATOM     43  C   UNL     1      -9.394  -6.190   7.938  1.00  0.00     0.029 A 
ATOM     44  C   UNL     1      -9.989  -6.064   9.265  1.00  0.00     0.049 A 
ATOM     45  H   UNL     1     -10.271  -4.313  10.361  1.00  0.00     0.167 HD
ATOM     46  C   UNL     1     -10.949  -0.512  12.480  1.00  0.00     0.034 A 
ATOM     47  C   UNL     1     -10.457  -7.084  10.013  1.00  0.00     0.034 A 
ATOM     48  C   UNL     1     -11.541  -1.529  13.315  1.00  0.00     0.049 A 
ATOM     49  C   UNL     1     -11.080  -6.775  11.353  1.00  0.00     0.074 A 
ATOM     50  C   UNL     1     -12.204  -1.378  14.521  1.00  0.00     0.029 A 
ATOM     51  N   UNL     1     -11.531  -2.891  13.038  1.00  0.00    -0.354 N 
ATOM     52  N   UNL     1     -11.255  -5.611  11.937  1.00  0.00    -0.248 NA
ATOM     53  C   UNL     1     -11.584  -7.918  12.125  1.00  0.00     0.031 C 
ATOM     54  C   UNL     1     -12.520  -2.650  15.011  1.00  0.00     0.029 A 
ATOM     55  C   UNL     1     -12.141  -3.592  14.068  1.00  0.00     0.049 A 
ATOM     56  H   UNL     1     -11.146  -3.299  12.229  1.00  0.00     0.167 HD
ATOM     57  C   UNL     1     -11.925  -5.882  13.128  1.00  0.00     0.074 A 
ATOM     58  C   UNL     1     -12.137  -7.314  13.166  1.00  0.00     0.031 C 
ATOM     59  C   UNL     1     -12.336  -5.024  14.099  1.00  0.00     0.034 A 
BRANCH  46  60
ATOM     60  C   UNL     1     -10.935   0.921  12.968  1.00  0.00     0.023 A 
ATOM     61  C   UNL     1     -11.560   1.959  12.251  1.00  0.00     0.031 A 
ATOM     62  C   UNL     1     -10.253   1.264  14.149  1.00  0.00     0.131 A 
ATOM     63  C   UNL     1     -11.413   3.291  12.670  1.00  0.00     0.055 A 
ATOM     64  C   UNL     1     -10.190   2.580  14.611  1.00  0.00     0.041 A 
ATOM     65  F   UNL     1      -9.617   0.325  14.868  1.00  0.00    -0.206 F 
ATOM     66  C   UNL     1     -10.756   3.606  13.861  1.00  0.00     0.022 A 
BRANCH  63  67
ATOM     67  S   UNL     1     -11.945   4.616  11.550  1.00  0.00     0.124 S 
ATOM     68  O   UNL     1     -11.157   4.324  10.354  1.00  0.00    -0.237 OA
ATOM     69  O   UNL     1     -13.380   4.382  11.443  1.00  0.00    -0.237 OA
ATOM     70  O   UNL     1     -11.561   5.836  12.256  1.00  0.00    -0.744 OA
ENDBRANCH  63  67
ENDBRANCH  46  60
BRANCH  47  71
ATOM     71  C   UNL     1     -10.375  -8.491   9.519  1.00  0.00     0.023 A 
ATOM     72  C   UNL     1     -11.536  -9.247   9.285  1.00  0.00     0.031 A 
ATOM     73  C   UNL     1      -9.133  -9.119   9.320  1.00  0.00     0.131 A 
ATOM     74  C   UNL     1     -11.432 -10.598   8.917  1.00  0.00     0.055 A 
ATOM     75  C   UNL     1      -9.034 -10.446   8.897  1.00  0.00     0.041 A 
ATOM     76  F   UNL     1      -7.990  -8.445   9.528  1.00  0.00    -0.206 F 
ATOM     77  C   UNL     1     -10.189 -11.198   8.707  1.00  0.00     0.022 A 
BRANCH  74  78
ATOM     78  S   UNL     1     -12.947 -11.590   8.808  1.00  0.00     0.124 S 
ATOM     79  O   UNL     1     -13.495 -11.443  10.152  1.00  0.00    -0.237 OA
ATOM     80  O   UNL     1     -13.675 -10.914   7.740  1.00  0.00    -0.237 OA
ATOM     81  O   UNL     1     -12.456 -12.926   8.476  1.00  0.00    -0.744 OA
ENDBRANCH  74  78
ENDBRANCH  47  71
BRANCH  59  82
ATOM     82  C   UNL     1     -13.102  -5.617  15.259  1.00  0.00     0.023 A 
ATOM     83  C   UNL     1     -12.516  -6.536  16.146  1.00  0.00     0.031 A 
ATOM     84  C   UNL     1     -14.452  -5.275  15.461  1.00  0.00     0.131 A 
ATOM     85  C   UNL     1     -13.295  -7.138  17.146  1.00  0.00     0.055 A 
ATOM     86  C   UNL     1     -15.201  -5.819  16.505  1.00  0.00     0.041 A 
ATOM     87  F   UNL     1     -15.067  -4.405  14.644  1.00  0.00    -0.206 F 
ATOM     88  C   UNL     1     -14.629  -6.771  17.343  1.00  0.00     0.022 A 
BRANCH  85  89
ATOM     89  S   UNL     1     -12.578  -8.501  18.104  1.00  0.00     0.124 S 
ATOM     90  O   UNL     1     -12.188  -9.437  17.054  1.00  0.00    -0.237 OA
ATOM     91  O   UNL     1     -11.484  -7.844  18.811  1.00  0.00    -0.237 OA
ATOM     92  O   UNL     1     -13.685  -8.945  18.950  1.00  0.00    -0.744 OA
ENDBRANCH  85  89
ENDBRANCH  59  82
ENDBRANCH  33  34
ENDBRANCH  25  28
ENDBRANCH  23  24
ENDBRANCH  22  23
ENDBRANCH   1  22
TORSDOF 19
