REMARK SMILES CC(C)Cc1cc2c(cc1Cl)C=C(C(=O)NCCCCNC(=O)c1ccc(-c3c4nc(c(-c5cc(S(=O)(=O)[O-])ccc5F)c5ccc([nH]5)c(-c5cc(S(=O)(=O)[O-])ccc5F)c5nc(c(-c6cc(S(=O)(=O)[O-])ccc6F)c6ccc3[nH]6)C=C5)C=C4)cc1)[C@@H](C(F)(F)F)O2
REMARK SMILES IDX 19 1 18 2 17 3 16 4 14 5 15 6 13 8 5 9 6 10 10 11 7 12 9 13
REMARK SMILES IDX 11 14 8 15 92 16 12 17 87 18 4 19 2 20 1 21 3 22 88 23 89 24
REMARK SMILES IDX 90 25 91 26 20 27 21 28 22 29 23 31 24 32 25 33 86 34 26 35
REMARK SMILES IDX 85 36 27 37 28 38 29 39 79 40 30 41 84 42 78 43 80 44 31 45
REMARK SMILES IDX 83 46 77 47 76 48 32 50 64 51 44 52 63 53 45 54 48 55 62 56
REMARK SMILES IDX 81 57 46 58 47 59 61 61 82 62 49 63 33 64 34 65 42 66 35 67
REMARK SMILES IDX 41 68 43 69 40 70 36 71 37 72 38 73 39 74 65 75 66 76 74 77
REMARK SMILES IDX 67 78 73 79 75 80 72 81 68 82 69 83 70 84 71 85 50 86 51 87
REMARK SMILES IDX 59 88 52 89 58 90 60 91 57 92 53 93 54 94 55 95 56 96
REMARK H PARENT 16 7 21 30 80 49 48 60
REMARK Flexibility Score: inf
ROOT
ATOM      1  C   UNL     1       0.437  -8.894   4.215  1.00  0.00     0.023 C 
ENDROOT
BRANCH   1   2
ATOM      2  C   UNL     1       0.172  -7.610   3.424  1.00  0.00     0.023 C 
BRANCH   2   3
ATOM      3  C   UNL     1      -1.303  -7.342   3.133  1.00  0.00     0.116 C 
BRANCH   3   4
ATOM      4  N   UNL     1      -1.953  -6.589   4.194  1.00  0.00    -0.352 N 
ATOM      5  C   UNL     1      -2.370  -5.315   4.393  1.00  0.00     0.251 C 
ATOM      6  O   UNL     1      -2.914  -5.095   5.479  1.00  0.00    -0.270 OA
ATOM      7  H   UNL     1      -2.140  -7.156   4.976  1.00  0.00     0.163 HD
BRANCH   5   8
ATOM      8  C   UNL     1      -2.203  -4.194   3.419  1.00  0.00     0.067 C 
ATOM      9  C   UNL     1      -1.587   0.399   1.393  1.00  0.00    -0.025 A 
ATOM     10  C   UNL     1      -1.457  -0.918   0.932  1.00  0.00     0.052 A 
ATOM     11  C   UNL     1      -2.100   0.597   2.684  1.00  0.00     0.045 A 
ATOM     12  C   UNL     1      -1.730  -2.000   1.762  1.00  0.00     0.128 A 
ATOM     13  C   UNL     1      -2.428  -0.498   3.500  1.00  0.00     0.032 A 
ATOM     14  Cl  UNL     1      -2.324   2.178   3.345  1.00  0.00    -0.084 Cl
ATOM     15  C   UNL     1      -2.213  -1.804   3.049  1.00  0.00     0.019 A 
ATOM     16  O   UNL     1      -1.408  -3.217   1.250  1.00  0.00    -0.475 OA
ATOM     17  C   UNL     1      -2.404  -2.959   3.916  1.00  0.00     0.025 C 
ATOM     18  C   UNL     1      -1.853  -4.394   1.971  1.00  0.00     0.314 C 
BRANCH   9  19
ATOM     19  C   UNL     1      -1.089   1.508   0.493  1.00  0.00     0.040 C 
BRANCH  19  20
ATOM     20  C   UNL     1       0.444   1.718   0.562  1.00  0.00    -0.013 C 
ATOM     21  C   UNL     1       1.249   0.515   0.055  1.00  0.00     0.008 C 
ATOM     22  C   UNL     1       0.831   2.949  -0.260  1.00  0.00     0.008 C 
ENDBRANCH  19  20
ENDBRANCH   9  19
BRANCH  18  23
ATOM     23  C   UNL     1      -2.992  -5.031   1.157  1.00  0.00     0.429 C 
ATOM     24  F   UNL     1      -2.521  -5.478  -0.035  1.00  0.00    -0.167 F 
ATOM     25  F   UNL     1      -3.552  -6.095   1.773  1.00  0.00    -0.167 F 
ATOM     26  F   UNL     1      -3.987  -4.153   0.893  1.00  0.00    -0.167 F 
ENDBRANCH  18  23
ENDBRANCH   5   8
ENDBRANCH   3   4
ENDBRANCH   2   3
ENDBRANCH   1   2
BRANCH   1  27
ATOM     27  C   UNL     1      -0.131 -10.172   3.601  1.00  0.00     0.116 C 
BRANCH  27  28
ATOM     28  N   UNL     1       0.264 -10.412   2.218  1.00  0.00    -0.352 N 
ATOM     29  C   UNL     1       0.258 -11.617   1.545  1.00  0.00     0.251 C 
ATOM     30  H   UNL     1       0.569  -9.627   1.708  1.00  0.00     0.163 HD
ATOM     31  O   UNL     1       0.694 -11.698   0.401  1.00  0.00    -0.269 OA
BRANCH  29  32
ATOM     32  C   UNL     1      -0.223 -12.816   2.264  1.00  0.00     0.039 A 
ATOM     33  C   UNL     1      -1.456 -12.785   2.914  1.00  0.00     0.014 A 
ATOM     34  C   UNL     1       0.625 -13.918   2.401  1.00  0.00     0.014 A 
ATOM     35  C   UNL     1      -1.745 -13.755   3.865  1.00  0.00     0.010 A 
ATOM     36  C   UNL     1       0.284 -14.942   3.290  1.00  0.00     0.010 A 
ATOM     37  C   UNL     1      -0.868 -14.832   4.084  1.00  0.00    -0.014 A 
BRANCH  37  38
ATOM     38  C   UNL     1      -1.178 -15.796   5.175  1.00  0.00     0.031 A 
ATOM     39  C   UNL     1      -0.290 -15.911   6.386  1.00  0.00     0.074 A 
ATOM     40  C   UNL     1      -2.328 -16.495   5.115  1.00  0.00     0.049 A 
ATOM     41  N   UNL     1      -0.483 -16.599   7.483  1.00  0.00    -0.248 NA
ATOM     42  C   UNL     1       0.979 -15.165   6.369  1.00  0.00     0.031 C 
ATOM     43  C   UNL     1      -3.259 -16.466   3.987  1.00  0.00     0.029 A 
ATOM     44  N   UNL     1      -2.935 -17.320   6.028  1.00  0.00    -0.354 N 
ATOM     45  C   UNL     1       0.640 -16.385   8.276  1.00  0.00     0.074 A 
ATOM     46  C   UNL     1       1.528 -15.530   7.520  1.00  0.00     0.031 C 
ATOM     47  C   UNL     1      -4.354 -17.168   4.305  1.00  0.00     0.029 A 
ATOM     48  C   UNL     1      -4.181 -17.751   5.633  1.00  0.00     0.049 A 
ATOM     49  H   UNL     1      -2.519 -17.579   6.882  1.00  0.00     0.167 HD
ATOM     50  C   UNL     1       0.898 -16.845   9.524  1.00  0.00     0.034 A 
ATOM     51  C   UNL     1      -5.091 -18.518   6.269  1.00  0.00     0.034 A 
ATOM     52  C   UNL     1      -0.005 -17.681  10.275  1.00  0.00     0.049 A 
ATOM     53  C   UNL     1      -4.791 -18.997   7.664  1.00  0.00     0.074 A 
ATOM     54  C   UNL     1       0.166 -18.198  11.547  1.00  0.00     0.029 A 
ATOM     55  N   UNL     1      -1.250 -18.109   9.835  1.00  0.00    -0.354 N 
ATOM     56  N   UNL     1      -3.739 -18.754   8.410  1.00  0.00    -0.248 NA
ATOM     57  C   UNL     1      -5.800 -19.846   8.312  1.00  0.00     0.031 C 
ATOM     58  C   UNL     1      -0.953 -18.973  11.859  1.00  0.00     0.029 A 
ATOM     59  C   UNL     1      -1.852 -18.890  10.808  1.00  0.00     0.049 A 
ATOM     60  H   UNL     1      -1.646 -17.890   8.961  1.00  0.00     0.167 HD
ATOM     61  C   UNL     1      -3.967 -19.404   9.619  1.00  0.00     0.074 A 
ATOM     62  C   UNL     1      -5.271 -20.024   9.516  1.00  0.00     0.031 C 
ATOM     63  C   UNL     1      -3.163 -19.486  10.709  1.00  0.00     0.034 A 
BRANCH  50  64
ATOM     64  C   UNL     1       2.200 -16.457  10.182  1.00  0.00     0.023 A 
ATOM     65  C   UNL     1       3.152 -17.444  10.503  1.00  0.00     0.031 A 
ATOM     66  C   UNL     1       2.445 -15.136  10.599  1.00  0.00     0.131 A 
ATOM     67  C   UNL     1       4.289 -17.100  11.245  1.00  0.00     0.055 A 
ATOM     68  C   UNL     1       3.598 -14.792  11.307  1.00  0.00     0.041 A 
ATOM     69  F   UNL     1       1.570 -14.158  10.314  1.00  0.00    -0.206 F 
ATOM     70  C   UNL     1       4.520 -15.779  11.644  1.00  0.00     0.022 A 
BRANCH  67  71
ATOM     71  S   UNL     1       5.481 -18.359  11.776  1.00  0.00     0.124 S 
ATOM     72  O   UNL     1       6.710 -17.896  11.134  1.00  0.00    -0.237 OA
ATOM     73  O   UNL     1       5.447 -18.221  13.229  1.00  0.00    -0.237 OA
ATOM     74  O   UNL     1       4.936 -19.604  11.248  1.00  0.00    -0.744 OA
ENDBRANCH  67  71
ENDBRANCH  50  64
BRANCH  51  75
ATOM     75  C   UNL     1      -6.393 -18.798   5.597  1.00  0.00     0.023 A 
ATOM     76  C   UNL     1      -6.439 -19.480   4.367  1.00  0.00     0.031 A 
ATOM     77  C   UNL     1      -7.593 -18.276   6.107  1.00  0.00     0.131 A 
ATOM     78  C   UNL     1      -7.641 -19.549   3.652  1.00  0.00     0.055 A 
ATOM     79  C   UNL     1      -8.805 -18.416   5.428  1.00  0.00     0.041 A 
ATOM     80  F   UNL     1      -7.599 -17.605   7.269  1.00  0.00    -0.206 F 
ATOM     81  C   UNL     1      -8.828 -19.036   4.183  1.00  0.00     0.022 A 
BRANCH  78  82
ATOM     82  S   UNL     1      -7.668 -20.162   1.944  1.00  0.00     0.124 S 
ATOM     83  O   UNL     1      -8.530 -21.334   2.056  1.00  0.00    -0.237 OA
ATOM     84  O   UNL     1      -8.239 -19.024   1.227  1.00  0.00    -0.237 OA
ATOM     85  O   UNL     1      -6.264 -20.433   1.653  1.00  0.00    -0.744 OA
ENDBRANCH  78  82
ENDBRANCH  51  75
BRANCH  63  86
ATOM     86  C   UNL     1      -3.650 -20.266  11.905  1.00  0.00     0.023 A 
ATOM     87  C   UNL     1      -3.857 -19.611  13.135  1.00  0.00     0.031 A 
ATOM     88  C   UNL     1      -3.769 -21.666  11.868  1.00  0.00     0.131 A 
ATOM     89  C   UNL     1      -4.146 -20.359  14.283  1.00  0.00     0.055 A 
ATOM     90  C   UNL     1      -4.097 -22.403  13.007  1.00  0.00     0.041 A 
ATOM     91  F   UNL     1      -3.567 -22.337  10.723  1.00  0.00    -0.206 F 
ATOM     92  C   UNL     1      -4.274 -21.751  14.224  1.00  0.00     0.022 A 
BRANCH  89  93
ATOM     93  S   UNL     1      -4.278 -19.566  15.909  1.00  0.00     0.124 S 
ATOM     94  O   UNL     1      -5.678 -19.806  16.247  1.00  0.00    -0.237 OA
ATOM     95  O   UNL     1      -3.308 -20.319  16.701  1.00  0.00    -0.237 OA
ATOM     96  O   UNL     1      -3.928 -18.173  15.652  1.00  0.00    -0.744 OA
ENDBRANCH  89  93
ENDBRANCH  63  86
ENDBRANCH  37  38
ENDBRANCH  29  32
ENDBRANCH  27  28
ENDBRANCH   1  27
TORSDOF 17
