REMARK SMILES O=C(C[C@@H](NS(=O)(=O)c1ccc2c(c1)OCCO2)c1ccccc1)NCCCCNC(=O)c1ccc(-c2c3nc(c(-c4cc(S(=O)(=O)[O-])ccc4F)c4ccc([nH]4)c(-c4cc(S(=O)(=O)[O-])ccc4F)c4nc(c(-c5cc(S(=O)(=O)[O-])ccc5F)c5ccc2[nH]5)C=C4)C=C3)cc1
REMARK SMILES IDX 27 1 26 2 25 3 1 4 2 5 3 7 4 8 5 9 6 11 7 12 8 13 9 14 10 15
REMARK SMILES IDX 14 16 11 17 13 18 12 19 15 20 18 21 16 22 17 23 19 24 20 25
REMARK SMILES IDX 24 26 21 27 23 28 22 29 28 30 29 31 30 32 31 33 32 35 33 36
REMARK SMILES IDX 34 37 95 38 35 39 94 40 36 41 37 42 38 43 88 44 39 45 93 46
REMARK SMILES IDX 87 47 89 48 40 49 92 50 86 51 85 52 41 54 73 55 53 56 72 57
REMARK SMILES IDX 54 58 57 59 71 60 90 61 55 62 56 63 70 65 91 66 58 67 42 68
REMARK SMILES IDX 43 69 51 70 44 71 50 72 52 73 49 74 45 75 46 76 47 77 48 78
REMARK SMILES IDX 74 79 75 80 83 81 76 82 82 83 84 84 81 85 77 86 78 87 79 88
REMARK SMILES IDX 80 89 59 90 60 91 68 92 61 93 67 94 69 95 66 96 62 97 63 98
REMARK SMILES IDX 64 99 65 100
REMARK H PARENT 25 6 5 10 30 34 89 53 57 64
REMARK Flexibility Score: inf
ROOT
ATOM      1  C   UNL     1       2.389   3.598  -0.760  1.00  0.00     0.023 C 
ENDROOT
BRANCH   1   2
ATOM      2  C   UNL     1       2.063   2.199  -1.279  1.00  0.00     0.116 C 
BRANCH   2   3
ATOM      3  N   UNL     1       2.726   1.171  -0.502  1.00  0.00    -0.356 N 
ATOM      4  O   UNL     1       1.086  -0.420  -0.759  1.00  0.00    -0.275 OA
ATOM      5  C   UNL     1       2.166  -0.069  -0.299  1.00  0.00     0.221 C 
ATOM      6  H   UNL     1       3.606   1.367  -0.106  1.00  0.00     0.163 HD
BRANCH   5   7
ATOM      7  C   UNL     1       3.014  -0.980   0.549  1.00  0.00     0.124 C 
BRANCH   7   8
ATOM      8  C   UNL     1       3.855  -1.921  -0.326  1.00  0.00     0.109 C 
BRANCH   8   9
ATOM      9  N   UNL     1       5.002  -1.182  -0.913  1.00  0.00    -0.203 NA
ATOM     10  H   UNL     1       5.687  -1.050  -0.169  1.00  0.00     0.142 HD
BRANCH   9  11
ATOM     11  S   UNL     1       5.821  -1.867  -2.228  1.00  0.00     0.241 S 
ATOM     12  O   UNL     1       4.822  -2.471  -3.083  1.00  0.00    -0.207 OA
ATOM     13  O   UNL     1       6.695  -0.823  -2.716  1.00  0.00    -0.207 OA
BRANCH  11  14
ATOM     14  C   UNL     1       6.830  -3.135  -1.522  1.00  0.00     0.086 A 
ATOM     15  C   UNL     1       6.628  -4.465  -1.912  1.00  0.00     0.026 A 
ATOM     16  C   UNL     1       7.767  -2.810  -0.538  1.00  0.00     0.072 A 
ATOM     17  C   UNL     1       7.316  -5.487  -1.258  1.00  0.00     0.052 A 
ATOM     18  C   UNL     1       8.444  -3.838   0.116  1.00  0.00     0.162 A 
ATOM     19  C   UNL     1       8.192  -5.176  -0.221  1.00  0.00     0.161 A 
ATOM     20  O   UNL     1       9.305  -3.469   1.118  1.00  0.00    -0.486 OA
ATOM     21  O   UNL     1       8.756  -6.237   0.442  1.00  0.00    -0.486 OA
ATOM     22  C   UNL     1      10.127  -4.565   1.538  1.00  0.00     0.271 C 
ATOM     23  C   UNL     1       9.294  -5.825   1.703  1.00  0.00     0.271 C 
ENDBRANCH  11  14
ENDBRANCH   9  11
ENDBRANCH   8   9
BRANCH   8  24
ATOM     24  C   UNL     1       4.327  -3.065   0.556  1.00  0.00    -0.029 A 
ATOM     25  C   UNL     1       3.914  -4.378   0.293  1.00  0.00     0.005 A 
ATOM     26  C   UNL     1       5.187  -2.832   1.644  1.00  0.00     0.005 A 
ATOM     27  C   UNL     1       4.364  -5.433   1.090  1.00  0.00     0.000 A 
ATOM     28  C   UNL     1       5.632  -3.886   2.440  1.00  0.00     0.000 A 
ATOM     29  C   UNL     1       5.222  -5.186   2.161  1.00  0.00     0.000 A 
ENDBRANCH   8  24
ENDBRANCH   7   8
ENDBRANCH   5   7
ENDBRANCH   2   3
ENDBRANCH   1   2
BRANCH   1  30
ATOM     30  C   UNL     1       3.870   3.986  -0.821  1.00  0.00     0.023 C 
BRANCH  30  31
ATOM     31  C   UNL     1       4.505   3.928  -2.208  1.00  0.00     0.116 C 
BRANCH  31  32
ATOM     32  N   UNL     1       3.909   4.881  -3.127  1.00  0.00    -0.352 N 
ATOM     33  C   UNL     1       4.516   5.838  -3.905  1.00  0.00     0.251 C 
ATOM     34  H   UNL     1       2.928   4.835  -3.204  1.00  0.00     0.163 HD
ATOM     35  O   UNL     1       3.824   6.673  -4.481  1.00  0.00    -0.269 OA
BRANCH  33  36
ATOM     36  C   UNL     1       5.992   5.885  -4.020  1.00  0.00     0.039 A 
ATOM     37  C   UNL     1       6.634   7.124  -3.943  1.00  0.00     0.014 A 
ATOM     38  C   UNL     1       6.744   4.722  -4.211  1.00  0.00     0.014 A 
ATOM     39  C   UNL     1       8.030   7.189  -3.988  1.00  0.00     0.010 A 
ATOM     40  C   UNL     1       8.137   4.782  -4.188  1.00  0.00     0.010 A 
ATOM     41  C   UNL     1       8.796   6.015  -4.073  1.00  0.00    -0.014 A 
BRANCH  41  42
ATOM     42  C   UNL     1      10.283   6.060  -4.040  1.00  0.00     0.031 A 
ATOM     43  C   UNL     1      11.081   5.609  -5.234  1.00  0.00     0.074 A 
ATOM     44  C   UNL     1      10.915   6.448  -2.915  1.00  0.00     0.049 A 
ATOM     45  N   UNL     1      12.378   5.494  -5.368  1.00  0.00    -0.248 NA
ATOM     46  C   UNL     1      10.316   5.211  -6.424  1.00  0.00     0.031 C 
ATOM     47  C   UNL     1      10.254   6.875  -1.679  1.00  0.00     0.029 A 
ATOM     48  N   UNL     1      12.253   6.535  -2.620  1.00  0.00    -0.354 N 
ATOM     49  C   UNL     1      12.585   5.001  -6.652  1.00  0.00     0.074 A 
ATOM     50  C   UNL     1      11.275   4.784  -7.231  1.00  0.00     0.031 C 
ATOM     51  C   UNL     1      11.188   7.191  -0.767  1.00  0.00     0.029 A 
ATOM     52  C   UNL     1      12.511   6.948  -1.333  1.00  0.00     0.049 A 
ATOM     53  H   UNL     1      12.962   6.322  -3.269  1.00  0.00     0.167 HD
ATOM     54  C   UNL     1      13.757   4.769  -7.296  1.00  0.00     0.034 A 
ATOM     55  C   UNL     1      13.679   7.098  -0.675  1.00  0.00     0.034 A 
ATOM     56  C   UNL     1      15.056   4.993  -6.708  1.00  0.00     0.049 A 
ATOM     57  C   UNL     1      14.969   6.809  -1.401  1.00  0.00     0.074 A 
ATOM     58  C   UNL     1      16.304   4.834  -7.286  1.00  0.00     0.029 A 
ATOM     59  N   UNL     1      15.277   5.417  -5.403  1.00  0.00    -0.354 N 
ATOM     60  N   UNL     1      15.147   6.384  -2.630  1.00  0.00    -0.248 NA
ATOM     61  C   UNL     1      16.213   7.031  -0.654  1.00  0.00     0.031 C 
ATOM     62  C   UNL     1      17.276   5.099  -6.315  1.00  0.00     0.029 A 
ATOM     63  C   UNL     1      16.639   5.497  -5.151  1.00  0.00     0.049 A 
ATOM     64  H   UNL     1      14.570   5.630  -4.752  1.00  0.00     0.167 HD
ATOM     65  C   UNL     1      16.526   6.317  -2.812  1.00  0.00     0.074 A 
ATOM     66  C   UNL     1      17.130   6.760  -1.572  1.00  0.00     0.031 C 
ATOM     67  C   UNL     1      17.230   5.929  -3.906  1.00  0.00     0.034 A 
BRANCH  54  68
ATOM     68  C   UNL     1      13.678   4.223  -8.702  1.00  0.00     0.023 A 
ATOM     69  C   UNL     1      13.085   4.956  -9.746  1.00  0.00     0.031 A 
ATOM     70  C   UNL     1      14.180   2.943  -9.001  1.00  0.00     0.131 A 
ATOM     71  C   UNL     1      12.939   4.376 -11.015  1.00  0.00     0.055 A 
ATOM     72  C   UNL     1      14.104   2.404 -10.287  1.00  0.00     0.041 A 
ATOM     73  F   UNL     1      14.741   2.188  -8.043  1.00  0.00    -0.206 F 
ATOM     74  C   UNL     1      13.466   3.115 -11.300  1.00  0.00     0.022 A 
BRANCH  71  75
ATOM     75  S   UNL     1      11.925   5.237 -12.248  1.00  0.00     0.124 S 
ATOM     76  O   UNL     1      10.637   5.322 -11.564  1.00  0.00    -0.237 OA
ATOM     77  O   UNL     1      12.640   6.496 -12.422  1.00  0.00    -0.237 OA
ATOM     78  O   UNL     1      11.951   4.340 -13.401  1.00  0.00    -0.744 OA
ENDBRANCH  71  75
ENDBRANCH  54  68
BRANCH  55  79
ATOM     79  C   UNL     1      13.691   7.524   0.754  1.00  0.00     0.023 A 
ATOM     80  C   UNL     1      14.256   8.749   1.141  1.00  0.00     0.031 A 
ATOM     81  C   UNL     1      13.174   6.689   1.761  1.00  0.00     0.131 A 
ATOM     82  C   UNL     1      14.335   9.085   2.502  1.00  0.00     0.055 A 
ATOM     83  C   UNL     1      13.207   7.051   3.109  1.00  0.00     0.041 A 
ATOM     84  F   UNL     1      12.617   5.509   1.446  1.00  0.00    -0.206 F 
ATOM     85  C   UNL     1      13.803   8.250   3.487  1.00  0.00     0.022 A 
BRANCH  82  86
ATOM     86  S   UNL     1      15.223  10.594   2.974  1.00  0.00     0.124 S 
ATOM     87  O   UNL     1      16.544  10.352   2.406  1.00  0.00    -0.237 OA
ATOM     88  O   UNL     1      14.425  11.630   2.326  1.00  0.00    -0.237 OA
ATOM     89  O   UNL     1      15.159  10.583   4.434  1.00  0.00    -0.744 OA
ENDBRANCH  82  86
ENDBRANCH  55  79
BRANCH  67  90
ATOM     90  C   UNL     1      18.734   6.014  -3.819  1.00  0.00     0.023 A 
ATOM     91  C   UNL     1      19.476   5.183  -2.960  1.00  0.00     0.031 A 
ATOM     92  C   UNL     1      19.434   6.952  -4.599  1.00  0.00     0.131 A 
ATOM     93  C   UNL     1      20.866   5.344  -2.862  1.00  0.00     0.055 A 
ATOM     94  C   UNL     1      20.823   7.067  -4.540  1.00  0.00     0.041 A 
ATOM     95  F   UNL     1      18.776   7.773  -5.434  1.00  0.00    -0.206 F 
ATOM     96  C   UNL     1      21.546   6.269  -3.658  1.00  0.00     0.022 A 
BRANCH  93  97
ATOM     97  S   UNL     1      21.769   4.388  -1.612  1.00  0.00     0.124 S 
ATOM     98  O   UNL     1      21.113   4.807  -0.377  1.00  0.00    -0.237 OA
ATOM     99  O   UNL     1      21.519   3.012  -2.030  1.00  0.00    -0.237 OA
ATOM    100  O   UNL     1      23.151   4.840  -1.765  1.00  0.00    -0.744 OA
ENDBRANCH  93  97
ENDBRANCH  67  90
ENDBRANCH  41  42
ENDBRANCH  33  36
ENDBRANCH  31  32
ENDBRANCH  30  31
ENDBRANCH   1  30
TORSDOF 19
