REMARK SMILES Cc1cccc(Nc2nc(C)c(CCO)c(OCC(=O)NCCCCNC(=O)c3ccc(-c4c5nc(c(-c6cc(S(=O)(=O)[O-])ccc6F)c6ccc([nH]6)c(-c6cc(S(=O)(=O)[O-])ccc6F)c6nc(c(-c7cc(S(=O)(=O)[O-])ccc7F)c7ccc4[nH]7)C=C6)C=C5)cc3)n2)c1
REMARK SMILES IDX 22 1 21 2 19 3 20 4 18 6 17 7 16 8 8 9 9 10 92 11 10 12
REMARK SMILES IDX 11 13 12 14 7 15 6 17 1 18 2 19 3 20 93 21 4 22 5 23 13 24
REMARK SMILES IDX 14 25 15 26 23 28 24 29 25 30 26 31 27 32 28 34 29 35 30 36
REMARK SMILES IDX 91 37 31 38 90 39 32 40 33 41 34 42 84 43 35 44 89 45 83 46
REMARK SMILES IDX 85 47 36 48 88 49 82 50 81 51 37 53 69 54 49 55 68 56 50 57
REMARK SMILES IDX 53 58 67 59 86 60 51 61 52 62 66 64 87 65 54 66 38 67 39 68
REMARK SMILES IDX 47 69 40 70 46 71 48 72 45 73 41 74 42 75 43 76 44 77 70 78
REMARK SMILES IDX 71 79 79 80 72 81 78 82 80 83 77 84 73 85 74 86 75 87 76 88
REMARK SMILES IDX 55 89 56 90 64 91 57 92 63 93 65 94 62 95 58 96 59 97 60 98
REMARK SMILES IDX 61 99
REMARK H PARENT 21 5 7 16 15 27 26 33 85 52 53 63
REMARK Flexibility Score: inf
ROOT
ATOM      1  C   UNL     1      -6.155   2.987   4.577  1.00  0.00     0.116 C 
ENDROOT
BRANCH   1   2
ATOM      2  N   UNL     1      -7.253   3.357   3.696  1.00  0.00    -0.353 N 
ATOM      3  C   UNL     1      -7.804   2.675   2.662  1.00  0.00     0.258 C 
ATOM      4  O   UNL     1      -8.693   3.235   2.013  1.00  0.00    -0.271 OA
ATOM      5  H   UNL     1      -7.657   4.236   3.879  1.00  0.00     0.163 HD
BRANCH   3   6
ATOM      6  C   UNL     1      -7.372   1.228   2.353  1.00  0.00     0.331 C 
BRANCH   6   7
ATOM      7  O   UNL     1      -6.193   0.843   1.673  1.00  0.00    -0.467 OA
BRANCH   7   8
ATOM      8  C   UNL     1      -5.594   1.708   0.811  1.00  0.00     0.222 A 
ATOM      9  C   UNL     1      -3.507   2.419   0.147  1.00  0.00     0.230 A 
ATOM     10  N   UNL     1      -4.024   3.196  -0.809  1.00  0.00    -0.218 NA
ATOM     11  N   UNL     1      -4.262   1.712   0.988  1.00  0.00    -0.177 NA
ATOM     12  C   UNL     1      -5.352   3.101  -1.044  1.00  0.00     0.050 A 
ATOM     13  C   UNL     1      -5.806   3.846  -2.266  1.00  0.00     0.067 C 
ATOM     14  C   UNL     1      -6.199   2.285  -0.293  1.00  0.00     0.038 A 
BRANCH   9  15
ATOM     15  N   UNL     1      -2.117   2.292   0.136  1.00  0.00    -0.324 N 
ATOM     16  H   UNL     1      -1.614   3.138   0.122  1.00  0.00     0.170 HD
BRANCH  15  17
ATOM     17  C   UNL     1      -1.336   1.121   0.142  1.00  0.00     0.041 A 
ATOM     18  C   UNL     1       2.382   0.203   0.022  1.00  0.00     0.044 C 
ATOM     19  C   UNL     1       0.887   0.086   0.070  1.00  0.00    -0.049 A 
ATOM     20  C   UNL     1       0.296  -1.181   0.089  1.00  0.00     0.003 A 
ATOM     21  C   UNL     1       0.065   1.227   0.104  1.00  0.00     0.029 A 
ATOM     22  C   UNL     1      -1.087  -1.304   0.166  1.00  0.00     0.002 A 
ATOM     23  C   UNL     1      -1.891  -0.162   0.207  1.00  0.00     0.026 A 
ENDBRANCH  15  17
ENDBRANCH   9  15
BRANCH  14  24
ATOM     24  C   UNL     1      -7.593   1.942  -0.756  1.00  0.00     0.071 C 
BRANCH  24  25
ATOM     25  C   UNL     1      -7.700   0.554  -1.397  1.00  0.00     0.161 C 
BRANCH  25  26
ATOM     26  O   UNL     1      -7.549  -0.511  -0.468  1.00  0.00    -0.396 OA
ATOM     27  H   UNL     1      -6.666  -0.470  -0.069  1.00  0.00     0.210 HD
ENDBRANCH  25  26
ENDBRANCH  24  25
ENDBRANCH  14  24
ENDBRANCH   7   8
ENDBRANCH   6   7
ENDBRANCH   3   6
ENDBRANCH   1   2
BRANCH   1  28
ATOM     28  C   UNL     1      -4.861   3.724   4.216  1.00  0.00     0.023 C 
BRANCH  28  29
ATOM     29  C   UNL     1      -4.995   5.233   3.993  1.00  0.00     0.023 C 
BRANCH  29  30
ATOM     30  C   UNL     1      -5.608   6.009   5.151  1.00  0.00     0.116 C 
BRANCH  30  31
ATOM     31  N   UNL     1      -4.657   6.555   6.102  1.00  0.00    -0.352 N 
ATOM     32  C   UNL     1      -4.895   7.328   7.230  1.00  0.00     0.251 C 
ATOM     33  H   UNL     1      -3.712   6.349   5.921  1.00  0.00     0.163 HD
ATOM     34  O   UNL     1      -3.981   7.849   7.842  1.00  0.00    -0.269 OA
BRANCH  32  35
ATOM     35  C   UNL     1      -6.278   7.389   7.781  1.00  0.00     0.039 A 
ATOM     36  C   UNL     1      -6.425   7.102   9.145  1.00  0.00     0.014 A 
ATOM     37  C   UNL     1      -7.401   7.488   6.966  1.00  0.00     0.014 A 
ATOM     38  C   UNL     1      -7.660   6.679   9.631  1.00  0.00     0.010 A 
ATOM     39  C   UNL     1      -8.606   6.984   7.421  1.00  0.00     0.010 A 
ATOM     40  C   UNL     1      -8.716   6.519   8.734  1.00  0.00    -0.014 A 
BRANCH  40  41
ATOM     41  C   UNL     1      -9.916   5.754   9.052  1.00  0.00     0.031 A 
ATOM     42  C   UNL     1     -11.189   6.433   9.351  1.00  0.00     0.074 A 
ATOM     43  C   UNL     1      -9.864   4.404   9.036  1.00  0.00     0.049 A 
ATOM     44  N   UNL     1     -12.126   5.937  10.087  1.00  0.00    -0.248 NA
ATOM     45  C   UNL     1     -11.489   7.771   8.859  1.00  0.00     0.031 C 
ATOM     46  C   UNL     1     -10.978   3.465   9.116  1.00  0.00     0.029 A 
ATOM     47  N   UNL     1      -8.730   3.614   9.198  1.00  0.00    -0.354 N 
ATOM     48  C   UNL     1     -13.237   6.734   9.941  1.00  0.00     0.074 A 
ATOM     49  C   UNL     1     -12.771   7.895   9.217  1.00  0.00     0.031 C 
ATOM     50  C   UNL     1     -10.517   2.288   9.572  1.00  0.00     0.029 A 
ATOM     51  C   UNL     1      -9.120   2.475   9.924  1.00  0.00     0.049 A 
ATOM     52  H   UNL     1      -7.825   3.814   8.867  1.00  0.00     0.167 HD
ATOM     53  C   UNL     1     -14.460   6.267  10.325  1.00  0.00     0.034 A 
ATOM     54  C   UNL     1      -8.566   2.208  11.143  1.00  0.00     0.034 A 
ATOM     55  C   UNL     1     -14.364   4.942  10.935  1.00  0.00     0.049 A 
ATOM     56  C   UNL     1      -9.576   2.205  12.271  1.00  0.00     0.074 A 
ATOM     57  C   UNL     1     -14.578   3.664  10.445  1.00  0.00     0.029 A 
ATOM     58  N   UNL     1     -13.704   4.791  12.150  1.00  0.00    -0.354 N 
ATOM     59  N   UNL     1     -10.785   2.688  12.176  1.00  0.00    -0.248 NA
ATOM     60  C   UNL     1      -9.295   1.671  13.600  1.00  0.00     0.031 C 
ATOM     61  C   UNL     1     -13.958   2.745  11.333  1.00  0.00     0.029 A 
ATOM     62  C   UNL     1     -13.406   3.461  12.382  1.00  0.00     0.049 A 
ATOM     63  H   UNL     1     -13.479   5.529  12.761  1.00  0.00     0.167 HD
ATOM     64  C   UNL     1     -11.425   2.574  13.384  1.00  0.00     0.074 A 
ATOM     65  C   UNL     1     -10.459   1.898  14.233  1.00  0.00     0.031 C 
ATOM     66  C   UNL     1     -12.688   3.060  13.586  1.00  0.00     0.034 A 
BRANCH  53  67
ATOM     67  C   UNL     1     -15.759   6.878   9.848  1.00  0.00     0.023 A 
ATOM     68  C   UNL     1     -16.870   6.046   9.594  1.00  0.00     0.031 A 
ATOM     69  C   UNL     1     -15.953   8.245   9.574  1.00  0.00     0.131 A 
ATOM     70  C   UNL     1     -18.039   6.547   8.991  1.00  0.00     0.055 A 
ATOM     71  C   UNL     1     -17.087   8.734   8.911  1.00  0.00     0.041 A 
ATOM     72  F   UNL     1     -15.072   9.171   9.980  1.00  0.00    -0.206 F 
ATOM     73  C   UNL     1     -18.133   7.880   8.600  1.00  0.00     0.022 A 
BRANCH  70  74
ATOM     74  S   UNL     1     -19.449   5.434   8.734  1.00  0.00     0.124 S 
ATOM     75  O   UNL     1     -18.871   4.382   7.905  1.00  0.00    -0.237 OA
ATOM     76  O   UNL     1     -19.799   5.062  10.100  1.00  0.00    -0.237 OA
ATOM     77  O   UNL     1     -20.431   6.281   8.057  1.00  0.00    -0.744 OA
ENDBRANCH  70  74
ENDBRANCH  53  67
BRANCH  54  78
ATOM     78  C   UNL     1      -7.138   2.638  11.238  1.00  0.00     0.023 A 
ATOM     79  C   UNL     1      -6.255   2.132  10.257  1.00  0.00     0.031 A 
ATOM     80  C   UNL     1      -6.741   3.778  11.948  1.00  0.00     0.131 A 
ATOM     81  C   UNL     1      -5.124   2.865   9.875  1.00  0.00     0.055 A 
ATOM     82  C   UNL     1      -5.560   4.460  11.623  1.00  0.00     0.041 A 
ATOM     83  F   UNL     1      -7.544   4.323  12.873  1.00  0.00    -0.206 F 
ATOM     84  C   UNL     1      -4.773   4.035  10.550  1.00  0.00     0.022 A 
BRANCH  81  85
ATOM     85  S   UNL     1      -4.301   2.446   8.306  1.00  0.00     0.124 S 
ATOM     86  O   UNL     1      -3.228   1.565   8.750  1.00  0.00    -0.237 OA
ATOM     87  O   UNL     1      -5.367   1.812   7.533  1.00  0.00    -0.237 OA
ATOM     88  O   UNL     1      -3.883   3.745   7.782  1.00  0.00    -0.744 OA
ENDBRANCH  81  85
ENDBRANCH  54  78
BRANCH  66  89
ATOM     89  C   UNL     1     -13.398   3.134  14.921  1.00  0.00     0.023 A 
ATOM     90  C   UNL     1     -12.728   3.120  16.154  1.00  0.00     0.031 A 
ATOM     91  C   UNL     1     -14.803   3.306  14.989  1.00  0.00     0.131 A 
ATOM     92  C   UNL     1     -13.437   3.175  17.368  1.00  0.00     0.055 A 
ATOM     93  C   UNL     1     -15.496   3.449  16.195  1.00  0.00     0.041 A 
ATOM     94  F   UNL     1     -15.563   3.346  13.885  1.00  0.00    -0.206 F 
ATOM     95  C   UNL     1     -14.815   3.365  17.398  1.00  0.00     0.022 A 
BRANCH  92  96
ATOM     96  S   UNL     1     -12.520   2.917  18.910  1.00  0.00     0.124 S 
ATOM     97  O   UNL     1     -12.016   1.558  18.733  1.00  0.00    -0.237 OA
ATOM     98  O   UNL     1     -11.517   3.976  18.860  1.00  0.00    -0.237 OA
ATOM     99  O   UNL     1     -13.537   3.072  19.947  1.00  0.00    -0.744 OA
ENDBRANCH  92  96
ENDBRANCH  66  89
ENDBRANCH  40  41
ENDBRANCH  32  35
ENDBRANCH  30  31
ENDBRANCH  29  30
ENDBRANCH  28  29
ENDBRANCH   1  28
TORSDOF 21
