REMARK SMILES O=C(NC[C@@H]1CCOC1)NC[C@@H]1CC[C@H](C(=O)NCCCCNC(=O)c2ccc(-c3c4nc(c(-c5cc(S(=O)(=O)[O-])ccc5F)c5ccc([nH]5)c(-c5cc(S(=O)(=O)[O-])ccc5F)c5nc(c(-c6cc(S(=O)(=O)[O-])ccc6F)c6ccc3[nH]6)C=C5)C=C4)cc2)O1
REMARK SMILES IDX 20 1 19 2 18 3 16 4 17 5 15 7 12 8 13 9 89 10 14 11 11 12
REMARK SMILES IDX 10 13 1 14 2 15 3 16 4 19 5 20 6 21 9 22 7 23 8 24 21 25
REMARK SMILES IDX 22 26 23 27 24 28 25 30 26 31 27 32 88 33 28 34 87 35 29 36
REMARK SMILES IDX 30 37 31 38 81 39 32 40 86 41 80 42 82 43 33 44 85 45 79 46
REMARK SMILES IDX 78 47 34 49 66 50 46 51 65 52 47 53 50 54 64 55 83 56 48 57
REMARK SMILES IDX 49 58 63 60 84 61 51 62 35 63 36 64 44 65 37 66 43 67 45 68
REMARK SMILES IDX 42 69 38 70 39 71 40 72 41 73 67 74 68 75 76 76 69 77 75 78
REMARK SMILES IDX 77 79 74 80 70 81 71 82 72 83 73 84 52 85 53 86 61 87 54 88
REMARK SMILES IDX 60 89 62 90 59 91 55 92 56 93 57 94 58 95
REMARK H PARENT 18 6 3 17 10 18 23 29 82 48 50 59
REMARK Flexibility Score: inf
ROOT
ATOM      1  C   UNL     1      -0.633   4.344  -1.114  1.00  0.00     0.023 C 
ENDROOT
BRANCH   1   2
ATOM      2  C   UNL     1      -0.266   3.853  -2.514  1.00  0.00     0.116 C 
BRANCH   2   3
ATOM      3  N   UNL     1       0.094   4.946  -3.392  1.00  0.00    -0.354 N 
ATOM      4  C   UNL     1       1.327   5.375  -3.783  1.00  0.00     0.249 C 
ATOM      5  O   UNL     1       1.381   6.349  -4.542  1.00  0.00    -0.272 OA
ATOM      6  H   UNL     1      -0.664   5.454  -3.761  1.00  0.00     0.163 HD
BRANCH   4   7
ATOM      7  C   UNL     1       2.628   4.714  -3.270  1.00  0.00     0.207 C 
ATOM      8  C   UNL     1       3.302   2.728  -2.251  1.00  0.00     0.138 C 
ATOM      9  C   UNL     1       2.985   3.692  -1.122  1.00  0.00     0.037 C 
ATOM     10  O   UNL     1       2.711   3.297  -3.433  1.00  0.00    -0.363 OA
ATOM     11  C   UNL     1       2.947   5.036  -1.816  1.00  0.00     0.045 C 
BRANCH   8  12
ATOM     12  C   UNL     1       2.759   1.311  -2.058  1.00  0.00     0.149 C 
BRANCH  12  13
ATOM     13  N   UNL     1       3.297   0.626  -0.901  1.00  0.00    -0.336 N 
ATOM     14  O   UNL     1       1.259   0.095  -0.029  1.00  0.00    -0.249 OA
ATOM     15  C   UNL     1       2.484   0.036   0.009  1.00  0.00     0.314 C 
ATOM     16  N   UNL     1       3.071  -0.659   1.008  1.00  0.00    -0.338 N 
ATOM     17  H   UNL     1       2.437  -1.123   1.601  1.00  0.00     0.165 HD
ATOM     18  H   UNL     1       4.273   0.588  -0.774  1.00  0.00     0.165 HD
BRANCH  16  19
ATOM     19  C   UNL     1       4.460  -0.848   1.368  1.00  0.00     0.123 C 
BRANCH  19  20
ATOM     20  C   UNL     1       4.971   0.074   2.488  1.00  0.00     0.036 C 
ATOM     21  C   UNL     1       3.986   0.309   3.617  1.00  0.00     0.036 C 
ATOM     22  C   UNL     1       5.269   1.491   2.026  1.00  0.00     0.165 C 
ATOM     23  C   UNL     1       3.263   1.578   3.207  1.00  0.00     0.160 C 
ATOM     24  O   UNL     1       4.144   2.311   2.347  1.00  0.00    -0.381 OA
ENDBRANCH  19  20
ENDBRANCH  16  19
ENDBRANCH  12  13
ENDBRANCH   8  12
ENDBRANCH   4   7
ENDBRANCH   2   3
ENDBRANCH   1   2
BRANCH   1  25
ATOM     25  C   UNL     1      -2.074   4.835  -0.979  1.00  0.00     0.023 C 
BRANCH  25  26
ATOM     26  C   UNL     1      -3.140   3.772  -1.229  1.00  0.00     0.116 C 
BRANCH  26  27
ATOM     27  N   UNL     1      -3.043   2.625  -0.339  1.00  0.00    -0.352 N 
ATOM     28  C   UNL     1      -4.067   1.860   0.172  1.00  0.00     0.251 C 
ATOM     29  H   UNL     1      -2.133   2.363  -0.069  1.00  0.00     0.163 HD
ATOM     30  O   UNL     1      -3.840   0.991   1.008  1.00  0.00    -0.269 OA
BRANCH  28  31
ATOM     31  C   UNL     1      -5.453   2.136  -0.262  1.00  0.00     0.039 A 
ATOM     32  C   UNL     1      -6.439   2.323   0.709  1.00  0.00     0.014 A 
ATOM     33  C   UNL     1      -5.762   2.266  -1.619  1.00  0.00     0.014 A 
ATOM     34  C   UNL     1      -7.720   2.722   0.321  1.00  0.00     0.010 A 
ATOM     35  C   UNL     1      -7.018   2.731  -1.998  1.00  0.00     0.010 A 
ATOM     36  C   UNL     1      -8.007   2.972  -1.032  1.00  0.00    -0.014 A 
BRANCH  36  37
ATOM     37  C   UNL     1      -9.330   3.501  -1.455  1.00  0.00     0.031 A 
ATOM     38  C   UNL     1     -10.219   2.676  -2.345  1.00  0.00     0.074 A 
ATOM     39  C   UNL     1      -9.690   4.752  -1.102  1.00  0.00     0.049 A 
ATOM     40  N   UNL     1     -11.366   2.992  -2.888  1.00  0.00    -0.248 NA
ATOM     41  C   UNL     1      -9.739   1.330  -2.694  1.00  0.00     0.031 C 
ATOM     42  C   UNL     1      -8.888   5.664  -0.281  1.00  0.00     0.029 A 
ATOM     43  N   UNL     1     -10.816   5.481  -1.397  1.00  0.00    -0.354 N 
ATOM     44  C   UNL     1     -11.733   1.897  -3.664  1.00  0.00     0.074 A 
ATOM     45  C   UNL     1     -10.664   0.927  -3.553  1.00  0.00     0.031 C 
ATOM     46  C   UNL     1      -9.556   6.818  -0.122  1.00  0.00     0.029 A 
ATOM     47  C   UNL     1     -10.811   6.750  -0.864  1.00  0.00     0.049 A 
ATOM     48  H   UNL     1     -11.558   5.128  -1.939  1.00  0.00     0.167 HD
ATOM     49  C   UNL     1     -12.864   1.714  -4.388  1.00  0.00     0.034 A 
ATOM     50  C   UNL     1     -11.710   7.749  -0.972  1.00  0.00     0.034 A 
ATOM     51  C   UNL     1     -13.936   2.677  -4.457  1.00  0.00     0.049 A 
ATOM     52  C   UNL     1     -12.961   7.515  -1.784  1.00  0.00     0.074 A 
ATOM     53  C   UNL     1     -15.165   2.551  -5.080  1.00  0.00     0.029 A 
ATOM     54  N   UNL     1     -13.904   3.945  -3.892  1.00  0.00    -0.354 N 
ATOM     55  N   UNL     1     -13.328   6.441  -2.445  1.00  0.00    -0.248 NA
ATOM     56  C   UNL     1     -13.922   8.623  -1.856  1.00  0.00     0.031 C 
ATOM     57  C   UNL     1     -15.849   3.765  -4.949  1.00  0.00     0.029 A 
ATOM     58  C   UNL     1     -15.077   4.624  -4.184  1.00  0.00     0.049 A 
ATOM     59  H   UNL     1     -13.158   4.309  -3.363  1.00  0.00     0.167 HD
ATOM     60  C   UNL     1     -14.580   6.735  -2.978  1.00  0.00     0.074 A 
ATOM     61  C   UNL     1     -14.910   8.078  -2.550  1.00  0.00     0.031 C 
ATOM     62  C   UNL     1     -15.389   5.964  -3.748  1.00  0.00     0.034 A 
BRANCH  49  63
ATOM     63  C   UNL     1     -12.990   0.439  -5.183  1.00  0.00     0.023 A 
ATOM     64  C   UNL     1     -13.073  -0.819  -4.562  1.00  0.00     0.031 A 
ATOM     65  C   UNL     1     -13.031   0.485  -6.588  1.00  0.00     0.131 A 
ATOM     66  C   UNL     1     -13.134  -1.983  -5.345  1.00  0.00     0.055 A 
ATOM     67  C   UNL     1     -13.164  -0.671  -7.359  1.00  0.00     0.041 A 
ATOM     68  F   UNL     1     -12.937   1.657  -7.236  1.00  0.00    -0.206 F 
ATOM     69  C   UNL     1     -13.205  -1.915  -6.738  1.00  0.00     0.022 A 
BRANCH  66  70
ATOM     70  S   UNL     1     -13.008  -3.592  -4.519  1.00  0.00     0.124 S 
ATOM     71  O   UNL     1     -11.688  -3.503  -3.899  1.00  0.00    -0.237 OA
ATOM     72  O   UNL     1     -14.146  -3.570  -3.607  1.00  0.00    -0.237 OA
ATOM     73  O   UNL     1     -13.109  -4.551  -5.618  1.00  0.00    -0.744 OA
ENDBRANCH  66  70
ENDBRANCH  49  63
BRANCH  50  74
ATOM     74  C   UNL     1     -11.474   9.068  -0.316  1.00  0.00     0.023 A 
ATOM     75  C   UNL     1     -12.342   9.542   0.681  1.00  0.00     0.031 A 
ATOM     76  C   UNL     1     -10.424   9.909  -0.727  1.00  0.00     0.131 A 
ATOM     77  C   UNL     1     -12.187  10.842   1.187  1.00  0.00     0.055 A 
ATOM     78  C   UNL     1     -10.237  11.179  -0.177  1.00  0.00     0.041 A 
ATOM     79  F   UNL     1      -9.562   9.506  -1.673  1.00  0.00    -0.206 F 
ATOM     80  C   UNL     1     -11.133  11.659   0.773  1.00  0.00     0.022 A 
BRANCH  77  81
ATOM     81  S   UNL     1     -13.454  11.492   2.311  1.00  0.00     0.124 S 
ATOM     82  O   UNL     1     -14.670  11.308   1.526  1.00  0.00    -0.237 OA
ATOM     83  O   UNL     1     -13.302  10.622   3.472  1.00  0.00    -0.237 OA
ATOM     84  O   UNL     1     -13.047  12.880   2.515  1.00  0.00    -0.744 OA
ENDBRANCH  77  81
ENDBRANCH  50  74
BRANCH  62  85
ATOM     85  C   UNL     1     -16.729   6.543  -4.126  1.00  0.00     0.023 A 
ATOM     86  C   UNL     1     -16.843   7.643  -4.994  1.00  0.00     0.031 A 
ATOM     87  C   UNL     1     -17.910   5.992  -3.596  1.00  0.00     0.131 A 
ATOM     88  C   UNL     1     -18.106   8.191  -5.264  1.00  0.00     0.055 A 
ATOM     89  C   UNL     1     -19.167   6.504  -3.915  1.00  0.00     0.041 A 
ATOM     90  F   UNL     1     -17.858   4.941  -2.761  1.00  0.00    -0.206 F 
ATOM     91  C   UNL     1     -19.269   7.619  -4.743  1.00  0.00     0.022 A 
BRANCH  88  92
ATOM     92  S   UNL     1     -18.202   9.718  -6.238  1.00  0.00     0.124 S 
ATOM     93  O   UNL     1     -17.412  10.643  -5.432  1.00  0.00    -0.237 OA
ATOM     94  O   UNL     1     -17.610   9.315  -7.510  1.00  0.00    -0.237 OA
ATOM     95  O   UNL     1     -19.635  10.005  -6.285  1.00  0.00    -0.744 OA
ENDBRANCH  88  92
ENDBRANCH  62  85
ENDBRANCH  36  37
ENDBRANCH  28  31
ENDBRANCH  26  27
ENDBRANCH  25  26
ENDBRANCH   1  25
TORSDOF 18
