REMARK SMILES O=C(NCCCCNC(=O)[C@H]1CC2(CCN(C(=O)c3cccc(O)c3)CC2)CN1C(=O)C1CC1)c1ccc(-c2c3nc(c(-c4cc(S(=O)(=O)[O-])ccc4F)c4ccc([nH]4)c(-c4cc(S(=O)(=O)[O-])ccc4F)c4nc(c(-c5cc(S(=O)(=O)[O-])ccc5F)c5ccc2[nH]5)C=C4)C=C3)cc1
REMARK SMILES IDX 5 1 4 2 3 3 1 4 2 5 35 7 36 8 97 9 37 10 96 11 38 12 39 13
REMARK SMILES IDX 40 14 90 15 41 16 95 17 89 18 91 19 42 20 94 21 88 22 87 23
REMARK SMILES IDX 43 25 75 26 55 27 74 28 56 29 59 30 73 31 92 32 57 33 58 34
REMARK SMILES IDX 72 36 93 37 60 38 44 39 45 40 53 41 46 42 52 43 54 44 51 45
REMARK SMILES IDX 47 46 48 47 49 48 50 49 76 50 77 51 85 52 78 53 84 54 86 55
REMARK SMILES IDX 83 56 79 57 80 58 81 59 82 60 61 61 62 62 70 63 63 64 69 65
REMARK SMILES IDX 71 66 68 67 64 68 65 69 66 70 67 71 6 72 7 73 8 74 9 75
REMARK SMILES IDX 10 77 11 78 12 79 29 80 13 81 28 82 14 83 27 84 15 85 26 86
REMARK SMILES IDX 16 87 17 88 18 89 30 90 31 91 32 92 33 93 34 94 19 95 20 96
REMARK SMILES IDX 25 97 21 98 23 99 22 100 24 101
REMARK H PARENT 3 6 91 24 59 35 8 76 24 102
REMARK Flexibility Score: inf
ROOT
ATOM      1  C   UNL     1       2.010   7.720   3.309  1.00  0.00     0.023 C 
ENDROOT
BRANCH   1   2
ATOM      2  C   UNL     1       1.169   8.157   4.495  1.00  0.00     0.116 C 
BRANCH   2   3
ATOM      3  N   UNL     1       1.290   9.581   4.756  1.00  0.00    -0.352 N 
ATOM      4  O   UNL     1       0.497  11.641   5.220  1.00  0.00    -0.269 OA
ATOM      5  C   UNL     1       0.307  10.437   5.192  1.00  0.00     0.251 C 
ATOM      6  H   UNL     1       2.178   9.978   4.603  1.00  0.00     0.163 HD
BRANCH   5   7
ATOM      7  C   UNL     1      -0.986   9.856   5.605  1.00  0.00     0.039 A 
ATOM      8  C   UNL     1      -1.012   8.782   6.500  1.00  0.00     0.014 A 
ATOM      9  C   UNL     1      -2.168  10.373   5.073  1.00  0.00     0.014 A 
ATOM     10  C   UNL     1      -2.218   8.165   6.797  1.00  0.00     0.010 A 
ATOM     11  C   UNL     1      -3.388   9.800   5.434  1.00  0.00     0.010 A 
ATOM     12  C   UNL     1      -3.419   8.694   6.298  1.00  0.00    -0.014 A 
BRANCH  12  13
ATOM     13  C   UNL     1      -4.703   8.164   6.812  1.00  0.00     0.031 A 
ATOM     14  C   UNL     1      -5.659   7.429   5.921  1.00  0.00     0.074 A 
ATOM     15  C   UNL     1      -4.986   8.375   8.113  1.00  0.00     0.049 A 
ATOM     16  N   UNL     1      -6.834   6.937   6.213  1.00  0.00    -0.248 NA
ATOM     17  C   UNL     1      -5.250   7.223   4.524  1.00  0.00     0.031 C 
ATOM     18  C   UNL     1      -4.117   9.092   9.055  1.00  0.00     0.029 A 
ATOM     19  N   UNL     1      -6.066   8.015   8.873  1.00  0.00    -0.354 N 
ATOM     20  C   UNL     1      -7.320   6.381   5.035  1.00  0.00     0.074 A 
ATOM     21  C   UNL     1      -6.312   6.606   4.019  1.00  0.00     0.031 C 
ATOM     22  C   UNL     1      -4.686   9.094  10.267  1.00  0.00     0.029 A 
ATOM     23  C   UNL     1      -5.990   8.453  10.175  1.00  0.00     0.049 A 
ATOM     24  H   UNL     1      -6.824   7.493   8.522  1.00  0.00     0.167 HD
ATOM     25  C   UNL     1      -8.500   5.746   4.833  1.00  0.00     0.034 A 
ATOM     26  C   UNL     1      -6.888   8.384  11.175  1.00  0.00     0.034 A 
ATOM     27  C   UNL     1      -9.480   5.528   5.871  1.00  0.00     0.049 A 
ATOM     28  C   UNL     1      -8.204   7.709  10.903  1.00  0.00     0.074 A 
ATOM     29  C   UNL     1     -10.674   4.832   5.794  1.00  0.00     0.029 A 
ATOM     30  N   UNL     1      -9.391   6.018   7.168  1.00  0.00    -0.354 N 
ATOM     31  N   UNL     1      -8.624   7.142   9.795  1.00  0.00    -0.248 NA
ATOM     32  C   UNL     1      -9.165   7.665  12.009  1.00  0.00     0.031 C 
ATOM     33  C   UNL     1     -11.338   4.963   7.018  1.00  0.00     0.029 A 
ATOM     34  C   UNL     1     -10.529   5.681   7.884  1.00  0.00     0.049 A 
ATOM     35  H   UNL     1      -8.630   6.530   7.526  1.00  0.00     0.167 HD
ATOM     36  C   UNL     1      -9.899   6.668  10.076  1.00  0.00     0.074 A 
ATOM     37  C   UNL     1     -10.162   6.984  11.466  1.00  0.00     0.031 C 
ATOM     38  C   UNL     1     -10.780   6.033   9.261  1.00  0.00     0.034 A 
BRANCH  25  39
ATOM     39  C   UNL     1      -8.828   5.284   3.436  1.00  0.00     0.023 A 
ATOM     40  C   UNL     1      -8.133   4.233   2.814  1.00  0.00     0.031 A 
ATOM     41  C   UNL     1      -9.885   5.886   2.729  1.00  0.00     0.131 A 
ATOM     42  C   UNL     1      -8.482   3.838   1.512  1.00  0.00     0.055 A 
ATOM     43  C   UNL     1     -10.266   5.450   1.459  1.00  0.00     0.041 A 
ATOM     44  F   UNL     1     -10.571   6.907   3.268  1.00  0.00    -0.206 F 
ATOM     45  C   UNL     1      -9.559   4.424   0.841  1.00  0.00     0.022 A 
BRANCH  42  46
ATOM     46  S   UNL     1      -7.461   2.596   0.673  1.00  0.00     0.124 S 
ATOM     47  O   UNL     1      -6.162   3.263   0.630  1.00  0.00    -0.237 OA
ATOM     48  O   UNL     1      -7.560   1.448   1.567  1.00  0.00    -0.237 OA
ATOM     49  O   UNL     1      -8.114   2.433  -0.624  1.00  0.00    -0.744 OA
ENDBRANCH  42  46
ENDBRANCH  25  39
BRANCH  26  50
ATOM     50  C   UNL     1      -6.604   9.021  12.491  1.00  0.00     0.023 A 
ATOM     51  C   UNL     1      -6.541   8.261  13.667  1.00  0.00     0.031 A 
ATOM     52  C   UNL     1      -6.434  10.415  12.597  1.00  0.00     0.131 A 
ATOM     53  C   UNL     1      -6.365   8.901  14.903  1.00  0.00     0.055 A 
ATOM     54  C   UNL     1      -6.197  11.040  13.821  1.00  0.00     0.041 A 
ATOM     55  F   UNL     1      -6.482  11.191  11.502  1.00  0.00    -0.206 F 
ATOM     56  C   UNL     1      -6.178  10.283  14.987  1.00  0.00     0.022 A 
BRANCH  53  57
ATOM     57  S   UNL     1      -6.495   7.910  16.416  1.00  0.00     0.124 S 
ATOM     58  O   UNL     1      -7.789   7.261  16.238  1.00  0.00    -0.237 OA
ATOM     59  O   UNL     1      -5.324   7.046  16.311  1.00  0.00    -0.237 OA
ATOM     60  O   UNL     1      -6.439   8.909  17.482  1.00  0.00    -0.744 OA
ENDBRANCH  53  57
ENDBRANCH  26  50
BRANCH  38  61
ATOM     61  C   UNL     1     -12.096   5.639   9.877  1.00  0.00     0.023 A 
ATOM     62  C   UNL     1     -13.036   6.607  10.271  1.00  0.00     0.031 A 
ATOM     63  C   UNL     1     -12.398   4.286  10.106  1.00  0.00     0.131 A 
ATOM     64  C   UNL     1     -14.208   6.212  10.930  1.00  0.00     0.055 A 
ATOM     65  C   UNL     1     -13.595   3.895  10.707  1.00  0.00     0.041 A 
ATOM     66  F   UNL     1     -11.532   3.322   9.752  1.00  0.00    -0.206 F 
ATOM     67  C   UNL     1     -14.501   4.861  11.135  1.00  0.00     0.022 A 
BRANCH  64  68
ATOM     68  S   UNL     1     -15.303   7.494  11.597  1.00  0.00     0.124 S 
ATOM     69  O   UNL     1     -14.428   8.175  12.547  1.00  0.00    -0.237 OA
ATOM     70  O   UNL     1     -15.661   8.253  10.403  1.00  0.00    -0.237 OA
ATOM     71  O   UNL     1     -16.397   6.732  12.197  1.00  0.00    -0.744 OA
ENDBRANCH  64  68
ENDBRANCH  38  61
ENDBRANCH  12  13
ENDBRANCH   5   7
ENDBRANCH   2   3
ENDBRANCH   1   2
BRANCH   1  72
ATOM     72  C   UNL     1       3.512   7.953   3.494  1.00  0.00     0.023 C 
BRANCH  72  73
ATOM     73  C   UNL     1       4.127   7.184   4.669  1.00  0.00     0.116 C 
BRANCH  73  74
ATOM     74  N   UNL     1       4.043   5.764   4.429  1.00  0.00    -0.354 N 
ATOM     75  C   UNL     1       4.958   4.947   3.847  1.00  0.00     0.242 C 
ATOM     76  H   UNL     1       3.212   5.330   4.728  1.00  0.00     0.163 HD
ATOM     77  O   UNL     1       4.530   3.931   3.290  1.00  0.00    -0.273 OA
BRANCH  75  78
ATOM     78  C   UNL     1       6.455   5.296   3.756  1.00  0.00     0.175 C 
ATOM     79  C   UNL     1       6.722   6.277   2.599  1.00  0.00     0.044 C 
ATOM     80  N   UNL     1       7.175   5.865   4.888  1.00  0.00    -0.330 N 
ATOM     81  C   UNL     1       7.839   7.252   3.057  1.00  0.00    -0.006 C 
ATOM     82  C   UNL     1       8.265   6.701   4.422  1.00  0.00     0.127 C 
ATOM     83  C   UNL     1       7.366   8.721   3.219  1.00  0.00     0.030 C 
ATOM     84  C   UNL     1       9.008   7.244   2.049  1.00  0.00     0.030 C 
ATOM     85  C   UNL     1       7.036   9.400   1.893  1.00  0.00     0.120 C 
ATOM     86  C   UNL     1       8.632   7.920   0.728  1.00  0.00     0.120 C 
ATOM     87  N   UNL     1       8.151   9.278   0.956  1.00  0.00    -0.339 N 
ATOM     88  C   UNL     1       8.617  10.297   0.127  1.00  0.00     0.253 C 
ATOM     89  O   UNL     1       9.343  10.104  -0.846  1.00  0.00    -0.269 OA
BRANCH  80  90
ATOM     90  C   UNL     1       7.303   5.301   6.151  1.00  0.00     0.226 C 
ATOM     91  O   UNL     1       8.244   5.577   6.891  1.00  0.00    -0.275 OA
BRANCH  90  92
ATOM     92  C   UNL     1       6.219   4.440   6.694  1.00  0.00     0.079 C 
ATOM     93  C   UNL     1       5.719   3.141   6.118  1.00  0.00     0.014 C 
ATOM     94  C   UNL     1       6.625   3.106   7.302  1.00  0.00     0.014 C 
ENDBRANCH  90  92
ENDBRANCH  80  90
BRANCH  88  95
ATOM     95  C   UNL     1       8.257  11.698   0.433  1.00  0.00     0.043 A 
ATOM     96  C   UNL     1       8.636  12.271   1.654  1.00  0.00     0.014 A 
ATOM     97  C   UNL     1       7.617  12.465  -0.542  1.00  0.00     0.060 A 
ATOM     98  C   UNL     1       8.333  13.609   1.913  1.00  0.00     0.005 A 
ATOM     99  C   UNL     1       7.322  13.796  -0.269  1.00  0.00     0.116 A 
ATOM    100  C   UNL     1       7.669  14.373   0.951  1.00  0.00     0.046 A 
BRANCH  99 101
ATOM    101  O   UNL     1       6.687  14.516  -1.238  1.00  0.00    -0.508 OA
ATOM    102  H   UNL     1       6.473  15.416  -1.087  1.00  0.00     0.293 HD
ENDBRANCH  99 101
ENDBRANCH  88  95
ENDBRANCH  75  78
ENDBRANCH  73  74
ENDBRANCH  72  73
ENDBRANCH   1  72
TORSDOF 18
