REMARK SMILES NC(=O)c1cc(NC(=O)/C=C\C(=O)NCCCCNC(=O)c2ccc(-c3c4nc(c(-c5cc(S(=O)(=O)[O-])ccc5F)c5ccc([nH]5)c(-c5cc(S(=O)(=O)[O-])ccc5F)c5nc(c(-c6cc(S(=O)(=O)[O-])ccc6F)c6ccc3[nH]6)C=C5)C=C4)cc2)ccc1N1CCOCC1
REMARK SMILES IDX 16 1 15 2 14 3 12 4 13 5 11 7 10 8 8 9 7 10 9 12 6 13 4 14
REMARK SMILES IDX 5 15 87 16 86 17 85 18 2 19 1 20 3 23 88 24 89 25 93 26
REMARK SMILES IDX 90 27 92 28 91 29 17 30 18 31 19 32 20 33 21 35 22 36 23 37
REMARK SMILES IDX 84 38 24 39 83 40 25 41 26 42 27 43 77 44 28 45 82 46 76 47
REMARK SMILES IDX 78 48 29 49 81 50 75 51 74 52 30 54 62 55 42 56 61 57 43 58
REMARK SMILES IDX 46 59 60 60 79 61 44 62 45 63 59 65 80 66 47 67 31 68 32 69
REMARK SMILES IDX 40 70 33 71 39 72 41 73 38 74 34 75 35 76 36 77 37 78 63 79
REMARK SMILES IDX 64 80 72 81 65 82 71 83 73 84 70 85 66 86 67 87 68 88 69 89
REMARK SMILES IDX 48 90 49 91 57 92 50 93 56 94 58 95 55 96 51 97 52 98 53 99
REMARK SMILES IDX 54 100
REMARK H PARENT 14 6 7 11 1 21 1 22 19 34 78 53 46 64
REMARK Flexibility Score: inf
ROOT
ATOM      1  C   UNL     1       0.503  -5.130   5.109  1.00  0.00     0.023 C 
ENDROOT
BRANCH   1   2
ATOM      2  C   UNL     1       0.361  -3.624   4.730  1.00  0.00     0.116 C 
BRANCH   2   3
ATOM      3  N   UNL     1       1.252  -2.944   3.452  1.00  0.00    -0.353 N 
ATOM      4  C   UNL     1       1.443  -2.923   1.488  1.00  0.00     0.244 C 
ATOM      5  O   UNL     1       2.297  -2.359   0.748  1.00  0.00    -0.270 OA
ATOM      6  H   UNL     1       1.923  -2.334   3.834  1.00  0.00     0.163 HD
BRANCH   4   7
ATOM      7  C   UNL     1       0.373  -3.550   0.272  1.00  0.00     0.077 C 
ATOM      8  C   UNL     1      -0.398  -4.639   0.053  1.00  0.00     0.077 C 
BRANCH   8   9
ATOM      9  C   UNL     1      -0.483  -5.849   0.915  1.00  0.00     0.248 C 
ATOM     10  N   UNL     1       0.345  -5.824   1.988  1.00  0.00    -0.322 N 
ATOM     11  H   UNL     1       0.645  -6.659   2.414  1.00  0.00     0.170 HD
ATOM     12  O   UNL     1      -1.144  -6.825   0.587  1.00  0.00    -0.270 OA
BRANCH  10  13
ATOM     13  C   UNL     1       0.756  -4.595   2.469  1.00  0.00     0.042 A 
ATOM     14  C   UNL     1       0.245  -1.464   2.474  1.00  0.00     0.064 A 
ATOM     15  C   UNL     1      -0.432  -3.160   2.422  1.00  0.00     0.042 A 
ATOM     16  C   UNL     1       2.038  -1.169   2.660  1.00  0.00     0.050 A 
ATOM     17  C   UNL     1       3.172  -2.614   2.799  1.00  0.00     0.029 A 
ATOM     18  C   UNL     1       2.541  -4.309   2.669  1.00  0.00     0.028 A 
BRANCH  14  19
ATOM     19  C   UNL     1      -0.574  -0.560   1.642  1.00  0.00     0.250 C 
ATOM     20  N   UNL     1       0.061  -0.159   0.501  1.00  0.00    -0.366 N 
ATOM     21  H   UNL     1      -0.394   0.446  -0.128  1.00  0.00     0.159 HD
ATOM     22  H   UNL     1       0.974  -0.474   0.309  1.00  0.00     0.159 HD
ATOM     23  O   UNL     1      -1.751  -0.336   1.871  1.00  0.00    -0.269 OA
ENDBRANCH  14  19
BRANCH  16  24
ATOM     24  N   UNL     1       2.621   0.092   2.468  1.00  0.00    -0.366 N 
ATOM     25  C   UNL     1       1.922   1.393   2.453  1.00  0.00     0.145 C 
ATOM     26  C   UNL     1       4.064   0.225   2.184  1.00  0.00     0.145 C 
ATOM     27  C   UNL     1       2.254   2.176   1.156  1.00  0.00     0.181 C 
ATOM     28  C   UNL     1       4.281   1.017   0.884  1.00  0.00     0.181 C 
ATOM     29  O   UNL     1       3.670   2.313   0.952  1.00  0.00    -0.378 OA
ENDBRANCH  16  24
ENDBRANCH  10  13
ENDBRANCH   8   9
ENDBRANCH   4   7
ENDBRANCH   2   3
ENDBRANCH   1   2
BRANCH   1  30
ATOM     30  C   UNL     1       1.879  -5.589   5.584  1.00  0.00     0.023 C 
BRANCH  30  31
ATOM     31  C   UNL     1       2.032  -5.383   7.072  1.00  0.00     0.116 C 
BRANCH  31  32
ATOM     32  N   UNL     1       1.167  -6.292   7.820  1.00  0.00    -0.352 N 
ATOM     33  C   UNL     1       1.469  -6.950   8.986  1.00  0.00     0.251 C 
ATOM     34  H   UNL     1       0.270  -6.450   7.447  1.00  0.00     0.163 HD
ATOM     35  O   UNL     1       0.764  -7.858   9.405  1.00  0.00    -0.269 OA
BRANCH  33  36
ATOM     36  C   UNL     1       2.701  -6.541   9.678  1.00  0.00     0.039 A 
ATOM     37  C   UNL     1       3.666  -7.500   9.978  1.00  0.00     0.014 A 
ATOM     38  C   UNL     1       2.946  -5.176   9.858  1.00  0.00     0.014 A 
ATOM     39  C   UNL     1       4.920  -7.075  10.406  1.00  0.00     0.010 A 
ATOM     40  C   UNL     1       4.227  -4.757  10.167  1.00  0.00     0.010 A 
ATOM     41  C   UNL     1       5.220  -5.703  10.457  1.00  0.00    -0.014 A 
BRANCH  41  42
ATOM     42  C   UNL     1       6.562  -5.218  10.845  1.00  0.00     0.031 A 
ATOM     43  C   UNL     1       6.693  -4.354  12.067  1.00  0.00     0.074 A 
ATOM     44  C   UNL     1       7.627  -5.500  10.070  1.00  0.00     0.049 A 
ATOM     45  N   UNL     1       7.740  -3.719  12.518  1.00  0.00    -0.248 NA
ATOM     46  C   UNL     1       5.473  -4.149  12.869  1.00  0.00     0.031 C 
ATOM     47  C   UNL     1       7.594  -6.305   8.846  1.00  0.00     0.029 A 
ATOM     48  N   UNL     1       8.942  -5.135  10.189  1.00  0.00    -0.354 N 
ATOM     49  C   UNL     1       7.308  -3.048  13.656  1.00  0.00     0.074 A 
ATOM     50  C   UNL     1       5.886  -3.279  13.775  1.00  0.00     0.031 C 
ATOM     51  C   UNL     1       8.836  -6.392   8.344  1.00  0.00     0.029 A 
ATOM     52  C   UNL     1       9.740  -5.597   9.168  1.00  0.00     0.049 A 
ATOM     53  H   UNL     1       9.284  -4.591  10.936  1.00  0.00     0.167 HD
ATOM     54  C   UNL     1       8.042  -2.338  14.543  1.00  0.00     0.034 A 
ATOM     55  C   UNL     1      11.045  -5.376   8.915  1.00  0.00     0.034 A 
ATOM     56  C   UNL     1       9.459  -2.129  14.407  1.00  0.00     0.049 A 
ATOM     57  C   UNL     1      11.822  -4.507   9.876  1.00  0.00     0.074 A 
ATOM     58  C   UNL     1      10.310  -1.445  15.254  1.00  0.00     0.029 A 
ATOM     59  N   UNL     1      10.231  -2.599  13.354  1.00  0.00    -0.354 N 
ATOM     60  N   UNL     1      11.408  -3.919  10.976  1.00  0.00    -0.248 NA
ATOM     61  C   UNL     1      13.239  -4.272   9.568  1.00  0.00     0.031 C 
ATOM     62  C   UNL     1      11.582  -1.437  14.676  1.00  0.00     0.029 A 
ATOM     63  C   UNL     1      11.543  -2.187  13.511  1.00  0.00     0.049 A 
ATOM     64  H   UNL     1       9.896  -3.144  12.606  1.00  0.00     0.167 HD
ATOM     65  C   UNL     1      12.522  -3.272  11.502  1.00  0.00     0.074 A 
ATOM     66  C   UNL     1      13.629  -3.563  10.616  1.00  0.00     0.031 C 
ATOM     67  C   UNL     1      12.626  -2.499  12.612  1.00  0.00     0.034 A 
BRANCH  54  68
ATOM     68  C   UNL     1       7.326  -1.745  15.727  1.00  0.00     0.023 A 
ATOM     69  C   UNL     1       6.710  -2.562  16.690  1.00  0.00     0.031 A 
ATOM     70  C   UNL     1       7.263  -0.353  15.903  1.00  0.00     0.131 A 
ATOM     71  C   UNL     1       6.011  -1.981  17.756  1.00  0.00     0.055 A 
ATOM     72  C   UNL     1       6.636   0.218  17.012  1.00  0.00     0.041 A 
ATOM     73  F   UNL     1       7.808   0.476  14.999  1.00  0.00    -0.206 F 
ATOM     74  C   UNL     1       5.997  -0.597  17.942  1.00  0.00     0.022 A 
BRANCH  71  75
ATOM     75  S   UNL     1       5.019  -3.057  18.826  1.00  0.00     0.124 S 
ATOM     76  O   UNL     1       4.081  -3.639  17.868  1.00  0.00    -0.237 OA
ATOM     77  O   UNL     1       6.018  -3.966  19.374  1.00  0.00    -0.237 OA
ATOM     78  O   UNL     1       4.423  -2.130  19.785  1.00  0.00    -0.744 OA
ENDBRANCH  71  75
ENDBRANCH  54  68
BRANCH  55  79
ATOM     79  C   UNL     1      11.698  -5.933   7.693  1.00  0.00     0.023 A 
ATOM     80  C   UNL     1      12.820  -6.769   7.793  1.00  0.00     0.031 A 
ATOM     81  C   UNL     1      11.271  -5.561   6.404  1.00  0.00     0.131 A 
ATOM     82  C   UNL     1      13.529  -7.131   6.637  1.00  0.00     0.055 A 
ATOM     83  C   UNL     1      11.930  -5.995   5.252  1.00  0.00     0.041 A 
ATOM     84  F   UNL     1      10.205  -4.761   6.243  1.00  0.00    -0.206 F 
ATOM     85  C   UNL     1      13.081  -6.766   5.366  1.00  0.00     0.022 A 
BRANCH  82  86
ATOM     86  S   UNL     1      15.137  -7.946   6.834  1.00  0.00     0.124 S 
ATOM     87  O   UNL     1      15.836  -7.006   7.703  1.00  0.00    -0.237 OA
ATOM     88  O   UNL     1      14.759  -9.219   7.437  1.00  0.00    -0.237 OA
ATOM     89  O   UNL     1      15.645  -8.029   5.466  1.00  0.00    -0.744 OA
ENDBRANCH  82  86
ENDBRANCH  55  79
BRANCH  67  90
ATOM     90  C   UNL     1      13.989  -1.949  12.945  1.00  0.00     0.023 A 
ATOM     91  C   UNL     1      14.612  -0.991  12.130  1.00  0.00     0.031 A 
ATOM     92  C   UNL     1      14.658  -2.369  14.109  1.00  0.00     0.131 A 
ATOM     93  C   UNL     1      15.886  -0.514  12.465  1.00  0.00     0.055 A 
ATOM     94  C   UNL     1      15.895  -1.840  14.474  1.00  0.00     0.041 A 
ATOM     95  F   UNL     1      14.107  -3.286  14.921  1.00  0.00    -0.206 F 
ATOM     96  C   UNL     1      16.521  -0.914  13.645  1.00  0.00     0.022 A 
BRANCH  93  97
ATOM     97  S   UNL     1      16.738   0.579  11.297  1.00  0.00     0.124 S 
ATOM     98  O   UNL     1      16.829  -0.262  10.108  1.00  0.00    -0.237 OA
ATOM     99  O   UNL     1      15.825   1.714  11.207  1.00  0.00    -0.237 OA
ATOM    100  O   UNL     1      18.012   0.860  11.958  1.00  0.00    -0.744 OA
ENDBRANCH  93  97
ENDBRANCH  67  90
ENDBRANCH  41  42
ENDBRANCH  33  36
ENDBRANCH  31  32
ENDBRANCH  30  31
ENDBRANCH   1  30
TORSDOF 18
