REMARK SMILES CC1(C)[C@H]2CC[C@]1(C)[C@H](NC(=O)CCC(=O)NCCCCNC(=O)c1ccc(-c3c4nc(c(-c5cc(S(=O)(=O)[O-])ccc5F)c5ccc([nH]5)c(-c5cc(S(=O)(=O)[O-])ccc5F)c5nc(c(-c6cc(S(=O)(=O)[O-])ccc6F)c6ccc3[nH]6)C=C5)C=C4)cc1)C2
REMARK SMILES IDX 19 1 18 2 17 3 15 4 16 5 14 7 13 8 11 9 10 10 12 12 9 13
REMARK SMILES IDX 1 14 2 15 3 16 4 17 7 18 5 19 88 20 6 21 8 22 20 23 21 24
REMARK SMILES IDX 22 25 23 26 24 28 25 29 26 30 87 31 27 32 86 33 28 34 29 35
REMARK SMILES IDX 30 36 80 37 31 38 85 39 79 40 81 41 32 42 84 43 78 44 77 45
REMARK SMILES IDX 33 47 65 48 45 49 64 50 46 51 49 52 63 53 82 54 47 55 48 56
REMARK SMILES IDX 62 58 83 59 50 60 34 61 35 62 43 63 36 64 42 65 44 66 41 67
REMARK SMILES IDX 37 68 38 69 39 70 40 71 66 72 67 73 75 74 68 75 74 76 76 77
REMARK SMILES IDX 73 78 69 79 70 80 71 81 72 82 51 83 52 84 60 85 53 86 59 87
REMARK SMILES IDX 61 88 58 89 54 90 55 91 56 92 57 93
REMARK H PARENT 17 6 10 11 22 27 81 46 49 57
REMARK Flexibility Score: inf
ROOT
ATOM      1  C   UNL     1      -2.520  -2.797   2.305  1.00  0.00     0.023 C 
ENDROOT
BRANCH   1   2
ATOM      2  C   UNL     1      -3.235  -1.570   2.865  1.00  0.00     0.116 C 
BRANCH   2   3
ATOM      3  N   UNL     1      -2.396  -0.391   2.847  1.00  0.00    -0.356 N 
ATOM      4  C   UNL     1      -2.619   0.803   2.241  1.00  0.00     0.220 C 
ATOM      5  O   UNL     1      -1.836   1.728   2.459  1.00  0.00    -0.275 OA
ATOM      6  H   UNL     1      -1.548  -0.464   3.343  1.00  0.00     0.163 HD
BRANCH   4   7
ATOM      7  C   UNL     1      -3.833   1.003   1.370  1.00  0.00     0.110 C 
BRANCH   7   8
ATOM      8  C   UNL     1      -3.856   0.426  -0.036  1.00  0.00     0.110 C 
BRANCH   8   9
ATOM      9  C   UNL     1      -3.214  -0.901  -0.355  1.00  0.00     0.220 C 
ATOM     10  N   UNL     1      -1.894  -1.048  -0.637  1.00  0.00    -0.353 N 
ATOM     11  H   UNL     1      -1.706  -1.807  -1.235  1.00  0.00     0.163 HD
ATOM     12  O   UNL     1      -3.925  -1.907  -0.459  1.00  0.00    -0.275 OA
BRANCH  10  13
ATOM     13  C   UNL     1      -0.694  -0.314  -0.240  1.00  0.00     0.088 C 
ATOM     14  C   UNL     1       2.826   0.497  -1.735  1.00  0.00     0.012 C 
ATOM     15  C   UNL     1       1.548   0.469  -0.876  1.00  0.00    -0.025 C 
ATOM     16  C   UNL     1       2.001   0.707   0.580  1.00  0.00     0.012 C 
ATOM     17  C   UNL     1       0.474   1.450  -1.400  1.00  0.00    -0.003 C 
ATOM     18  C   UNL     1       0.586  -0.747  -1.067  1.00  0.00    -0.007 C 
ATOM     19  C   UNL     1       0.057   0.869  -2.772  1.00  0.00     0.005 C 
ATOM     20  C   UNL     1      -0.708   1.211  -0.454  1.00  0.00     0.029 C 
ATOM     21  C   UNL     1       0.226  -0.645  -2.573  1.00  0.00     0.010 C 
ATOM     22  C   UNL     1       1.155  -2.103  -0.682  1.00  0.00     0.014 C 
ENDBRANCH  10  13
ENDBRANCH   8   9
ENDBRANCH   7   8
ENDBRANCH   4   7
ENDBRANCH   2   3
ENDBRANCH   1   2
BRANCH   1  23
ATOM     23  C   UNL     1      -1.313  -3.268   3.102  1.00  0.00     0.023 C 
BRANCH  23  24
ATOM     24  C   UNL     1      -1.595  -3.518   4.571  1.00  0.00     0.116 C 
BRANCH  24  25
ATOM     25  N   UNL     1      -2.797  -4.304   4.801  1.00  0.00    -0.352 N 
ATOM     26  C   UNL     1      -2.998  -5.337   5.695  1.00  0.00     0.251 C 
ATOM     27  H   UNL     1      -3.573  -4.066   4.244  1.00  0.00     0.163 HD
ATOM     28  O   UNL     1      -4.041  -5.958   5.704  1.00  0.00    -0.269 OA
BRANCH  26  29
ATOM     29  C   UNL     1      -1.882  -5.685   6.594  1.00  0.00     0.039 A 
ATOM     30  C   UNL     1      -1.440  -7.007   6.638  1.00  0.00     0.014 A 
ATOM     31  C   UNL     1      -1.212  -4.676   7.285  1.00  0.00     0.014 A 
ATOM     32  C   UNL     1      -0.261  -7.305   7.322  1.00  0.00     0.010 A 
ATOM     33  C   UNL     1       0.015  -4.955   7.862  1.00  0.00     0.010 A 
ATOM     34  C   UNL     1       0.496  -6.274   7.898  1.00  0.00    -0.014 A 
BRANCH  34  35
ATOM     35  C   UNL     1       1.776  -6.534   8.599  1.00  0.00     0.031 A 
ATOM     36  C   UNL     1       1.899  -6.150  10.047  1.00  0.00     0.074 A 
ATOM     37  C   UNL     1       2.838  -7.006   7.920  1.00  0.00     0.049 A 
ATOM     38  N   UNL     1       2.959  -6.097  10.809  1.00  0.00    -0.248 NA
ATOM     39  C   UNL     1       0.662  -5.696  10.701  1.00  0.00     0.031 C 
ATOM     40  C   UNL     1       2.849  -7.369   6.500  1.00  0.00     0.029 A 
ATOM     41  N   UNL     1       4.121  -7.252   8.334  1.00  0.00    -0.354 N 
ATOM     42  C   UNL     1       2.523  -5.557  12.015  1.00  0.00     0.074 A 
ATOM     43  C   UNL     1       1.127  -5.219  11.843  1.00  0.00     0.031 C 
ATOM     44  C   UNL     1       4.067  -7.831   6.175  1.00  0.00     0.029 A 
ATOM     45  C   UNL     1       4.935  -7.749   7.345  1.00  0.00     0.049 A 
ATOM     46  H   UNL     1       4.430  -7.088   9.254  1.00  0.00     0.167 HD
ATOM     47  C   UNL     1       3.215  -5.391  13.170  1.00  0.00     0.034 A 
ATOM     48  C   UNL     1       6.235  -8.096   7.385  1.00  0.00     0.034 A 
ATOM     49  C   UNL     1       4.594  -5.781  13.323  1.00  0.00     0.049 A 
ATOM     50  C   UNL     1       6.987  -7.926   8.679  1.00  0.00     0.074 A 
ATOM     51  C   UNL     1       5.394  -5.724  14.450  1.00  0.00     0.029 A 
ATOM     52  N   UNL     1       5.380  -6.315  12.306  1.00  0.00    -0.354 N 
ATOM     53  N   UNL     1       6.563  -7.437   9.822  1.00  0.00    -0.248 NA
ATOM     54  C   UNL     1       8.389  -8.359   8.688  1.00  0.00     0.031 C 
ATOM     55  C   UNL     1       6.672  -6.179  14.104  1.00  0.00     0.029 A 
ATOM     56  C   UNL     1       6.656  -6.579  12.776  1.00  0.00     0.049 A 
ATOM     57  H   UNL     1       5.073  -6.481  11.386  1.00  0.00     0.167 HD
ATOM     58  C   UNL     1       7.640  -7.533  10.697  1.00  0.00     0.074 A 
ATOM     59  C   UNL     1       8.729  -8.132   9.949  1.00  0.00     0.031 C 
ATOM     60  C   UNL     1       7.724  -7.169  12.003  1.00  0.00     0.034 A 
BRANCH  47  61
ATOM     61  C   UNL     1       2.477  -4.747  14.322  1.00  0.00     0.023 A 
ATOM     62  C   UNL     1       1.295  -5.306  14.842  1.00  0.00     0.031 A 
ATOM     63  C   UNL     1       2.893  -3.506  14.836  1.00  0.00     0.131 A 
ATOM     64  C   UNL     1       0.502  -4.567  15.732  1.00  0.00     0.055 A 
ATOM     65  C   UNL     1       2.155  -2.827  15.809  1.00  0.00     0.041 A 
ATOM     66  F   UNL     1       4.003  -2.910  14.373  1.00  0.00    -0.206 F 
ATOM     67  C   UNL     1       0.936  -3.343  16.241  1.00  0.00     0.022 A 
BRANCH  64  68
ATOM     68  S   UNL     1      -1.198  -5.128  16.034  1.00  0.00     0.124 S 
ATOM     69  O   UNL     1      -1.747  -5.140  14.679  1.00  0.00    -0.237 OA
ATOM     70  O   UNL     1      -0.995  -6.433  16.652  1.00  0.00    -0.237 OA
ATOM     71  O   UNL     1      -1.749  -4.098  16.911  1.00  0.00    -0.744 OA
ENDBRANCH  64  68
ENDBRANCH  47  61
BRANCH  48  72
ATOM     72  C   UNL     1       6.900  -8.661   6.179  1.00  0.00     0.023 A 
ATOM     73  C   UNL     1       7.293 -10.009   6.150  1.00  0.00     0.031 A 
ATOM     74  C   UNL     1       7.160  -7.871   5.047  1.00  0.00     0.131 A 
ATOM     75  C   UNL     1       7.954 -10.520   5.024  1.00  0.00     0.055 A 
ATOM     76  C   UNL     1       7.784  -8.394   3.913  1.00  0.00     0.041 A 
ATOM     77  F   UNL     1       6.790  -6.581   5.020  1.00  0.00    -0.206 F 
ATOM     78  C   UNL     1       8.194  -9.725   3.901  1.00  0.00     0.022 A 
BRANCH  75  79
ATOM     79  S   UNL     1       8.539 -12.236   5.066  1.00  0.00     0.124 S 
ATOM     80  O   UNL     1       9.472 -12.205   6.186  1.00  0.00    -0.237 OA
ATOM     81  O   UNL     1       7.299 -12.974   5.283  1.00  0.00    -0.237 OA
ATOM     82  O   UNL     1       9.148 -12.421   3.750  1.00  0.00    -0.744 OA
ENDBRANCH  75  79
ENDBRANCH  48  72
BRANCH  60  83
ATOM     83  C   UNL     1       9.024  -7.462  12.705  1.00  0.00     0.023 A 
ATOM     84  C   UNL     1      10.202  -6.761  12.400  1.00  0.00     0.031 A 
ATOM     85  C   UNL     1       9.080  -8.466  13.687  1.00  0.00     0.131 A 
ATOM     86  C   UNL     1      11.402  -7.108  13.037  1.00  0.00     0.055 A 
ATOM     87  C   UNL     1      10.266  -8.771  14.355  1.00  0.00     0.041 A 
ATOM     88  F   UNL     1       7.981  -9.165  14.014  1.00  0.00    -0.206 F 
ATOM     89  C   UNL     1      11.438  -8.098  14.023  1.00  0.00     0.022 A 
BRANCH  86  90
ATOM     90  S   UNL     1      12.936  -6.300  12.504  1.00  0.00     0.124 S 
ATOM     91  O   UNL     1      12.998  -6.669  11.093  1.00  0.00    -0.237 OA
ATOM     92  O   UNL     1      12.663  -4.894  12.783  1.00  0.00    -0.237 OA
ATOM     93  O   UNL     1      13.958  -6.912  13.350  1.00  0.00    -0.744 OA
ENDBRANCH  86  90
ENDBRANCH  60  83
ENDBRANCH  34  35
ENDBRANCH  26  29
ENDBRANCH  24  25
ENDBRANCH  23  24
ENDBRANCH   1  23
TORSDOF 17
