REMARK SMILES CC(C)C[C@H](CNC(=O)[C@H]1CCCCC[C@H]1[NH3+])CC(=O)NCCCCNC(=O)c1ccc(-c2c3nc(c(-c4cc(S(=O)(=O)[O-])ccc4F)c4ccc([nH]4)c(-c4cc(S(=O)(=O)[O-])ccc4F)c4nc(c(-c5cc(S(=O)(=O)[O-])ccc5F)c5ccc2[nH]5)C=C4)C=C3)cc1
REMARK SMILES IDX 19 1 20 2 21 3 18 5 5 6 4 7 2 8 1 9 3 10 6 11 7 12 8 13 9 15
REMARK SMILES IDX 10 16 11 17 12 18 13 19 14 20 16 22 15 23 17 25 22 29 23 30
REMARK SMILES IDX 24 31 25 32 26 33 27 34 28 36 29 37 30 38 91 39 31 40 90 41
REMARK SMILES IDX 32 42 33 43 34 44 84 45 35 46 89 47 83 48 85 49 36 50 88 51
REMARK SMILES IDX 82 52 81 53 37 55 69 56 49 57 68 58 50 59 53 60 67 61 86 62
REMARK SMILES IDX 51 63 52 64 66 66 87 67 54 68 38 69 39 70 47 71 40 72 46 73
REMARK SMILES IDX 48 74 45 75 41 76 42 77 43 78 44 79 70 80 71 81 79 82 72 83
REMARK SMILES IDX 78 84 80 85 77 86 73 87 74 88 75 89 76 90 55 91 56 92 64 93
REMARK SMILES IDX 57 94 63 95 65 96 62 97 58 98 59 99 60 100 61 101
REMARK H PARENT 21 4 7 14 17 26 17 27 17 28 26 35 85 54 53 65
REMARK Flexibility Score: 90.00
ROOT
ATOM      1  C   UNL     1       0.248  -5.754  -0.440  1.00  0.00     0.220 C 
ATOM      2  O   UNL     1      -0.084  -6.158  -1.556  1.00  0.00    -0.275 OA
ATOM      3  N   UNL     1      -0.492  -6.144   0.632  1.00  0.00    -0.356 N 
ATOM      4  H   UNL     1      -1.200  -6.796   0.425  1.00  0.00     0.163 HD
ENDROOT
BRANCH   1   5
ATOM      5  C   UNL     1       1.458  -4.846  -0.288  1.00  0.00     0.105 C 
BRANCH   5   6
ATOM      6  C   UNL     1       1.119  -3.356  -0.482  1.00  0.00     0.018 C 
BRANCH   6   7
ATOM      7  C   UNL     1       2.228  -2.515  -1.169  1.00  0.00     0.009 C 
BRANCH   7   8
ATOM      8  C   UNL     1       3.654  -2.571  -0.578  1.00  0.00    -0.017 C 
ATOM      9  C   UNL     1       4.558  -3.502  -1.388  1.00  0.00     0.007 C 
ATOM     10  C   UNL     1       4.277  -1.169  -0.573  1.00  0.00     0.007 C 
ENDBRANCH   7   8
ENDBRANCH   6   7
BRANCH   6  11
ATOM     11  C   UNL     1       0.622  -2.651   0.789  1.00  0.00     0.120 C 
BRANCH  11  12
ATOM     12  N   UNL     1       1.529  -2.718   1.909  1.00  0.00    -0.355 N 
ATOM     13  C   UNL     1       1.351  -2.268   3.172  1.00  0.00     0.229 C 
ATOM     14  H   UNL     1       2.395  -3.150   1.730  1.00  0.00     0.163 HD
ATOM     15  O   UNL     1       1.732  -3.073   4.034  1.00  0.00    -0.275 OA
BRANCH  13  16
ATOM     16  C   UNL     1       0.686  -0.932   3.560  1.00  0.00     0.136 C 
BRANCH  16  17
ATOM     17  C   UNL     1       1.103  -0.611   5.032  1.00  0.00     0.020 C 
BRANCH  17  18
ATOM     18  C   UNL     1       2.618  -0.535   5.288  1.00  0.00     0.001 C 
BRANCH  18  19
ATOM     19  C   UNL     1       3.358   0.745   4.914  1.00  0.00     0.000 C 
BRANCH  19  20
ATOM     20  C   UNL     1       3.008   1.479   3.627  1.00  0.00     0.006 CG0
ATOM     21  G   UNL     1       2.417   0.653   2.491  1.00  0.00     0.000 G0
ENDBRANCH  19  20
ENDBRANCH  18  19
ENDBRANCH  17  18
ENDBRANCH  16  17
BRANCH  16  22
ATOM     22  C   UNL     1       0.932   0.345   2.728  1.00  0.00     0.193 C 
BRANCH  22  23
ATOM     23  C   UNL     1       2.417   0.653   2.491  1.00  0.00     0.066 CG0
ATOM     24  G   UNL     1       3.008   1.479   3.627  1.00  0.00     0.000 G0
ENDBRANCH  22  23
BRANCH  22  25
ATOM     25  N   UNL     1       0.171   0.418   1.475  1.00  0.00    -0.354 N 
ATOM     26  H   UNL     1       0.501  -0.303   0.834  1.00  0.00     0.344 HD
ATOM     27  H   UNL     1       0.301   1.337   1.051  1.00  0.00     0.344 HD
ATOM     28  H   UNL     1      -0.820   0.271   1.670  1.00  0.00     0.344 HD
ENDBRANCH  22  25
ENDBRANCH  16  22
ENDBRANCH  13  16
ENDBRANCH  11  12
ENDBRANCH   6  11
ENDBRANCH   5   6
ENDBRANCH   1   5
BRANCH   3  29
ATOM     29  C   UNL     1      -0.413  -5.762   2.032  1.00  0.00     0.116 C 
BRANCH  29  30
ATOM     30  C   UNL     1      -1.551  -4.805   2.400  1.00  0.00     0.023 C 
BRANCH  30  31
ATOM     31  C   UNL     1      -2.829  -5.462   2.898  1.00  0.00     0.023 C 
BRANCH  31  32
ATOM     32  C   UNL     1      -2.709  -6.154   4.245  1.00  0.00     0.116 C 
BRANCH  32  33
ATOM     33  N   UNL     1      -2.349  -5.265   5.342  1.00  0.00    -0.352 N 
ATOM     34  C   UNL     1      -2.850  -5.256   6.629  1.00  0.00     0.251 C 
ATOM     35  H   UNL     1      -1.663  -4.588   5.142  1.00  0.00     0.163 HD
ATOM     36  O   UNL     1      -2.511  -4.391   7.425  1.00  0.00    -0.269 OA
BRANCH  34  37
ATOM     37  C   UNL     1      -3.851  -6.280   7.005  1.00  0.00     0.039 A 
ATOM     38  C   UNL     1      -5.052  -5.874   7.590  1.00  0.00     0.014 A 
ATOM     39  C   UNL     1      -3.643  -7.620   6.672  1.00  0.00     0.014 A 
ATOM     40  C   UNL     1      -6.087  -6.800   7.743  1.00  0.00     0.010 A 
ATOM     41  C   UNL     1      -4.707  -8.510   6.727  1.00  0.00     0.010 A 
ATOM     42  C   UNL     1      -5.943  -8.110   7.259  1.00  0.00    -0.014 A 
BRANCH  42  43
ATOM     43  C   UNL     1      -7.063  -9.088   7.298  1.00  0.00     0.031 A 
ATOM     44  C   UNL     1      -6.898 -10.375   8.060  1.00  0.00     0.074 A 
ATOM     45  C   UNL     1      -8.178  -8.865   6.574  1.00  0.00     0.049 A 
ATOM     46  N   UNL     1      -7.692 -11.413   8.118  1.00  0.00    -0.248 NA
ATOM     47  C   UNL     1      -5.648 -10.532   8.819  1.00  0.00     0.031 C 
ATOM     48  C   UNL     1      -8.428  -7.686   5.740  1.00  0.00     0.029 A 
ATOM     49  N   UNL     1      -9.308  -9.627   6.412  1.00  0.00    -0.354 N 
ATOM     50  C   UNL     1      -7.023 -12.356   8.891  1.00  0.00     0.074 A 
ATOM     51  C   UNL     1      -5.731 -11.791   9.217  1.00  0.00     0.031 C 
ATOM     52  C   UNL     1      -9.645  -7.792   5.180  1.00  0.00     0.029 A 
ATOM     53  C   UNL     1     -10.244  -9.061   5.577  1.00  0.00     0.049 A 
ATOM     54  H   UNL     1      -9.437 -10.498   6.851  1.00  0.00     0.167 HD
ATOM     55  C   UNL     1      -7.456 -13.569   9.316  1.00  0.00     0.034 A 
ATOM     56  C   UNL     1     -11.447  -9.517   5.173  1.00  0.00     0.034 A 
ATOM     57  C   UNL     1      -8.762 -14.100   9.013  1.00  0.00     0.049 A 
ATOM     58  C   UNL     1     -11.922 -10.855   5.679  1.00  0.00     0.074 A 
ATOM     59  C   UNL     1      -9.337 -15.281   9.446  1.00  0.00     0.029 A 
ATOM     60  N   UNL     1      -9.701 -13.477   8.199  1.00  0.00    -0.354 N 
ATOM     61  N   UNL     1     -11.300 -11.713   6.455  1.00  0.00    -0.248 NA
ATOM     62  C   UNL     1     -13.266 -11.279   5.266  1.00  0.00     0.031 C 
ATOM     63  C   UNL     1     -10.600 -15.398   8.855  1.00  0.00     0.029 A 
ATOM     64  C   UNL     1     -10.841 -14.259   8.102  1.00  0.00     0.049 A 
ATOM     65  H   UNL     1      -9.574 -12.607   7.755  1.00  0.00     0.167 HD
ATOM     66  C   UNL     1     -12.190 -12.766   6.645  1.00  0.00     0.074 A 
ATOM     67  C   UNL     1     -13.394 -12.428   5.913  1.00  0.00     0.031 C 
ATOM     68  C   UNL     1     -12.029 -13.907   7.361  1.00  0.00     0.034 A 
BRANCH  55  69
ATOM     69  C   UNL     1      -6.496 -14.396  10.137  1.00  0.00     0.023 A 
ATOM     70  C   UNL     1      -6.014 -13.948  11.380  1.00  0.00     0.031 A 
ATOM     71  C   UNL     1      -6.012 -15.623   9.649  1.00  0.00     0.131 A 
ATOM     72  C   UNL     1      -5.011 -14.668  12.045  1.00  0.00     0.055 A 
ATOM     73  C   UNL     1      -5.079 -16.381  10.361  1.00  0.00     0.041 A 
ATOM     74  F   UNL     1      -6.420 -16.095   8.461  1.00  0.00    -0.206 F 
ATOM     75  C   UNL     1      -4.558 -15.895  11.557  1.00  0.00     0.022 A 
BRANCH  72  76
ATOM     76  S   UNL     1      -4.195 -13.896  13.469  1.00  0.00     0.124 S 
ATOM     77  O   UNL     1      -3.639 -12.686  12.868  1.00  0.00    -0.237 OA
ATOM     78  O   UNL     1      -5.301 -13.697  14.398  1.00  0.00    -0.237 OA
ATOM     79  O   UNL     1      -3.206 -14.891  13.878  1.00  0.00    -0.744 OA
ENDBRANCH  72  76
ENDBRANCH  55  69
BRANCH  56  80
ATOM     80  C   UNL     1     -12.291  -8.710   4.247  1.00  0.00     0.023 A 
ATOM     81  C   UNL     1     -13.509  -8.160   4.677  1.00  0.00     0.031 A 
ATOM     82  C   UNL     1     -11.909  -8.505   2.910  1.00  0.00     0.131 A 
ATOM     83  C   UNL     1     -14.324  -7.468   3.767  1.00  0.00     0.055 A 
ATOM     84  C   UNL     1     -12.702  -7.778   2.020  1.00  0.00     0.041 A 
ATOM     85  F   UNL     1     -10.749  -9.002   2.452  1.00  0.00    -0.206 F 
ATOM     86  C   UNL     1     -13.925  -7.265   2.445  1.00  0.00     0.022 A 
BRANCH  83  87
ATOM     87  S   UNL     1     -15.954  -6.897   4.322  1.00  0.00     0.124 S 
ATOM     88  O   UNL     1     -16.582  -8.146   4.739  1.00  0.00    -0.237 OA
ATOM     89  O   UNL     1     -15.602  -5.968   5.390  1.00  0.00    -0.237 OA
ATOM     90  O   UNL     1     -16.524  -6.281   3.126  1.00  0.00    -0.744 OA
ENDBRANCH  83  87
ENDBRANCH  56  80
BRANCH  68  91
ATOM     91  C   UNL     1     -13.207 -14.846   7.421  1.00  0.00     0.023 A 
ATOM     92  C   UNL     1     -13.638 -15.562   6.292  1.00  0.00     0.031 A 
ATOM     93  C   UNL     1     -13.911 -15.016   8.626  1.00  0.00     0.131 A 
ATOM     94  C   UNL     1     -14.774 -16.380   6.378  1.00  0.00     0.055 A 
ATOM     95  C   UNL     1     -15.009 -15.872   8.719  1.00  0.00     0.041 A 
ATOM     96  F   UNL     1     -13.540 -14.354   9.733  1.00  0.00    -0.206 F 
ATOM     97  C   UNL     1     -15.454 -16.550   7.587  1.00  0.00     0.022 A 
BRANCH  94  98
ATOM     98  S   UNL     1     -15.404 -17.158   4.865  1.00  0.00     0.124 S 
ATOM     99  O   UNL     1     -15.678 -16.000   4.019  1.00  0.00    -0.237 OA
ATOM    100  O   UNL     1     -14.282 -17.996   4.455  1.00  0.00    -0.237 OA
ATOM    101  O   UNL     1     -16.586 -17.887   5.321  1.00  0.00    -0.744 OA
ENDBRANCH  94  98
ENDBRANCH  68  91
ENDBRANCH  42  43
ENDBRANCH  34  37
ENDBRANCH  32  33
ENDBRANCH  31  32
ENDBRANCH  30  31
ENDBRANCH  29  30
ENDBRANCH   3  29
TORSDOF 21
