REMARK SMILES C[C@@H]1CCC[C@](CCSc2ccccc2)(C(=O)NCCCCNC(=O)c2ccc(-c3c4nc(c(-c5cc(S(=O)(=O)[O-])ccc5F)c5ccc([nH]5)c(-c5cc(S(=O)(=O)[O-])ccc5F)c5nc(c(-c6cc(S(=O)(=O)[O-])ccc6F)c6ccc3[nH]6)C=C5)C=C4)cc2)C1
REMARK SMILES IDX 20 1 19 2 18 3 16 4 17 5 6 7 1 8 2 9 3 10 89 11 4 12 5 13
REMARK SMILES IDX 7 14 8 15 9 16 10 17 11 18 15 19 12 20 14 21 13 22 21 23
REMARK SMILES IDX 22 24 23 25 24 26 25 28 26 29 27 30 88 31 28 32 87 33 29 34
REMARK SMILES IDX 30 35 31 36 81 37 32 38 86 39 80 40 82 41 33 42 85 43 79 44
REMARK SMILES IDX 78 45 34 47 66 48 46 49 65 50 47 51 50 52 64 53 83 54 48 55
REMARK SMILES IDX 49 56 63 58 84 59 51 60 35 61 36 62 44 63 37 64 43 65 45 66
REMARK SMILES IDX 42 67 38 68 39 69 40 70 41 71 67 72 68 73 76 74 69 75 75 76
REMARK SMILES IDX 77 77 74 78 70 79 71 80 72 81 73 82 52 83 53 84 61 85 54 86
REMARK SMILES IDX 60 87 62 88 59 89 55 90 56 91 57 92 58 93
REMARK H PARENT 18 6 23 27 82 46 50 57
REMARK Flexibility Score: inf
ROOT
ATOM      1  C   UNL     1      -1.387   2.688   2.398  1.00  0.00     0.023 C 
ENDROOT
BRANCH   1   2
ATOM      2  C   UNL     1      -0.746   1.315   2.207  1.00  0.00     0.116 C 
BRANCH   2   3
ATOM      3  N   UNL     1      -1.741   0.280   2.294  1.00  0.00    -0.356 N 
ATOM      4  C   UNL     1      -2.171  -0.663   1.427  1.00  0.00     0.226 C 
ATOM      5  O   UNL     1      -3.252  -1.173   1.750  1.00  0.00    -0.274 OA
ATOM      6  H   UNL     1      -2.203   0.253   3.163  1.00  0.00     0.163 HD
BRANCH   4   7
ATOM      7  C   UNL     1      -1.476  -1.052   0.083  1.00  0.00     0.050 C 
ATOM      8  C   UNL     1       2.102   0.392   0.227  1.00  0.00     0.007 C 
ATOM      9  C   UNL     1       0.897  -0.017  -0.643  1.00  0.00    -0.013 C 
ATOM     10  C   UNL     1       0.171   1.192  -1.247  1.00  0.00     0.003 C 
ATOM     11  C   UNL     1       0.066  -1.089   0.086  1.00  0.00     0.020 C 
ATOM     12  C   UNL     1      -1.348   1.229  -1.139  1.00  0.00     0.001 C 
ATOM     13  C   UNL     1      -2.013  -0.133  -1.040  1.00  0.00     0.017 C 
BRANCH   7  14
ATOM     14  C   UNL     1      -2.006  -2.517  -0.239  1.00  0.00     0.028 C 
BRANCH  14  15
ATOM     15  C   UNL     1      -1.374  -3.742   0.464  1.00  0.00     0.076 C 
BRANCH  15  16
ATOM     16  S   UNL     1      -1.652  -3.983   2.254  1.00  0.00    -0.126 SA
BRANCH  16  17
ATOM     17  C   UNL     1      -0.254  -3.160   2.997  1.00  0.00     0.007 A 
ATOM     18  C   UNL     1      -0.495  -2.264   4.046  1.00  0.00     0.015 A 
ATOM     19  C   UNL     1       1.067  -3.393   2.601  1.00  0.00     0.015 A 
ATOM     20  C   UNL     1       0.555  -1.556   4.636  1.00  0.00     0.001 A 
ATOM     21  C   UNL     1       2.119  -2.681   3.187  1.00  0.00     0.001 A 
ATOM     22  C   UNL     1       1.861  -1.753   4.195  1.00  0.00     0.000 A 
ENDBRANCH  16  17
ENDBRANCH  15  16
ENDBRANCH  14  15
ENDBRANCH   7  14
ENDBRANCH   4   7
ENDBRANCH   2   3
ENDBRANCH   1   2
BRANCH   1  23
ATOM     23  C   UNL     1      -1.435   3.143   3.854  1.00  0.00     0.023 C 
BRANCH  23  24
ATOM     24  C   UNL     1      -0.067   3.328   4.502  1.00  0.00     0.116 C 
BRANCH  24  25
ATOM     25  N   UNL     1       0.794   4.257   3.780  1.00  0.00    -0.352 N 
ATOM     26  C   UNL     1       1.676   5.165   4.316  1.00  0.00     0.251 C 
ATOM     27  H   UNL     1       0.738   4.231   2.797  1.00  0.00     0.163 HD
ATOM     28  O   UNL     1       2.285   5.956   3.603  1.00  0.00    -0.269 OA
BRANCH  26  29
ATOM     29  C   UNL     1       1.832   5.177   5.780  1.00  0.00     0.039 A 
ATOM     30  C   UNL     1       1.464   6.317   6.496  1.00  0.00     0.014 A 
ATOM     31  C   UNL     1       2.198   3.997   6.434  1.00  0.00     0.014 A 
ATOM     32  C   UNL     1       1.393   6.253   7.888  1.00  0.00     0.010 A 
ATOM     33  C   UNL     1       2.060   3.918   7.812  1.00  0.00     0.010 A 
ATOM     34  C   UNL     1       1.652   5.043   8.551  1.00  0.00    -0.014 A 
BRANCH  34  35
ATOM     35  C   UNL     1       1.541   4.918  10.026  1.00  0.00     0.031 A 
ATOM     36  C   UNL     1       2.774   4.594  10.821  1.00  0.00     0.074 A 
ATOM     37  C   UNL     1       0.338   4.992  10.627  1.00  0.00     0.049 A 
ATOM     38  N   UNL     1       2.887   4.251  12.076  1.00  0.00    -0.248 NA
ATOM     39  C   UNL     1       4.045   4.614  10.081  1.00  0.00     0.031 C 
ATOM     40  C   UNL     1      -0.933   5.272   9.953  1.00  0.00     0.029 A 
ATOM     41  N   UNL     1      -0.017   4.816  11.941  1.00  0.00    -0.354 N 
ATOM     42  C   UNL     1       4.238   3.982  12.270  1.00  0.00     0.074 A 
ATOM     43  C   UNL     1       4.888   4.144  10.987  1.00  0.00     0.031 C 
ATOM     44  C   UNL     1      -1.924   5.257  10.861  1.00  0.00     0.029 A 
ATOM     45  C   UNL     1      -1.370   4.920  12.169  1.00  0.00     0.049 A 
ATOM     46  H   UNL     1       0.636   4.631  12.654  1.00  0.00     0.167 HD
ATOM     47  C   UNL     1       4.879   3.652  13.418  1.00  0.00     0.034 A 
ATOM     48  C   UNL     1      -2.081   4.745  13.301  1.00  0.00     0.034 A 
ATOM     49  C   UNL     1       4.215   3.523  14.691  1.00  0.00     0.049 A 
ATOM     50  C   UNL     1      -1.349   4.382  14.569  1.00  0.00     0.074 A 
ATOM     51  C   UNL     1       4.763   3.231  15.927  1.00  0.00     0.029 A 
ATOM     52  N   UNL     1       2.849   3.685  14.891  1.00  0.00    -0.354 N 
ATOM     53  N   UNL     1      -0.068   4.149  14.744  1.00  0.00    -0.248 NA
ATOM     54  C   UNL     1      -2.154   4.267  15.792  1.00  0.00     0.031 C 
ATOM     55  C   UNL     1       3.725   3.168  16.863  1.00  0.00     0.029 A 
ATOM     56  C   UNL     1       2.537   3.488  16.226  1.00  0.00     0.049 A 
ATOM     57  H   UNL     1       2.199   3.908  14.186  1.00  0.00     0.167 HD
ATOM     58  C   UNL     1       0.089   3.901  16.105  1.00  0.00     0.074 A 
ATOM     59  C   UNL     1      -1.225   4.011  16.703  1.00  0.00     0.031 C 
ATOM     60  C   UNL     1       1.220   3.617  16.801  1.00  0.00     0.034 A 
BRANCH  47  61
ATOM     61  C   UNL     1       6.362   3.388  13.326  1.00  0.00     0.023 A 
ATOM     62  C   UNL     1       7.263   4.385  12.912  1.00  0.00     0.031 A 
ATOM     63  C   UNL     1       6.878   2.108  13.595  1.00  0.00     0.131 A 
ATOM     64  C   UNL     1       8.608   4.063  12.683  1.00  0.00     0.055 A 
ATOM     65  C   UNL     1       8.237   1.818  13.456  1.00  0.00     0.041 A 
ATOM     66  F   UNL     1       6.065   1.109  13.974  1.00  0.00    -0.206 F 
ATOM     67  C   UNL     1       9.108   2.793  12.978  1.00  0.00     0.022 A 
BRANCH  64  68
ATOM     68  S   UNL     1       9.653   5.279  11.836  1.00  0.00     0.124 S 
ATOM     69  O   UNL     1       8.944   5.441  10.568  1.00  0.00    -0.237 OA
ATOM     70  O   UNL     1       9.608   6.421  12.742  1.00  0.00    -0.237 OA
ATOM     71  O   UNL     1      10.948   4.609  11.737  1.00  0.00    -0.744 OA
ENDBRANCH  64  68
ENDBRANCH  47  61
BRANCH  48  72
ATOM     72  C   UNL     1      -3.564   4.899  13.295  1.00  0.00     0.023 A 
ATOM     73  C   UNL     1      -4.184   5.937  14.007  1.00  0.00     0.031 A 
ATOM     74  C   UNL     1      -4.386   3.986  12.610  1.00  0.00     0.131 A 
ATOM     75  C   UNL     1      -5.584   6.013  14.058  1.00  0.00     0.055 A 
ATOM     76  C   UNL     1      -5.778   4.094  12.624  1.00  0.00     0.041 A 
ATOM     77  F   UNL     1      -3.843   2.980  11.906  1.00  0.00    -0.206 F 
ATOM     78  C   UNL     1      -6.385   5.105  13.363  1.00  0.00     0.022 A 
BRANCH  75  79
ATOM     79  S   UNL     1      -6.347   7.274  15.116  1.00  0.00     0.124 S 
ATOM     80  O   UNL     1      -5.789   6.943  16.422  1.00  0.00    -0.237 OA
ATOM     81  O   UNL     1      -5.868   8.509  14.506  1.00  0.00    -0.237 OA
ATOM     82  O   UNL     1      -7.779   7.022  14.966  1.00  0.00    -0.744 OA
ENDBRANCH  75  79
ENDBRANCH  48  72
BRANCH  60  83
ATOM     83  C   UNL     1       1.093   3.484  18.296  1.00  0.00     0.023 A 
ATOM     84  C   UNL     1       0.448   2.389  18.895  1.00  0.00     0.031 A 
ATOM     85  C   UNL     1       1.649   4.469  19.132  1.00  0.00     0.131 A 
ATOM     86  C   UNL     1       0.343   2.324  20.293  1.00  0.00     0.055 A 
ATOM     87  C   UNL     1       1.584   4.373  20.522  1.00  0.00     0.041 A 
ATOM     88  F   UNL     1       2.277   5.534  18.608  1.00  0.00    -0.206 F 
ATOM     89  C   UNL     1       0.921   3.300  21.110  1.00  0.00     0.022 A 
BRANCH  86  90
ATOM     90  S   UNL     1      -0.608   0.969  21.035  1.00  0.00     0.124 S 
ATOM     91  O   UNL     1      -1.937   1.189  20.474  1.00  0.00    -0.237 OA
ATOM     92  O   UNL     1       0.100  -0.212  20.552  1.00  0.00    -0.237 OA
ATOM     93  O   UNL     1      -0.493   1.215  22.471  1.00  0.00    -0.744 OA
ENDBRANCH  86  90
ENDBRANCH  60  83
ENDBRANCH  34  35
ENDBRANCH  26  29
ENDBRANCH  24  25
ENDBRANCH  23  24
ENDBRANCH   1  23
TORSDOF 18
