REMARK SMILES Cc1cccc(-n2c(C)cc(/C=N\c3ccc(O)c(C(=O)NCCCCNC(=O)c4ccc(-c5c6nc(c(-c7cc(S(=O)(=O)[O-])ccc7F)c7ccc([nH]7)c(-c7cc(S(=O)(=O)[O-])ccc7F)c7nc(c(-c8cc(S(=O)(=O)[O-])ccc8F)c8ccc5[nH]8)C=C7)C=C6)cc4)c3)c2C)c1
REMARK SMILES IDX 24 1 23 2 22 3 20 4 21 5 19 7 14 8 15 9 93 10 16 11 17 12
REMARK SMILES IDX 13 13 12 14 11 15 7 16 8 17 94 18 9 19 10 20 95 21 6 22 1 23
REMARK SMILES IDX 2 24 3 25 96 26 4 27 5 28 18 29 25 31 26 32 27 33 28 34
REMARK SMILES IDX 29 36 30 37 31 38 92 39 32 40 91 41 33 42 34 43 35 44 85 45
REMARK SMILES IDX 36 46 90 47 84 48 86 49 37 50 89 51 83 52 82 53 38 55 70 56
REMARK SMILES IDX 50 57 69 58 51 59 54 60 68 61 87 62 52 63 53 64 67 66 88 67
REMARK SMILES IDX 55 68 39 69 40 70 48 71 41 72 47 73 49 74 46 75 42 76 43 77
REMARK SMILES IDX 44 78 45 79 71 80 72 81 80 82 73 83 79 84 81 85 78 86 74 87
REMARK SMILES IDX 75 88 76 89 77 90 56 91 57 92 65 93 58 94 64 95 66 96 63 97
REMARK SMILES IDX 59 98 60 99 61 100 62 101
REMARK H PARENT 22 6 18 30 27 35 86 54 54 65
REMARK Flexibility Score: inf
ROOT
ATOM      1  C   UNL     1      -3.758  -1.336   8.066  1.00  0.00     0.023 C 
ENDROOT
BRANCH   1   2
ATOM      2  C   UNL     1      -3.667  -1.133   6.558  1.00  0.00     0.116 C 
BRANCH   2   3
ATOM      3  N   UNL     1      -4.914  -0.801   5.881  1.00  0.00    -0.352 N 
ATOM      4  C   UNL     1      -5.221   0.154   4.936  1.00  0.00     0.255 C 
ATOM      5  O   UNL     1      -6.380   0.162   4.511  1.00  0.00    -0.269 OA
ATOM      6  H   UNL     1      -5.677  -1.361   6.148  1.00  0.00     0.163 HD
BRANCH   4   7
ATOM      7  C   UNL     1      -4.273   1.206   4.449  1.00  0.00     0.083 A 
ATOM      8  C   UNL     1      -4.061   3.387   3.342  1.00  0.00     0.064 A 
ATOM      9  C   UNL     1      -2.695   3.391   3.598  1.00  0.00     0.032 A 
ATOM     10  C   UNL     1      -4.854   2.364   3.888  1.00  0.00     0.046 A 
ATOM     11  C   UNL     1      -2.101   2.249   4.114  1.00  0.00     0.049 A 
ATOM     12  C   UNL     1      -2.880   1.127   4.405  1.00  0.00     0.128 A 
BRANCH   8  13
ATOM     13  N   UNL     1      -4.649   4.352   2.517  1.00  0.00    -0.256 NA
ATOM     14  C   UNL     1      -4.301   4.503   1.268  1.00  0.00     0.121 C 
BRANCH  14  15
ATOM     15  C   UNL     1      -3.308   3.799   0.448  1.00  0.00     0.014 A 
ATOM     16  N   UNL     1      -1.889   2.303  -0.499  1.00  0.00    -0.318 N 
ATOM     17  C   UNL     1      -1.663   3.525  -1.116  1.00  0.00     0.021 A 
ATOM     18  C   UNL     1      -3.015   2.439   0.322  1.00  0.00     0.029 A 
ATOM     19  C   UNL     1      -0.737   3.702  -2.270  1.00  0.00     0.065 C 
ATOM     20  C   UNL     1      -2.493   4.454  -0.523  1.00  0.00     0.033 A 
ATOM     21  C   UNL     1      -3.657   1.259   0.968  1.00  0.00     0.065 C 
BRANCH  16  22
ATOM     22  C   UNL     1      -1.069   1.142  -0.628  1.00  0.00     0.046 A 
ATOM     23  C   UNL     1       2.566   0.161   0.010  1.00  0.00     0.044 C 
ATOM     24  C   UNL     1       1.107   0.092  -0.331  1.00  0.00    -0.049 A 
ATOM     25  C   UNL     1       0.512  -1.161  -0.533  1.00  0.00     0.003 A 
ATOM     26  C   UNL     1       0.310   1.247  -0.383  1.00  0.00     0.030 A 
ATOM     27  C   UNL     1      -0.846  -1.260  -0.825  1.00  0.00     0.002 A 
ATOM     28  C   UNL     1      -1.632  -0.110  -0.887  1.00  0.00     0.026 A 
ENDBRANCH  16  22
ENDBRANCH  14  15
ENDBRANCH   8  13
BRANCH  12  29
ATOM     29  O   UNL     1      -2.146  -0.020   4.482  1.00  0.00    -0.507 OA
ATOM     30  H   UNL     1      -1.211   0.019   4.444  1.00  0.00     0.293 HD
ENDBRANCH  12  29
ENDBRANCH   4   7
ENDBRANCH   2   3
ENDBRANCH   1   2
BRANCH   1  31
ATOM     31  C   UNL     1      -4.709  -2.402   8.575  1.00  0.00     0.023 C 
BRANCH  31  32
ATOM     32  C   UNL     1      -4.494  -3.807   8.037  1.00  0.00     0.116 C 
BRANCH  32  33
ATOM     33  N   UNL     1      -3.445  -4.587   8.674  1.00  0.00    -0.352 N 
ATOM     34  C   UNL     1      -3.124  -5.924   8.497  1.00  0.00     0.251 C 
ATOM     35  H   UNL     1      -2.886  -4.099   9.320  1.00  0.00     0.163 HD
ATOM     36  O   UNL     1      -2.283  -6.455   9.227  1.00  0.00    -0.269 OA
BRANCH  34  37
ATOM     37  C   UNL     1      -3.706  -6.706   7.370  1.00  0.00     0.039 A 
ATOM     38  C   UNL     1      -2.874  -7.595   6.673  1.00  0.00     0.014 A 
ATOM     39  C   UNL     1      -4.986  -6.460   6.885  1.00  0.00     0.014 A 
ATOM     40  C   UNL     1      -3.238  -8.038   5.399  1.00  0.00     0.010 A 
ATOM     41  C   UNL     1      -5.296  -6.789   5.584  1.00  0.00     0.010 A 
ATOM     42  C   UNL     1      -4.406  -7.541   4.823  1.00  0.00    -0.014 A 
BRANCH  42  43
ATOM     43  C   UNL     1      -4.725  -7.629   3.405  1.00  0.00     0.031 A 
ATOM     44  C   UNL     1      -5.825  -8.476   2.913  1.00  0.00     0.074 A 
ATOM     45  C   UNL     1      -4.091  -6.811   2.538  1.00  0.00     0.049 A 
ATOM     46  N   UNL     1      -5.852  -8.999   1.733  1.00  0.00    -0.248 NA
ATOM     47  C   UNL     1      -6.996  -8.805   3.718  1.00  0.00     0.031 C 
ATOM     48  C   UNL     1      -4.440  -6.543   1.147  1.00  0.00     0.029 A 
ATOM     49  N   UNL     1      -2.838  -6.231   2.699  1.00  0.00    -0.354 N 
ATOM     50  C   UNL     1      -7.137  -9.429   1.512  1.00  0.00     0.074 A 
ATOM     51  C   UNL     1      -7.789  -9.367   2.801  1.00  0.00     0.031 C 
ATOM     52  C   UNL     1      -3.346  -6.108   0.504  1.00  0.00     0.029 A 
ATOM     53  C   UNL     1      -2.233  -6.204   1.431  1.00  0.00     0.049 A 
ATOM     54  H   UNL     1      -2.448  -5.901   3.541  1.00  0.00     0.167 HD
ATOM     55  C   UNL     1      -7.581  -9.631   0.240  1.00  0.00     0.034 A 
ATOM     56  C   UNL     1      -1.066  -6.876   1.210  1.00  0.00     0.034 A 
ATOM     57  C   UNL     1      -6.560  -9.316  -0.757  1.00  0.00     0.049 A 
ATOM     58  C   UNL     1      -1.191  -7.963   0.165  1.00  0.00     0.074 A 
ATOM     59  C   UNL     1      -6.374  -8.237  -1.608  1.00  0.00     0.029 A 
ATOM     60  N   UNL     1      -5.374 -10.041  -0.788  1.00  0.00    -0.354 N 
ATOM     61  N   UNL     1      -2.326  -8.415  -0.294  1.00  0.00    -0.248 NA
ATOM     62  C   UNL     1      -0.048  -8.632  -0.443  1.00  0.00     0.031 C 
ATOM     63  C   UNL     1      -5.057  -8.306  -2.131  1.00  0.00     0.029 A 
ATOM     64  C   UNL     1      -4.448  -9.437  -1.617  1.00  0.00     0.049 A 
ATOM     65  H   UNL     1      -5.215 -10.873  -0.286  1.00  0.00     0.167 HD
ATOM     66  C   UNL     1      -2.102  -9.402  -1.223  1.00  0.00     0.074 A 
ATOM     67  C   UNL     1      -0.652  -9.487  -1.287  1.00  0.00     0.031 C 
ATOM     68  C   UNL     1      -3.142 -10.047  -1.843  1.00  0.00     0.034 A 
BRANCH  55  69
ATOM     69  C   UNL     1      -9.046  -9.801  -0.079  1.00  0.00     0.023 A 
ATOM     70  C   UNL     1      -9.584  -9.229  -1.248  1.00  0.00     0.031 A 
ATOM     71  C   UNL     1      -9.961 -10.489   0.742  1.00  0.00     0.131 A 
ATOM     72  C   UNL     1     -10.966  -9.251  -1.504  1.00  0.00     0.055 A 
ATOM     73  C   UNL     1     -11.344 -10.462   0.520  1.00  0.00     0.041 A 
ATOM     74  F   UNL     1      -9.543 -11.233   1.777  1.00  0.00    -0.206 F 
ATOM     75  C   UNL     1     -11.857  -9.826  -0.602  1.00  0.00     0.022 A 
BRANCH  72  76
ATOM     76  S   UNL     1     -11.583  -8.524  -3.048  1.00  0.00     0.124 S 
ATOM     77  O   UNL     1     -11.123  -7.143  -2.947  1.00  0.00    -0.237 OA
ATOM     78  O   UNL     1     -10.930  -9.349  -4.059  1.00  0.00    -0.237 OA
ATOM     79  O   UNL     1     -13.031  -8.701  -2.951  1.00  0.00    -0.744 OA
ENDBRANCH  72  76
ENDBRANCH  55  69
BRANCH  56  80
ATOM     80  C   UNL     1      -0.176  -6.877   2.410  1.00  0.00     0.023 A 
ATOM     81  C   UNL     1       0.128  -5.608   2.956  1.00  0.00     0.031 A 
ATOM     82  C   UNL     1      -0.022  -7.996   3.237  1.00  0.00     0.131 A 
ATOM     83  C   UNL     1       0.341  -5.464   4.332  1.00  0.00     0.055 A 
ATOM     84  C   UNL     1       0.307  -7.854   4.594  1.00  0.00     0.041 A 
ATOM     85  F   UNL     1      -0.320  -9.225   2.789  1.00  0.00    -0.206 F 
ATOM     86  C   UNL     1       0.436  -6.582   5.160  1.00  0.00     0.022 A 
BRANCH  83  87
ATOM     87  S   UNL     1       0.148  -3.799   5.050  1.00  0.00     0.124 S 
ATOM     88  O   UNL     1       1.471  -3.224   4.834  1.00  0.00    -0.237 OA
ATOM     89  O   UNL     1      -0.940  -3.230   4.250  1.00  0.00    -0.237 OA
ATOM     90  O   UNL     1      -0.211  -4.059   6.441  1.00  0.00    -0.744 OA
ENDBRANCH  83  87
ENDBRANCH  56  80
BRANCH  68  91
ATOM     91  C   UNL     1      -3.069 -11.244  -2.785  1.00  0.00     0.023 A 
ATOM     92  C   UNL     1      -1.893 -11.941  -3.088  1.00  0.00     0.031 A 
ATOM     93  C   UNL     1      -4.243 -11.758  -3.404  1.00  0.00     0.131 A 
ATOM     94  C   UNL     1      -1.890 -13.032  -3.982  1.00  0.00     0.055 A 
ATOM     95  C   UNL     1      -4.248 -12.874  -4.247  1.00  0.00     0.041 A 
ATOM     96  F   UNL     1      -5.451 -11.208  -3.214  1.00  0.00    -0.206 F 
ATOM     97  C   UNL     1      -3.063 -13.515  -4.551  1.00  0.00     0.022 A 
BRANCH  94  98
ATOM     98  S   UNL     1      -0.297 -13.779  -4.417  1.00  0.00     0.124 S 
ATOM     99  O   UNL     1       0.384 -12.672  -5.083  1.00  0.00    -0.237 OA
ATOM    100  O   UNL     1       0.237 -14.156  -3.112  1.00  0.00    -0.237 OA
ATOM    101  O   UNL     1      -0.664 -14.896  -5.285  1.00  0.00    -0.744 OA
ENDBRANCH  94  98
ENDBRANCH  68  91
ENDBRANCH  42  43
ENDBRANCH  34  37
ENDBRANCH  32  33
ENDBRANCH  31  32
ENDBRANCH   1  31
TORSDOF 18
