REMARK SMILES Cc1ccc(S(=O)(=O)n2cc(C(=O)C(=O)NCC(=O)NCC(=O)NCCCCNC(=O)c3ccc(-c4c5nc(c(-c6cc(S(=O)(=O)[O-])ccc6F)c6ccc([nH]6)c(-c6cc(S(=O)(=O)[O-])ccc6F)c6nc(c(-c7cc(S(=O)(=O)[O-])ccc7F)c7ccc4[nH]7)C=C6)C=C5)cc3)c3ccccc32)cc1
REMARK SMILES IDX 22 1 23 2 24 3 21 5 20 6 18 7 19 8 17 10 16 11 14 12 15 13
REMARK SMILES IDX 12 15 13 16 11 17 9 18 10 19 100 20 95 21 99 22 96 23 98 24
REMARK SMILES IDX 97 25 6 26 7 27 8 28 5 29 1 30 2 31 3 32 102 33 4 34 101 35
REMARK SMILES IDX 25 36 26 37 27 38 28 39 29 40 30 41 31 43 32 44 33 45 94 46
REMARK SMILES IDX 34 47 93 48 35 49 36 50 37 51 87 52 38 53 92 54 86 55 88 56
REMARK SMILES IDX 39 57 91 58 85 59 84 60 40 62 72 63 52 64 71 65 53 66 56 67
REMARK SMILES IDX 70 68 89 69 54 70 55 71 69 73 90 74 57 75 41 76 42 77 50 78
REMARK SMILES IDX 43 79 49 80 51 81 48 82 44 83 45 84 46 85 47 86 73 87 74 88
REMARK SMILES IDX 82 89 75 90 81 91 83 92 80 93 76 94 77 95 78 96 79 97 58 98
REMARK SMILES IDX 59 99 67 100 60 101 66 102 68 103 65 104 61 105 62 106
REMARK SMILES IDX 63 107 64 108
REMARK H PARENT 24 4 20 9 16 14 29 42 88 61 56 72
REMARK Flexibility Score: inf
ROOT
ATOM      1  C   UNL     1     -10.157   3.389   1.175  1.00  0.00     0.239 C 
ATOM      2  O   UNL     1     -10.473   2.681   0.214  1.00  0.00    -0.273 OA
ATOM      3  N   UNL     1     -10.323   2.880   2.430  1.00  0.00    -0.355 N 
ATOM      4  H   UNL     1     -10.796   2.017   2.481  1.00  0.00     0.163 HD
ENDROOT
BRANCH   1   5
ATOM      5  C   UNL     1      -9.445   4.734   0.949  1.00  0.00     0.216 C 
BRANCH   5   6
ATOM      6  N   UNL     1      -9.901   5.839   1.770  1.00  0.00    -0.346 N 
ATOM      7  C   UNL     1      -9.214   6.724   2.546  1.00  0.00     0.239 C 
ATOM      8  O   UNL     1      -9.849   7.727   2.897  1.00  0.00    -0.273 OA
ATOM      9  H   UNL     1     -10.876   5.973   1.766  1.00  0.00     0.164 HD
BRANCH   7  10
ATOM     10  C   UNL     1      -7.695   6.626   2.804  1.00  0.00     0.216 C 
BRANCH  10  11
ATOM     11  N   UNL     1      -7.166   5.343   3.257  1.00  0.00    -0.340 N 
ATOM     12  C   UNL     1      -6.378   4.382   2.673  1.00  0.00     0.292 C 
ATOM     13  O   UNL     1      -6.175   3.320   3.250  1.00  0.00    -0.265 OA
ATOM     14  H   UNL     1      -7.431   5.119   4.179  1.00  0.00     0.164 HD
BRANCH  12  15
ATOM     15  C   UNL     1      -5.769   4.618   1.274  1.00  0.00     0.252 C 
ATOM     16  O   UNL     1      -5.904   5.729   0.768  1.00  0.00    -0.283 OA
BRANCH  15  17
ATOM     17  C   UNL     1      -5.064   3.569   0.519  1.00  0.00     0.054 A 
ATOM     18  N   UNL     1      -4.145   1.646  -0.156  1.00  0.00    -0.240 N 
ATOM     19  C   UNL     1      -4.847   2.245   0.862  1.00  0.00     0.117 A 
ATOM     20  C   UNL     1      -3.880   2.540  -1.174  1.00  0.00     0.065 A 
ATOM     21  C   UNL     1      -4.441   3.756  -0.768  1.00  0.00     0.012 A 
ATOM     22  C   UNL     1      -3.182   2.419  -2.391  1.00  0.00     0.028 A 
ATOM     23  C   UNL     1      -4.301   4.877  -1.618  1.00  0.00     0.011 A 
ATOM     24  C   UNL     1      -3.041   3.554  -3.194  1.00  0.00     0.002 A 
ATOM     25  C   UNL     1      -3.596   4.769  -2.817  1.00  0.00     0.001 A 
BRANCH  18  26
ATOM     26  S   UNL     1      -3.597   0.029  -0.123  1.00  0.00     0.268 S 
ATOM     27  O   UNL     1      -3.915  -0.491  -1.438  1.00  0.00    -0.201 OA
ATOM     28  O   UNL     1      -4.149  -0.544   1.092  1.00  0.00    -0.201 OA
BRANCH  26  29
ATOM     29  C   UNL     1      -1.829   0.061   0.035  1.00  0.00     0.088 A 
ATOM     30  C   UNL     1       2.473  -0.070   0.045  1.00  0.00     0.044 C 
ATOM     31  C   UNL     1       0.974  -0.018   0.058  1.00  0.00    -0.051 A 
ATOM     32  C   UNL     1       0.233  -1.204  -0.004  1.00  0.00     0.005 A 
ATOM     33  C   UNL     1       0.298   1.204   0.147  1.00  0.00     0.005 A 
ATOM     34  C   UNL     1      -1.163  -1.167  -0.022  1.00  0.00     0.022 A 
ATOM     35  C   UNL     1      -1.100   1.247   0.149  1.00  0.00     0.022 A 
ENDBRANCH  26  29
ENDBRANCH  18  26
ENDBRANCH  15  17
ENDBRANCH  12  15
ENDBRANCH  10  11
ENDBRANCH   7  10
ENDBRANCH   5   6
ENDBRANCH   1   5
BRANCH   3  36
ATOM     36  C   UNL     1      -9.896   3.441   3.699  1.00  0.00     0.116 C 
BRANCH  36  37
ATOM     37  C   UNL     1     -11.050   4.003   4.528  1.00  0.00     0.023 C 
BRANCH  37  38
ATOM     38  C   UNL     1     -11.938   2.945   5.167  1.00  0.00     0.023 C 
BRANCH  38  39
ATOM     39  C   UNL     1     -11.227   2.020   6.145  1.00  0.00     0.116 C 
BRANCH  39  40
ATOM     40  N   UNL     1     -11.231   2.408   7.546  1.00  0.00    -0.352 N 
ATOM     41  C   UNL     1     -10.880   1.646   8.655  1.00  0.00     0.251 C 
ATOM     42  H   UNL     1     -11.520   3.330   7.734  1.00  0.00     0.163 HD
ATOM     43  O   UNL     1     -11.095   2.046   9.797  1.00  0.00    -0.269 OA
BRANCH  41  44
ATOM     44  C   UNL     1     -10.050   0.419   8.473  1.00  0.00     0.039 A 
ATOM     45  C   UNL     1      -8.928   0.294   9.306  1.00  0.00     0.014 A 
ATOM     46  C   UNL     1     -10.135  -0.341   7.316  1.00  0.00     0.014 A 
ATOM     47  C   UNL     1      -7.775  -0.297   8.807  1.00  0.00     0.010 A 
ATOM     48  C   UNL     1      -8.967  -0.766   6.745  1.00  0.00     0.010 A 
ATOM     49  C   UNL     1      -7.783  -0.681   7.472  1.00  0.00    -0.014 A 
BRANCH  49  50
ATOM     50  C   UNL     1      -6.612  -1.072   6.723  1.00  0.00     0.031 A 
ATOM     51  C   UNL     1      -6.303  -2.505   6.708  1.00  0.00     0.074 A 
ATOM     52  C   UNL     1      -6.000  -0.129   5.976  1.00  0.00     0.049 A 
ATOM     53  N   UNL     1      -5.128  -3.005   6.619  1.00  0.00    -0.248 NA
ATOM     54  C   UNL     1      -7.343  -3.519   6.886  1.00  0.00     0.031 C 
ATOM     55  C   UNL     1      -4.969  -0.283   4.960  1.00  0.00     0.029 A 
ATOM     56  N   UNL     1      -6.086   1.255   6.172  1.00  0.00    -0.354 N 
ATOM     57  C   UNL     1      -5.286  -4.352   6.364  1.00  0.00     0.074 A 
ATOM     58  C   UNL     1      -6.652  -4.646   6.703  1.00  0.00     0.031 C 
ATOM     59  C   UNL     1      -4.300   0.882   4.852  1.00  0.00     0.029 A 
ATOM     60  C   UNL     1      -4.805   1.770   5.891  1.00  0.00     0.049 A 
ATOM     61  H   UNL     1      -6.881   1.765   6.449  1.00  0.00     0.167 HD
ATOM     62  C   UNL     1      -4.295  -5.005   5.698  1.00  0.00     0.034 A 
ATOM     63  C   UNL     1      -4.063   2.304   6.907  1.00  0.00     0.034 A 
ATOM     64  C   UNL     1      -3.207  -4.070   5.412  1.00  0.00     0.049 A 
ATOM     65  C   UNL     1      -2.843   1.456   7.191  1.00  0.00     0.074 A 
ATOM     66  C   UNL     1      -2.924  -3.303   4.293  1.00  0.00     0.029 A 
ATOM     67  N   UNL     1      -2.494  -3.515   6.465  1.00  0.00    -0.354 N 
ATOM     68  N   UNL     1      -2.754   0.182   6.909  1.00  0.00    -0.248 NA
ATOM     69  C   UNL     1      -1.612   1.996   7.754  1.00  0.00     0.031 C 
ATOM     70  C   UNL     1      -2.114  -2.214   4.713  1.00  0.00     0.029 A 
ATOM     71  C   UNL     1      -1.880  -2.341   6.072  1.00  0.00     0.049 A 
ATOM     72  H   UNL     1      -2.434  -3.903   7.367  1.00  0.00     0.167 HD
ATOM     73  C   UNL     1      -1.497  -0.267   7.216  1.00  0.00     0.074 A 
ATOM     74  C   UNL     1      -0.817   0.913   7.729  1.00  0.00     0.031 C 
ATOM     75  C   UNL     1      -1.105  -1.565   7.027  1.00  0.00     0.034 A 
BRANCH  62  76
ATOM     76  C   UNL     1      -4.415  -6.346   5.011  1.00  0.00     0.023 A 
ATOM     77  C   UNL     1      -3.495  -6.641   3.983  1.00  0.00     0.031 A 
ATOM     78  C   UNL     1      -5.371  -7.349   5.262  1.00  0.00     0.131 A 
ATOM     79  C   UNL     1      -3.580  -7.819   3.223  1.00  0.00     0.055 A 
ATOM     80  C   UNL     1      -5.479  -8.513   4.484  1.00  0.00     0.041 A 
ATOM     81  F   UNL     1      -6.218  -7.289   6.296  1.00  0.00    -0.206 F 
ATOM     82  C   UNL     1      -4.583  -8.752   3.454  1.00  0.00     0.022 A 
BRANCH  79  83
ATOM     83  S   UNL     1      -2.340  -8.111   1.935  1.00  0.00     0.124 S 
ATOM     84  O   UNL     1      -2.577  -6.999   1.020  1.00  0.00    -0.237 OA
ATOM     85  O   UNL     1      -1.092  -8.070   2.690  1.00  0.00    -0.237 OA
ATOM     86  O   UNL     1      -2.700  -9.428   1.413  1.00  0.00    -0.744 OA
ENDBRANCH  79  83
ENDBRANCH  62  76
BRANCH  63  87
ATOM     87  C   UNL     1      -4.917   3.008   7.921  1.00  0.00     0.023 A 
ATOM     88  C   UNL     1      -5.728   4.070   7.451  1.00  0.00     0.031 A 
ATOM     89  C   UNL     1      -5.280   2.401   9.130  1.00  0.00     0.131 A 
ATOM     90  C   UNL     1      -6.960   4.350   8.065  1.00  0.00     0.055 A 
ATOM     91  C   UNL     1      -6.475   2.741   9.781  1.00  0.00     0.041 A 
ATOM     92  F   UNL     1      -4.566   1.382   9.629  1.00  0.00    -0.206 F 
ATOM     93  C   UNL     1      -7.350   3.672   9.219  1.00  0.00     0.022 A 
BRANCH  90  94
ATOM     94  S   UNL     1      -8.158   5.396   7.185  1.00  0.00     0.124 S 
ATOM     95  O   UNL     1      -7.747   6.738   7.579  1.00  0.00    -0.237 OA
ATOM     96  O   UNL     1      -7.920   5.059   5.780  1.00  0.00    -0.237 OA
ATOM     97  O   UNL     1      -9.458   4.953   7.684  1.00  0.00    -0.744 OA
ENDBRANCH  90  94
ENDBRANCH  63  87
BRANCH  75  98
ATOM     98  C   UNL     1       0.113  -2.190   7.667  1.00  0.00     0.023 A 
ATOM     99  C   UNL     1       0.788  -1.581   8.728  1.00  0.00     0.031 A 
ATOM    100  C   UNL     1       0.598  -3.466   7.288  1.00  0.00     0.131 A 
ATOM    101  C   UNL     1       1.966  -2.129   9.251  1.00  0.00     0.055 A 
ATOM    102  C   UNL     1       1.693  -4.076   7.905  1.00  0.00     0.041 A 
ATOM    103  F   UNL     1       0.029  -4.184   6.309  1.00  0.00    -0.206 F 
ATOM    104  C   UNL     1       2.410  -3.390   8.872  1.00  0.00     0.022 A 
BRANCH 101 105
ATOM    105  S   UNL     1       2.963  -1.071  10.325  1.00  0.00     0.124 S 
ATOM    106  O   UNL     1       3.281   0.040   9.431  1.00  0.00    -0.237 OA
ATOM    107  O   UNL     1       2.039  -0.762  11.411  1.00  0.00    -0.237 OA
ATOM    108  O   UNL     1       4.094  -1.921  10.689  1.00  0.00    -0.744 OA
ENDBRANCH 101 105
ENDBRANCH  75  98
ENDBRANCH  49  50
ENDBRANCH  41  44
ENDBRANCH  39  40
ENDBRANCH  38  39
ENDBRANCH  37  38
ENDBRANCH  36  37
ENDBRANCH   3  36
TORSDOF 21
