REMARK SMILES COc1cc(/C=C2/CCc3cc(OC(C)(C)C(=O)NCCCCNC(=O)c4ccc(-c5c6nc(c(-c7cc(S(=O)(=O)[O-])ccc7F)c7ccc([nH]7)c(-c7cc(S(=O)(=O)[O-])ccc7F)c7nc(c(-c8cc(S(=O)(=O)[O-])ccc8F)c8ccc5[nH]8)C=C7)C=C6)cc4)ccc3C2=O)cc(OC)c1O
REMARK SMILES IDX 21 1 20 2 19 3 17 4 18 5 14 7 15 8 16 9 13 10 12 11 6 12
REMARK SMILES IDX 7 13 8 14 93 15 9 16 92 17 94 18 10 19 91 20 11 21 90 22
REMARK SMILES IDX 5 23 3 24 4 25 99 26 96 27 95 28 2 29 1 30 100 31 97 33
REMARK SMILES IDX 98 34 22 35 23 36 24 37 25 38 26 40 27 41 28 42 89 43 29 44
REMARK SMILES IDX 88 45 30 46 31 47 32 48 82 49 33 50 87 51 81 52 83 53 34 54
REMARK SMILES IDX 86 55 80 56 79 57 35 59 67 60 47 61 66 62 48 63 51 64 65 65
REMARK SMILES IDX 84 66 49 67 50 68 64 70 85 71 52 72 36 73 37 74 45 75 38 76
REMARK SMILES IDX 44 77 46 78 43 79 39 80 40 81 41 82 42 83 68 84 69 85 77 86
REMARK SMILES IDX 70 87 76 88 78 89 75 90 71 91 72 92 73 93 74 94 53 95 54 96
REMARK SMILES IDX 62 97 55 98 61 99 63 100 60 101 56 102 57 103 58 104 59 105
REMARK H PARENT 19 6 100 32 24 39 83 58 51 69
REMARK Flexibility Score: inf
ROOT
ATOM      1  C   UNL     1       1.122  -1.019  -1.962  1.00  0.00     0.023 C 
ENDROOT
BRANCH   1   2
ATOM      2  C   UNL     1       0.546  -2.254  -2.638  1.00  0.00     0.116 C 
BRANCH   2   3
ATOM      3  N   UNL     1       1.417  -3.136  -3.413  1.00  0.00    -0.353 N 
ATOM      4  C   UNL     1       1.197  -4.483  -3.758  1.00  0.00     0.263 C 
ATOM      5  O   UNL     1       1.655  -4.853  -4.845  1.00  0.00    -0.270 OA
ATOM      6  H   UNL     1       2.260  -2.740  -3.733  1.00  0.00     0.163 HD
BRANCH   4   7
ATOM      7  C   UNL     1       0.680  -5.547  -2.669  1.00  0.00     0.181 C 
ATOM      8  C   UNL     1      -0.574  -4.956  -2.014  1.00  0.00     0.067 C 
ATOM      9  C   UNL     1       2.034  -5.570  -1.898  1.00  0.00     0.067 C 
BRANCH   7  10
ATOM     10  O   UNL     1       0.266  -6.900  -3.127  1.00  0.00    -0.478 OA
BRANCH  10  11
ATOM     11  C   UNL     1       0.206  -7.868  -2.107  1.00  0.00     0.121 A 
ATOM     12  C   UNL     1       1.663  -6.059   3.060  1.00  0.00     0.016 C 
ATOM     13  C   UNL     1       0.884  -6.963   2.423  1.00  0.00     0.001 C 
ATOM     14  C   UNL     1      -0.386  -7.736   2.769  1.00  0.00     0.044 C 
ATOM     15  C   UNL     1       1.061  -7.040   0.986  1.00  0.00     0.189 C 
ATOM     16  C   UNL     1      -1.337  -8.010   1.466  1.00  0.00     0.041 C 
ATOM     17  C   UNL     1       0.832  -8.411   0.424  1.00  0.00     0.026 A 
ATOM     18  O   UNL     1       0.844  -6.018   0.345  1.00  0.00    -0.289 OA
ATOM     19  C   UNL     1      -0.534  -8.329   0.181  1.00  0.00    -0.033 A 
ATOM     20  C   UNL     1       1.724  -8.825  -0.562  1.00  0.00     0.016 A 
ATOM     21  C   UNL     1      -0.854  -7.978  -1.151  1.00  0.00     0.051 A 
ATOM     22  C   UNL     1       1.399  -8.549  -1.881  1.00  0.00     0.047 A 
BRANCH  12  23
ATOM     23  C   UNL     1       2.369  -4.955   2.311  1.00  0.00    -0.018 A 
ATOM     24  C   UNL     1       1.997  -2.755   1.331  1.00  0.00     0.165 A 
ATOM     25  C   UNL     1       1.595  -3.793   2.167  1.00  0.00     0.058 A 
ATOM     26  C   UNL     1       3.219  -2.821   0.650  1.00  0.00     0.200 A 
ATOM     27  C   UNL     1       3.970  -4.000   0.680  1.00  0.00     0.165 A 
ATOM     28  C   UNL     1       3.547  -5.057   1.534  1.00  0.00     0.058 A 
BRANCH  24  29
ATOM     29  O   UNL     1       1.010  -1.879   0.947  1.00  0.00    -0.493 OA
ATOM     30  C   UNL     1       1.027  -0.652   1.659  1.00  0.00     0.278 C 
ENDBRANCH  24  29
BRANCH  26  31
ATOM     31  O   UNL     1       3.650  -1.710  -0.018  1.00  0.00    -0.502 OA
ATOM     32  H   UNL     1       3.127  -0.932  -0.022  1.00  0.00     0.293 HD
ENDBRANCH  26  31
BRANCH  27  33
ATOM     33  O   UNL     1       5.084  -4.273  -0.084  1.00  0.00    -0.493 OA
ATOM     34  C   UNL     1       5.258  -3.578  -1.325  1.00  0.00     0.278 C 
ENDBRANCH  27  33
ENDBRANCH  12  23
ENDBRANCH  10  11
ENDBRANCH   7  10
ENDBRANCH   4   7
ENDBRANCH   2   3
ENDBRANCH   1   2
BRANCH   1  35
ATOM     35  C   UNL     1       1.876   0.009  -2.772  1.00  0.00     0.023 C 
BRANCH  35  36
ATOM     36  C   UNL     1       0.940   0.861  -3.609  1.00  0.00     0.116 C 
BRANCH  36  37
ATOM     37  N   UNL     1      -0.043   1.557  -2.768  1.00  0.00    -0.352 N 
ATOM     38  C   UNL     1       0.018   2.812  -2.194  1.00  0.00     0.251 C 
ATOM     39  H   UNL     1      -0.870   1.055  -2.587  1.00  0.00     0.163 HD
ATOM     40  O   UNL     1      -0.656   3.078  -1.209  1.00  0.00    -0.269 OA
BRANCH  38  41
ATOM     41  C   UNL     1       0.905   3.820  -2.806  1.00  0.00     0.039 A 
ATOM     42  C   UNL     1       1.616   4.739  -2.031  1.00  0.00     0.014 A 
ATOM     43  C   UNL     1       1.042   3.811  -4.190  1.00  0.00     0.014 A 
ATOM     44  C   UNL     1       2.544   5.579  -2.655  1.00  0.00     0.010 A 
ATOM     45  C   UNL     1       2.079   4.504  -4.773  1.00  0.00     0.010 A 
ATOM     46  C   UNL     1       2.821   5.425  -4.023  1.00  0.00    -0.014 A 
BRANCH  46  47
ATOM     47  C   UNL     1       3.838   6.216  -4.755  1.00  0.00     0.031 A 
ATOM     48  C   UNL     1       3.416   6.955  -6.001  1.00  0.00     0.074 A 
ATOM     49  C   UNL     1       5.135   6.133  -4.402  1.00  0.00     0.049 A 
ATOM     50  N   UNL     1       4.151   7.484  -6.943  1.00  0.00    -0.248 NA
ATOM     51  C   UNL     1       1.967   7.028  -6.263  1.00  0.00     0.031 C 
ATOM     52  C   UNL     1       5.659   5.388  -3.254  1.00  0.00     0.029 A 
ATOM     53  N   UNL     1       6.255   6.661  -4.990  1.00  0.00    -0.354 N 
ATOM     54  C   UNL     1       3.255   7.901  -7.924  1.00  0.00     0.074 A 
ATOM     55  C   UNL     1       1.941   7.468  -7.509  1.00  0.00     0.031 C 
ATOM     56  C   UNL     1       6.991   5.541  -3.200  1.00  0.00     0.029 A 
ATOM     57  C   UNL     1       7.424   6.337  -4.341  1.00  0.00     0.049 A 
ATOM     58  H   UNL     1       6.225   7.220  -5.800  1.00  0.00     0.167 HD
ATOM     59  C   UNL     1       3.503   8.617  -9.046  1.00  0.00     0.034 A 
ATOM     60  C   UNL     1       8.700   6.639  -4.649  1.00  0.00     0.034 A 
ATOM     61  C   UNL     1       4.821   9.080  -9.397  1.00  0.00     0.049 A 
ATOM     62  C   UNL     1       8.958   7.448  -5.895  1.00  0.00     0.074 A 
ATOM     63  C   UNL     1       5.201   9.891 -10.449  1.00  0.00     0.029 A 
ATOM     64  N   UNL     1       5.979   8.768  -8.693  1.00  0.00    -0.354 N 
ATOM     65  N   UNL     1       8.097   7.897  -6.781  1.00  0.00    -0.248 NA
ATOM     66  C   UNL     1      10.354   7.794  -6.182  1.00  0.00     0.031 C 
ATOM     67  C   UNL     1       6.593  10.014 -10.421  1.00  0.00     0.029 A 
ATOM     68  C   UNL     1       7.077   9.343  -9.307  1.00  0.00     0.049 A 
ATOM     69  H   UNL     1       6.012   8.219  -7.876  1.00  0.00     0.167 HD
ATOM     70  C   UNL     1       8.848   8.598  -7.719  1.00  0.00     0.074 A 
ATOM     71  C   UNL     1      10.227   8.529  -7.277  1.00  0.00     0.031 C 
ATOM     72  C   UNL     1       8.441   9.242  -8.843  1.00  0.00     0.034 A 
BRANCH  59  73
ATOM     73  C   UNL     1       2.333   8.931  -9.950  1.00  0.00     0.023 A 
ATOM     74  C   UNL     1       1.214   9.649  -9.488  1.00  0.00     0.031 A 
ATOM     75  C   UNL     1       2.305   8.464 -11.276  1.00  0.00     0.131 A 
ATOM     76  C   UNL     1       0.080   9.786 -10.302  1.00  0.00     0.055 A 
ATOM     77  C   UNL     1       1.211   8.691 -12.115  1.00  0.00     0.041 A 
ATOM     78  F   UNL     1       3.330   7.755 -11.773  1.00  0.00    -0.206 F 
ATOM     79  C   UNL     1       0.081   9.338 -11.623  1.00  0.00     0.022 A 
BRANCH  76  80
ATOM     80  S   UNL     1      -1.452  10.400  -9.549  1.00  0.00     0.124 S 
ATOM     81  O   UNL     1      -1.676   9.414  -8.493  1.00  0.00    -0.237 OA
ATOM     82  O   UNL     1      -1.073  11.736  -9.104  1.00  0.00    -0.237 OA
ATOM     83  O   UNL     1      -2.416  10.356 -10.646  1.00  0.00    -0.744 OA
ENDBRANCH  76  80
ENDBRANCH  59  73
BRANCH  60  84
ATOM     84  C   UNL     1       9.818   6.192  -3.770  1.00  0.00     0.023 A 
ATOM     85  C   UNL     1      10.607   7.129  -3.085  1.00  0.00     0.031 A 
ATOM     86  C   UNL     1      10.126   4.830  -3.607  1.00  0.00     0.131 A 
ATOM     87  C   UNL     1      11.691   6.698  -2.303  1.00  0.00     0.055 A 
ATOM     88  C   UNL     1      11.171   4.402  -2.785  1.00  0.00     0.041 A 
ATOM     89  F   UNL     1       9.400   3.889  -4.232  1.00  0.00    -0.206 F 
ATOM     90  C   UNL     1      11.968   5.340  -2.136  1.00  0.00     0.022 A 
BRANCH  87  91
ATOM     91  S   UNL     1      12.783   7.947  -1.572  1.00  0.00     0.124 S 
ATOM     92  O   UNL     1      13.229   8.679  -2.752  1.00  0.00    -0.237 OA
ATOM     93  O   UNL     1      11.875   8.659  -0.679  1.00  0.00    -0.237 OA
ATOM     94  O   UNL     1      13.812   7.151  -0.906  1.00  0.00    -0.744 OA
ENDBRANCH  87  91
ENDBRANCH  60  84
BRANCH  72  95
ATOM     95  C   UNL     1       9.505   9.941  -9.650  1.00  0.00     0.023 A 
ATOM     96  C   UNL     1      10.492   9.220 -10.340  1.00  0.00     0.031 A 
ATOM     97  C   UNL     1       9.516  11.344  -9.742  1.00  0.00     0.131 A 
ATOM     98  C   UNL     1      11.482   9.908 -11.056  1.00  0.00     0.055 A 
ATOM     99  C   UNL     1      10.464  12.019 -10.509  1.00  0.00     0.041 A 
ATOM    100  F   UNL     1       8.594  12.079  -9.099  1.00  0.00    -0.206 F 
ATOM    101  C   UNL     1      11.461  11.301 -11.163  1.00  0.00     0.022 A 
BRANCH  98 102
ATOM    102  S   UNL     1      12.845   8.958 -11.781  1.00  0.00     0.124 S 
ATOM    103  O   UNL     1      13.441   8.338 -10.602  1.00  0.00    -0.237 OA
ATOM    104  O   UNL     1      12.149   8.056 -12.692  1.00  0.00    -0.237 OA
ATOM    105  O   UNL     1      13.666   9.979 -12.428  1.00  0.00    -0.744 OA
ENDBRANCH  98 102
ENDBRANCH  72  95
ENDBRANCH  46  47
ENDBRANCH  38  41
ENDBRANCH  36  37
ENDBRANCH  35  36
ENDBRANCH   1  35
TORSDOF 20
