REMARK SMILES [NH3+]CC(=O)N1C[C@H](O)C[C@H]1C(=O)NCCCCNC(=O)c1ccc(-c2c3nc(c(-c4cc(S(=O)(=O)[O-])ccc4F)c4ccc([nH]4)c(-c4cc(S(=O)(=O)[O-])ccc4F)c4nc(c(-c5cc(S(=O)(=O)[O-])ccc5F)c5ccc2[nH]5)C=C4)C=C3)cc1
REMARK SMILES IDX 15 1 14 2 13 3 11 4 12 5 10 7 5 8 6 9 7 10 9 11 3 12 4 13
REMARK SMILES IDX 2 14 1 15 8 19 16 21 17 22 18 23 19 24 20 26 21 27 22 28
REMARK SMILES IDX 83 29 23 30 82 31 24 32 25 33 26 34 76 35 27 36 81 37 75 38
REMARK SMILES IDX 77 39 28 40 80 41 74 42 73 43 29 45 61 46 41 47 60 48 42 49
REMARK SMILES IDX 45 50 59 51 78 52 43 53 44 54 58 56 79 57 46 58 30 59 31 60
REMARK SMILES IDX 39 61 32 62 38 63 40 64 37 65 33 66 34 67 35 68 36 69 62 70
REMARK SMILES IDX 63 71 71 72 64 73 70 74 72 75 69 76 65 77 66 78 67 79 68 80
REMARK SMILES IDX 47 81 48 82 56 83 49 84 55 85 57 86 54 87 50 88 51 89 52 90
REMARK SMILES IDX 53 91
REMARK H PARENT 13 6 1 16 1 17 1 18 8 20 18 25 77 44 45 55
REMARK Flexibility Score: inf
ROOT
ATOM      1  C   UNL     1       1.561   4.570  -1.017  1.00  0.00     0.023 C 
ENDROOT
BRANCH   1   2
ATOM      2  C   UNL     1       2.796   4.712  -0.137  1.00  0.00     0.116 C 
BRANCH   2   3
ATOM      3  N   UNL     1       2.476   5.115   1.213  1.00  0.00    -0.354 N 
ATOM      4  C   UNL     1       2.625   4.451   2.392  1.00  0.00     0.242 C 
ATOM      5  O   UNL     1       2.504   5.116   3.428  1.00  0.00    -0.273 OA
ATOM      6  H   UNL     1       2.088   6.016   1.293  1.00  0.00     0.163 HD
BRANCH   4   7
ATOM      7  C   UNL     1       3.148   3.002   2.469  1.00  0.00     0.177 C 
ATOM      8  N   UNL     1       2.575   1.980   1.584  1.00  0.00    -0.323 N 
ATOM      9  C   UNL     1       3.610   1.214   0.904  1.00  0.00     0.152 C 
ATOM     10  C   UNL     1       4.909   1.583   1.619  1.00  0.00     0.136 C 
ATOM     11  C   UNL     1       4.658   2.971   2.191  1.00  0.00     0.069 C 
BRANCH   8  12
ATOM     12  C   UNL     1       1.237   1.656   1.706  1.00  0.00     0.278 C 
ATOM     13  O   UNL     1       0.465   2.380   2.338  1.00  0.00    -0.268 OA
BRANCH  12  14
ATOM     14  C   UNL     1       0.730   0.336   1.108  1.00  0.00     0.360 C 
BRANCH  14  15
ATOM     15  N   UNL     1       0.822   0.283  -0.355  1.00  0.00    -0.350 N 
ATOM     16  H   UNL     1       0.471  -0.616  -0.685  1.00  0.00     0.344 HD
ATOM     17  H   UNL     1       1.796   0.392  -0.638  1.00  0.00     0.344 HD
ATOM     18  H   UNL     1       0.263   1.035  -0.758  1.00  0.00     0.344 HD
ENDBRANCH  14  15
ENDBRANCH  12  14
ENDBRANCH   8  12
BRANCH  10  19
ATOM     19  O   UNL     1       5.179   0.658   2.670  1.00  0.00    -0.391 OA
ATOM     20  H   UNL     1       4.435   0.649   3.292  1.00  0.00     0.211 HD
ENDBRANCH  10  19
ENDBRANCH   4   7
ENDBRANCH   2   3
ENDBRANCH   1   2
BRANCH   1  21
ATOM     21  C   UNL     1       0.794   5.871  -1.265  1.00  0.00     0.023 C 
BRANCH  21  22
ATOM     22  C   UNL     1       1.625   7.045  -1.776  1.00  0.00     0.116 C 
BRANCH  22  23
ATOM     23  N   UNL     1       2.352   6.746  -3.000  1.00  0.00    -0.352 N 
ATOM     24  C   UNL     1       2.504   7.521  -4.127  1.00  0.00     0.251 C 
ATOM     25  H   UNL     1       2.797   5.868  -3.026  1.00  0.00     0.163 HD
ATOM     26  O   UNL     1       3.064   7.053  -5.115  1.00  0.00    -0.269 OA
BRANCH  24  27
ATOM     27  C   UNL     1       1.955   8.893  -4.152  1.00  0.00     0.039 A 
ATOM     28  C   UNL     1       1.173   9.287  -5.240  1.00  0.00     0.014 A 
ATOM     29  C   UNL     1       2.180   9.775  -3.091  1.00  0.00     0.014 A 
ATOM     30  C   UNL     1       0.550  10.538  -5.227  1.00  0.00     0.010 A 
ATOM     31  C   UNL     1       1.503  10.992  -3.049  1.00  0.00     0.010 A 
ATOM     32  C   UNL     1       0.675  11.383  -4.113  1.00  0.00    -0.014 A 
BRANCH  32  33
ATOM     33  C   UNL     1      -0.059  12.674  -4.035  1.00  0.00     0.031 A 
ATOM     34  C   UNL     1       0.700  13.972  -3.978  1.00  0.00     0.074 A 
ATOM     35  C   UNL     1      -1.404  12.673  -3.945  1.00  0.00     0.049 A 
ATOM     36  N   UNL     1       0.249  15.190  -3.821  1.00  0.00    -0.248 NA
ATOM     37  C   UNL     1       2.164  13.881  -4.080  1.00  0.00     0.031 C 
ATOM     38  C   UNL     1      -2.250  11.476  -3.947  1.00  0.00     0.029 A 
ATOM     39  N   UNL     1      -2.298  13.707  -3.822  1.00  0.00    -0.354 N 
ATOM     40  C   UNL     1       1.372  16.009  -3.791  1.00  0.00     0.074 A 
ATOM     41  C   UNL     1       2.526  15.140  -3.884  1.00  0.00     0.031 C 
ATOM     42  C   UNL     1      -3.537  11.847  -3.852  1.00  0.00     0.029 A 
ATOM     43  C   UNL     1      -3.610  13.300  -3.737  1.00  0.00     0.049 A 
ATOM     44  H   UNL     1      -2.025  14.653  -3.796  1.00  0.00     0.167 HD
ATOM     45  C   UNL     1       1.434  17.363  -3.715  1.00  0.00     0.034 A 
ATOM     46  C   UNL     1      -4.741  14.014  -3.572  1.00  0.00     0.034 A 
ATOM     47  C   UNL     1       0.273  18.216  -3.634  1.00  0.00     0.049 A 
ATOM     48  C   UNL     1      -4.646  15.515  -3.469  1.00  0.00     0.074 A 
ATOM     49  C   UNL     1       0.218  19.599  -3.608  1.00  0.00     0.029 A 
ATOM     50  N   UNL     1      -1.041  17.768  -3.558  1.00  0.00    -0.354 N 
ATOM     51  N   UNL     1      -3.579  16.280  -3.493  1.00  0.00    -0.248 NA
ATOM     52  C   UNL     1      -5.910  16.250  -3.330  1.00  0.00     0.031 C 
ATOM     53  C   UNL     1      -1.118  19.984  -3.451  1.00  0.00     0.029 A 
ATOM     54  C   UNL     1      -1.908  18.845  -3.456  1.00  0.00     0.049 A 
ATOM     55  H   UNL     1      -1.316  16.822  -3.574  1.00  0.00     0.167 HD
ATOM     56  C   UNL     1      -4.047  17.588  -3.404  1.00  0.00     0.074 A 
ATOM     57  C   UNL     1      -5.492  17.508  -3.339  1.00  0.00     0.031 C 
ATOM     58  C   UNL     1      -3.347  18.751  -3.383  1.00  0.00     0.034 A 
BRANCH  45  59
ATOM     59  C   UNL     1       2.807  17.993  -3.693  1.00  0.00     0.023 A 
ATOM     60  C   UNL     1       3.697  17.861  -4.774  1.00  0.00     0.031 A 
ATOM     61  C   UNL     1       3.245  18.710  -2.566  1.00  0.00     0.131 A 
ATOM     62  C   UNL     1       5.003  18.363  -4.673  1.00  0.00     0.055 A 
ATOM     63  C   UNL     1       4.518  19.282  -2.506  1.00  0.00     0.041 A 
ATOM     64  F   UNL     1       2.449  18.854  -1.494  1.00  0.00    -0.206 F 
ATOM     65  C   UNL     1       5.411  19.096  -3.556  1.00  0.00     0.022 A 
BRANCH  62  66
ATOM     66  S   UNL     1       6.203  17.915  -5.956  1.00  0.00     0.124 S 
ATOM     67  O   UNL     1       6.194  16.456  -5.871  1.00  0.00    -0.237 OA
ATOM     68  O   UNL     1       5.610  18.489  -7.158  1.00  0.00    -0.237 OA
ATOM     69  O   UNL     1       7.440  18.550  -5.506  1.00  0.00    -0.744 OA
ENDBRANCH  62  66
ENDBRANCH  45  59
BRANCH  46  70
ATOM     70  C   UNL     1      -6.062  13.328  -3.484  1.00  0.00     0.023 A 
ATOM     71  C   UNL     1      -7.045  13.524  -4.467  1.00  0.00     0.031 A 
ATOM     72  C   UNL     1      -6.377  12.499  -2.393  1.00  0.00     0.131 A 
ATOM     73  C   UNL     1      -8.311  12.938  -4.317  1.00  0.00     0.055 A 
ATOM     74  C   UNL     1      -7.621  11.876  -2.274  1.00  0.00     0.041 A 
ATOM     75  F   UNL     1      -5.471  12.273  -1.428  1.00  0.00    -0.206 F 
ATOM     76  C   UNL     1      -8.602  12.105  -3.234  1.00  0.00     0.022 A 
BRANCH  73  77
ATOM     77  S   UNL     1      -9.605  13.349  -5.520  1.00  0.00     0.124 S 
ATOM     78  O   UNL     1      -9.675  14.800  -5.397  1.00  0.00    -0.237 OA
ATOM     79  O   UNL     1      -9.037  12.836  -6.762  1.00  0.00    -0.237 OA
ATOM     80  O   UNL     1     -10.773  12.623  -5.025  1.00  0.00    -0.744 OA
ENDBRANCH  73  77
ENDBRANCH  46  70
BRANCH  58  81
ATOM     81  C   UNL     1      -4.145  20.031  -3.339  1.00  0.00     0.023 A 
ATOM     82  C   UNL     1      -4.907  20.392  -2.214  1.00  0.00     0.031 A 
ATOM     83  C   UNL     1      -4.150  20.897  -4.447  1.00  0.00     0.131 A 
ATOM     84  C   UNL     1      -5.685  21.559  -2.243  1.00  0.00     0.055 A 
ATOM     85  C   UNL     1      -4.878  22.087  -4.447  1.00  0.00     0.041 A 
ATOM     86  F   UNL     1      -3.441  20.600  -5.548  1.00  0.00    -0.206 F 
ATOM     87  C   UNL     1      -5.662  22.417  -3.346  1.00  0.00     0.022 A 
BRANCH  84  88
ATOM     88  S   UNL     1      -6.798  21.900  -0.852  1.00  0.00     0.124 S 
ATOM     89  O   UNL     1      -7.651  20.716  -0.848  1.00  0.00    -0.237 OA
ATOM     90  O   UNL     1      -5.871  22.021   0.268  1.00  0.00    -0.237 OA
ATOM     91  O   UNL     1      -7.463  23.143  -1.241  1.00  0.00    -0.744 OA
ENDBRANCH  84  88
ENDBRANCH  58  81
ENDBRANCH  32  33
ENDBRANCH  24  27
ENDBRANCH  22  23
ENDBRANCH  21  22
ENDBRANCH   1  21
TORSDOF 18
