REMARK SMILES Cc1noc(C)c1[C@H](C)NC(=O)NC[C@@](C)(O)C(=O)NCCCCNC(=O)c1ccc(-c2c3nc(c(-c4cc(S(=O)(=O)[O-])ccc4F)c4ccc([nH]4)c(-c4cc(S(=O)(=O)[O-])ccc4F)c4nc(c(-c5cc(S(=O)(=O)[O-])ccc5F)c5ccc2[nH]5)C=C4)C=C3)cc1
REMARK SMILES IDX 22 1 21 2 20 3 18 4 19 5 15 7 16 8 14 9 13 10 10 11 11 12
REMARK SMILES IDX 12 14 8 16 9 17 7 18 1 19 2 20 3 21 4 22 5 23 6 24 17 25
REMARK SMILES IDX 23 27 24 28 25 29 26 30 27 32 28 33 29 34 90 35 30 36 89 37
REMARK SMILES IDX 31 38 32 39 33 40 83 41 34 42 88 43 82 44 84 45 35 46 87 47
REMARK SMILES IDX 81 48 80 49 36 51 68 52 48 53 67 54 49 55 52 56 66 57 85 58
REMARK SMILES IDX 50 59 51 60 65 62 86 63 53 64 37 65 38 66 46 67 39 68 45 69
REMARK SMILES IDX 47 70 44 71 40 72 41 73 42 74 43 75 69 76 70 77 78 78 71 79
REMARK SMILES IDX 77 80 79 81 76 82 72 83 73 84 74 85 75 86 54 87 55 88 63 89
REMARK SMILES IDX 56 90 62 91 64 92 61 93 57 94 58 95 59 96 60 97
REMARK H PARENT 20 6 10 13 13 15 17 26 25 31 84 50 52 61
REMARK Flexibility Score: inf
ROOT
ATOM      1  C   UNL     1       3.042   7.298  -3.207  1.00  0.00     0.023 C 
ENDROOT
BRANCH   1   2
ATOM      2  C   UNL     1       3.355   7.437  -1.720  1.00  0.00     0.116 C 
BRANCH   2   3
ATOM      3  N   UNL     1       2.204   7.198  -0.872  1.00  0.00    -0.354 N 
ATOM      4  C   UNL     1       1.963   6.247   0.081  1.00  0.00     0.253 C 
ATOM      5  O   UNL     1       0.929   6.404   0.731  1.00  0.00    -0.272 OA
ATOM      6  H   UNL     1       1.463   7.833  -1.006  1.00  0.00     0.163 HD
BRANCH   4   7
ATOM      7  C   UNL     1       2.998   5.122   0.390  1.00  0.00     0.157 C 
ATOM      8  C   UNL     1       4.120   5.770   1.221  1.00  0.00     0.055 C 
BRANCH   7   9
ATOM      9  C   UNL     1       2.453   3.874   1.157  1.00  0.00     0.162 C 
BRANCH   9  10
ATOM     10  N   UNL     1       1.307   4.018   2.030  1.00  0.00    -0.335 N 
ATOM     11  N   UNL     1      -0.601   3.311   0.812  1.00  0.00    -0.331 N 
ATOM     12  C   UNL     1      -0.011   3.809   1.905  1.00  0.00     0.315 C 
ATOM     13  H   UNL     1      -1.584   3.351   0.853  1.00  0.00     0.165 HD
ATOM     14  O   UNL     1      -0.725   4.075   2.875  1.00  0.00    -0.249 OA
ATOM     15  H   UNL     1       1.554   4.347   2.925  1.00  0.00     0.165 HD
BRANCH  11  16
ATOM     16  C   UNL     1      -0.107   2.725  -0.422  1.00  0.00     0.116 C 
ATOM     17  C   UNL     1       0.258   1.265  -0.158  1.00  0.00     0.036 C 
BRANCH  16  18
ATOM     18  C   UNL     1      -1.131   2.938  -1.503  1.00  0.00     0.040 A 
ATOM     19  C   UNL     1      -1.085   5.559  -1.634  1.00  0.00     0.071 C 
ATOM     20  C   UNL     1      -1.543   4.207  -2.026  1.00  0.00     0.086 A 
ATOM     21  N   UNL     1      -2.438   4.073  -3.008  1.00  0.00    -0.085 NA
ATOM     22  O   UNL     1      -2.627   2.722  -3.160  1.00  0.00    -0.361 OA
ATOM     23  C   UNL     1      -1.846   2.042  -2.280  1.00  0.00     0.139 A 
ATOM     24  C   UNL     1      -1.944   0.574  -2.389  1.00  0.00     0.091 C 
ENDBRANCH  16  18
ENDBRANCH  11  16
ENDBRANCH   9  10
ENDBRANCH   7   9
BRANCH   7  25
ATOM     25  O   UNL     1       3.557   4.605  -0.833  1.00  0.00    -0.378 OA
ATOM     26  H   UNL     1       4.198   3.907  -0.625  1.00  0.00     0.212 HD
ENDBRANCH   7  25
ENDBRANCH   4   7
ENDBRANCH   2   3
ENDBRANCH   1   2
BRANCH   1  27
ATOM     27  C   UNL     1       1.979   8.251  -3.762  1.00  0.00     0.023 C 
BRANCH  27  28
ATOM     28  C   UNL     1       2.128   9.727  -3.402  1.00  0.00     0.116 C 
BRANCH  28  29
ATOM     29  N   UNL     1       3.422  10.287  -3.757  1.00  0.00    -0.352 N 
ATOM     30  C   UNL     1       3.729  11.479  -4.372  1.00  0.00     0.251 C 
ATOM     31  H   UNL     1       4.197   9.728  -3.522  1.00  0.00     0.163 HD
ATOM     32  O   UNL     1       4.902  11.723  -4.648  1.00  0.00    -0.269 OA
BRANCH  30  33
ATOM     33  C   UNL     1       2.662  12.437  -4.744  1.00  0.00     0.039 A 
ATOM     34  C   UNL     1       2.710  13.030  -6.010  1.00  0.00     0.014 A 
ATOM     35  C   UNL     1       1.617  12.749  -3.871  1.00  0.00     0.014 A 
ATOM     36  C   UNL     1       1.670  13.863  -6.431  1.00  0.00     0.010 A 
ATOM     37  C   UNL     1       0.545  13.521  -4.318  1.00  0.00     0.010 A 
ATOM     38  C   UNL     1       0.554  14.078  -5.606  1.00  0.00    -0.014 A 
BRANCH  38  39
ATOM     39  C   UNL     1      -0.620  14.856  -6.087  1.00  0.00     0.031 A 
ATOM     40  C   UNL     1      -1.020  16.135  -5.405  1.00  0.00     0.074 A 
ATOM     41  C   UNL     1      -1.376  14.367  -7.090  1.00  0.00     0.049 A 
ATOM     42  N   UNL     1      -2.055  16.906  -5.626  1.00  0.00    -0.248 NA
ATOM     43  C   UNL     1      -0.157  16.586  -4.306  1.00  0.00     0.031 C 
ATOM     44  C   UNL     1      -1.129  13.107  -7.795  1.00  0.00     0.029 A 
ATOM     45  N   UNL     1      -2.516  14.857  -7.678  1.00  0.00    -0.354 N 
ATOM     46  C   UNL     1      -1.974  17.929  -4.688  1.00  0.00     0.074 A 
ATOM     47  C   UNL     1      -0.827  17.634  -3.853  1.00  0.00     0.031 C 
ATOM     48  C   UNL     1      -2.080  12.929  -8.723  1.00  0.00     0.029 A 
ATOM     49  C   UNL     1      -3.030  14.035  -8.653  1.00  0.00     0.049 A 
ATOM     50  H   UNL     1      -2.927  15.715  -7.425  1.00  0.00     0.167 HD
ATOM     51  C   UNL     1      -2.766  19.024  -4.550  1.00  0.00     0.034 A 
ATOM     52  C   UNL     1      -4.150  14.143  -9.395  1.00  0.00     0.034 A 
ATOM     53  C   UNL     1      -3.910  19.297  -5.388  1.00  0.00     0.049 A 
ATOM     54  C   UNL     1      -5.033  15.349  -9.215  1.00  0.00     0.074 A 
ATOM     55  C   UNL     1      -4.744  20.402  -5.380  1.00  0.00     0.029 A 
ATOM     56  N   UNL     1      -4.397  18.446  -6.375  1.00  0.00    -0.354 N 
ATOM     57  N   UNL     1      -4.906  16.346  -8.370  1.00  0.00    -0.248 NA
ATOM     58  C   UNL     1      -6.202  15.451 -10.096  1.00  0.00     0.031 C 
ATOM     59  C   UNL     1      -5.772  20.187  -6.306  1.00  0.00     0.029 A 
ATOM     60  C   UNL     1      -5.539  18.983  -6.953  1.00  0.00     0.049 A 
ATOM     61  H   UNL     1      -3.990  17.585  -6.627  1.00  0.00     0.167 HD
ATOM     62  C   UNL     1      -5.971  17.203  -8.630  1.00  0.00     0.074 A 
ATOM     63  C   UNL     1      -6.718  16.613  -9.723  1.00  0.00     0.031 C 
ATOM     64  C   UNL     1      -6.297  18.374  -8.023  1.00  0.00     0.034 A 
BRANCH  51  65
ATOM     65  C   UNL     1      -2.427  19.980  -3.428  1.00  0.00     0.023 A 
ATOM     66  C   UNL     1      -1.178  20.626  -3.362  1.00  0.00     0.031 A 
ATOM     67  C   UNL     1      -3.333  20.203  -2.376  1.00  0.00     0.131 A 
ATOM     68  C   UNL     1      -0.829  21.368  -2.224  1.00  0.00     0.055 A 
ATOM     69  C   UNL     1      -3.015  21.024  -1.291  1.00  0.00     0.041 A 
ATOM     70  F   UNL     1      -4.534  19.606  -2.368  1.00  0.00    -0.206 F 
ATOM     71  C   UNL     1      -1.748  21.593  -1.199  1.00  0.00     0.022 A 
BRANCH  68  72
ATOM     72  S   UNL     1       0.904  21.866  -2.019  1.00  0.00     0.124 S 
ATOM     73  O   UNL     1       1.595  20.582  -2.118  1.00  0.00    -0.237 OA
ATOM     74  O   UNL     1       1.101  22.786  -3.133  1.00  0.00    -0.237 OA
ATOM     75  O   UNL     1       0.930  22.477  -0.692  1.00  0.00    -0.744 OA
ENDBRANCH  68  72
ENDBRANCH  51  65
BRANCH  52  76
ATOM     76  C   UNL     1      -4.509  13.064 -10.358  1.00  0.00     0.023 A 
ATOM     77  C   UNL     1      -4.476  13.281 -11.744  1.00  0.00     0.031 A 
ATOM     78  C   UNL     1      -4.886  11.790  -9.896  1.00  0.00     0.131 A 
ATOM     79  C   UNL     1      -4.840  12.247 -12.621  1.00  0.00     0.055 A 
ATOM     80  C   UNL     1      -5.204  10.752 -10.773  1.00  0.00     0.041 A 
ATOM     81  F   UNL     1      -4.922  11.529  -8.579  1.00  0.00    -0.206 F 
ATOM     82  C   UNL     1      -5.190  10.981 -12.145  1.00  0.00     0.022 A 
BRANCH  79  83
ATOM     83  S   UNL     1      -4.892  12.592 -14.401  1.00  0.00     0.124 S 
ATOM     84  O   UNL     1      -5.903  13.641 -14.472  1.00  0.00    -0.237 OA
ATOM     85  O   UNL     1      -3.519  13.005 -14.670  1.00  0.00    -0.237 OA
ATOM     86  O   UNL     1      -5.279  11.310 -14.986  1.00  0.00    -0.744 OA
ENDBRANCH  79  83
ENDBRANCH  52  76
BRANCH  64  87
ATOM     87  C   UNL     1      -7.507  19.106  -8.554  1.00  0.00     0.023 A 
ATOM     88  C   UNL     1      -8.806  18.583  -8.423  1.00  0.00     0.031 A 
ATOM     89  C   UNL     1      -7.355  20.340  -9.211  1.00  0.00     0.131 A 
ATOM     90  C   UNL     1      -9.895  19.265  -8.988  1.00  0.00     0.055 A 
ATOM     91  C   UNL     1      -8.449  21.043  -9.718  1.00  0.00     0.041 A 
ATOM     92  F   UNL     1      -6.138  20.885  -9.370  1.00  0.00    -0.206 F 
ATOM     93  C   UNL     1      -9.727  20.500  -9.619  1.00  0.00     0.022 A 
BRANCH  90  94
ATOM     94  S   UNL     1     -11.527  18.474  -8.969  1.00  0.00     0.124 S 
ATOM     95  O   UNL     1     -11.270  17.232  -9.690  1.00  0.00    -0.237 OA
ATOM     96  O   UNL     1     -11.793  18.339  -7.540  1.00  0.00    -0.237 OA
ATOM     97  O   UNL     1     -12.382  19.431  -9.669  1.00  0.00    -0.744 OA
ENDBRANCH  90  94
ENDBRANCH  64  87
ENDBRANCH  38  39
ENDBRANCH  30  33
ENDBRANCH  28  29
ENDBRANCH  27  28
ENDBRANCH   1  27
TORSDOF 19
