REMARK SMILES [NH3+][C@H](C(=O)NCCCCNC(=O)c1ccc(-c2c3nc(c(-c4cc(S(=O)(=O)[O-])ccc4F)c4ccc([nH]4)c(-c4cc(S(=O)(=O)[O-])ccc4F)c4nc(c(-c5cc(S(=O)(=O)[O-])ccc5F)c5ccc2[nH]5)C=C4)C=C3)cc1)c1cccc(OCc2ccc(F)cc2)c1
REMARK SMILES IDX 7 1 6 2 5 3 3 4 4 5 2 7 1 8 76 12 77 13 90 14 78 15 80 16
REMARK SMILES IDX 79 17 81 18 82 19 83 20 84 21 89 22 85 23 88 24 86 25 87 26
REMARK SMILES IDX 8 27 9 28 10 29 11 30 12 32 13 33 14 34 75 35 15 36 74 37
REMARK SMILES IDX 16 38 17 39 18 40 68 41 19 42 73 43 67 44 69 45 20 46 72 47
REMARK SMILES IDX 66 48 65 49 21 51 53 52 33 53 52 54 34 55 37 56 51 57 70 58
REMARK SMILES IDX 35 59 36 60 50 62 71 63 38 64 22 65 23 66 31 67 24 68 30 69
REMARK SMILES IDX 32 70 29 71 25 72 26 73 27 74 28 75 54 76 55 77 63 78 56 79
REMARK SMILES IDX 62 80 64 81 61 82 57 83 58 84 59 85 60 86 39 87 40 88 48 89
REMARK SMILES IDX 41 90 47 91 49 92 46 93 42 94 43 95 44 96 45 97
REMARK H PARENT 5 6 1 9 1 10 1 11 10 31 69 50 37 61
REMARK Flexibility Score: inf
ROOT
ATOM      1  C   UNL     1       0.394   1.786   3.293  1.00  0.00     0.023 C 
ENDROOT
BRANCH   1   2
ATOM      2  C   UNL     1      -0.135   1.494   1.897  1.00  0.00     0.116 C 
BRANCH   2   3
ATOM      3  N   UNL     1       0.903   1.250   0.911  1.00  0.00    -0.351 N 
ATOM      4  C   UNL     1       1.102   0.194   0.069  1.00  0.00     0.283 C 
ATOM      5  O   UNL     1       1.980   0.325  -0.792  1.00  0.00    -0.268 OA
ATOM      6  H   UNL     1       1.575   1.966   0.838  1.00  0.00     0.163 HD
BRANCH   4   7
ATOM      7  C   UNL     1       0.387  -1.164   0.255  1.00  0.00     0.302 C 
BRANCH   7   8
ATOM      8  N   UNL     1       0.953  -1.823   1.458  1.00  0.00    -0.343 N 
ATOM      9  H   UNL     1       0.494  -2.723   1.600  1.00  0.00     0.345 HD
ATOM     10  H   UNL     1       0.799  -1.230   2.274  1.00  0.00     0.345 HD
ATOM     11  H   UNL     1       1.954  -1.968   1.327  1.00  0.00     0.345 HD
ENDBRANCH   7   8
BRANCH   7  12
ATOM     12  C   UNL     1      -1.135  -1.197   0.239  1.00  0.00     0.023 A 
ATOM     13  C   UNL     1      -1.931  -0.125  -0.194  1.00  0.00     0.011 A 
ATOM     14  C   UNL     1      -1.780  -2.409   0.557  1.00  0.00     0.057 A 
ATOM     15  C   UNL     1      -3.324  -0.217  -0.181  1.00  0.00     0.004 A 
ATOM     16  C   UNL     1      -3.160  -2.548   0.411  1.00  0.00     0.120 A 
ATOM     17  C   UNL     1      -3.937  -1.428   0.126  1.00  0.00     0.046 A 
BRANCH  16  18
ATOM     18  O   UNL     1      -3.835  -3.737   0.370  1.00  0.00    -0.489 OA
BRANCH  18  19
ATOM     19  C   UNL     1      -3.086  -4.938   0.138  1.00  0.00     0.265 C 
BRANCH  19  20
ATOM     20  C   UNL     1      -2.392  -5.132  -1.211  1.00  0.00    -0.011 A 
ATOM     21  C   UNL     1      -1.883  -6.410  -1.511  1.00  0.00     0.010 A 
ATOM     22  C   UNL     1      -2.147  -4.098  -2.131  1.00  0.00     0.010 A 
ATOM     23  C   UNL     1      -1.120  -6.629  -2.661  1.00  0.00     0.039 A 
ATOM     24  C   UNL     1      -1.352  -4.306  -3.261  1.00  0.00     0.039 A 
ATOM     25  C   UNL     1      -0.842  -5.569  -3.514  1.00  0.00     0.123 A 
ATOM     26  F   UNL     1      -0.073  -5.769  -4.591  1.00  0.00    -0.207 F 
ENDBRANCH  19  20
ENDBRANCH  18  19
ENDBRANCH  16  18
ENDBRANCH   7  12
ENDBRANCH   4   7
ENDBRANCH   2   3
ENDBRANCH   1   2
BRANCH   1  27
ATOM     27  C   UNL     1       1.432   2.899   3.396  1.00  0.00     0.023 C 
BRANCH  27  28
ATOM     28  C   UNL     1       1.050   4.233   2.765  1.00  0.00     0.116 C 
BRANCH  28  29
ATOM     29  N   UNL     1      -0.138   4.826   3.355  1.00  0.00    -0.352 N 
ATOM     30  C   UNL     1      -0.319   6.058   3.934  1.00  0.00     0.251 C 
ATOM     31  H   UNL     1      -0.939   4.254   3.336  1.00  0.00     0.163 HD
ATOM     32  O   UNL     1      -1.389   6.293   4.499  1.00  0.00    -0.269 OA
BRANCH  30  33
ATOM     33  C   UNL     1       0.753   7.082   3.924  1.00  0.00     0.039 A 
ATOM     34  C   UNL     1       0.947   7.854   5.073  1.00  0.00     0.014 A 
ATOM     35  C   UNL     1       1.553   7.309   2.800  1.00  0.00     0.014 A 
ATOM     36  C   UNL     1       1.979   8.795   5.117  1.00  0.00     0.010 A 
ATOM     37  C   UNL     1       2.639   8.185   2.876  1.00  0.00     0.010 A 
ATOM     38  C   UNL     1       2.865   8.941   4.035  1.00  0.00    -0.014 A 
BRANCH  38  39
ATOM     39  C   UNL     1       4.023   9.874   4.127  1.00  0.00     0.031 A 
ATOM     40  C   UNL     1       4.139  11.056   3.200  1.00  0.00     0.074 A 
ATOM     41  C   UNL     1       4.985   9.646   5.045  1.00  0.00     0.049 A 
ATOM     42  N   UNL     1       5.066  11.980   3.150  1.00  0.00    -0.248 NA
ATOM     43  C   UNL     1       3.092  11.204   2.178  1.00  0.00     0.031 C 
ATOM     44  C   UNL     1       5.020   8.503   5.962  1.00  0.00     0.029 A 
ATOM     45  N   UNL     1       6.113  10.359   5.367  1.00  0.00    -0.354 N 
ATOM     46  C   UNL     1       4.709  12.824   2.103  1.00  0.00     0.074 A 
ATOM     47  C   UNL     1       3.526  12.253   1.495  1.00  0.00     0.031 C 
ATOM     48  C   UNL     1       6.089   8.615   6.766  1.00  0.00     0.029 A 
ATOM     49  C   UNL     1       6.843   9.809   6.397  1.00  0.00     0.049 A 
ATOM     50  H   UNL     1       6.376  11.188   4.905  1.00  0.00     0.167 HD
ATOM     51  C   UNL     1       5.291  13.984   1.706  1.00  0.00     0.034 A 
ATOM     52  C   UNL     1       7.990  10.214   6.978  1.00  0.00     0.034 A 
ATOM     53  C   UNL     1       6.476  14.540   2.317  1.00  0.00     0.049 A 
ATOM     54  C   UNL     1       8.629  11.496   6.506  1.00  0.00     0.074 A 
ATOM     55  C   UNL     1       7.132  15.720   2.009  1.00  0.00     0.029 A 
ATOM     56  N   UNL     1       7.188  13.954   3.356  1.00  0.00    -0.354 N 
ATOM     57  N   UNL     1       8.242  12.310   5.551  1.00  0.00    -0.248 NA
ATOM     58  C   UNL     1       9.847  11.923   7.206  1.00  0.00     0.031 C 
ATOM     59  C   UNL     1       8.274  15.813   2.812  1.00  0.00     0.029 A 
ATOM     60  C   UNL     1       8.288  14.735   3.682  1.00  0.00     0.049 A 
ATOM     61  H   UNL     1       6.947  13.107   3.796  1.00  0.00     0.167 HD
ATOM     62  C   UNL     1       9.158  13.360   5.555  1.00  0.00     0.074 A 
ATOM     63  C   UNL     1      10.091  13.089   6.630  1.00  0.00     0.031 C 
ATOM     64  C   UNL     1       9.226  14.447   4.743  1.00  0.00     0.034 A 
BRANCH  51  65
ATOM     65  C   UNL     1       4.654  14.721   0.550  1.00  0.00     0.023 A 
ATOM     66  C   UNL     1       3.342  15.223   0.633  1.00  0.00     0.031 A 
ATOM     67  C   UNL     1       5.354  14.915  -0.654  1.00  0.00     0.131 A 
ATOM     68  C   UNL     1       2.748  15.826  -0.486  1.00  0.00     0.055 A 
ATOM     69  C   UNL     1       4.787  15.593  -1.736  1.00  0.00     0.041 A 
ATOM     70  F   UNL     1       6.601  14.442  -0.804  1.00  0.00    -0.206 F 
ATOM     71  C   UNL     1       3.471  16.041  -1.661  1.00  0.00     0.022 A 
BRANCH  68  72
ATOM     72  S   UNL     1       0.974  16.200  -0.428  1.00  0.00     0.124 S 
ATOM     73  O   UNL     1       0.402  14.877  -0.189  1.00  0.00    -0.237 OA
ATOM     74  O   UNL     1       0.885  17.144   0.680  1.00  0.00    -0.237 OA
ATOM     75  O   UNL     1       0.698  16.760  -1.749  1.00  0.00    -0.744 OA
ENDBRANCH  68  72
ENDBRANCH  51  65
BRANCH  52  76
ATOM     76  C   UNL     1       8.622   9.400   8.059  1.00  0.00     0.023 A 
ATOM     77  C   UNL     1       8.796   9.913   9.355  1.00  0.00     0.031 A 
ATOM     78  C   UNL     1       9.115   8.110   7.792  1.00  0.00     0.131 A 
ATOM     79  C   UNL     1       9.498   9.167  10.315  1.00  0.00     0.055 A 
ATOM     80  C   UNL     1       9.755   7.346   8.769  1.00  0.00     0.041 A 
ATOM     81  F   UNL     1       8.974   7.567   6.572  1.00  0.00    -0.206 F 
ATOM     82  C   UNL     1       9.965   7.881  10.036  1.00  0.00     0.022 A 
BRANCH  79  83
ATOM     83  S   UNL     1       9.889   9.947  11.906  1.00  0.00     0.124 S 
ATOM     84  O   UNL     1      10.609  11.141  11.483  1.00  0.00    -0.237 OA
ATOM     85  O   UNL     1       8.561  10.164  12.470  1.00  0.00    -0.237 OA
ATOM     86  O   UNL     1      10.697   8.938  12.589  1.00  0.00    -0.744 OA
ENDBRANCH  79  83
ENDBRANCH  52  76
BRANCH  64  87
ATOM     87  C   UNL     1      10.334  15.436   5.020  1.00  0.00     0.023 A 
ATOM     88  C   UNL     1      11.690  15.080   4.899  1.00  0.00     0.031 A 
ATOM     89  C   UNL     1      10.033  16.739   5.455  1.00  0.00     0.131 A 
ATOM     90  C   UNL     1      12.689  15.983   5.293  1.00  0.00     0.055 A 
ATOM     91  C   UNL     1      11.033  17.660   5.771  1.00  0.00     0.041 A 
ATOM     92  F   UNL     1       8.758  17.137   5.592  1.00  0.00    -0.206 F 
ATOM     93  C   UNL     1      12.370  17.277   5.711  1.00  0.00     0.022 A 
BRANCH  90  94
ATOM     94  S   UNL     1      14.403  15.396   5.383  1.00  0.00     0.124 S 
ATOM     95  O   UNL     1      14.283  14.250   6.279  1.00  0.00    -0.237 OA
ATOM     96  O   UNL     1      14.700  15.086   3.989  1.00  0.00    -0.237 OA
ATOM     97  O   UNL     1      15.129  16.539   5.933  1.00  0.00    -0.744 OA
ENDBRANCH  90  94
ENDBRANCH  64  87
ENDBRANCH  38  39
ENDBRANCH  30  33
ENDBRANCH  28  29
ENDBRANCH  27  28
ENDBRANCH   1  27
TORSDOF 19
