REMARK SMILES COC(=O)c1sc(SCC(=O)NCCCCNC(=O)c2ccc(-c3c4nc(c(-c5cc(S(=O)(=O)[O-])ccc5F)c5ccc([nH]5)c(-c5cc(S(=O)(=O)[O-])ccc5F)c5nc(c(-c6cc(S(=O)(=O)[O-])ccc6F)c6ccc3[nH]6)C=C5)C=C4)cc2)c(NC(=O)c2ccccc2)c1O
REMARK SMILES IDX 14 1 13 2 12 3 10 4 11 5 9 7 8 8 7 9 5 10 6 11 93 12 83 13
REMARK SMILES IDX 3 14 4 15 2 16 1 17 94 18 84 20 85 21 86 23 87 24 88 25
REMARK SMILES IDX 92 26 89 27 91 28 90 29 15 30 16 31 17 32 18 33 19 35 20 36
REMARK SMILES IDX 21 37 82 38 22 39 81 40 23 41 24 42 25 43 75 44 26 45 80 46
REMARK SMILES IDX 74 47 76 48 27 49 79 50 73 51 72 52 28 54 60 55 40 56 59 57
REMARK SMILES IDX 41 58 44 59 58 60 77 61 42 62 43 63 57 65 78 66 45 67 29 68
REMARK SMILES IDX 30 69 38 70 31 71 37 72 39 73 36 74 32 75 33 76 34 77 35 78
REMARK SMILES IDX 61 79 62 80 70 81 63 82 69 83 71 84 68 85 64 86 65 87 66 88
REMARK SMILES IDX 67 89 46 90 47 91 55 92 48 93 54 94 56 95 53 96 49 97 50 98
REMARK SMILES IDX 51 99 52 100
REMARK H PARENT 12 6 94 19 84 22 17 34 76 53 44 64
REMARK Flexibility Score: inf
ROOT
ATOM      1  C   UNL     1       1.614  -7.428   4.958  1.00  0.00     0.023 C 
ENDROOT
BRANCH   1   2
ATOM      2  C   UNL     1       0.644  -8.612   4.997  1.00  0.00     0.116 C 
BRANCH   2   3
ATOM      3  N   UNL     1      -0.724  -8.282   4.681  1.00  0.00    -0.355 N 
ATOM      4  C   UNL     1      -1.467  -8.542   3.554  1.00  0.00     0.230 C 
ATOM      5  O   UNL     1      -2.675  -8.304   3.650  1.00  0.00    -0.274 OA
ATOM      6  H   UNL     1      -1.204  -7.791   5.387  1.00  0.00     0.163 HD
BRANCH   4   7
ATOM      7  C   UNL     1      -0.735  -9.241   2.119  1.00  0.00     0.175 C 
BRANCH   7   8
ATOM      8  S   UNL     1      -0.066  -8.066  -0.094  1.00  0.00    -0.103 SA
BRANCH   8   9
ATOM      9  C   UNL     1      -0.195  -6.197  -0.171  1.00  0.00     0.089 A 
ATOM     10  C   UNL     1       0.426  -3.778  -0.395  1.00  0.00     0.157 A 
ATOM     11  S   UNL     1       1.198  -5.290  -0.665  1.00  0.00    -0.116 S 
ATOM     12  C   UNL     1      -0.883  -3.969  -0.014  1.00  0.00     0.166 A 
ATOM     13  C   UNL     1      -1.261  -5.335   0.100  1.00  0.00     0.109 A 
BRANCH  10  14
ATOM     14  C   UNL     1       1.157  -2.539  -0.581  1.00  0.00     0.352 C 
ATOM     15  O   UNL     1       2.237  -2.393  -1.138  1.00  0.00    -0.245 OA
BRANCH  14  16
ATOM     16  O   UNL     1       0.435  -1.509  -0.033  1.00  0.00    -0.465 OA
ATOM     17  C   UNL     1       1.016  -0.207  -0.151  1.00  0.00     0.282 C 
ENDBRANCH  14  16
ENDBRANCH  10  14
BRANCH  12  18
ATOM     18  O   UNL     1      -1.745  -2.967   0.282  1.00  0.00    -0.504 OA
ATOM     19  H   UNL     1      -1.472  -2.074   0.199  1.00  0.00     0.293 HD
ENDBRANCH  12  18
BRANCH  13  20
ATOM     20  N   UNL     1      -2.552  -5.647   0.512  1.00  0.00    -0.317 N 
ATOM     21  C   UNL     1      -2.991  -6.873   0.908  1.00  0.00     0.255 C 
ATOM     22  H   UNL     1      -3.209  -4.914   0.517  1.00  0.00     0.170 HD
ATOM     23  O   UNL     1      -4.170  -7.191   0.943  1.00  0.00    -0.269 OA
BRANCH  21  24
ATOM     24  C   UNL     1      -1.924  -7.814   1.231  1.00  0.00     0.040 A 
ATOM     25  C   UNL     1      -1.961  -9.383   0.372  1.00  0.00     0.014 A 
ATOM     26  C   UNL     1      -0.370  -7.239   2.042  1.00  0.00     0.014 A 
ATOM     27  C   UNL     1      -0.478 -10.386   0.315  1.00  0.00     0.001 A 
ATOM     28  C   UNL     1       1.111  -8.265   1.924  1.00  0.00     0.001 A 
ATOM     29  C   UNL     1       1.044  -9.831   1.054  1.00  0.00     0.000 A 
ENDBRANCH  21  24
ENDBRANCH  13  20
ENDBRANCH   8   9
ENDBRANCH   7   8
ENDBRANCH   4   7
ENDBRANCH   2   3
ENDBRANCH   1   2
BRANCH   1  30
ATOM     30  C   UNL     1       1.542  -6.388   6.074  1.00  0.00     0.023 C 
BRANCH  30  31
ATOM     31  C   UNL     1       1.685  -6.928   7.487  1.00  0.00     0.116 C 
BRANCH  31  32
ATOM     32  N   UNL     1       2.884  -7.751   7.679  1.00  0.00    -0.352 N 
ATOM     33  C   UNL     1       3.169  -8.614   8.731  1.00  0.00     0.251 C 
ATOM     34  H   UNL     1       3.571  -7.685   6.977  1.00  0.00     0.163 HD
ATOM     35  O   UNL     1       4.325  -8.922   8.992  1.00  0.00    -0.269 OA
BRANCH  33  36
ATOM     36  C   UNL     1       2.035  -9.180   9.488  1.00  0.00     0.039 A 
ATOM     37  C   UNL     1       1.990  -9.317  10.871  1.00  0.00     0.014 A 
ATOM     38  C   UNL     1       0.931  -9.517   8.722  1.00  0.00     0.014 A 
ATOM     39  C   UNL     1       0.789  -9.742  11.447  1.00  0.00     0.010 A 
ATOM     40  C   UNL     1      -0.299  -9.623   9.292  1.00  0.00     0.010 A 
ATOM     41  C   UNL     1      -0.359  -9.882  10.641  1.00  0.00    -0.014 A 
BRANCH  41  42
ATOM     42  C   UNL     1      -1.698 -10.114  11.164  1.00  0.00     0.031 A 
ATOM     43  C   UNL     1      -2.076  -9.081  12.152  1.00  0.00     0.074 A 
ATOM     44  C   UNL     1      -2.583 -10.996  10.636  1.00  0.00     0.049 A 
ATOM     45  N   UNL     1      -1.963  -9.180  13.433  1.00  0.00    -0.248 NA
ATOM     46  C   UNL     1      -2.322  -7.704  11.688  1.00  0.00     0.031 C 
ATOM     47  C   UNL     1      -2.440 -11.867   9.462  1.00  0.00     0.029 A 
ATOM     48  N   UNL     1      -3.861 -11.259  11.026  1.00  0.00    -0.354 N 
ATOM     49  C   UNL     1      -2.464  -7.990  13.934  1.00  0.00     0.074 A 
ATOM     50  C   UNL     1      -2.364  -7.050  12.852  1.00  0.00     0.031 C 
ATOM     51  C   UNL     1      -3.643 -12.398   9.127  1.00  0.00     0.029 A 
ATOM     52  C   UNL     1      -4.617 -12.041  10.145  1.00  0.00     0.049 A 
ATOM     53  H   UNL     1      -4.230 -10.921  11.873  1.00  0.00     0.167 HD
ATOM     54  C   UNL     1      -3.225  -7.997  15.063  1.00  0.00     0.034 A 
ATOM     55  C   UNL     1      -5.937 -12.384  10.265  1.00  0.00     0.034 A 
ATOM     56  C   UNL     1      -3.112  -9.281  15.736  1.00  0.00     0.049 A 
ATOM     57  C   UNL     1      -6.261 -12.252  11.710  1.00  0.00     0.074 A 
ATOM     58  C   UNL     1      -2.056 -10.026  16.230  1.00  0.00     0.029 A 
ATOM     59  N   UNL     1      -4.147 -10.180  15.573  1.00  0.00    -0.354 N 
ATOM     60  N   UNL     1      -5.723 -13.013  12.624  1.00  0.00    -0.248 NA
ATOM     61  C   UNL     1      -6.725 -10.955  12.179  1.00  0.00     0.031 C 
ATOM     62  C   UNL     1      -2.344 -11.371  15.846  1.00  0.00     0.029 A 
ATOM     63  C   UNL     1      -3.608 -11.404  15.253  1.00  0.00     0.049 A 
ATOM     64  H   UNL     1      -5.106  -9.979  15.669  1.00  0.00     0.167 HD
ATOM     65  C   UNL     1      -5.363 -12.146  13.645  1.00  0.00     0.074 A 
ATOM     66  C   UNL     1      -6.077 -10.901  13.348  1.00  0.00     0.031 C 
ATOM     67  C   UNL     1      -4.289 -12.407  14.450  1.00  0.00     0.034 A 
BRANCH  54  68
ATOM     68  C   UNL     1      -4.385  -7.059  15.329  1.00  0.00     0.023 A 
ATOM     69  C   UNL     1      -5.086  -7.262  16.532  1.00  0.00     0.031 A 
ATOM     70  C   UNL     1      -5.011  -6.202  14.395  1.00  0.00     0.131 A 
ATOM     71  C   UNL     1      -6.382  -6.754  16.708  1.00  0.00     0.055 A 
ATOM     72  C   UNL     1      -6.276  -5.646  14.603  1.00  0.00     0.041 A 
ATOM     73  F   UNL     1      -4.490  -5.912  13.199  1.00  0.00    -0.206 F 
ATOM     74  C   UNL     1      -6.987  -5.950  15.748  1.00  0.00     0.022 A 
BRANCH  71  75
ATOM     75  S   UNL     1      -7.328  -7.324  18.140  1.00  0.00     0.124 S 
ATOM     76  O   UNL     1      -7.277  -8.771  17.963  1.00  0.00    -0.237 OA
ATOM     77  O   UNL     1      -6.548  -6.781  19.247  1.00  0.00    -0.237 OA
ATOM     78  O   UNL     1      -8.640  -6.713  17.942  1.00  0.00    -0.744 OA
ENDBRANCH  71  75
ENDBRANCH  54  68
BRANCH  55  79
ATOM     79  C   UNL     1      -7.000 -12.454   9.207  1.00  0.00     0.023 A 
ATOM     80  C   UNL     1      -8.268 -13.066   9.398  1.00  0.00     0.031 A 
ATOM     81  C   UNL     1      -6.869 -11.645   8.057  1.00  0.00     0.131 A 
ATOM     82  C   UNL     1      -9.325 -12.846   8.473  1.00  0.00     0.055 A 
ATOM     83  C   UNL     1      -7.918 -11.421   7.159  1.00  0.00     0.041 A 
ATOM     84  F   UNL     1      -5.737 -10.967   7.815  1.00  0.00    -0.206 F 
ATOM     85  C   UNL     1      -9.154 -12.010   7.369  1.00  0.00     0.022 A 
BRANCH  82  86
ATOM     86  S   UNL     1     -10.985 -13.579   8.722  1.00  0.00     0.124 S 
ATOM     87  O   UNL     1     -10.738 -14.998   8.495  1.00  0.00    -0.237 OA
ATOM     88  O   UNL     1     -11.306 -13.187  10.089  1.00  0.00    -0.237 OA
ATOM     89  O   UNL     1     -11.806 -12.931   7.697  1.00  0.00    -0.744 OA
ENDBRANCH  82  86
ENDBRANCH  55  79
BRANCH  67  90
ATOM     90  C   UNL     1      -3.666 -13.794  14.390  1.00  0.00     0.023 A 
ATOM     91  C   UNL     1      -3.136 -14.416  13.231  1.00  0.00     0.031 A 
ATOM     92  C   UNL     1      -3.525 -14.479  15.610  1.00  0.00     0.131 A 
ATOM     93  C   UNL     1      -2.515 -15.681  13.327  1.00  0.00     0.055 A 
ATOM     94  C   UNL     1      -2.888 -15.715  15.704  1.00  0.00     0.041 A 
ATOM     95  F   UNL     1      -3.985 -13.937  16.749  1.00  0.00    -0.206 F 
ATOM     96  C   UNL     1      -2.387 -16.325  14.562  1.00  0.00     0.022 A 
BRANCH  93  97
ATOM     97  S   UNL     1      -1.888 -16.541  11.843  1.00  0.00     0.124 S 
ATOM     98  O   UNL     1      -2.986 -16.426  10.891  1.00  0.00    -0.237 OA
ATOM     99  O   UNL     1      -0.682 -15.782  11.521  1.00  0.00    -0.237 OA
ATOM    100  O   UNL     1      -1.637 -17.903  12.319  1.00  0.00    -0.744 OA
ENDBRANCH  93  97
ENDBRANCH  67  90
ENDBRANCH  41  42
ENDBRANCH  33  36
ENDBRANCH  31  32
ENDBRANCH  30  31
ENDBRANCH   1  30
TORSDOF 21
