REMARK SMILES O=C(Cc1ccccc1)Nc1cccc(C(=O)Nc2ccccc2C(=O)NCCCCNC(=O)c2ccc(-c3c4nc(c(-c5cc(S(=O)(=O)[O-])ccc5F)c5ccc([nH]5)c(-c5cc(S(=O)(=O)[O-])ccc5F)c5nc(c(-c6cc(S(=O)(=O)[O-])ccc6F)c6ccc3[nH]6)C=C5)C=C4)cc2)c1
REMARK SMILES IDX 28 1 27 2 25 3 26 4 24 6 19 7 20 8 21 9 23 10 22 11 18 12
REMARK SMILES IDX 16 13 17 14 15 16 11 17 12 18 98 19 13 20 14 21 10 22 1 23
REMARK SMILES IDX 2 24 3 26 4 27 5 28 9 29 6 30 8 31 7 32 29 33 30 34 31 35
REMARK SMILES IDX 32 36 33 37 34 39 35 40 36 41 97 42 37 43 96 44 38 45 39 46
REMARK SMILES IDX 40 47 90 48 41 49 95 50 89 51 91 52 42 53 94 54 88 55 87 56
REMARK SMILES IDX 43 58 75 59 55 60 74 61 56 62 59 63 73 64 92 65 57 66 58 67
REMARK SMILES IDX 72 69 93 70 60 71 44 72 45 73 53 74 46 75 52 76 54 77 51 78
REMARK SMILES IDX 47 79 48 80 49 81 50 82 76 83 77 84 85 85 78 86 84 87 86 88
REMARK SMILES IDX 83 89 79 90 80 91 81 92 82 93 61 94 62 95 70 96 63 97 69 98
REMARK SMILES IDX 71 99 68 100 64 101 65 102 66 103 67 104
REMARK H PARENT 27 5 18 15 10 25 32 38 91 57 59 68
REMARK Flexibility Score: inf
ROOT
ATOM      1  C   UNL     1      -0.264   5.905  -0.135  1.00  0.00     0.116 C 
ENDROOT
BRANCH   1   2
ATOM      2  N   UNL     1       1.038   5.286  -0.261  1.00  0.00    -0.352 N 
ATOM      3  C   UNL     1       1.489   4.082   0.221  1.00  0.00     0.253 C 
ATOM      4  O   UNL     1       2.665   3.779   0.009  1.00  0.00    -0.269 OA
ATOM      5  H   UNL     1       1.701   5.808  -0.770  1.00  0.00     0.163 HD
BRANCH   3   6
ATOM      6  C   UNL     1       0.659   3.189   1.082  1.00  0.00     0.063 A 
ATOM      7  C   UNL     1      -0.702   2.850   0.935  1.00  0.00     0.054 A 
ATOM      8  C   UNL     1      -1.331   2.139   1.978  1.00  0.00     0.027 A 
ATOM      9  C   UNL     1      -0.610   1.646   3.067  1.00  0.00     0.002 A 
ATOM     10  C   UNL     1       1.375   2.662   2.183  1.00  0.00     0.016 A 
ATOM     11  C   UNL     1       0.753   1.882   3.155  1.00  0.00     0.001 A 
BRANCH   7  12
ATOM     12  N   UNL     1      -1.548   3.071  -0.178  1.00  0.00    -0.321 N 
ATOM     13  C   UNL     1      -1.312   3.083  -1.538  1.00  0.00     0.255 C 
ATOM     14  O   UNL     1      -2.185   3.506  -2.293  1.00  0.00    -0.269 OA
ATOM     15  H   UNL     1      -2.485   3.251   0.065  1.00  0.00     0.170 HD
BRANCH  13  16
ATOM     16  C   UNL     1      -0.055   2.559  -2.106  1.00  0.00     0.042 A 
ATOM     17  C   UNL     1       1.862   1.123  -1.883  1.00  0.00     0.041 A 
ATOM     18  C   UNL     1       2.484   1.821  -2.927  1.00  0.00     0.026 A 
ATOM     19  C   UNL     1       0.559   1.445  -1.535  1.00  0.00     0.040 A 
ATOM     20  C   UNL     1       1.810   2.845  -3.600  1.00  0.00     0.003 A 
ATOM     21  C   UNL     1       0.537   3.221  -3.184  1.00  0.00     0.014 A 
BRANCH  17  22
ATOM     22  N   UNL     1       2.634   0.207  -1.149  1.00  0.00    -0.326 N 
ATOM     23  O   UNL     1       1.083  -0.738   0.326  1.00  0.00    -0.274 OA
ATOM     24  C   UNL     1       2.235  -0.562  -0.066  1.00  0.00     0.228 C 
ATOM     25  H   UNL     1       3.569   0.098  -1.438  1.00  0.00     0.169 HD
BRANCH  24  26
ATOM     26  C   UNL     1       3.404  -1.169   0.695  1.00  0.00     0.135 C 
BRANCH  26  27
ATOM     27  C   UNL     1       4.229  -2.093  -0.163  1.00  0.00    -0.039 A 
ATOM     28  C   UNL     1       3.787  -3.398  -0.412  1.00  0.00     0.004 A 
ATOM     29  C   UNL     1       5.391  -1.628  -0.795  1.00  0.00     0.004 A 
ATOM     30  C   UNL     1       4.487  -4.220  -1.293  1.00  0.00     0.000 A 
ATOM     31  C   UNL     1       6.078  -2.446  -1.690  1.00  0.00     0.000 A 
ATOM     32  C   UNL     1       5.625  -3.740  -1.940  1.00  0.00     0.000 A 
ENDBRANCH  26  27
ENDBRANCH  24  26
ENDBRANCH  17  22
ENDBRANCH  13  16
ENDBRANCH   7  12
ENDBRANCH   3   6
ENDBRANCH   1   2
BRANCH   1  33
ATOM     33  C   UNL     1      -0.259   7.420  -0.298  1.00  0.00     0.023 C 
BRANCH  33  34
ATOM     34  C   UNL     1       0.245   7.958  -1.640  1.00  0.00     0.023 C 
BRANCH  34  35
ATOM     35  C   UNL     1      -0.252   7.259  -2.904  1.00  0.00     0.116 C 
BRANCH  35  36
ATOM     36  N   UNL     1      -1.698   7.266  -3.066  1.00  0.00    -0.352 N 
ATOM     37  C   UNL     1      -2.459   7.772  -4.097  1.00  0.00     0.251 C 
ATOM     38  H   UNL     1      -2.206   6.848  -2.334  1.00  0.00     0.163 HD
ATOM     39  O   UNL     1      -3.685   7.773  -4.023  1.00  0.00    -0.269 OA
BRANCH  37  40
ATOM     40  C   UNL     1      -1.787   8.361  -5.275  1.00  0.00     0.039 A 
ATOM     41  C   UNL     1      -2.103   9.669  -5.651  1.00  0.00     0.014 A 
ATOM     42  C   UNL     1      -0.802   7.648  -5.962  1.00  0.00     0.014 A 
ATOM     43  C   UNL     1      -1.349  10.304  -6.641  1.00  0.00     0.010 A 
ATOM     44  C   UNL     1      -0.009   8.305  -6.900  1.00  0.00     0.010 A 
ATOM     45  C   UNL     1      -0.254   9.649  -7.230  1.00  0.00    -0.014 A 
BRANCH  45  46
ATOM     46  C   UNL     1       0.676  10.355  -8.153  1.00  0.00     0.031 A 
ATOM     47  C   UNL     1       0.832   9.884  -9.573  1.00  0.00     0.074 A 
ATOM     48  C   UNL     1       1.458  11.350  -7.682  1.00  0.00     0.049 A 
ATOM     49  N   UNL     1       1.694  10.264 -10.480  1.00  0.00    -0.248 NA
ATOM     50  C   UNL     1      -0.084   8.823 -10.020  1.00  0.00     0.031 C 
ATOM     51  C   UNL     1       1.432  11.873  -6.312  1.00  0.00     0.029 A 
ATOM     52  N   UNL     1       2.446  12.086  -8.292  1.00  0.00    -0.354 N 
ATOM     53  C   UNL     1       1.449   9.468 -11.594  1.00  0.00     0.074 A 
ATOM     54  C   UNL     1       0.378   8.563 -11.235  1.00  0.00     0.031 C 
ATOM     55  C   UNL     1       2.351  12.844  -6.192  1.00  0.00     0.029 A 
ATOM     56  C   UNL     1       3.071  12.983  -7.453  1.00  0.00     0.049 A 
ATOM     57  H   UNL     1       2.685  11.981  -9.241  1.00  0.00     0.167 HD
ATOM     58  C   UNL     1       2.056   9.498 -12.806  1.00  0.00     0.034 A 
ATOM     59  C   UNL     1       4.120  13.805  -7.667  1.00  0.00     0.034 A 
ATOM     60  C   UNL     1       3.093  10.433 -13.165  1.00  0.00     0.049 A 
ATOM     61  C   UNL     1       4.771  13.819  -9.029  1.00  0.00     0.074 A 
ATOM     62  C   UNL     1       3.708  10.602 -14.394  1.00  0.00     0.029 A 
ATOM     63  N   UNL     1       3.672  11.351 -12.301  1.00  0.00    -0.354 N 
ATOM     64  N   UNL     1       4.481  13.102 -10.090  1.00  0.00    -0.248 NA
ATOM     65  C   UNL     1       5.886  14.757  -9.226  1.00  0.00     0.031 C 
ATOM     66  C   UNL     1       4.700  11.578 -14.257  1.00  0.00     0.029 A 
ATOM     67  C   UNL     1       4.657  12.068 -12.962  1.00  0.00     0.049 A 
ATOM     68  H   UNL     1       3.421  11.475 -11.357  1.00  0.00     0.167 HD
ATOM     69  C   UNL     1       5.348  13.537 -11.089  1.00  0.00     0.074 A 
ATOM     70  C   UNL     1       6.167  14.579 -10.509  1.00  0.00     0.031 C 
ATOM     71  C   UNL     1       5.455  13.116 -12.374  1.00  0.00     0.034 A 
BRANCH  58  72
ATOM     72  C   UNL     1       1.632   8.476 -13.829  1.00  0.00     0.023 A 
ATOM     73  C   UNL     1       0.347   8.482 -14.396  1.00  0.00     0.031 A 
ATOM     74  C   UNL     1       2.540   7.490 -14.257  1.00  0.00     0.131 A 
ATOM     75  C   UNL     1      -0.012   7.490 -15.321  1.00  0.00     0.055 A 
ATOM     76  C   UNL     1       2.198   6.548 -15.228  1.00  0.00     0.041 A 
ATOM     77  F   UNL     1       3.775   7.427 -13.736  1.00  0.00    -0.206 F 
ATOM     78  C   UNL     1       0.912   6.538 -15.759  1.00  0.00     0.022 A 
BRANCH  75  79
ATOM     79  S   UNL     1      -1.737   7.402 -15.873  1.00  0.00     0.124 S 
ATOM     80  O   UNL     1      -2.433   7.122 -14.619  1.00  0.00    -0.237 OA
ATOM     81  O   UNL     1      -1.956   8.726 -16.442  1.00  0.00    -0.237 OA
ATOM     82  O   UNL     1      -1.733   6.301 -16.835  1.00  0.00    -0.744 OA
ENDBRANCH  75  79
ENDBRANCH  58  72
BRANCH  59  83
ATOM     83  C   UNL     1       4.654  14.668  -6.572  1.00  0.00     0.023 A 
ATOM     84  C   UNL     1       4.642  16.068  -6.685  1.00  0.00     0.031 A 
ATOM     85  C   UNL     1       5.262  14.107  -5.434  1.00  0.00     0.131 A 
ATOM     86  C   UNL     1       5.286  16.855  -5.718  1.00  0.00     0.055 A 
ATOM     87  C   UNL     1       5.847  14.898  -4.443  1.00  0.00     0.041 A 
ATOM     88  F   UNL     1       5.300  12.774  -5.271  1.00  0.00    -0.206 F 
ATOM     89  C   UNL     1       5.879  16.280  -4.592  1.00  0.00     0.022 A 
BRANCH  86  90
ATOM     90  S   UNL     1       5.453  18.637  -6.022  1.00  0.00     0.124 S 
ATOM     91  O   UNL     1       6.083  18.655  -7.337  1.00  0.00    -0.237 OA
ATOM     92  O   UNL     1       4.065  19.082  -5.969  1.00  0.00    -0.237 OA
ATOM     93  O   UNL     1       6.296  19.092  -4.919  1.00  0.00    -0.744 OA
ENDBRANCH  86  90
ENDBRANCH  59  83
BRANCH  71  94
ATOM     94  C   UNL     1       6.442  13.835 -13.258  1.00  0.00     0.023 A 
ATOM     95  C   UNL     1       7.830  13.713 -13.076  1.00  0.00     0.031 A 
ATOM     96  C   UNL     1       5.978  14.650 -14.306  1.00  0.00     0.131 A 
ATOM     97  C   UNL     1       8.707  14.429 -13.905  1.00  0.00     0.055 A 
ATOM     98  C   UNL     1       6.855  15.318 -15.160  1.00  0.00     0.041 A 
ATOM     99  F   UNL     1       4.661  14.800 -14.523  1.00  0.00    -0.206 F 
ATOM    100  C   UNL     1       8.228  15.217 -14.956  1.00  0.00     0.022 A 
BRANCH  97 101
ATOM    101  S   UNL     1      10.485  14.368 -13.555  1.00  0.00     0.124 S 
ATOM    102  O   UNL     1      10.550  14.925 -12.208  1.00  0.00    -0.237 OA
ATOM    103  O   UNL     1      10.778  12.943 -13.670  1.00  0.00    -0.237 OA
ATOM    104  O   UNL     1      11.070  15.204 -14.602  1.00  0.00    -0.744 OA
ENDBRANCH  97 101
ENDBRANCH  71  94
ENDBRANCH  45  46
ENDBRANCH  37  40
ENDBRANCH  35  36
ENDBRANCH  34  35
ENDBRANCH  33  34
ENDBRANCH   1  33
TORSDOF 19
