REMARK SMILES COC(=O)Cc1nc(NC(=O)[C@H]2CC[C@@H]2C(=O)NCCCCNC(=O)c2ccc(-c3c4nc(c(-c5cc(S(=O)(=O)[O-])ccc5F)c5ccc([nH]5)c(-c5cc(S(=O)(=O)[O-])ccc5F)c5nc(c(-c6cc(S(=O)(=O)[O-])ccc6F)c6ccc3[nH]6)C=C5)C=C4)cc2)sc1C
REMARK SMILES IDX 19 1 18 2 16 3 17 4 15 6 12 7 13 8 14 9 10 10 9 11 11 13
REMARK SMILES IDX 8 14 6 15 7 16 90 17 89 18 91 19 5 20 3 21 4 22 2 23 1 24
REMARK SMILES IDX 20 25 21 26 22 27 23 28 24 29 25 31 26 32 27 33 88 34 28 35
REMARK SMILES IDX 87 36 29 37 30 38 31 39 81 40 32 41 86 42 80 43 82 44 33 45
REMARK SMILES IDX 85 46 79 47 78 48 34 50 66 51 46 52 65 53 47 54 50 55 64 56
REMARK SMILES IDX 83 57 48 58 49 59 63 61 84 62 51 63 35 64 36 65 44 66 37 67
REMARK SMILES IDX 43 68 45 69 42 70 38 71 39 72 40 73 41 74 67 75 68 76 76 77
REMARK SMILES IDX 69 78 75 79 77 80 74 81 70 82 71 83 72 84 73 85 52 86 53 87
REMARK SMILES IDX 61 88 54 89 60 90 62 91 59 92 55 93 56 94 57 95 58 96
REMARK H PARENT 18 5 9 12 23 30 82 49 50 60
REMARK Flexibility Score: inf
ROOT
ATOM      1  C   UNL     1       6.092   9.184   2.232  1.00  0.00     0.116 C 
ENDROOT
BRANCH   1   2
ATOM      2  N   UNL     1       4.884   9.418   2.990  1.00  0.00    -0.356 N 
ATOM      3  C   UNL     1       3.576   9.214   2.624  1.00  0.00     0.223 C 
ATOM      4  O   UNL     1       2.725   9.443   3.494  1.00  0.00    -0.275 OA
ATOM      5  H   UNL     1       5.018   9.774   3.898  1.00  0.00     0.163 HD
BRANCH   3   6
ATOM      6  C   UNL     1       3.206   8.720   1.198  1.00  0.00     0.091 C 
ATOM      7  C   UNL     1       1.973   7.718   1.166  1.00  0.00     0.091 C 
ATOM      8  C   UNL     1       3.047   6.590   1.101  1.00  0.00     0.015 C 
ATOM      9  C   UNL     1       3.997   7.599   0.474  1.00  0.00     0.015 C 
BRANCH   7  10
ATOM     10  C   UNL     1       0.952   7.850   0.003  1.00  0.00     0.230 C 
ATOM     11  N   UNL     1       0.213   6.766  -0.426  1.00  0.00    -0.302 N 
ATOM     12  H   UNL     1      -0.348   6.923  -1.220  1.00  0.00     0.172 HD
ATOM     13  O   UNL     1       0.824   8.896  -0.652  1.00  0.00    -0.274 OA
BRANCH  11  14
ATOM     14  C   UNL     1       0.149   5.505   0.097  1.00  0.00     0.189 A 
ATOM     15  C   UNL     1       0.270   3.294   0.093  1.00  0.00     0.068 A 
ATOM     16  N   UNL     1      -0.056   4.441  -0.639  1.00  0.00    -0.224 NA
ATOM     17  C   UNL     1       0.622   3.558   1.412  1.00  0.00     0.027 A 
ATOM     18  S   UNL     1       0.253   5.199   1.764  1.00  0.00    -0.102 S 
ATOM     19  C   UNL     1       1.237   2.715   2.473  1.00  0.00     0.058 C 
BRANCH  15  20
ATOM     20  C   UNL     1       0.228   2.004  -0.664  1.00  0.00     0.180 C 
BRANCH  20  21
ATOM     21  C   UNL     1       0.972   0.862  -0.033  1.00  0.00     0.311 C 
ATOM     22  O   UNL     1       0.432  -0.072   0.546  1.00  0.00    -0.252 OA
BRANCH  21  23
ATOM     23  O   UNL     1       2.319   1.010  -0.181  1.00  0.00    -0.469 OA
ATOM     24  C   UNL     1       3.088  -0.022   0.439  1.00  0.00     0.282 C 
ENDBRANCH  21  23
ENDBRANCH  20  21
ENDBRANCH  15  20
ENDBRANCH  11  14
ENDBRANCH   7  10
ENDBRANCH   3   6
ENDBRANCH   1   2
BRANCH   1  25
ATOM     25  C   UNL     1       7.219  10.160   2.544  1.00  0.00     0.023 C 
BRANCH  25  26
ATOM     26  C   UNL     1       7.646  10.251   4.007  1.00  0.00     0.023 C 
BRANCH  26  27
ATOM     27  C   UNL     1       8.006   8.929   4.675  1.00  0.00     0.116 C 
BRANCH  27  28
ATOM     28  N   UNL     1       9.162   8.283   4.072  1.00  0.00    -0.352 N 
ATOM     29  C   UNL     1      10.398   8.002   4.616  1.00  0.00     0.251 C 
ATOM     30  H   UNL     1       9.045   8.006   3.134  1.00  0.00     0.163 HD
ATOM     31  O   UNL     1      11.296   7.585   3.899  1.00  0.00    -0.269 OA
BRANCH  29  32
ATOM     32  C   UNL     1      10.637   8.240   6.058  1.00  0.00     0.039 A 
ATOM     33  C   UNL     1      11.785   8.932   6.453  1.00  0.00     0.014 A 
ATOM     34  C   UNL     1       9.719   7.803   7.015  1.00  0.00     0.014 A 
ATOM     35  C   UNL     1      11.963   9.271   7.799  1.00  0.00     0.010 A 
ATOM     36  C   UNL     1       9.857   8.211   8.339  1.00  0.00     0.010 A 
ATOM     37  C   UNL     1      10.975   8.957   8.745  1.00  0.00    -0.014 A 
BRANCH  37  38
ATOM     38  C   UNL     1      11.077   9.382  10.168  1.00  0.00     0.031 A 
ATOM     39  C   UNL     1      11.119   8.340  11.253  1.00  0.00     0.074 A 
ATOM     40  C   UNL     1      11.027  10.690  10.490  1.00  0.00     0.049 A 
ATOM     41  N   UNL     1      11.017   8.484  12.549  1.00  0.00    -0.248 NA
ATOM     42  C   UNL     1      11.256   6.944  10.812  1.00  0.00     0.031 C 
ATOM     43  C   UNL     1      10.965  11.798   9.534  1.00  0.00     0.029 A 
ATOM     44  N   UNL     1      10.998  11.312  11.715  1.00  0.00    -0.354 N 
ATOM     45  C   UNL     1      11.051   7.198  13.077  1.00  0.00     0.074 A 
ATOM     46  C   UNL     1      11.126   6.287  11.954  1.00  0.00     0.031 C 
ATOM     47  C   UNL     1      10.918  12.959  10.206  1.00  0.00     0.029 A 
ATOM     48  C   UNL     1      10.887  12.682  11.639  1.00  0.00     0.049 A 
ATOM     49  H   UNL     1      11.053  10.823  12.568  1.00  0.00     0.167 HD
ATOM     50  C   UNL     1      11.039   6.813  14.378  1.00  0.00     0.034 A 
ATOM     51  C   UNL     1      10.748  13.608  12.611  1.00  0.00     0.034 A 
ATOM     52  C   UNL     1      10.983   7.735  15.485  1.00  0.00     0.049 A 
ATOM     53  C   UNL     1      10.707  13.156  14.050  1.00  0.00     0.074 A 
ATOM     54  C   UNL     1      11.006   7.457  16.841  1.00  0.00     0.029 A 
ATOM     55  N   UNL     1      10.893   9.117  15.366  1.00  0.00    -0.354 N 
ATOM     56  N   UNL     1      10.759  11.937  14.535  1.00  0.00    -0.248 NA
ATOM     57  C   UNL     1      10.597  14.204  15.074  1.00  0.00     0.031 C 
ATOM     58  C   UNL     1      10.867   8.661  17.540  1.00  0.00     0.029 A 
ATOM     59  C   UNL     1      10.838   9.700  16.623  1.00  0.00     0.049 A 
ATOM     60  H   UNL     1      10.870   9.609  14.514  1.00  0.00     0.167 HD
ATOM     61  C   UNL     1      10.733  12.078  15.920  1.00  0.00     0.074 A 
ATOM     62  C   UNL     1      10.660  13.497  16.193  1.00  0.00     0.031 C 
ATOM     63  C   UNL     1      10.777  11.119  16.880  1.00  0.00     0.034 A 
BRANCH  50  64
ATOM     64  C   UNL     1      11.060   5.330  14.663  1.00  0.00     0.023 A 
ATOM     65  C   UNL     1      12.141   4.519  14.275  1.00  0.00     0.031 A 
ATOM     66  C   UNL     1       9.971   4.711  15.302  1.00  0.00     0.131 A 
ATOM     67  C   UNL     1      12.074   3.129  14.454  1.00  0.00     0.055 A 
ATOM     68  C   UNL     1       9.949   3.338  15.557  1.00  0.00     0.041 A 
ATOM     69  F   UNL     1       8.900   5.428  15.677  1.00  0.00    -0.206 F 
ATOM     70  C   UNL     1      10.998   2.536  15.117  1.00  0.00     0.022 A 
BRANCH  67  71
ATOM     71  S   UNL     1      13.341   2.096  13.670  1.00  0.00     0.124 S 
ATOM     72  O   UNL     1      13.175   2.447  12.261  1.00  0.00    -0.237 OA
ATOM     73  O   UNL     1      14.567   2.562  14.305  1.00  0.00    -0.237 OA
ATOM     74  O   UNL     1      12.936   0.735  14.016  1.00  0.00    -0.744 OA
ENDBRANCH  67  71
ENDBRANCH  50  64
BRANCH  51  75
ATOM     75  C   UNL     1      10.621  15.054  12.268  1.00  0.00     0.023 A 
ATOM     76  C   UNL     1      11.599  15.979  12.666  1.00  0.00     0.031 A 
ATOM     77  C   UNL     1       9.495  15.543  11.580  1.00  0.00     0.131 A 
ATOM     78  C   UNL     1      11.411  17.348  12.421  1.00  0.00     0.055 A 
ATOM     79  C   UNL     1       9.340  16.899  11.289  1.00  0.00     0.041 A 
ATOM     80  F   UNL     1       8.531  14.702  11.171  1.00  0.00    -0.206 F 
ATOM     81  C   UNL     1      10.295  17.813  11.723  1.00  0.00     0.022 A 
BRANCH  78  82
ATOM     82  S   UNL     1      12.607  18.525  13.112  1.00  0.00     0.124 S 
ATOM     83  O   UNL     1      12.532  18.220  14.537  1.00  0.00    -0.237 OA
ATOM     84  O   UNL     1      13.839  18.136  12.435  1.00  0.00    -0.237 OA
ATOM     85  O   UNL     1      12.067  19.826  12.722  1.00  0.00    -0.744 OA
ENDBRANCH  78  82
ENDBRANCH  51  75
BRANCH  63  86
ATOM     86  C   UNL     1      10.829  11.579  18.316  1.00  0.00     0.023 A 
ATOM     87  C   UNL     1       9.736  12.200  18.944  1.00  0.00     0.031 A 
ATOM     88  C   UNL     1      11.999  11.374  19.070  1.00  0.00     0.131 A 
ATOM     89  C   UNL     1       9.851  12.632  20.274  1.00  0.00     0.055 A 
ATOM     90  C   UNL     1      12.088  11.756  20.409  1.00  0.00     0.041 A 
ATOM     91  F   UNL     1      13.073  10.786  18.518  1.00  0.00    -0.206 F 
ATOM     92  C   UNL     1      11.013  12.399  21.015  1.00  0.00     0.022 A 
BRANCH  89  93
ATOM     93  S   UNL     1       8.482  13.568  21.011  1.00  0.00     0.124 S 
ATOM     94  O   UNL     1       8.393  14.724  20.125  1.00  0.00    -0.237 OA
ATOM     95  O   UNL     1       7.377  12.618  20.932  1.00  0.00    -0.237 OA
ATOM     96  O   UNL     1       8.953  13.858  22.364  1.00  0.00    -0.744 OA
ENDBRANCH  89  93
ENDBRANCH  63  86
ENDBRANCH  37  38
ENDBRANCH  29  32
ENDBRANCH  27  28
ENDBRANCH  26  27
ENDBRANCH  25  26
ENDBRANCH   1  25
TORSDOF 19
