REMARK SMILES Cc1ccc(C(C)C)c(OCC(=O)Nc2nc(CC(=O)NCCCCNC(=O)c3ccc(-c4c5nc(c(-c6cc(S(=O)(=O)[O-])ccc6F)c6ccc([nH]6)c(-c6cc(S(=O)(=O)[O-])ccc6F)c6nc(c(-c7cc(S(=O)(=O)[O-])ccc7F)c7ccc4[nH]7)C=C6)C=C5)cc3)cs2)c1
REMARK SMILES IDX 22 1 21 2 19 3 20 4 18 6 17 7 15 8 16 9 93 10 92 11 14 12
REMARK SMILES IDX 12 13 13 14 11 16 10 17 9 18 1 19 2 20 3 21 94 22 4 23 5 24
REMARK SMILES IDX 6 25 7 26 8 27 23 28 24 29 25 30 26 31 27 32 28 34 29 35
REMARK SMILES IDX 30 36 91 37 31 38 90 39 32 40 33 41 34 42 84 43 35 44 89 45
REMARK SMILES IDX 83 46 85 47 36 48 88 49 82 50 81 51 37 53 69 54 49 55 68 56
REMARK SMILES IDX 50 57 53 58 67 59 86 60 51 61 52 62 66 64 87 65 54 66 38 67
REMARK SMILES IDX 39 68 47 69 40 70 46 71 48 72 45 73 41 74 42 75 43 76 44 77
REMARK SMILES IDX 70 78 71 79 79 80 72 81 78 82 80 83 77 84 73 85 74 86 75 87
REMARK SMILES IDX 76 88 55 89 56 90 64 91 57 92 63 93 65 94 62 95 58 96 59 97
REMARK SMILES IDX 60 98 61 99
REMARK H PARENT 21 5 14 15 26 33 85 52 53 63
REMARK Flexibility Score: inf
ROOT
ATOM      1  C   UNL     1      -3.786   0.335   3.651  1.00  0.00     0.116 C 
ENDROOT
BRANCH   1   2
ATOM      2  N   UNL     1      -5.217   0.566   3.836  1.00  0.00    -0.356 N 
ATOM      3  C   UNL     1      -6.056   1.412   3.167  1.00  0.00     0.226 C 
ATOM      4  O   UNL     1      -7.248   1.434   3.487  1.00  0.00    -0.275 OA
ATOM      5  H   UNL     1      -5.640   0.033   4.548  1.00  0.00     0.163 HD
BRANCH   3   6
ATOM      6  C   UNL     1      -5.535   2.303   2.052  1.00  0.00     0.157 C 
BRANCH   6   7
ATOM      7  C   UNL     1      -4.555   3.310   2.551  1.00  0.00     0.063 A 
ATOM      8  C   UNL     1      -2.520   4.139   2.568  1.00  0.00     0.189 A 
ATOM      9  N   UNL     1      -3.373   3.466   1.847  1.00  0.00    -0.224 NA
ATOM     10  S   UNL     1      -3.136   4.850   3.992  1.00  0.00    -0.105 S 
ATOM     11  C   UNL     1      -4.648   4.092   3.689  1.00  0.00     0.093 A 
BRANCH   8  12
ATOM     12  N   UNL     1      -1.198   4.357   2.346  1.00  0.00    -0.299 N 
ATOM     13  C   UNL     1      -0.504   4.054   1.213  1.00  0.00     0.264 C 
ATOM     14  O   UNL     1       0.702   4.334   1.193  1.00  0.00    -0.271 OA
ATOM     15  H   UNL     1      -0.690   4.778   3.077  1.00  0.00     0.172 HD
BRANCH  13  16
ATOM     16  C   UNL     1      -1.208   3.545  -0.055  1.00  0.00     0.329 C 
BRANCH  16  17
ATOM     17  O   UNL     1      -1.743   2.238  -0.059  1.00  0.00    -0.483 OA
BRANCH  17  18
ATOM     18  C   UNL     1      -0.943   1.189  -0.423  1.00  0.00     0.123 A 
ATOM     19  C   UNL     1       2.717   0.153  -0.683  1.00  0.00     0.044 C 
ATOM     20  C   UNL     1       1.220   0.120  -0.772  1.00  0.00    -0.047 A 
ATOM     21  C   UNL     1       0.572  -1.067  -1.114  1.00  0.00     0.004 A 
ATOM     22  C   UNL     1       0.456   1.246  -0.438  1.00  0.00     0.050 A 
ATOM     23  C   UNL     1      -0.820  -1.137  -1.096  1.00  0.00     0.008 A 
ATOM     24  C   UNL     1      -1.597  -0.021  -0.742  1.00  0.00    -0.003 A 
BRANCH  24  25
ATOM     25  C   UNL     1      -3.110  -0.164  -0.639  1.00  0.00     0.017 C 
ATOM     26  C   UNL     1      -3.748  -0.575  -1.968  1.00  0.00     0.012 C 
ATOM     27  C   UNL     1      -3.489  -1.162   0.459  1.00  0.00     0.012 C 
ENDBRANCH  24  25
ENDBRANCH  17  18
ENDBRANCH  16  17
ENDBRANCH  13  16
ENDBRANCH   8  12
ENDBRANCH   6   7
ENDBRANCH   3   6
ENDBRANCH   1   2
BRANCH   1  28
ATOM     28  C   UNL     1      -2.923   0.897   4.790  1.00  0.00     0.023 C 
BRANCH  28  29
ATOM     29  C   UNL     1      -3.217   0.346   6.185  1.00  0.00     0.023 C 
BRANCH  29  30
ATOM     30  C   UNL     1      -2.945  -1.144   6.336  1.00  0.00     0.116 C 
BRANCH  30  31
ATOM     31  N   UNL     1      -1.721  -1.492   7.038  1.00  0.00    -0.352 N 
ATOM     32  C   UNL     1      -1.250  -2.754   7.380  1.00  0.00     0.251 C 
ATOM     33  H   UNL     1      -1.151  -0.736   7.307  1.00  0.00     0.163 HD
ATOM     34  O   UNL     1      -0.291  -2.893   8.120  1.00  0.00    -0.269 OA
BRANCH  32  35
ATOM     35  C   UNL     1      -1.858  -3.947   6.730  1.00  0.00     0.039 A 
ATOM     36  C   UNL     1      -0.989  -4.867   6.128  1.00  0.00     0.014 A 
ATOM     37  C   UNL     1      -3.229  -4.047   6.520  1.00  0.00     0.014 A 
ATOM     38  C   UNL     1      -1.472  -5.725   5.141  1.00  0.00     0.010 A 
ATOM     39  C   UNL     1      -3.689  -4.808   5.466  1.00  0.00     0.010 A 
ATOM     40  C   UNL     1      -2.802  -5.609   4.743  1.00  0.00    -0.014 A 
BRANCH  40  41
ATOM     41  C   UNL     1      -3.333  -6.192   3.518  1.00  0.00     0.031 A 
ATOM     42  C   UNL     1      -4.235  -7.356   3.568  1.00  0.00     0.074 A 
ATOM     43  C   UNL     1      -3.056  -5.613   2.330  1.00  0.00     0.049 A 
ATOM     44  N   UNL     1      -4.370  -8.208   2.610  1.00  0.00    -0.248 NA
ATOM     45  C   UNL     1      -5.048  -7.669   4.737  1.00  0.00     0.031 C 
ATOM     46  C   UNL     1      -3.666  -5.890   1.032  1.00  0.00     0.029 A 
ATOM     47  N   UNL     1      -1.954  -4.823   2.031  1.00  0.00    -0.354 N 
ATOM     48  C   UNL     1      -5.473  -8.978   2.894  1.00  0.00     0.074 A 
ATOM     49  C   UNL     1      -5.815  -8.654   4.260  1.00  0.00     0.031 C 
ATOM     50  C   UNL     1      -2.810  -5.518   0.066  1.00  0.00     0.029 A 
ATOM     51  C   UNL     1      -1.571  -5.128   0.716  1.00  0.00     0.049 A 
ATOM     52  H   UNL     1      -1.522  -4.172   2.630  1.00  0.00     0.167 HD
ATOM     53  C   UNL     1      -6.069  -9.693   1.898  1.00  0.00     0.034 A 
ATOM     54  C   UNL     1      -0.341  -5.662   0.461  1.00  0.00     0.034 A 
ATOM     55  C   UNL     1      -5.368  -9.534   0.625  1.00  0.00     0.049 A 
ATOM     56  C   UNL     1      -0.410  -7.019  -0.212  1.00  0.00     0.074 A 
ATOM     57  C   UNL     1      -5.628  -8.778  -0.507  1.00  0.00     0.029 A 
ATOM     58  N   UNL     1      -4.062  -9.996   0.493  1.00  0.00    -0.354 N 
ATOM     59  N   UNL     1      -1.461  -7.794  -0.205  1.00  0.00    -0.248 NA
ATOM     60  C   UNL     1       0.703  -7.604  -0.949  1.00  0.00     0.031 C 
ATOM     61  C   UNL     1      -4.457  -8.764  -1.308  1.00  0.00     0.029 A 
ATOM     62  C   UNL     1      -3.494  -9.531  -0.677  1.00  0.00     0.049 A 
ATOM     63  H   UNL     1      -3.606 -10.575   1.145  1.00  0.00     0.167 HD
ATOM     64  C   UNL     1      -1.200  -8.945  -0.913  1.00  0.00     0.074 A 
ATOM     65  C   UNL     1       0.171  -8.768  -1.362  1.00  0.00     0.031 C 
ATOM     66  C   UNL     1      -2.143  -9.930  -1.060  1.00  0.00     0.034 A 
BRANCH  53  67
ATOM     67  C   UNL     1      -7.463 -10.268   2.016  1.00  0.00     0.023 A 
ATOM     68  C   UNL     1      -8.286 -10.334   0.873  1.00  0.00     0.031 A 
ATOM     69  C   UNL     1      -8.051 -10.727   3.210  1.00  0.00     0.131 A 
ATOM     70  C   UNL     1      -9.639 -10.710   0.961  1.00  0.00     0.055 A 
ATOM     71  C   UNL     1      -9.413 -11.042   3.313  1.00  0.00     0.041 A 
ATOM     72  F   UNL     1      -7.321 -10.935   4.315  1.00  0.00    -0.206 F 
ATOM     73  C   UNL     1     -10.221 -11.018   2.186  1.00  0.00     0.022 A 
BRANCH  70  74
ATOM     74  S   UNL     1     -10.626 -10.804  -0.558  1.00  0.00     0.124 S 
ATOM     75  O   UNL     1     -10.536  -9.441  -1.073  1.00  0.00    -0.237 OA
ATOM     76  O   UNL     1      -9.923 -11.830  -1.320  1.00  0.00    -0.237 OA
ATOM     77  O   UNL     1     -11.951 -11.194  -0.077  1.00  0.00    -0.744 OA
ENDBRANCH  70  74
ENDBRANCH  53  67
BRANCH  54  78
ATOM     78  C   UNL     1       0.708  -5.209   1.432  1.00  0.00     0.023 A 
ATOM     79  C   UNL     1       0.823  -3.815   1.651  1.00  0.00     0.031 A 
ATOM     80  C   UNL     1       1.276  -6.060   2.387  1.00  0.00     0.131 A 
ATOM     81  C   UNL     1       1.298  -3.319   2.873  1.00  0.00     0.055 A 
ATOM     82  C   UNL     1       1.845  -5.554   3.566  1.00  0.00     0.041 A 
ATOM     83  F   UNL     1       1.182  -7.391   2.260  1.00  0.00    -0.206 F 
ATOM     84  C   UNL     1       1.816  -4.183   3.834  1.00  0.00     0.022 A 
BRANCH  81  85
ATOM     85  S   UNL     1       0.923  -1.587   3.301  1.00  0.00     0.124 S 
ATOM     86  O   UNL     1       2.008  -0.872   2.639  1.00  0.00    -0.237 OA
ATOM     87  O   UNL     1      -0.417  -1.405   2.746  1.00  0.00    -0.237 OA
ATOM     88  O   UNL     1       0.964  -1.571   4.761  1.00  0.00    -0.744 OA
ENDBRANCH  81  85
ENDBRANCH  54  78
BRANCH  66  89
ATOM     89  C   UNL     1      -1.951 -11.327  -1.645  1.00  0.00     0.023 A 
ATOM     90  C   UNL     1      -0.718 -11.850  -2.055  1.00  0.00     0.031 A 
ATOM     91  C   UNL     1      -3.046 -12.227  -1.760  1.00  0.00     0.131 A 
ATOM     92  C   UNL     1      -0.606 -13.152  -2.586  1.00  0.00     0.055 A 
ATOM     93  C   UNL     1      -2.926 -13.538  -2.234  1.00  0.00     0.041 A 
ATOM     94  F   UNL     1      -4.293 -11.886  -1.404  1.00  0.00    -0.206 F 
ATOM     95  C   UNL     1      -1.699 -14.008  -2.661  1.00  0.00     0.022 A 
BRANCH  92  96
ATOM     96  S   UNL     1       1.008 -13.689  -3.212  1.00  0.00     0.124 S 
ATOM     97  O   UNL     1       1.225 -12.764  -4.320  1.00  0.00    -0.237 OA
ATOM     98  O   UNL     1       1.873 -13.498  -2.051  1.00  0.00    -0.237 OA
ATOM     99  O   UNL     1       0.786 -15.081  -3.599  1.00  0.00    -0.744 OA
ENDBRANCH  92  96
ENDBRANCH  66  89
ENDBRANCH  40  41
ENDBRANCH  32  35
ENDBRANCH  30  31
ENDBRANCH  29  30
ENDBRANCH  28  29
ENDBRANCH   1  28
TORSDOF 20
