REMARK SMILES C=C(C)C[C@@]1(C(=O)NCCCCNC(=O)c2ccc(-c3c4nc(c(-c5cc(S(=O)(=O)[O-])ccc5F)c5ccc([nH]5)c(-c5cc(S(=O)(=O)[O-])ccc5F)c5nc(c(-c6cc(S(=O)(=O)[O-])ccc6F)c6ccc3[nH]6)C=C5)C=C4)cc2)COc2ccccc2C1
REMARK SMILES IDX 11 1 10 2 9 3 8 4 6 5 7 6 5 8 79 9 87 10 80 11 86 12 81 13
REMARK SMILES IDX 85 14 82 15 84 16 83 17 4 18 2 19 1 20 3 21 12 22 13 23
REMARK SMILES IDX 14 24 15 26 16 27 17 28 78 29 18 30 77 31 19 32 20 33 21 34
REMARK SMILES IDX 71 35 22 36 76 37 70 38 72 39 23 40 75 41 69 42 68 43 24 45
REMARK SMILES IDX 56 46 36 47 55 48 37 49 40 50 54 51 73 52 38 53 39 54 53 56
REMARK SMILES IDX 74 57 41 58 25 59 26 60 34 61 27 62 33 63 35 64 32 65 28 66
REMARK SMILES IDX 29 67 30 68 31 69 57 70 58 71 66 72 59 73 65 74 67 75 64 76
REMARK SMILES IDX 60 77 61 78 62 79 63 80 42 81 43 82 51 83 44 84 50 85 52 86
REMARK SMILES IDX 49 87 45 88 46 89 47 90 48 91
REMARK H PARENT 8 7 13 25 72 44 40 55
REMARK Flexibility Score: inf
ROOT
ATOM      1  C   UNL     1      -2.274   0.381   0.564  1.00  0.00     0.023 C 
ENDROOT
BRANCH   1   2
ATOM      2  C   UNL     1      -1.290   1.222  -0.240  1.00  0.00     0.023 C 
BRANCH   2   3
ATOM      3  C   UNL     1       0.111   0.627  -0.364  1.00  0.00     0.116 C 
BRANCH   3   4
ATOM      4  N   UNL     1       0.125  -0.593  -1.144  1.00  0.00    -0.355 N 
ATOM      5  C   UNL     1       0.849  -0.973  -2.231  1.00  0.00     0.230 C 
ATOM      6  O   UNL     1       0.469  -2.013  -2.783  1.00  0.00    -0.274 OA
ATOM      7  H   UNL     1      -0.510  -1.276  -0.828  1.00  0.00     0.163 HD
BRANCH   5   8
ATOM      8  C   UNL     1       2.024  -0.150  -2.804  1.00  0.00     0.091 C 
ATOM      9  C   UNL     1       2.875  -1.122  -3.679  1.00  0.00     0.247 C 
ATOM     10  C   UNL     1       3.030   0.352  -1.750  1.00  0.00     0.060 C 
ATOM     11  O   UNL     1       3.490  -2.219  -2.992  1.00  0.00    -0.492 OA
ATOM     12  C   UNL     1       3.639  -0.809  -1.016  1.00  0.00    -0.005 A 
ATOM     13  C   UNL     1       3.832  -2.018  -1.687  1.00  0.00     0.122 A 
ATOM     14  C   UNL     1       4.010  -0.706   0.331  1.00  0.00     0.007 A 
ATOM     15  C   UNL     1       4.357  -3.121  -1.016  1.00  0.00     0.047 A 
ATOM     16  C   UNL     1       4.532  -1.813   1.003  1.00  0.00     0.001 A 
ATOM     17  C   UNL     1       4.700  -3.023   0.331  1.00  0.00     0.004 A 
BRANCH   8  18
ATOM     18  C   UNL     1       1.537   0.985  -3.765  1.00  0.00     0.051 C 
BRANCH  18  19
ATOM     19  C   UNL     1       0.208   1.674  -3.537  1.00  0.00    -0.079 C 
ATOM     20  C   UNL     1      -0.946   1.083  -3.894  1.00  0.00     0.007 C 
ATOM     21  C   UNL     1       0.224   3.073  -2.989  1.00  0.00     0.039 C 
ENDBRANCH  18  19
ENDBRANCH   8  18
ENDBRANCH   5   8
ENDBRANCH   3   4
ENDBRANCH   2   3
ENDBRANCH   1   2
BRANCH   1  22
ATOM     22  C   UNL     1      -1.822   0.084   1.986  1.00  0.00     0.116 C 
BRANCH  22  23
ATOM     23  N   UNL     1      -1.596   1.301   2.758  1.00  0.00    -0.352 N 
ATOM     24  C   UNL     1      -2.286   1.784   3.847  1.00  0.00     0.251 C 
ATOM     25  H   UNL     1      -0.841   1.857   2.457  1.00  0.00     0.163 HD
ATOM     26  O   UNL     1      -2.097   2.927   4.238  1.00  0.00    -0.269 OA
BRANCH  24  27
ATOM     27  C   UNL     1      -3.275   0.909   4.509  1.00  0.00     0.039 A 
ATOM     28  C   UNL     1      -4.555   1.398   4.771  1.00  0.00     0.014 A 
ATOM     29  C   UNL     1      -2.946  -0.416   4.803  1.00  0.00     0.014 A 
ATOM     30  C   UNL     1      -5.540   0.523   5.234  1.00  0.00     0.010 A 
ATOM     31  C   UNL     1      -3.947  -1.303   5.173  1.00  0.00     0.010 A 
ATOM     32  C   UNL     1      -5.258  -0.845   5.380  1.00  0.00    -0.014 A 
BRANCH  32  33
ATOM     33  C   UNL     1      -6.316  -1.830   5.718  1.00  0.00     0.031 A 
ATOM     34  C   UNL     1      -6.205  -2.649   6.972  1.00  0.00     0.074 A 
ATOM     35  C   UNL     1      -7.310  -2.063   4.838  1.00  0.00     0.049 A 
ATOM     36  N   UNL     1      -6.941  -3.652   7.376  1.00  0.00    -0.248 NA
ATOM     37  C   UNL     1      -5.088  -2.319   7.869  1.00  0.00     0.031 C 
ATOM     38  C   UNL     1      -7.485  -1.372   3.558  1.00  0.00     0.029 A 
ATOM     39  N   UNL     1      -8.345  -2.964   4.871  1.00  0.00    -0.354 N 
ATOM     40  C   UNL     1      -6.369  -4.082   8.568  1.00  0.00     0.074 A 
ATOM     41  C   UNL     1      -5.182  -3.279   8.775  1.00  0.00     0.031 C 
ATOM     42  C   UNL     1      -8.564  -1.868   2.933  1.00  0.00     0.029 A 
ATOM     43  C   UNL     1      -9.128  -2.946   3.740  1.00  0.00     0.049 A 
ATOM     44  H   UNL     1      -8.511  -3.566   5.632  1.00  0.00     0.167 HD
ATOM     45  C   UNL     1      -6.809  -5.038   9.423  1.00  0.00     0.034 A 
ATOM     46  C   UNL     1     -10.164  -3.728   3.377  1.00  0.00     0.034 A 
ATOM     47  C   UNL     1      -7.995  -5.827   9.191  1.00  0.00     0.049 A 
ATOM     48  C   UNL     1     -10.617  -4.812   4.317  1.00  0.00     0.074 A 
ATOM     49  C   UNL     1      -8.580  -6.771  10.017  1.00  0.00     0.029 A 
ATOM     50  N   UNL     1      -8.767  -5.779   8.036  1.00  0.00    -0.354 N 
ATOM     51  N   UNL     1     -10.113  -5.159   5.480  1.00  0.00    -0.248 NA
ATOM     52  C   UNL     1     -11.777  -5.608   3.901  1.00  0.00     0.031 C 
ATOM     53  C   UNL     1      -9.658  -7.344   9.332  1.00  0.00     0.029 A 
ATOM     54  C   UNL     1      -9.795  -6.708   8.108  1.00  0.00     0.049 A 
ATOM     55  H   UNL     1      -8.607  -5.173   7.276  1.00  0.00     0.167 HD
ATOM     56  C   UNL     1     -10.901  -6.210   5.938  1.00  0.00     0.074 A 
ATOM     57  C   UNL     1     -11.928  -6.423   4.936  1.00  0.00     0.031 C 
ATOM     58  C   UNL     1     -10.789  -6.932   7.082  1.00  0.00     0.034 A 
BRANCH  45  59
ATOM     59  C   UNL     1      -5.980  -5.288  10.663  1.00  0.00     0.023 A 
ATOM     60  C   UNL     1      -5.742  -4.270  11.605  1.00  0.00     0.031 A 
ATOM     61  C   UNL     1      -5.366  -6.534  10.877  1.00  0.00     0.131 A 
ATOM     62  C   UNL     1      -4.832  -4.480  12.651  1.00  0.00     0.055 A 
ATOM     63  C   UNL     1      -4.535  -6.766  11.976  1.00  0.00     0.041 A 
ATOM     64  F   UNL     1      -5.537  -7.540  10.006  1.00  0.00    -0.206 F 
ATOM     65  C   UNL     1      -4.245  -5.730  12.859  1.00  0.00     0.022 A 
BRANCH  62  66
ATOM     66  S   UNL     1      -4.284  -3.045  13.617  1.00  0.00     0.124 S 
ATOM     67  O   UNL     1      -3.767  -2.165  12.571  1.00  0.00    -0.237 OA
ATOM     68  O   UNL     1      -5.516  -2.613  14.265  1.00  0.00    -0.237 OA
ATOM     69  O   UNL     1      -3.268  -3.600  14.510  1.00  0.00    -0.744 OA
ENDBRANCH  62  66
ENDBRANCH  45  59
BRANCH  46  70
ATOM     70  C   UNL     1     -10.812  -3.534   2.050  1.00  0.00     0.023 A 
ATOM     71  C   UNL     1     -12.128  -3.060   1.944  1.00  0.00     0.031 A 
ATOM     72  C   UNL     1     -10.114  -3.817   0.861  1.00  0.00     0.131 A 
ATOM     73  C   UNL     1     -12.715  -2.906   0.677  1.00  0.00     0.055 A 
ATOM     74  C   UNL     1     -10.686  -3.621  -0.396  1.00  0.00     0.041 A 
ATOM     75  F   UNL     1      -8.848  -4.264   0.909  1.00  0.00    -0.206 F 
ATOM     76  C   UNL     1     -11.998  -3.170  -0.493  1.00  0.00     0.022 A 
BRANCH  73  77
ATOM     77  S   UNL     1     -14.453  -2.397   0.579  1.00  0.00     0.124 S 
ATOM     78  O   UNL     1     -15.122  -3.481   1.290  1.00  0.00    -0.237 OA
ATOM     79  O   UNL     1     -14.429  -1.104   1.255  1.00  0.00    -0.237 OA
ATOM     80  O   UNL     1     -14.711  -2.340  -0.859  1.00  0.00    -0.744 OA
ENDBRANCH  73  77
ENDBRANCH  46  70
BRANCH  58  81
ATOM     81  C   UNL     1     -11.813  -8.016   7.308  1.00  0.00     0.023 A 
ATOM     82  C   UNL     1     -11.848  -9.172   6.508  1.00  0.00     0.031 A 
ATOM     83  C   UNL     1     -12.765  -7.892   8.335  1.00  0.00     0.131 A 
ATOM     84  C   UNL     1     -12.842 -10.138   6.720  1.00  0.00     0.055 A 
ATOM     85  C   UNL     1     -13.716  -8.884   8.579  1.00  0.00     0.041 A 
ATOM     86  F   UNL     1     -12.780  -6.807   9.126  1.00  0.00    -0.206 F 
ATOM     87  C   UNL     1     -13.764 -10.011   7.762  1.00  0.00     0.022 A 
BRANCH  84  88
ATOM     88  S   UNL     1     -12.962 -11.533   5.567  1.00  0.00     0.124 S 
ATOM     89  O   UNL     1     -13.226 -10.857   4.301  1.00  0.00    -0.237 OA
ATOM     90  O   UNL     1     -11.651 -12.160   5.695  1.00  0.00    -0.237 OA
ATOM     91  O   UNL     1     -14.077 -12.319   6.095  1.00  0.00    -0.744 OA
ENDBRANCH  84  88
ENDBRANCH  58  81
ENDBRANCH  32  33
ENDBRANCH  24  27
ENDBRANCH  22  23
ENDBRANCH   1  22
TORSDOF 16
