REMARK SMILES CCOc1cc(OCC)cc(-c2ccc([C@@H](C)C(=O)NCCCCNC(=O)c3ccc(-c4c5nc(c(-c6cc(S(=O)(=O)[O-])ccc6F)c6ccc([nH]6)c(-c6cc(S(=O)(=O)[O-])ccc6F)c6nc(c(-c7cc(S(=O)(=O)[O-])ccc7F)c7ccc4[nH]7)C=C6)C=C5)cc3)cc2F)c1
REMARK SMILES IDX 22 1 21 2 20 3 18 4 19 5 16 7 17 8 15 9 12 10 13 11 92 12
REMARK SMILES IDX 14 13 91 14 93 15 11 16 4 17 5 18 94 19 6 20 10 21 3 22 2 23
REMARK SMILES IDX 1 24 7 25 8 26 9 27 23 28 24 29 25 30 26 31 27 33 28 34
REMARK SMILES IDX 29 35 90 36 30 37 89 38 31 39 32 40 33 41 83 42 34 43 88 44
REMARK SMILES IDX 82 45 84 46 35 47 87 48 81 49 80 50 36 52 68 53 48 54 67 55
REMARK SMILES IDX 49 56 52 57 66 58 85 59 50 60 51 61 65 63 86 64 53 65 37 66
REMARK SMILES IDX 38 67 46 68 39 69 45 70 47 71 44 72 40 73 41 74 42 75 43 76
REMARK SMILES IDX 69 77 70 78 78 79 71 80 77 81 79 82 76 83 72 84 73 85 74 86
REMARK SMILES IDX 75 87 54 88 55 89 63 90 56 91 62 92 64 93 61 94 57 95 58 96
REMARK SMILES IDX 59 97 60 98
REMARK H PARENT 20 6 25 32 84 51 52 62
REMARK Flexibility Score: inf
ROOT
ATOM      1  C   UNL     1       8.690   1.696   0.100  1.00  0.00     0.023 C 
ENDROOT
BRANCH   1   2
ATOM      2  C   UNL     1       9.542   1.941   1.347  1.00  0.00     0.116 C 
BRANCH   2   3
ATOM      3  N   UNL     1       8.816   2.656   2.378  1.00  0.00    -0.356 N 
ATOM      4  C   UNL     1       8.135   2.226   3.475  1.00  0.00     0.227 C 
ATOM      5  O   UNL     1       7.562   3.093   4.146  1.00  0.00    -0.274 OA
ATOM      6  H   UNL     1       8.816   3.634   2.264  1.00  0.00     0.163 HD
BRANCH   4   7
ATOM      7  C   UNL     1       8.047   0.754   3.910  1.00  0.00     0.105 C 
ATOM      8  C   UNL     1       9.393   0.117   4.255  1.00  0.00     0.023 C 
BRANCH   7   9
ATOM      9  C   UNL     1       7.129  -0.080   3.033  1.00  0.00    -0.033 A 
ATOM     10  C   UNL     1       5.312  -1.497   1.327  1.00  0.00     0.018 A 
ATOM     11  C   UNL     1       6.695  -1.443   1.069  1.00  0.00     0.012 A 
ATOM     12  C   UNL     1       4.876  -0.834   2.483  1.00  0.00     0.131 A 
ATOM     13  C   UNL     1       7.587  -0.791   1.925  1.00  0.00     0.005 A 
ATOM     14  C   UNL     1       5.754  -0.121   3.307  1.00  0.00     0.044 A 
ATOM     15  F   UNL     1       3.585  -0.867   2.849  1.00  0.00    -0.206 F 
BRANCH  10  16
ATOM     16  C   UNL     1       4.404  -2.212   0.395  1.00  0.00    -0.008 A 
ATOM     17  C   UNL     1       2.258  -2.483  -0.731  1.00  0.00     0.123 A 
ATOM     18  C   UNL     1       2.758  -3.545  -1.480  1.00  0.00     0.092 A 
ATOM     19  C   UNL     1       3.069  -1.829   0.200  1.00  0.00     0.055 A 
ATOM     20  C   UNL     1       4.075  -3.964  -1.302  1.00  0.00     0.123 A 
ATOM     21  C   UNL     1       4.871  -3.309  -0.359  1.00  0.00     0.055 A 
BRANCH  17  22
ATOM     22  O   UNL     1       0.927  -2.188  -0.841  1.00  0.00    -0.494 OA
BRANCH  22  23
ATOM     23  C   UNL     1       0.666  -0.910  -1.433  1.00  0.00     0.226 C 
ATOM     24  C   UNL     1       0.467   0.170  -0.381  1.00  0.00     0.049 C 
ENDBRANCH  22  23
ENDBRANCH  17  22
BRANCH  20  25
ATOM     25  O   UNL     1       4.484  -4.996  -2.102  1.00  0.00    -0.494 OA
BRANCH  25  26
ATOM     26  C   UNL     1       5.747  -5.610  -1.826  1.00  0.00     0.226 C 
ATOM     27  C   UNL     1       6.893  -4.889  -2.521  1.00  0.00     0.049 C 
ENDBRANCH  25  26
ENDBRANCH  20  25
ENDBRANCH  10  16
ENDBRANCH   7   9
ENDBRANCH   4   7
ENDBRANCH   2   3
ENDBRANCH   1   2
BRANCH   1  28
ATOM     28  C   UNL     1       8.694   2.832  -0.922  1.00  0.00     0.023 C 
BRANCH  28  29
ATOM     29  C   UNL     1      10.051   3.139  -1.546  1.00  0.00     0.116 C 
BRANCH  29  30
ATOM     30  N   UNL     1      10.655   2.011  -2.241  1.00  0.00    -0.352 N 
ATOM     31  C   UNL     1      11.532   2.051  -3.306  1.00  0.00     0.251 C 
ATOM     32  H   UNL     1      10.410   1.115  -1.913  1.00  0.00     0.163 HD
ATOM     33  O   UNL     1      11.902   1.018  -3.846  1.00  0.00    -0.269 OA
BRANCH  31  34
ATOM     34  C   UNL     1      11.966   3.373  -3.810  1.00  0.00     0.039 A 
ATOM     35  C   UNL     1      11.770   3.683  -5.158  1.00  0.00     0.014 A 
ATOM     36  C   UNL     1      12.469   4.330  -2.926  1.00  0.00     0.014 A 
ATOM     37  C   UNL     1      11.996   4.988  -5.602  1.00  0.00     0.010 A 
ATOM     38  C   UNL     1      12.622   5.643  -3.355  1.00  0.00     0.010 A 
ATOM     39  C   UNL     1      12.377   5.989  -4.694  1.00  0.00    -0.014 A 
BRANCH  39  40
ATOM     40  C   UNL     1      12.535   7.408  -5.106  1.00  0.00     0.031 A 
ATOM     41  C   UNL     1      13.880   8.068  -4.981  1.00  0.00     0.074 A 
ATOM     42  C   UNL     1      11.458   8.126  -5.483  1.00  0.00     0.049 A 
ATOM     43  N   UNL     1      14.203   9.328  -5.107  1.00  0.00    -0.248 NA
ATOM     44  C   UNL     1      15.004   7.190  -4.622  1.00  0.00     0.031 C 
ATOM     45  C   UNL     1      10.093   7.608  -5.605  1.00  0.00     0.029 A 
ATOM     46  N   UNL     1      11.338   9.453  -5.813  1.00  0.00    -0.354 N 
ATOM     47  C   UNL     1      15.560   9.402  -4.810  1.00  0.00     0.074 A 
ATOM     48  C   UNL     1      15.981   8.065  -4.446  1.00  0.00     0.031 C 
ATOM     49  C   UNL     1       9.278   8.603  -5.992  1.00  0.00     0.029 A 
ATOM     50  C   UNL     1      10.049   9.837  -6.101  1.00  0.00     0.049 A 
ATOM     51  H   UNL     1      12.103  10.072  -5.840  1.00  0.00     0.167 HD
ATOM     52  C   UNL     1      16.381  10.480  -4.856  1.00  0.00     0.034 A 
ATOM     53  C   UNL     1       9.543  11.050  -6.401  1.00  0.00     0.034 A 
ATOM     54  C   UNL     1      15.948  11.798  -5.250  1.00  0.00     0.049 A 
ATOM     55  C   UNL     1      10.475  12.234  -6.457  1.00  0.00     0.074 A 
ATOM     56  C   UNL     1      16.702  12.952  -5.383  1.00  0.00     0.029 A 
ATOM     57  N   UNL     1      14.642  12.139  -5.580  1.00  0.00    -0.354 N 
ATOM     58  N   UNL     1      11.762  12.284  -6.201  1.00  0.00    -0.248 NA
ATOM     59  C   UNL     1       9.889  13.522  -6.851  1.00  0.00     0.031 C 
ATOM     60  C   UNL     1      15.844  13.998  -5.744  1.00  0.00     0.029 A 
ATOM     61  C   UNL     1      14.567  13.485  -5.900  1.00  0.00     0.049 A 
ATOM     62  H   UNL     1      13.881  11.514  -5.585  1.00  0.00     0.167 HD
ATOM     63  C   UNL     1      12.145  13.601  -6.437  1.00  0.00     0.074 A 
ATOM     64  C   UNL     1      10.954  14.310  -6.861  1.00  0.00     0.031 C 
ATOM     65  C   UNL     1      13.370  14.173  -6.322  1.00  0.00     0.034 A 
BRANCH  52  66
ATOM     66  C   UNL     1      17.818  10.271  -4.444  1.00  0.00     0.023 A 
ATOM     67  C   UNL     1      18.667   9.400  -5.149  1.00  0.00     0.031 A 
ATOM     68  C   UNL     1      18.333  10.909  -3.301  1.00  0.00     0.131 A 
ATOM     69  C   UNL     1      19.950   9.120  -4.655  1.00  0.00     0.055 A 
ATOM     70  C   UNL     1      19.642  10.694  -2.865  1.00  0.00     0.041 A 
ATOM     71  F   UNL     1      17.564  11.736  -2.575  1.00  0.00    -0.206 F 
ATOM     72  C   UNL     1      20.453   9.780  -3.533  1.00  0.00     0.022 A 
BRANCH  69  73
ATOM     73  S   UNL     1      20.886   7.762  -5.409  1.00  0.00     0.124 S 
ATOM     74  O   UNL     1      19.994   6.628  -5.179  1.00  0.00    -0.237 OA
ATOM     75  O   UNL     1      21.019   8.199  -6.793  1.00  0.00    -0.237 OA
ATOM     76  O   UNL     1      22.128   7.733  -4.639  1.00  0.00    -0.744 OA
ENDBRANCH  69  73
ENDBRANCH  52  66
BRANCH  53  77
ATOM     77  C   UNL     1       8.086  11.219  -6.662  1.00  0.00     0.023 A 
ATOM     78  C   UNL     1       7.620  11.577  -7.937  1.00  0.00     0.031 A 
ATOM     79  C   UNL     1       7.141  11.064  -5.633  1.00  0.00     0.131 A 
ATOM     80  C   UNL     1       6.252  11.812  -8.142  1.00  0.00     0.055 A 
ATOM     81  C   UNL     1       5.775  11.253  -5.853  1.00  0.00     0.041 A 
ATOM     82  F   UNL     1       7.534  10.713  -4.398  1.00  0.00    -0.206 F 
ATOM     83  C   UNL     1       5.325  11.643  -7.111  1.00  0.00     0.022 A 
BRANCH  80  84
ATOM     84  S   UNL     1       5.708  12.418  -9.763  1.00  0.00     0.124 S 
ATOM     85  O   UNL     1       6.476  13.651  -9.892  1.00  0.00    -0.237 OA
ATOM     86  O   UNL     1       6.101  11.322 -10.642  1.00  0.00    -0.237 OA
ATOM     87  O   UNL     1       4.268  12.594  -9.595  1.00  0.00    -0.744 OA
ENDBRANCH  80  84
ENDBRANCH  53  77
BRANCH  65  88
ATOM     88  C   UNL     1      13.490  15.621  -6.723  1.00  0.00     0.023 A 
ATOM     89  C   UNL     1      12.913  16.652  -5.963  1.00  0.00     0.031 A 
ATOM     90  C   UNL     1      14.197  15.969  -7.888  1.00  0.00     0.131 A 
ATOM     91  C   UNL     1      13.014  17.981  -6.402  1.00  0.00     0.055 A 
ATOM     92  C   UNL     1      14.336  17.296  -8.293  1.00  0.00     0.041 A 
ATOM     93  F   UNL     1      14.767  15.021  -8.649  1.00  0.00    -0.206 F 
ATOM     94  C   UNL     1      13.734  18.310  -7.554  1.00  0.00     0.022 A 
BRANCH  91  95
ATOM     95  S   UNL     1      12.130  19.272  -5.485  1.00  0.00     0.124 S 
ATOM     96  O   UNL     1      10.745  18.824  -5.586  1.00  0.00    -0.237 OA
ATOM     97  O   UNL     1      12.734  19.182  -4.159  1.00  0.00    -0.237 OA
ATOM     98  O   UNL     1      12.442  20.494  -6.224  1.00  0.00    -0.744 OA
ENDBRANCH  91  95
ENDBRANCH  65  88
ENDBRANCH  39  40
ENDBRANCH  31  34
ENDBRANCH  29  30
ENDBRANCH  28  29
ENDBRANCH   1  28
TORSDOF 20
