REMARK SMILES O=C(NCCCCNC(=O)c1cc(-c2ccccn2)nc2ccc(F)cc12)c1ccc(-c2c3nc(c(-c4cc(S(=O)(=O)[O-])ccc4F)c4ccc([nH]4)c(-c4cc(S(=O)(=O)[O-])ccc4F)c4nc(c(-c5cc(S(=O)(=O)[O-])ccc5F)c5ccc2[nH]5)C=C4)C=C3)cc1
REMARK SMILES IDX 4 1 3 2 1 3 2 4 28 6 29 7 90 8 30 9 89 10 31 11 32 12 33 13
REMARK SMILES IDX 83 14 34 15 88 16 82 17 84 18 35 19 87 20 81 21 80 22 36 24
REMARK SMILES IDX 68 25 48 26 67 27 49 28 52 29 66 30 85 31 50 32 51 33 65 35
REMARK SMILES IDX 86 36 53 37 37 38 38 39 46 40 39 41 45 42 47 43 44 44 40 45
REMARK SMILES IDX 41 46 42 47 43 48 69 49 70 50 78 51 71 52 77 53 79 54 76 55
REMARK SMILES IDX 72 56 73 57 74 58 75 59 54 60 55 61 63 62 56 63 62 64 64 65
REMARK SMILES IDX 61 66 57 67 58 68 59 69 60 70 5 71 6 72 7 73 8 74 9 75 10 77
REMARK SMILES IDX 11 78 12 79 27 80 13 81 21 82 26 83 20 84 22 85 24 86 23 87
REMARK SMILES IDX 25 88 14 89 15 90 19 91 16 92 18 93 17 94
REMARK H PARENT 3 5 84 23 52 34 8 76
REMARK Flexibility Score: inf
ROOT
ATOM      1  C   UNL     1       4.622  -1.144   0.315  1.00  0.00     0.116 C 
ENDROOT
BRANCH   1   2
ATOM      2  N   UNL     1       3.187  -1.048   0.105  1.00  0.00    -0.352 N 
ATOM      3  O   UNL     1       1.174  -0.066  -0.068  1.00  0.00    -0.269 OA
ATOM      4  C   UNL     1       2.396   0.065  -0.045  1.00  0.00     0.251 C 
ATOM      5  H   UNL     1       2.711  -1.909   0.066  1.00  0.00     0.163 HD
BRANCH   4   6
ATOM      6  C   UNL     1       2.998   1.412  -0.168  1.00  0.00     0.039 A 
ATOM      7  C   UNL     1       2.390   2.485   0.491  1.00  0.00     0.014 A 
ATOM      8  C   UNL     1       4.124   1.635  -0.966  1.00  0.00     0.014 A 
ATOM      9  C   UNL     1       2.923   3.772   0.372  1.00  0.00     0.010 A 
ATOM     10  C   UNL     1       4.700   2.902  -1.020  1.00  0.00     0.010 A 
ATOM     11  C   UNL     1       4.089   3.990  -0.378  1.00  0.00    -0.014 A 
BRANCH  11  12
ATOM     12  C   UNL     1       4.642   5.355  -0.578  1.00  0.00     0.031 A 
ATOM     13  C   UNL     1       4.658   5.949  -1.962  1.00  0.00     0.074 A 
ATOM     14  C   UNL     1       5.166   6.038   0.458  1.00  0.00     0.049 A 
ATOM     15  N   UNL     1       5.174   7.078  -2.370  1.00  0.00    -0.248 NA
ATOM     16  C   UNL     1       4.035   5.154  -3.034  1.00  0.00     0.031 C 
ATOM     17  C   UNL     1       5.227   5.556   1.837  1.00  0.00     0.029 A 
ATOM     18  N   UNL     1       5.756   7.277   0.511  1.00  0.00    -0.354 N 
ATOM     19  C   UNL     1       4.956   7.119  -3.743  1.00  0.00     0.074 A 
ATOM     20  C   UNL     1       4.318   5.875  -4.108  1.00  0.00     0.031 C 
ATOM     21  C   UNL     1       5.799   6.497   2.605  1.00  0.00     0.029 A 
ATOM     22  C   UNL     1       6.189   7.631   1.769  1.00  0.00     0.049 A 
ATOM     23  H   UNL     1       5.859   7.859  -0.276  1.00  0.00     0.167 HD
ATOM     24  C   UNL     1       5.234   8.116  -4.615  1.00  0.00     0.034 A 
ATOM     25  C   UNL     1       6.831   8.738   2.198  1.00  0.00     0.034 A 
ATOM     26  C   UNL     1       5.831   9.367  -4.230  1.00  0.00     0.049 A 
ATOM     27  C   UNL     1       7.132   9.839   1.209  1.00  0.00     0.074 A 
ATOM     28  C   UNL     1       6.108  10.461  -5.029  1.00  0.00     0.029 A 
ATOM     29  N   UNL     1       6.228   9.700  -2.943  1.00  0.00    -0.354 N 
ATOM     30  N   UNL     1       6.859   9.890  -0.075  1.00  0.00    -0.248 NA
ATOM     31  C   UNL     1       7.814  11.037   1.719  1.00  0.00     0.031 C 
ATOM     32  C   UNL     1       6.721  11.433  -4.239  1.00  0.00     0.029 A 
ATOM     33  C   UNL     1       6.763  10.976  -2.931  1.00  0.00     0.049 A 
ATOM     34  H   UNL     1       6.143   9.115  -2.156  1.00  0.00     0.167 HD
ATOM     35  C   UNL     1       7.305  11.133  -0.515  1.00  0.00     0.074 A 
ATOM     36  C   UNL     1       7.850  11.811   0.642  1.00  0.00     0.031 C 
ATOM     37  C   UNL     1       7.271  11.660  -1.765  1.00  0.00     0.034 A 
BRANCH  24  38
ATOM     38  C   UNL     1       4.870   7.929  -6.067  1.00  0.00     0.023 A 
ATOM     39  C   UNL     1       5.874   7.943  -7.053  1.00  0.00     0.031 A 
ATOM     40  C   UNL     1       3.529   7.862  -6.484  1.00  0.00     0.131 A 
ATOM     41  C   UNL     1       5.518   7.923  -8.408  1.00  0.00     0.055 A 
ATOM     42  C   UNL     1       3.181   7.796  -7.833  1.00  0.00     0.041 A 
ATOM     43  F   UNL     1       2.534   7.847  -5.581  1.00  0.00    -0.206 F 
ATOM     44  C   UNL     1       4.178   7.840  -8.802  1.00  0.00     0.022 A 
BRANCH  41  45
ATOM     45  S   UNL     1       6.771   8.068  -9.710  1.00  0.00     0.124 S 
ATOM     46  O   UNL     1       6.554   6.840 -10.472  1.00  0.00    -0.237 OA
ATOM     47  O   UNL     1       6.370   9.300 -10.383  1.00  0.00    -0.237 OA
ATOM     48  O   UNL     1       8.032   8.129  -8.979  1.00  0.00    -0.744 OA
ENDBRANCH  41  45
ENDBRANCH  24  38
BRANCH  25  49
ATOM     49  C   UNL     1       7.162   8.874   3.649  1.00  0.00     0.023 A 
ATOM     50  C   UNL     1       8.030   7.970   4.287  1.00  0.00     0.031 A 
ATOM     51  C   UNL     1       6.532   9.852   4.438  1.00  0.00     0.131 A 
ATOM     52  C   UNL     1       8.194   8.024   5.678  1.00  0.00     0.055 A 
ATOM     53  C   UNL     1       6.753   9.946   5.813  1.00  0.00     0.041 A 
ATOM     54  F   UNL     1       5.685  10.730   3.878  1.00  0.00    -0.206 F 
ATOM     55  C   UNL     1       7.575   9.017   6.443  1.00  0.00     0.022 A 
BRANCH  52  56
ATOM     56  S   UNL     1       9.110   6.728   6.559  1.00  0.00     0.124 S 
ATOM     57  O   UNL     1      10.182   7.489   7.192  1.00  0.00    -0.237 OA
ATOM     58  O   UNL     1       8.089   6.203   7.463  1.00  0.00    -0.237 OA
ATOM     59  O   UNL     1       9.524   5.817   5.497  1.00  0.00    -0.744 OA
ENDBRANCH  52  56
ENDBRANCH  25  49
BRANCH  37  60
ATOM     60  C   UNL     1       7.807  13.054  -1.988  1.00  0.00     0.023 A 
ATOM     61  C   UNL     1       6.946  14.067  -2.455  1.00  0.00     0.031 A 
ATOM     62  C   UNL     1       9.184  13.327  -1.927  1.00  0.00     0.131 A 
ATOM     63  C   UNL     1       7.477  15.286  -2.895  1.00  0.00     0.055 A 
ATOM     64  C   UNL     1       9.703  14.562  -2.319  1.00  0.00     0.041 A 
ATOM     65  F   UNL     1      10.046  12.389  -1.502  1.00  0.00    -0.206 F 
ATOM     66  C   UNL     1       8.851  15.541  -2.823  1.00  0.00     0.022 A 
BRANCH  63  67
ATOM     67  S   UNL     1       6.423  16.540  -3.675  1.00  0.00     0.124 S 
ATOM     68  O   UNL     1       6.608  17.685  -2.787  1.00  0.00    -0.237 OA
ATOM     69  O   UNL     1       7.029  16.671  -4.997  1.00  0.00    -0.237 OA
ATOM     70  O   UNL     1       5.091  15.945  -3.652  1.00  0.00    -0.744 OA
ENDBRANCH  63  67
ENDBRANCH  37  60
ENDBRANCH  11  12
ENDBRANCH   4   6
ENDBRANCH   1   2
BRANCH   1  71
ATOM     71  C   UNL     1       4.989  -1.986   1.532  1.00  0.00     0.023 C 
BRANCH  71  72
ATOM     72  C   UNL     1       4.506  -3.435   1.504  1.00  0.00     0.023 C 
BRANCH  72  73
ATOM     73  C   UNL     1       4.875  -4.227   0.255  1.00  0.00     0.116 C 
BRANCH  73  74
ATOM     74  N   UNL     1       6.312  -4.311   0.034  1.00  0.00    -0.352 N 
ATOM     75  C   UNL     1       7.104  -5.415  -0.156  1.00  0.00     0.252 C 
ATOM     76  H   UNL     1       6.786  -3.448   0.018  1.00  0.00     0.163 HD
ATOM     77  O   UNL     1       8.321  -5.298  -0.293  1.00  0.00    -0.269 OA
BRANCH  75  78
ATOM     78  C   UNL     1       6.487  -6.755  -0.218  1.00  0.00     0.051 A 
ATOM     79  C   UNL     1       5.491  -6.951  -1.170  1.00  0.00     0.045 A 
ATOM     80  C   UNL     1       6.878  -7.796   0.648  1.00  0.00     0.016 A 
ATOM     81  C   UNL     1       4.807  -8.152  -1.174  1.00  0.00     0.090 A 
ATOM     82  C   UNL     1       6.151  -9.000   0.535  1.00  0.00     0.072 A 
ATOM     83  C   UNL     1       7.919  -7.704   1.605  1.00  0.00     0.050 A 
ATOM     84  N   UNL     1       5.139  -9.166  -0.336  1.00  0.00    -0.246 NA
ATOM     85  C   UNL     1       6.485 -10.062   1.368  1.00  0.00     0.032 A 
ATOM     86  C   UNL     1       8.231  -8.790   2.411  1.00  0.00     0.123 A 
ATOM     87  C   UNL     1       7.520  -9.972   2.302  1.00  0.00     0.041 A 
ATOM     88  F   UNL     1       9.227  -8.696   3.299  1.00  0.00    -0.207 F 
BRANCH  81  89
ATOM     89  C   UNL     1       3.634  -8.328  -2.046  1.00  0.00     0.089 A 
ATOM     90  C   UNL     1       3.708  -8.107  -3.423  1.00  0.00     0.030 A 
ATOM     91  N   UNL     1       2.451  -8.571  -1.421  1.00  0.00    -0.255 NA
ATOM     92  C   UNL     1       2.538  -8.123  -4.177  1.00  0.00     0.004 A 
ATOM     93  C   UNL     1       1.333  -8.588  -2.179  1.00  0.00     0.112 A 
ATOM     94  C   UNL     1       1.325  -8.363  -3.545  1.00  0.00     0.020 A 
ENDBRANCH  81  89
ENDBRANCH  75  78
ENDBRANCH  73  74
ENDBRANCH  72  73
ENDBRANCH  71  72
ENDBRANCH   1  71
TORSDOF 15
