REMARK SMILES Cc1nc(-c2ccc(S(=O)(=O)N3CC[NH2+][C@H](C(=O)NCCCCNC(=O)c4ccc(-c5c6nc(c(-c7cc(S(=O)(=O)[O-])ccc7F)c7ccc([nH]7)c(-c7cc(S(=O)(=O)[O-])ccc7F)c7nc(c(-c8cc(S(=O)(=O)[O-])ccc8F)c8ccc5[nH]8)C=C7)C=C6)cc4)C3)s2)cs1
REMARK SMILES IDX 21 1 20 2 19 3 17 4 18 5 16 7 12 8 13 9 90 10 14 11 15 12
REMARK SMILES IDX 9 15 10 16 11 17 8 18 5 19 6 20 91 21 7 22 4 23 1 24 2 25
REMARK SMILES IDX 3 26 93 27 92 28 22 29 23 30 24 31 25 32 26 34 27 35 28 36
REMARK SMILES IDX 89 37 29 38 88 39 30 40 31 41 32 42 82 43 33 44 87 45 81 46
REMARK SMILES IDX 83 47 34 48 86 49 80 50 79 51 35 53 67 54 47 55 66 56 48 57
REMARK SMILES IDX 51 58 65 59 84 60 49 61 50 62 64 64 85 65 52 66 36 67 37 68
REMARK SMILES IDX 45 69 38 70 44 71 46 72 43 73 39 74 40 75 41 76 42 77 68 78
REMARK SMILES IDX 69 79 77 80 70 81 76 82 78 83 75 84 71 85 72 86 73 87 74 88
REMARK SMILES IDX 53 89 54 90 62 91 55 92 61 93 63 94 60 95 56 96 57 97 58 98
REMARK SMILES IDX 59 99
REMARK H PARENT 19 6 15 13 15 14 24 33 83 52 51 63
REMARK Flexibility Score: inf
ROOT
ATOM      1  C   UNL     1       8.204  -6.162  -3.349  1.00  0.00     0.023 C 
ENDROOT
BRANCH   1   2
ATOM      2  C   UNL     1       7.427  -4.847  -3.238  1.00  0.00     0.116 C 
BRANCH   2   3
ATOM      3  N   UNL     1       6.208  -4.948  -4.010  1.00  0.00    -0.351 N 
ATOM      4  C   UNL     1       5.080  -5.667  -3.766  1.00  0.00     0.279 C 
ATOM      5  O   UNL     1       4.426  -5.992  -4.765  1.00  0.00    -0.268 OA
ATOM      6  H   UNL     1       6.194  -4.416  -4.838  1.00  0.00     0.163 HD
BRANCH   4   7
ATOM      7  C   UNL     1       4.536  -5.937  -2.333  1.00  0.00     0.287 C 
ATOM      8  N   UNL     1       4.755  -6.551   0.042  1.00  0.00    -0.185 NA
ATOM      9  C   UNL     1       3.713  -7.590  -0.002  1.00  0.00     0.164 C 
ATOM     10  C   UNL     1       5.479  -6.459  -1.253  1.00  0.00     0.178 C 
ATOM     11  C   UNL     1       2.802  -7.441  -1.232  1.00  0.00     0.278 C 
ATOM     12  N   UNL     1       3.330  -6.823  -2.458  1.00  0.00    -0.334 N 
ATOM     13  H   UNL     1       2.580  -6.261  -2.862  1.00  0.00     0.347 HD
ATOM     14  H   UNL     1       3.647  -7.609  -3.026  1.00  0.00     0.347 HD
BRANCH   8  15
ATOM     15  S   UNL     1       4.552  -5.161   0.993  1.00  0.00     0.253 S 
ATOM     16  O   UNL     1       5.787  -4.406   0.891  1.00  0.00    -0.206 OA
ATOM     17  O   UNL     1       4.035  -5.593   2.272  1.00  0.00    -0.206 OA
BRANCH  15  18
ATOM     18  C   UNL     1       3.291  -4.040   0.381  1.00  0.00     0.135 A 
ATOM     19  C   UNL     1       1.836  -2.032   0.278  1.00  0.00     0.055 A 
ATOM     20  C   UNL     1       1.453  -2.997  -0.620  1.00  0.00     0.023 A 
ATOM     21  S   UNL     1       3.241  -2.478   1.131  1.00  0.00    -0.121 S 
ATOM     22  C   UNL     1       2.297  -4.127  -0.574  1.00  0.00     0.034 A 
BRANCH  19  23
ATOM     23  C   UNL     1       1.014  -0.796   0.429  1.00  0.00     0.091 A 
ATOM     24  C   UNL     1      -2.346   0.548   0.028  1.00  0.00     0.079 C 
ATOM     25  C   UNL     1      -0.898   0.310   0.271  1.00  0.00     0.090 A 
ATOM     26  N   UNL     1      -0.303  -0.826  -0.003  1.00  0.00    -0.241 NA
ATOM     27  S   UNL     1       0.116   1.522   0.942  1.00  0.00    -0.127 S 
ATOM     28  C   UNL     1       1.427   0.403   0.965  1.00  0.00     0.096 A 
ENDBRANCH  19  23
ENDBRANCH  15  18
ENDBRANCH   8  15
ENDBRANCH   4   7
ENDBRANCH   2   3
ENDBRANCH   1   2
BRANCH   1  29
ATOM     29  C   UNL     1       8.881  -6.350  -4.714  1.00  0.00     0.023 C 
BRANCH  29  30
ATOM     30  C   UNL     1       9.992  -5.347  -5.001  1.00  0.00     0.116 C 
BRANCH  30  31
ATOM     31  N   UNL     1      11.048  -5.387  -4.003  1.00  0.00    -0.352 N 
ATOM     32  C   UNL     1      12.373  -5.062  -4.155  1.00  0.00     0.251 C 
ATOM     33  H   UNL     1      10.779  -5.685  -3.105  1.00  0.00     0.163 HD
ATOM     34  O   UNL     1      13.166  -5.287  -3.247  1.00  0.00    -0.269 OA
BRANCH  32  35
ATOM     35  C   UNL     1      12.829  -4.492  -5.437  1.00  0.00     0.039 A 
ATOM     36  C   UNL     1      13.941  -5.059  -6.062  1.00  0.00     0.014 A 
ATOM     37  C   UNL     1      12.143  -3.431  -6.035  1.00  0.00     0.014 A 
ATOM     38  C   UNL     1      14.334  -4.594  -7.316  1.00  0.00     0.010 A 
ATOM     39  C   UNL     1      12.492  -3.018  -7.316  1.00  0.00     0.010 A 
ATOM     40  C   UNL     1      13.594  -3.592  -7.967  1.00  0.00    -0.014 A 
BRANCH  40  41
ATOM     41  C   UNL     1      13.974  -3.136  -9.327  1.00  0.00     0.031 A 
ATOM     42  C   UNL     1      14.448  -1.726  -9.547  1.00  0.00     0.074 A 
ATOM     43  C   UNL     1      13.853  -3.985 -10.366  1.00  0.00     0.049 A 
ATOM     44  N   UNL     1      14.822  -1.143 -10.656  1.00  0.00    -0.248 NA
ATOM     45  C   UNL     1      14.473  -0.847  -8.368  1.00  0.00     0.031 C 
ATOM     46  C   UNL     1      13.344  -5.357 -10.280  1.00  0.00     0.029 A 
ATOM     47  N   UNL     1      14.150  -3.825 -11.695  1.00  0.00    -0.354 N 
ATOM     48  C   UNL     1      15.120   0.172 -10.312  1.00  0.00     0.074 A 
ATOM     49  C   UNL     1      14.812   0.315  -8.905  1.00  0.00     0.031 C 
ATOM     50  C   UNL     1      13.399  -5.923 -11.496  1.00  0.00     0.029 A 
ATOM     51  C   UNL     1      13.914  -4.949 -12.453  1.00  0.00     0.049 A 
ATOM     52  H   UNL     1      14.499  -2.986 -12.072  1.00  0.00     0.167 HD
ATOM     53  C   UNL     1      15.630   1.158 -11.090  1.00  0.00     0.034 A 
ATOM     54  C   UNL     1      14.100  -5.170 -13.769  1.00  0.00     0.034 A 
ATOM     55  C   UNL     1      15.940   0.991 -12.490  1.00  0.00     0.049 A 
ATOM     56  C   UNL     1      14.684  -4.065 -14.611  1.00  0.00     0.074 A 
ATOM     57  C   UNL     1      16.500   1.903 -13.367  1.00  0.00     0.029 A 
ATOM     58  N   UNL     1      15.712  -0.170 -13.221  1.00  0.00    -0.354 N 
ATOM     59  N   UNL     1      15.020  -2.845 -14.258  1.00  0.00    -0.248 NA
ATOM     60  C   UNL     1      14.938  -4.376 -16.023  1.00  0.00     0.031 C 
ATOM     61  C   UNL     1      16.556   1.317 -14.637  1.00  0.00     0.029 A 
ATOM     62  C   UNL     1      16.102   0.011 -14.539  1.00  0.00     0.049 A 
ATOM     63  H   UNL     1      15.329  -1.000 -12.855  1.00  0.00     0.167 HD
ATOM     64  C   UNL     1      15.558  -2.256 -15.399  1.00  0.00     0.074 A 
ATOM     65  C   UNL     1      15.517  -3.261 -16.442  1.00  0.00     0.031 C 
ATOM     66  C   UNL     1      16.047  -1.000 -15.569  1.00  0.00     0.034 A 
BRANCH  53  67
ATOM     67  C   UNL     1      15.861   2.503 -10.441  1.00  0.00     0.023 A 
ATOM     68  C   UNL     1      16.759   2.662  -9.370  1.00  0.00     0.031 A 
ATOM     69  C   UNL     1      15.148   3.636 -10.871  1.00  0.00     0.131 A 
ATOM     70  C   UNL     1      16.857   3.897  -8.712  1.00  0.00     0.055 A 
ATOM     71  C   UNL     1      15.315   4.885 -10.267  1.00  0.00     0.041 A 
ATOM     72  F   UNL     1      14.261   3.547 -11.874  1.00  0.00    -0.206 F 
ATOM     73  C   UNL     1      16.161   5.017  -9.170  1.00  0.00     0.022 A 
BRANCH  70  74
ATOM     74  S   UNL     1      17.788   3.977  -7.157  1.00  0.00     0.124 S 
ATOM     75  O   UNL     1      17.070   3.007  -6.334  1.00  0.00    -0.237 OA
ATOM     76  O   UNL     1      19.132   3.592  -7.574  1.00  0.00    -0.237 OA
ATOM     77  O   UNL     1      17.638   5.370  -6.740  1.00  0.00    -0.744 OA
ENDBRANCH  70  74
ENDBRANCH  53  67
BRANCH  54  78
ATOM     78  C   UNL     1      13.752  -6.488 -14.371  1.00  0.00     0.023 A 
ATOM     79  C   UNL     1      14.744  -7.323 -14.908  1.00  0.00     0.031 A 
ATOM     80  C   UNL     1      12.415  -6.917 -14.450  1.00  0.00     0.131 A 
ATOM     81  C   UNL     1      14.382  -8.520 -15.546  1.00  0.00     0.055 A 
ATOM     82  C   UNL     1      12.064  -8.133 -15.040  1.00  0.00     0.041 A 
ATOM     83  F   UNL     1      11.428  -6.162 -13.942  1.00  0.00    -0.206 F 
ATOM     84  C   UNL     1      13.050  -8.935 -15.606  1.00  0.00     0.022 A 
BRANCH  81  85
ATOM     85  S   UNL     1      15.675  -9.488 -16.373  1.00  0.00     0.124 S 
ATOM     86  O   UNL     1      16.216  -8.517 -17.317  1.00  0.00    -0.237 OA
ATOM     87  O   UNL     1      16.541  -9.850 -15.256  1.00  0.00    -0.237 OA
ATOM     88  O   UNL     1      14.937 -10.598 -16.971  1.00  0.00    -0.744 OA
ENDBRANCH  81  85
ENDBRANCH  54  78
BRANCH  66  89
ATOM     89  C   UNL     1      16.622  -0.672 -16.926  1.00  0.00     0.023 A 
ATOM     90  C   UNL     1      15.822  -0.629 -18.081  1.00  0.00     0.031 A 
ATOM     91  C   UNL     1      18.001  -0.431 -17.067  1.00  0.00     0.131 A 
ATOM     92  C   UNL     1      16.417  -0.423 -19.335  1.00  0.00     0.055 A 
ATOM     93  C   UNL     1      18.576  -0.160 -18.309  1.00  0.00     0.041 A 
ATOM     94  F   UNL     1      18.813  -0.460 -15.998  1.00  0.00    -0.206 F 
ATOM     95  C   UNL     1      17.786  -0.173 -19.454  1.00  0.00     0.022 A 
BRANCH  92  96
ATOM     96  S   UNL     1      15.394  -0.604 -20.822  1.00  0.00     0.124 S 
ATOM     97  O   UNL     1      14.855  -1.950 -20.660  1.00  0.00    -0.237 OA
ATOM     98  O   UNL     1      14.436   0.487 -20.675  1.00  0.00    -0.237 OA
ATOM     99  O   UNL     1      16.349  -0.446 -21.917  1.00  0.00    -0.744 OA
ENDBRANCH  92  96
ENDBRANCH  66  89
ENDBRANCH  40  41
ENDBRANCH  32  35
ENDBRANCH  30  31
ENDBRANCH  29  30
ENDBRANCH   1  29
TORSDOF 17
