REMARK SMILES CC1(C)C[C@@H]([NH2+]C[C@@H]2CCCC[C@@H]2C(=O)NCCCCNC(=O)c2ccc(-c3c4nc(c(-c5cc(S(=O)(=O)[O-])ccc5F)c5ccc([nH]5)c(-c5cc(S(=O)(=O)[O-])ccc5F)c5nc(c(-c6cc(S(=O)(=O)[O-])ccc6F)c6ccc3[nH]6)C=C5)C=C4)cc2)C(C)(C)O1
REMARK SMILES IDX 18 1 17 2 16 3 14 4 15 5 13 7 8 8 9 9 10 10 12 11 11 12 7 13
REMARK SMILES IDX 6 14 5 17 1 18 2 19 3 20 4 21 90 22 87 23 88 24 89 25 19 26
REMARK SMILES IDX 20 27 21 28 22 29 23 31 24 32 25 33 86 34 26 35 85 36 27 37
REMARK SMILES IDX 28 38 29 39 79 40 30 41 84 42 78 43 80 44 31 45 83 46 77 47
REMARK SMILES IDX 76 48 32 50 64 51 44 52 63 53 45 54 48 55 62 56 81 57 46 58
REMARK SMILES IDX 47 59 61 61 82 62 49 63 33 64 34 65 42 66 35 67 41 68 43 69
REMARK SMILES IDX 40 70 36 71 37 72 38 73 39 74 65 75 66 76 74 77 67 78 73 79
REMARK SMILES IDX 75 80 72 81 68 82 69 83 70 84 71 85 50 86 51 87 59 88 52 89
REMARK SMILES IDX 58 90 60 91 57 92 53 93 54 94 55 95 56 96
REMARK H PARENT 16 6 6 15 6 16 21 30 80 49 48 60
REMARK Flexibility Score: inf
ROOT
ATOM      1  C   UNL     1      -6.214   2.028  -2.269  1.00  0.00     0.023 C 
ENDROOT
BRANCH   1   2
ATOM      2  C   UNL     1      -6.260   1.006  -1.135  1.00  0.00     0.116 C 
BRANCH   2   3
ATOM      3  N   UNL     1      -6.587  -0.323  -1.616  1.00  0.00    -0.356 N 
ATOM      4  C   UNL     1      -5.865  -1.474  -1.643  1.00  0.00     0.223 C 
ATOM      5  O   UNL     1      -6.397  -2.466  -2.144  1.00  0.00    -0.275 OA
ATOM      6  H   UNL     1      -7.494  -0.406  -1.990  1.00  0.00     0.163 HD
BRANCH   4   7
ATOM      7  C   UNL     1      -4.455  -1.520  -1.062  1.00  0.00     0.087 C 
ATOM      8  C   UNL     1      -3.365  -1.714  -2.135  1.00  0.00     0.056 C 
ATOM      9  C   UNL     1      -3.368  -3.125  -2.737  1.00  0.00     0.010 C 
ATOM     10  C   UNL     1      -3.168  -4.160  -1.632  1.00  0.00     0.001 C 
ATOM     11  C   UNL     1      -4.363  -2.625   0.010  1.00  0.00     0.014 C 
ATOM     12  C   UNL     1      -4.232  -4.044  -0.547  1.00  0.00     0.001 C 
BRANCH   8  13
ATOM     13  C   UNL     1      -3.304  -0.627  -3.229  1.00  0.00     0.265 C 
BRANCH  13  14
ATOM     14  N   UNL     1      -2.781   0.673  -2.783  1.00  0.00    -0.341 N 
ATOM     15  H   UNL     1      -3.120   1.390  -3.425  1.00  0.00     0.346 HD
ATOM     16  H   UNL     1      -3.110   0.804  -1.826  1.00  0.00     0.346 HD
BRANCH  14  17
ATOM     17  C   UNL     1      -1.311   0.760  -2.733  1.00  0.00     0.217 C 
ATOM     18  C   UNL     1       1.206   0.382  -0.033  1.00  0.00     0.042 C 
ATOM     19  C   UNL     1       0.710   0.559  -1.466  1.00  0.00     0.069 C 
ATOM     20  C   UNL     1       1.718  -0.038  -2.452  1.00  0.00     0.042 C 
ATOM     21  C   UNL     1      -0.665  -0.060  -1.631  1.00  0.00     0.103 C 
ATOM     22  O   UNL     1       0.554   1.954  -1.757  1.00  0.00    -0.363 OA
ATOM     23  C   UNL     1      -0.702   2.168  -2.457  1.00  0.00     0.115 C 
ATOM     24  C   UNL     1      -1.559   3.051  -1.542  1.00  0.00     0.048 C 
ATOM     25  C   UNL     1      -0.390   2.920  -3.751  1.00  0.00     0.048 C 
ENDBRANCH  14  17
ENDBRANCH  13  14
ENDBRANCH   8  13
ENDBRANCH   4   7
ENDBRANCH   2   3
ENDBRANCH   1   2
BRANCH   1  26
ATOM     26  C   UNL     1      -7.523   2.192  -3.043  1.00  0.00     0.023 C 
BRANCH  26  27
ATOM     27  C   UNL     1      -8.756   2.463  -2.190  1.00  0.00     0.116 C 
BRANCH  27  28
ATOM     28  N   UNL     1      -8.627   3.659  -1.374  1.00  0.00    -0.352 N 
ATOM     29  C   UNL     1      -9.515   4.693  -1.206  1.00  0.00     0.251 C 
ATOM     30  H   UNL     1      -7.784   3.739  -0.872  1.00  0.00     0.163 HD
ATOM     31  O   UNL     1      -9.168   5.695  -0.586  1.00  0.00    -0.269 OA
BRANCH  29  32
ATOM     32  C   UNL     1     -10.866   4.610  -1.803  1.00  0.00     0.039 A 
ATOM     33  C   UNL     1     -11.367   5.718  -2.490  1.00  0.00     0.014 A 
ATOM     34  C   UNL     1     -11.626   3.441  -1.707  1.00  0.00     0.014 A 
ATOM     35  C   UNL     1     -12.602   5.630  -3.135  1.00  0.00     0.010 A 
ATOM     36  C   UNL     1     -12.817   3.328  -2.420  1.00  0.00     0.010 A 
ATOM     37  C   UNL     1     -13.321   4.423  -3.138  1.00  0.00    -0.014 A 
BRANCH  37  38
ATOM     38  C   UNL     1     -14.598   4.296  -3.889  1.00  0.00     0.031 A 
ATOM     39  C   UNL     1     -15.883   4.009  -3.161  1.00  0.00     0.074 A 
ATOM     40  C   UNL     1     -14.590   4.386  -5.233  1.00  0.00     0.049 A 
ATOM     41  N   UNL     1     -17.087   3.835  -3.642  1.00  0.00    -0.248 NA
ATOM     42  C   UNL     1     -15.791   3.864  -1.702  1.00  0.00     0.031 C 
ATOM     43  C   UNL     1     -13.399   4.599  -6.058  1.00  0.00     0.029 A 
ATOM     44  N   UNL     1     -15.613   4.303  -6.144  1.00  0.00    -0.354 N 
ATOM     45  C   UNL     1     -17.896   3.551  -2.546  1.00  0.00     0.074 A 
ATOM     46  C   UNL     1     -17.024   3.499  -1.391  1.00  0.00     0.031 C 
ATOM     47  C   UNL     1     -13.762   4.660  -7.348  1.00  0.00     0.029 A 
ATOM     48  C   UNL     1     -15.202   4.448  -7.449  1.00  0.00     0.049 A 
ATOM     49  H   UNL     1     -16.551   4.155  -5.888  1.00  0.00     0.167 HD
ATOM     50  C   UNL     1     -19.241   3.379  -2.502  1.00  0.00     0.034 A 
ATOM     51  C   UNL     1     -15.904   4.407  -8.599  1.00  0.00     0.034 A 
ATOM     52  C   UNL     1     -20.092   3.431  -3.668  1.00  0.00     0.049 A 
ATOM     53  C   UNL     1     -17.394   4.202  -8.534  1.00  0.00     0.074 A 
ATOM     54  C   UNL     1     -21.471   3.331  -3.737  1.00  0.00     0.029 A 
ATOM     55  N   UNL     1     -19.643   3.581  -4.976  1.00  0.00    -0.354 N 
ATOM     56  N   UNL     1     -18.158   4.007  -7.483  1.00  0.00    -0.248 NA
ATOM     57  C   UNL     1     -18.117   4.227  -9.810  1.00  0.00     0.031 C 
ATOM     58  C   UNL     1     -21.846   3.341  -5.086  1.00  0.00     0.029 A 
ATOM     59  C   UNL     1     -20.713   3.536  -5.860  1.00  0.00     0.049 A 
ATOM     60  H   UNL     1     -18.702   3.701  -5.238  1.00  0.00     0.167 HD
ATOM     61  C   UNL     1     -19.457   3.905  -7.972  1.00  0.00     0.074 A 
ATOM     62  C   UNL     1     -19.372   4.087  -9.408  1.00  0.00     0.031 C 
ATOM     63  C   UNL     1     -20.615   3.684  -7.295  1.00  0.00     0.034 A 
BRANCH  50  64
ATOM     64  C   UNL     1     -19.854   3.087  -1.149  1.00  0.00     0.023 A 
ATOM     65  C   UNL     1     -19.726   3.983  -0.071  1.00  0.00     0.031 A 
ATOM     66  C   UNL     1     -20.518   1.871  -0.910  1.00  0.00     0.131 A 
ATOM     67  C   UNL     1     -20.152   3.606   1.212  1.00  0.00     0.055 A 
ATOM     68  C   UNL     1     -21.029   1.544   0.348  1.00  0.00     0.041 A 
ATOM     69  F   UNL     1     -20.658   0.963  -1.889  1.00  0.00    -0.206 F 
ATOM     70  C   UNL     1     -20.827   2.404   1.424  1.00  0.00     0.022 A 
BRANCH  67  71
ATOM     71  S   UNL     1     -19.634   4.621   2.625  1.00  0.00     0.124 S 
ATOM     72  O   UNL     1     -18.181   4.620   2.472  1.00  0.00    -0.237 OA
ATOM     73  O   UNL     1     -20.304   5.889   2.364  1.00  0.00    -0.237 OA
ATOM     74  O   UNL     1     -20.131   3.877   3.781  1.00  0.00    -0.744 OA
ENDBRANCH  67  71
ENDBRANCH  50  64
BRANCH  51  75
ATOM     75  C   UNL     1     -15.203   4.559  -9.905  1.00  0.00     0.023 A 
ATOM     76  C   UNL     1     -15.416   5.681 -10.722  1.00  0.00     0.031 A 
ATOM     77  C   UNL     1     -14.307   3.574 -10.358  1.00  0.00     0.131 A 
ATOM     78  C   UNL     1     -14.766   5.776 -11.963  1.00  0.00     0.055 A 
ATOM     79  C   UNL     1     -13.627   3.696 -11.570  1.00  0.00     0.041 A 
ATOM     80  F   UNL     1     -14.061   2.486  -9.611  1.00  0.00    -0.206 F 
ATOM     81  C   UNL     1     -13.862   4.798 -12.385  1.00  0.00     0.022 A 
BRANCH  78  82
ATOM     82  S   UNL     1     -15.158   7.177 -13.046  1.00  0.00     0.124 S 
ATOM     83  O   UNL     1     -16.586   6.988 -13.273  1.00  0.00    -0.237 OA
ATOM     84  O   UNL     1     -14.785   8.317 -12.216  1.00  0.00    -0.237 OA
ATOM     85  O   UNL     1     -14.305   6.954 -14.212  1.00  0.00    -0.744 OA
ENDBRANCH  78  82
ENDBRANCH  51  75
BRANCH  63  86
ATOM     86  C   UNL     1     -21.886   3.650  -8.114  1.00  0.00     0.023 A 
ATOM     87  C   UNL     1     -22.113   2.660  -9.086  1.00  0.00     0.031 A 
ATOM     88  C   UNL     1     -22.867   4.643  -7.944  1.00  0.00     0.131 A 
ATOM     89  C   UNL     1     -23.253   2.726  -9.901  1.00  0.00     0.055 A 
ATOM     90  C   UNL     1     -24.036   4.661  -8.708  1.00  0.00     0.041 A 
ATOM     91  F   UNL     1     -22.705   5.617  -7.035  1.00  0.00    -0.206 F 
ATOM     92  C   UNL     1     -24.226   3.709  -9.705  1.00  0.00     0.022 A 
BRANCH  89  93
ATOM     93  S   UNL     1     -23.388   1.584 -11.304  1.00  0.00     0.124 S 
ATOM     94  O   UNL     1     -22.158   1.862 -12.039  1.00  0.00    -0.237 OA
ATOM     95  O   UNL     1     -23.457   0.285 -10.644  1.00  0.00    -0.237 OA
ATOM     96  O   UNL     1     -24.618   2.006 -11.973  1.00  0.00    -0.744 OA
ENDBRANCH  89  93
ENDBRANCH  63  86
ENDBRANCH  37  38
ENDBRANCH  29  32
ENDBRANCH  27  28
ENDBRANCH  26  27
ENDBRANCH   1  26
TORSDOF 17
