REMARK SMILES C[C@@H]1C[C@@]([NH2+]Cc2cccs2)(C(=O)NCCCCNC(=O)c2ccc(-c3c4nc(c(-c5cc(S(=O)(=O)[O-])ccc5F)c5ccc([nH]5)c(-c5cc(S(=O)(=O)[O-])ccc5F)c5nc(c(-c6cc(S(=O)(=O)[O-])ccc6F)c6ccc3[nH]6)C=C5)C=C4)cc2)CS1
REMARK SMILES IDX 16 1 15 2 14 3 12 4 13 5 4 7 1 8 2 9 3 10 86 11 85 12 5 13
REMARK SMILES IDX 6 16 7 17 8 18 11 19 9 20 10 21 17 22 18 23 19 24 20 25
REMARK SMILES IDX 21 27 22 28 23 29 84 30 24 31 83 32 25 33 26 34 27 35 77 36
REMARK SMILES IDX 28 37 82 38 76 39 78 40 29 41 81 42 75 43 74 44 30 46 62 47
REMARK SMILES IDX 42 48 61 49 43 50 46 51 60 52 79 53 44 54 45 55 59 57 80 58
REMARK SMILES IDX 47 59 31 60 32 61 40 62 33 63 39 64 41 65 38 66 34 67 35 68
REMARK SMILES IDX 36 69 37 70 63 71 64 72 72 73 65 74 71 75 73 76 70 77 66 78
REMARK SMILES IDX 67 79 68 80 69 81 48 82 49 83 57 84 50 85 56 86 58 87 55 88
REMARK SMILES IDX 51 89 52 90 53 91 54 92
REMARK H PARENT 14 6 5 14 5 15 19 26 78 45 46 56
REMARK Flexibility Score: inf
ROOT
ATOM      1  C   UNL     1       1.549   3.587   4.160  1.00  0.00     0.023 C 
ENDROOT
BRANCH   1   2
ATOM      2  C   UNL     1       2.075   2.245   4.677  1.00  0.00     0.116 C 
BRANCH   2   3
ATOM      3  N   UNL     1       0.977   1.365   5.049  1.00  0.00    -0.351 N 
ATOM      4  C   UNL     1       0.552   0.182   4.503  1.00  0.00     0.282 C 
ATOM      5  O   UNL     1      -0.447  -0.334   5.010  1.00  0.00    -0.268 OA
ATOM      6  H   UNL     1       0.452   1.671   5.824  1.00  0.00     0.163 HD
BRANCH   4   7
ATOM      7  C   UNL     1       1.344  -0.509   3.344  1.00  0.00     0.185 C 
ATOM      8  C   UNL     1       0.959   0.537  -0.377  1.00  0.00     0.019 C 
ATOM      9  C   UNL     1       0.511   0.000   0.972  1.00  0.00     0.050 C 
ATOM     10  C   UNL     1       1.412   0.459   2.115  1.00  0.00     0.094 C 
ATOM     11  S   UNL     1       0.653  -1.783   1.035  1.00  0.00    -0.151 SA
ATOM     12  C   UNL     1       0.625  -1.792   2.844  1.00  0.00     0.148 C 
BRANCH   7  13
ATOM     13  N   UNL     1       2.747  -0.796   3.806  1.00  0.00    -0.328 N 
ATOM     14  H   UNL     1       3.255   0.088   3.810  1.00  0.00     0.347 HD
ATOM     15  H   UNL     1       3.100  -1.496   3.154  1.00  0.00     0.347 HD
BRANCH  13  16
ATOM     16  C   UNL     1       2.907  -1.406   5.142  1.00  0.00     0.309 C 
BRANCH  16  17
ATOM     17  C   UNL     1       2.769  -2.902   5.151  1.00  0.00     0.059 A 
ATOM     18  C   UNL     1       3.729  -3.852   4.852  1.00  0.00     0.021 A 
ATOM     19  S   UNL     1       1.304  -3.653   5.648  1.00  0.00    -0.143 S 
ATOM     20  C   UNL     1       3.187  -5.169   4.801  1.00  0.00     0.012 A 
ATOM     21  C   UNL     1       1.847  -5.186   5.116  1.00  0.00     0.065 A 
ENDBRANCH  16  17
ENDBRANCH  13  16
ENDBRANCH   7  13
ENDBRANCH   4   7
ENDBRANCH   2   3
ENDBRANCH   1   2
BRANCH   1  22
ATOM     22  C   UNL     1       0.910   4.474   5.231  1.00  0.00     0.023 C 
BRANCH  22  23
ATOM     23  C   UNL     1       1.841   4.882   6.367  1.00  0.00     0.116 C 
BRANCH  23  24
ATOM     24  N   UNL     1       3.000   5.626   5.901  1.00  0.00    -0.352 N 
ATOM     25  C   UNL     1       3.529   6.801   6.373  1.00  0.00     0.251 C 
ATOM     26  H   UNL     1       3.475   5.228   5.136  1.00  0.00     0.163 HD
ATOM     27  O   UNL     1       4.417   7.362   5.730  1.00  0.00    -0.269 OA
BRANCH  25  28
ATOM     28  C   UNL     1       3.014   7.407   7.621  1.00  0.00     0.039 A 
ATOM     29  C   UNL     1       2.819   8.789   7.666  1.00  0.00     0.014 A 
ATOM     30  C   UNL     1       2.724   6.625   8.743  1.00  0.00     0.014 A 
ATOM     31  C   UNL     1       2.278   9.375   8.812  1.00  0.00     0.010 A 
ATOM     32  C   UNL     1       2.105   7.199   9.852  1.00  0.00     0.010 A 
ATOM     33  C   UNL     1       1.880   8.582   9.902  1.00  0.00    -0.014 A 
BRANCH  33  34
ATOM     34  C   UNL     1       1.223   9.196  11.086  1.00  0.00     0.031 A 
ATOM     35  C   UNL     1       1.874   9.135  12.442  1.00  0.00     0.074 A 
ATOM     36  C   UNL     1       0.020   9.788  10.942  1.00  0.00     0.049 A 
ATOM     37  N   UNL     1       1.457   9.623  13.583  1.00  0.00    -0.248 NA
ATOM     38  C   UNL     1       3.147   8.405  12.532  1.00  0.00     0.031 C 
ATOM     39  C   UNL     1      -0.737   9.865   9.690  1.00  0.00     0.029 A 
ATOM     40  N   UNL     1      -0.774  10.445  11.848  1.00  0.00    -0.354 N 
ATOM     41  C   UNL     1       2.414   9.260  14.525  1.00  0.00     0.074 A 
ATOM     42  C   UNL     1       3.390   8.445  13.833  1.00  0.00     0.031 C 
ATOM     43  C   UNL     1      -1.859  10.571   9.896  1.00  0.00     0.029 A 
ATOM     44  C   UNL     1      -1.929  10.957  11.301  1.00  0.00     0.049 A 
ATOM     45  H   UNL     1      -0.540  10.541  12.799  1.00  0.00     0.167 HD
ATOM     46  C   UNL     1       2.488   9.598  15.838  1.00  0.00     0.034 A 
ATOM     47  C   UNL     1      -2.931  11.659  11.867  1.00  0.00     0.034 A 
ATOM     48  C   UNL     1       1.502  10.409  16.514  1.00  0.00     0.049 A 
ATOM     49  C   UNL     1      -2.839  12.002  13.332  1.00  0.00     0.074 A 
ATOM     50  C   UNL     1       1.498  10.847  17.827  1.00  0.00     0.029 A 
ATOM     51  N   UNL     1       0.336  10.896  15.934  1.00  0.00    -0.354 N 
ATOM     52  N   UNL     1      -1.896  11.702  14.195  1.00  0.00    -0.248 NA
ATOM     53  C   UNL     1      -3.940  12.793  13.891  1.00  0.00     0.031 C 
ATOM     54  C   UNL     1       0.298  11.528  18.061  1.00  0.00     0.029 A 
ATOM     55  C   UNL     1      -0.409  11.598  16.871  1.00  0.00     0.049 A 
ATOM     56  H   UNL     1       0.076  10.761  14.994  1.00  0.00     0.167 HD
ATOM     57  C   UNL     1      -2.279  12.296  15.395  1.00  0.00     0.074 A 
ATOM     58  C   UNL     1      -3.521  12.994  15.130  1.00  0.00     0.031 C 
ATOM     59  C   UNL     1      -1.661  12.270  16.605  1.00  0.00     0.034 A 
BRANCH  46  60
ATOM     60  C   UNL     1       3.664   9.064  16.627  1.00  0.00     0.023 A 
ATOM     61  C   UNL     1       4.991   9.387  16.287  1.00  0.00     0.031 A 
ATOM     62  C   UNL     1       3.462   8.193  17.712  1.00  0.00     0.131 A 
ATOM     63  C   UNL     1       6.059   8.780  16.965  1.00  0.00     0.055 A 
ATOM     64  C   UNL     1       4.528   7.664  18.442  1.00  0.00     0.041 A 
ATOM     65  F   UNL     1       2.222   7.827  18.074  1.00  0.00    -0.206 F 
ATOM     66  C   UNL     1       5.837   7.942  18.059  1.00  0.00     0.022 A 
BRANCH  63  67
ATOM     67  S   UNL     1       7.732   8.970  16.291  1.00  0.00     0.124 S 
ATOM     68  O   UNL     1       7.568   8.441  14.939  1.00  0.00    -0.237 OA
ATOM     69  O   UNL     1       7.951  10.408  16.392  1.00  0.00    -0.237 OA
ATOM     70  O   UNL     1       8.554   8.149  17.177  1.00  0.00    -0.744 OA
ENDBRANCH  63  67
ENDBRANCH  46  60
BRANCH  47  71
ATOM     71  C   UNL     1      -4.104  12.093  11.053  1.00  0.00     0.023 A 
ATOM     72  C   UNL     1      -4.385  13.454  10.852  1.00  0.00     0.031 A 
ATOM     73  C   UNL     1      -4.989  11.150  10.500  1.00  0.00     0.131 A 
ATOM     74  C   UNL     1      -5.545  13.835  10.162  1.00  0.00     0.055 A 
ATOM     75  C   UNL     1      -6.111  11.534   9.763  1.00  0.00     0.041 A 
ATOM     76  F   UNL     1      -4.767   9.835  10.658  1.00  0.00    -0.206 F 
ATOM     77  C   UNL     1      -6.402  12.885   9.603  1.00  0.00     0.022 A 
BRANCH  74  78
ATOM     78  S   UNL     1      -5.969  15.598  10.081  1.00  0.00     0.124 S 
ATOM     79  O   UNL     1      -6.061  15.946  11.494  1.00  0.00    -0.237 OA
ATOM     80  O   UNL     1      -4.830  16.150   9.356  1.00  0.00    -0.237 OA
ATOM     81  O   UNL     1      -7.235  15.609   9.350  1.00  0.00    -0.744 OA
ENDBRANCH  74  78
ENDBRANCH  47  71
BRANCH  59  82
ATOM     82  C   UNL     1      -2.315  13.055  17.720  1.00  0.00     0.023 A 
ATOM     83  C   UNL     1      -3.601  12.737  18.193  1.00  0.00     0.031 A 
ATOM     84  C   UNL     1      -1.666  14.170  18.280  1.00  0.00     0.131 A 
ATOM     85  C   UNL     1      -4.233  13.576  19.123  1.00  0.00     0.055 A 
ATOM     86  C   UNL     1      -2.268  14.953  19.267  1.00  0.00     0.041 A 
ATOM     87  F   UNL     1      -0.439  14.527  17.869  1.00  0.00    -0.206 F 
ATOM     88  C   UNL     1      -3.567  14.671  19.678  1.00  0.00     0.022 A 
BRANCH  85  89
ATOM     89  S   UNL     1      -5.990  13.303  19.484  1.00  0.00     0.124 S 
ATOM     90  O   UNL     1      -6.583  13.356  18.152  1.00  0.00    -0.237 OA
ATOM     91  O   UNL     1      -5.977  11.992  20.125  1.00  0.00    -0.237 OA
ATOM     92  O   UNL     1      -6.337  14.420  20.362  1.00  0.00    -0.744 OA
ENDBRANCH  85  89
ENDBRANCH  59  82
ENDBRANCH  33  34
ENDBRANCH  25  28
ENDBRANCH  23  24
ENDBRANCH  22  23
ENDBRANCH   1  22
TORSDOF 17
