REMARK SMILES O=C(NCCCCNC(=O)[C@H]1C=C[C@H](Nc2ccc([N+](=O)[O-])cc2C(F)F)C1)c1ccc(-c2c3nc(c(-c4cc(S(=O)(=O)[O-])ccc4F)c4ccc([nH]4)c(-c4cc(S(=O)(=O)[O-])ccc4F)c4nc(c(-c5cc(S(=O)(=O)[O-])ccc5F)c5ccc2[nH]5)C=C4)C=C3)cc1
REMARK SMILES IDX 5 1 4 2 3 3 1 4 2 5 29 7 30 8 91 9 31 10 90 11 32 12 33 13
REMARK SMILES IDX 34 14 84 15 35 16 89 17 83 18 85 19 36 20 88 21 82 22 81 23
REMARK SMILES IDX 37 25 69 26 49 27 68 28 50 29 53 30 67 31 86 32 51 33 52 34
REMARK SMILES IDX 66 36 87 37 54 38 38 39 39 40 47 41 40 42 46 43 48 44 45 45
REMARK SMILES IDX 41 46 42 47 43 48 44 49 70 50 71 51 79 52 72 53 78 54 80 55
REMARK SMILES IDX 77 56 73 57 74 58 75 59 76 60 55 61 56 62 64 63 57 64 63 65
REMARK SMILES IDX 65 66 62 67 58 68 59 69 60 70 61 71 6 72 7 73 8 74 9 75
REMARK SMILES IDX 10 77 11 78 12 79 28 80 13 81 14 82 15 83 16 85 17 86 24 87
REMARK SMILES IDX 18 88 23 89 19 90 25 91 26 92 27 93 20 94 21 95 22 96
REMARK H PARENT 3 6 85 24 53 35 8 76 15 84
REMARK Flexibility Score: inf
ROOT
ATOM      1  C   UNL     1       4.986   1.221  -2.206  1.00  0.00     0.023 C 
ENDROOT
BRANCH   1   2
ATOM      2  C   UNL     1       4.640   0.987  -0.741  1.00  0.00     0.116 C 
BRANCH   2   3
ATOM      3  N   UNL     1       3.205   0.917  -0.498  1.00  0.00    -0.352 N 
ATOM      4  O   UNL     1       1.225  -0.056  -0.031  1.00  0.00    -0.269 OA
ATOM      5  C   UNL     1       2.446  -0.136  -0.035  1.00  0.00     0.251 C 
ATOM      6  H   UNL     1       2.705   1.743  -0.693  1.00  0.00     0.163 HD
BRANCH   5   7
ATOM      7  C   UNL     1       3.119  -1.368   0.431  1.00  0.00     0.039 A 
ATOM      8  C   UNL     1       4.225  -1.286   1.277  1.00  0.00     0.014 A 
ATOM      9  C   UNL     1       2.656  -2.614  -0.002  1.00  0.00     0.014 A 
ATOM     10  C   UNL     1       4.971  -2.426   1.544  1.00  0.00     0.010 A 
ATOM     11  C   UNL     1       3.350  -3.774   0.358  1.00  0.00     0.010 A 
ATOM     12  C   UNL     1       4.535  -3.687   1.105  1.00  0.00    -0.014 A 
BRANCH  12  13
ATOM     13  C   UNL     1       5.311  -4.890   1.504  1.00  0.00     0.031 A 
ATOM     14  C   UNL     1       5.996  -5.757   0.483  1.00  0.00     0.074 A 
ATOM     15  C   UNL     1       5.438  -5.157   2.820  1.00  0.00     0.049 A 
ATOM     16  N   UNL     1       6.739  -6.819   0.671  1.00  0.00    -0.248 NA
ATOM     17  C   UNL     1       5.819  -5.395  -0.931  1.00  0.00     0.031 C 
ATOM     18  C   UNL     1       4.811  -4.383   3.896  1.00  0.00     0.029 A 
ATOM     19  N   UNL     1       6.151  -6.122   3.482  1.00  0.00    -0.354 N 
ATOM     20  C   UNL     1       7.109  -7.260  -0.595  1.00  0.00     0.074 A 
ATOM     21  C   UNL     1       6.481  -6.366  -1.546  1.00  0.00     0.031 C 
ATOM     22  C   UNL     1       5.217  -4.863   5.079  1.00  0.00     0.029 A 
ATOM     23  C   UNL     1       6.063  -6.027   4.851  1.00  0.00     0.049 A 
ATOM     24  H   UNL     1       6.677  -6.815   3.022  1.00  0.00     0.167 HD
ATOM     25  C   UNL     1       7.904  -8.308  -0.927  1.00  0.00     0.034 A 
ATOM     26  C   UNL     1       6.585  -6.802   5.821  1.00  0.00     0.034 A 
ATOM     27  C   UNL     1       8.525  -9.186   0.039  1.00  0.00     0.049 A 
ATOM     28  C   UNL     1       7.435  -7.976   5.419  1.00  0.00     0.074 A 
ATOM     29  C   UNL     1       9.362 -10.266  -0.189  1.00  0.00     0.029 A 
ATOM     30  N   UNL     1       8.373  -9.091   1.417  1.00  0.00    -0.354 N 
ATOM     31  N   UNL     1       7.778  -8.372   4.215  1.00  0.00    -0.248 NA
ATOM     32  C   UNL     1       7.969  -8.804   6.505  1.00  0.00     0.031 C 
ATOM     33  C   UNL     1       9.664 -10.859   1.043  1.00  0.00     0.029 A 
ATOM     34  C   UNL     1       9.076 -10.108   2.048  1.00  0.00     0.049 A 
ATOM     35  H   UNL     1       7.844  -8.402   1.879  1.00  0.00     0.167 HD
ATOM     36  C   UNL     1       8.578  -9.494   4.402  1.00  0.00     0.074 A 
ATOM     37  C   UNL     1       8.694  -9.685   5.834  1.00  0.00     0.031 C 
ATOM     38  C   UNL     1       9.159 -10.299   3.477  1.00  0.00     0.034 A 
BRANCH  25  39
ATOM     39  C   UNL     1       8.115  -8.592  -2.396  1.00  0.00     0.023 A 
ATOM     40  C   UNL     1       8.810  -7.701  -3.233  1.00  0.00     0.031 A 
ATOM     41  C   UNL     1       7.618  -9.777  -2.967  1.00  0.00     0.131 A 
ATOM     42  C   UNL     1       8.944  -7.985  -4.602  1.00  0.00     0.055 A 
ATOM     43  C   UNL     1       7.814 -10.087  -4.315  1.00  0.00     0.041 A 
ATOM     44  F   UNL     1       6.929 -10.657  -2.223  1.00  0.00    -0.206 F 
ATOM     45  C   UNL     1       8.472  -9.183  -5.143  1.00  0.00     0.022 A 
BRANCH  42  46
ATOM     46  S   UNL     1       9.648  -6.715  -5.689  1.00  0.00     0.124 S 
ATOM     47  O   UNL     1       8.716  -5.607  -5.493  1.00  0.00    -0.237 OA
ATOM     48  O   UNL     1      10.985  -6.530  -5.136  1.00  0.00    -0.237 OA
ATOM     49  O   UNL     1       9.601  -7.332  -7.013  1.00  0.00    -0.744 OA
ENDBRANCH  42  46
ENDBRANCH  25  39
BRANCH  26  50
ATOM     50  C   UNL     1       6.284  -6.522   7.253  1.00  0.00     0.023 A 
ATOM     51  C   UNL     1       7.303  -6.199   8.161  1.00  0.00     0.031 A 
ATOM     52  C   UNL     1       4.967  -6.613   7.743  1.00  0.00     0.131 A 
ATOM     53  C   UNL     1       6.997  -6.024   9.519  1.00  0.00     0.055 A 
ATOM     54  C   UNL     1       4.660  -6.377   9.083  1.00  0.00     0.041 A 
ATOM     55  F   UNL     1       3.954  -6.917   6.916  1.00  0.00    -0.206 F 
ATOM     56  C   UNL     1       5.681  -6.095   9.983  1.00  0.00     0.022 A 
BRANCH  53  57
ATOM     57  S   UNL     1       8.361  -5.798  10.693  1.00  0.00     0.124 S 
ATOM     58  O   UNL     1       9.183  -6.973  10.424  1.00  0.00    -0.237 OA
ATOM     59  O   UNL     1       8.915  -4.517  10.268  1.00  0.00    -0.237 OA
ATOM     60  O   UNL     1       7.693  -5.787  11.992  1.00  0.00    -0.744 OA
ENDBRANCH  53  57
ENDBRANCH  26  50
BRANCH  38  61
ATOM     61  C   UNL     1       9.987 -11.442   4.008  1.00  0.00     0.023 A 
ATOM     62  C   UNL     1       9.400 -12.506   4.715  1.00  0.00     0.031 A 
ATOM     63  C   UNL     1      11.384 -11.442   3.850  1.00  0.00     0.131 A 
ATOM     64  C   UNL     1      10.212 -13.488   5.300  1.00  0.00     0.055 A 
ATOM     65  C   UNL     1      12.181 -12.457   4.379  1.00  0.00     0.041 A 
ATOM     66  F   UNL     1      11.996 -10.448   3.186  1.00  0.00    -0.206 F 
ATOM     67  C   UNL     1      11.598 -13.479   5.124  1.00  0.00     0.022 A 
BRANCH  64  68
ATOM     68  S   UNL     1       9.441 -14.718   6.388  1.00  0.00     0.124 S 
ATOM     69  O   UNL     1       8.815 -13.876   7.402  1.00  0.00    -0.237 OA
ATOM     70  O   UNL     1       8.530 -15.409   5.481  1.00  0.00    -0.237 OA
ATOM     71  O   UNL     1      10.572 -15.517   6.857  1.00  0.00    -0.744 OA
ENDBRANCH  64  68
ENDBRANCH  38  61
ENDBRANCH  12  13
ENDBRANCH   5   7
ENDBRANCH   2   3
ENDBRANCH   1   2
BRANCH   1  72
ATOM     72  C   UNL     1       4.470   2.531  -2.796  1.00  0.00     0.023 C 
BRANCH  72  73
ATOM     73  C   UNL     1       4.794   3.780  -1.986  1.00  0.00     0.116 C 
BRANCH  73  74
ATOM     74  N   UNL     1       6.217   4.025  -1.848  1.00  0.00    -0.356 N 
ATOM     75  C   UNL     1       6.844   5.226  -1.645  1.00  0.00     0.227 C 
ATOM     76  H   UNL     1       6.801   3.235  -1.907  1.00  0.00     0.163 HD
ATOM     77  O   UNL     1       8.059   5.235  -1.454  1.00  0.00    -0.274 OA
BRANCH  75  78
ATOM     78  C   UNL     1       6.000   6.500  -1.701  1.00  0.00     0.103 C 
ATOM     79  C   UNL     1       5.146   6.658  -0.476  1.00  0.00    -0.016 C 
ATOM     80  C   UNL     1       6.835   7.793  -1.672  1.00  0.00     0.046 C 
ATOM     81  C   UNL     1       5.149   7.920  -0.037  1.00  0.00    -0.006 C 
ATOM     82  C   UNL     1       6.005   8.812  -0.874  1.00  0.00     0.103 C 
BRANCH  82  83
ATOM     83  N   UNL     1       5.169   9.607  -1.770  1.00  0.00    -0.378 N 
ATOM     84  H   UNL     1       5.381   9.591  -2.731  1.00  0.00     0.161 HD
BRANCH  83  85
ATOM     85  C   UNL     1       4.095  10.386  -1.356  1.00  0.00     0.044 A 
ATOM     86  C   UNL     1       2.877  10.202  -2.044  1.00  0.00     0.033 A 
ATOM     87  C   UNL     1       4.113  11.278  -0.268  1.00  0.00     0.048 A 
ATOM     88  C   UNL     1       1.700  10.848  -1.659  1.00  0.00     0.088 A 
ATOM     89  C   UNL     1       2.918  11.915   0.137  1.00  0.00     0.097 A 
ATOM     90  C   UNL     1       1.723  11.698  -0.556  1.00  0.00     0.270 A 
BRANCH  87  91
ATOM     91  C   UNL     1       5.371  11.614   0.492  1.00  0.00     0.375 C 
ATOM     92  F   UNL     1       5.327  12.858   1.058  1.00  0.00    -0.205 F 
ATOM     93  F   UNL     1       5.597  10.757   1.526  1.00  0.00    -0.205 F 
ENDBRANCH  87  91
BRANCH  90  94
ATOM     94  N   UNL     1       0.491  12.372  -0.127  1.00  0.00     0.062 N 
ATOM     95  O   UNL     1      -0.532  12.187  -0.801  1.00  0.00    -0.258 OA
ATOM     96  O   UNL     1       0.548  13.093   0.880  1.00  0.00    -0.258 OA
ENDBRANCH  90  94
ENDBRANCH  83  85
ENDBRANCH  82  83
ENDBRANCH  75  78
ENDBRANCH  73  74
ENDBRANCH  72  73
ENDBRANCH   1  72
TORSDOF 18
