REMARK SMILES C[C@H]1SCCC[C@@]1(C(=O)NCCCCNC(=O)c1ccc(-c2c3nc(c(-c4cc(S(=O)(=O)[O-])ccc4F)c4ccc([nH]4)c(-c4cc(S(=O)(=O)[O-])ccc4F)c4nc(c(-c5cc(S(=O)(=O)[O-])ccc5F)c5ccc2[nH]5)C=C4)C=C3)cc1)[NH+]1CCCC1
REMARK SMILES IDX 13 1 12 2 11 3 10 4 8 5 9 6 7 8 1 9 2 10 3 11 4 12 6 13 5 14
REMARK SMILES IDX 81 15 82 16 85 17 83 19 84 20 14 21 15 22 16 23 17 25 18 26
REMARK SMILES IDX 19 27 80 28 20 29 79 30 21 31 22 32 23 33 73 34 24 35 78 36
REMARK SMILES IDX 72 37 74 38 25 39 77 40 71 41 70 42 26 44 58 45 38 46 57 47
REMARK SMILES IDX 39 48 42 49 56 50 75 51 40 52 41 53 55 55 76 56 43 57 27 58
REMARK SMILES IDX 28 59 36 60 29 61 35 62 37 63 34 64 30 65 31 66 32 67 33 68
REMARK SMILES IDX 59 69 60 70 68 71 61 72 67 73 69 74 66 75 62 76 63 77 64 78
REMARK SMILES IDX 65 79 44 80 45 81 53 82 46 83 52 84 54 85 51 86 47 87 48 88
REMARK SMILES IDX 49 89 50 90
REMARK H PARENT 10 7 81 18 15 24 74 43 42 54
REMARK Flexibility Score: inf
ROOT
ATOM      1  C   UNL     1       5.407   5.693   0.658  1.00  0.00     0.023 C 
ENDROOT
BRANCH   1   2
ATOM      2  C   UNL     1       3.892   5.718   0.505  1.00  0.00     0.023 C 
BRANCH   2   3
ATOM      3  C   UNL     1       3.281   4.492  -0.173  1.00  0.00     0.116 C 
BRANCH   3   4
ATOM      4  N   UNL     1       3.366   3.290   0.630  1.00  0.00    -0.351 N 
ATOM      5  C   UNL     1       2.457   2.379   1.083  1.00  0.00     0.282 C 
ATOM      6  O   UNL     1       2.987   1.439   1.693  1.00  0.00    -0.268 OA
ATOM      7  H   UNL     1       4.286   3.084   0.914  1.00  0.00     0.163 HD
BRANCH   5   8
ATOM      8  C   UNL     1       0.860   2.467   0.881  1.00  0.00     0.188 C 
ATOM      9  C   UNL     1       0.370   0.550   2.646  1.00  0.00     0.027 C 
ATOM     10  C   UNL     1       0.380   0.962   1.160  1.00  0.00     0.115 C 
ATOM     11  S   UNL     1      -1.277   0.451   0.520  1.00  0.00    -0.152 SA
ATOM     12  C   UNL     1      -1.095   0.971  -1.191  1.00  0.00     0.070 C 
ATOM     13  C   UNL     1       0.574   2.822  -0.611  1.00  0.00     0.081 C 
ATOM     14  C   UNL     1      -0.755   2.442  -1.263  1.00  0.00     0.018 C 
BRANCH   8  15
ATOM     15  N   UNL     1       0.257   3.355   1.933  1.00  0.00    -0.321 N 
ATOM     16  C   UNL     1      -1.137   3.771   1.785  1.00  0.00     0.263 C 
ATOM     17  C   UNL     1       0.935   4.582   2.336  1.00  0.00     0.263 C 
ATOM     18  H   UNL     1       0.375   2.631   2.642  1.00  0.00     0.349 HD
ATOM     19  C   UNL     1      -1.089   5.162   1.169  1.00  0.00     0.067 C 
ATOM     20  C   UNL     1       0.271   5.714   1.566  1.00  0.00     0.067 C 
ENDBRANCH   8  15
ENDBRANCH   5   8
ENDBRANCH   3   4
ENDBRANCH   2   3
ENDBRANCH   1   2
BRANCH   1  21
ATOM     21  C   UNL     1       6.177   5.460  -0.634  1.00  0.00     0.116 C 
BRANCH  21  22
ATOM     22  N   UNL     1       5.762   6.351  -1.708  1.00  0.00    -0.352 N 
ATOM     23  C   UNL     1       6.520   7.154  -2.521  1.00  0.00     0.251 C 
ATOM     24  H   UNL     1       4.792   6.382  -1.875  1.00  0.00     0.163 HD
ATOM     25  O   UNL     1       5.965   7.962  -3.263  1.00  0.00    -0.269 OA
BRANCH  23  26
ATOM     26  C   UNL     1       7.993   7.064  -2.473  1.00  0.00     0.039 A 
ATOM     27  C   UNL     1       8.741   8.241  -2.469  1.00  0.00     0.014 A 
ATOM     28  C   UNL     1       8.632   5.822  -2.401  1.00  0.00     0.014 A 
ATOM     29  C   UNL     1      10.126   8.172  -2.324  1.00  0.00     0.010 A 
ATOM     30  C   UNL     1       9.998   5.761  -2.153  1.00  0.00     0.010 A 
ATOM     31  C   UNL     1      10.762   6.934  -2.121  1.00  0.00    -0.014 A 
BRANCH  31  32
ATOM     32  C   UNL     1      12.225   6.870  -1.867  1.00  0.00     0.031 A 
ATOM     33  C   UNL     1      13.131   6.142  -2.824  1.00  0.00     0.074 A 
ATOM     34  C   UNL     1      12.724   7.451  -0.757  1.00  0.00     0.049 A 
ATOM     35  N   UNL     1      14.432   6.015  -2.790  1.00  0.00    -0.248 NA
ATOM     36  C   UNL     1      12.493   5.441  -3.951  1.00  0.00     0.031 C 
ATOM     37  C   UNL     1      11.929   8.126   0.274  1.00  0.00     0.029 A 
ATOM     38  N   UNL     1      14.015   7.582  -0.311  1.00  0.00    -0.354 N 
ATOM     39  C   UNL     1      14.766   5.215  -3.878  1.00  0.00     0.074 A 
ATOM     40  C   UNL     1      13.526   4.835  -4.517  1.00  0.00     0.031 C 
ATOM     41  C   UNL     1      12.752   8.647   1.197  1.00  0.00     0.029 A 
ATOM     42  C   UNL     1      14.128   8.305   0.856  1.00  0.00     0.049 A 
ATOM     43  H   UNL     1      14.788   7.195  -0.781  1.00  0.00     0.167 HD
ATOM     44  C   UNL     1      15.996   4.852  -4.315  1.00  0.00     0.034 A 
ATOM     45  C   UNL     1      15.219   8.654   1.566  1.00  0.00     0.034 A 
ATOM     46  C   UNL     1      17.222   5.262  -3.676  1.00  0.00     0.049 A 
ATOM     47  C   UNL     1      16.574   8.234   1.050  1.00  0.00     0.074 A 
ATOM     48  C   UNL     1      18.524   5.025  -4.081  1.00  0.00     0.029 A 
ATOM     49  N   UNL     1      17.301   5.984  -2.492  1.00  0.00    -0.354 N 
ATOM     50  N   UNL     1      16.875   7.561  -0.038  1.00  0.00    -0.248 NA
ATOM     51  C   UNL     1      17.737   8.637   1.849  1.00  0.00     0.031 C 
ATOM     52  C   UNL     1      19.386   5.526  -3.101  1.00  0.00     0.029 A 
ATOM     53  C   UNL     1      18.627   6.159  -2.129  1.00  0.00     0.049 A 
ATOM     54  H   UNL     1      16.528   6.321  -1.984  1.00  0.00     0.167 HD
ATOM     55  C   UNL     1      18.265   7.492  -0.067  1.00  0.00     0.074 A 
ATOM     56  C   UNL     1      18.738   8.223   1.090  1.00  0.00     0.031 C 
ATOM     57  C   UNL     1      19.081   6.878  -0.963  1.00  0.00     0.034 A 
BRANCH  44  58
ATOM     58  C   UNL     1      16.081   3.948  -5.522  1.00  0.00     0.023 A 
ATOM     59  C   UNL     1      15.634   4.353  -6.792  1.00  0.00     0.031 A 
ATOM     60  C   UNL     1      16.636   2.661  -5.400  1.00  0.00     0.131 A 
ATOM     61  C   UNL     1      15.704   3.464  -7.876  1.00  0.00     0.055 A 
ATOM     62  C   UNL     1      16.772   1.810  -6.498  1.00  0.00     0.041 A 
ATOM     63  F   UNL     1      17.056   2.209  -4.208  1.00  0.00    -0.206 F 
ATOM     64  C   UNL     1      16.296   2.206  -7.744  1.00  0.00     0.022 A 
BRANCH  61  65
ATOM     65  S   UNL     1      14.908   3.931  -9.438  1.00  0.00     0.124 S 
ATOM     66  O   UNL     1      13.518   4.104  -9.021  1.00  0.00    -0.237 OA
ATOM     67  O   UNL     1      15.621   5.149  -9.804  1.00  0.00    -0.237 OA
ATOM     68  O   UNL     1      15.152   2.780 -10.305  1.00  0.00    -0.744 OA
ENDBRANCH  61  65
ENDBRANCH  44  58
BRANCH  45  69
ATOM     69  C   UNL     1      15.099   9.437   2.833  1.00  0.00     0.023 A 
ATOM     70  C   UNL     1      15.719  10.690   2.968  1.00  0.00     0.031 A 
ATOM     71  C   UNL     1      14.441   8.907   3.957  1.00  0.00     0.131 A 
ATOM     72  C   UNL     1      15.736  11.334   4.215  1.00  0.00     0.055 A 
ATOM     73  C   UNL     1      14.399   9.585   5.177  1.00  0.00     0.041 A 
ATOM     74  F   UNL     1      13.829   7.714   3.888  1.00  0.00    -0.206 F 
ATOM     75  C   UNL     1      15.068  10.797   5.317  1.00  0.00     0.022 A 
BRANCH  72  76
ATOM     76  S   UNL     1      16.766  12.815   4.411  1.00  0.00     0.124 S 
ATOM     77  O   UNL     1      18.070  12.329   3.974  1.00  0.00    -0.237 OA
ATOM     78  O   UNL     1      16.103  13.763   3.522  1.00  0.00    -0.237 OA
ATOM     79  O   UNL     1      16.657  13.118   5.836  1.00  0.00    -0.744 OA
ENDBRANCH  72  76
ENDBRANCH  45  69
BRANCH  57  80
ATOM     80  C   UNL     1      20.567   7.013  -0.731  1.00  0.00     0.023 A 
ATOM     81  C   UNL     1      21.184   6.490   0.419  1.00  0.00     0.031 A 
ATOM     82  C   UNL     1      21.369   7.715  -1.649  1.00  0.00     0.131 A 
ATOM     83  C   UNL     1      22.539   6.754   0.667  1.00  0.00     0.055 A 
ATOM     84  C   UNL     1      22.736   7.902  -1.437  1.00  0.00     0.041 A 
ATOM     85  F   UNL     1      20.837   8.238  -2.764  1.00  0.00    -0.206 F 
ATOM     86  C   UNL     1      23.323   7.440  -0.263  1.00  0.00     0.022 A 
BRANCH  83  87
ATOM     87  S   UNL     1      23.223   6.313   2.288  1.00  0.00     0.124 S 
ATOM     88  O   UNL     1      22.331   7.024   3.197  1.00  0.00    -0.237 OA
ATOM     89  O   UNL     1      23.108   4.859   2.289  1.00  0.00    -0.237 OA
ATOM     90  O   UNL     1      24.591   6.826   2.232  1.00  0.00    -0.744 OA
ENDBRANCH  83  87
ENDBRANCH  57  80
ENDBRANCH  31  32
ENDBRANCH  23  26
ENDBRANCH  21  22
ENDBRANCH   1  21
TORSDOF 15
