REMARK SMILES CC1=CC2=[NH+]C(=O)[C@](C)(CC(=O)NCCCCNC(=O)c3ccc(-c4c5nc(c(-c6cc(S(=O)(=O)[O-])ccc6F)c6ccc([nH]6)c(-c6cc(S(=O)(=O)[O-])ccc6F)c6nc(c(-c7cc(S(=O)(=O)[O-])ccc7F)c7ccc4[nH]7)C=C6)C=C5)cc3)N2C=C1
REMARK SMILES IDX 16 1 15 2 14 3 13 4 11 5 12 6 10 8 8 9 1 10 2 11 3 12 86 13
REMARK SMILES IDX 4 14 85 15 5 16 84 17 6 18 7 20 9 21 17 22 18 23 19 24 20 26
REMARK SMILES IDX 21 27 22 28 83 29 23 30 82 31 24 32 25 33 26 34 76 35 27 36
REMARK SMILES IDX 81 37 75 38 77 39 28 40 80 41 74 42 73 43 29 45 61 46 41 47
REMARK SMILES IDX 60 48 42 49 45 50 59 51 78 52 43 53 44 54 58 56 79 57 46 58
REMARK SMILES IDX 30 59 31 60 39 61 32 62 38 63 40 64 37 65 33 66 34 67 35 68
REMARK SMILES IDX 36 69 62 70 63 71 71 72 64 73 70 74 72 75 69 76 65 77 66 78
REMARK SMILES IDX 67 79 68 80 47 81 48 82 56 83 49 84 55 85 57 86 54 87 50 88
REMARK SMILES IDX 51 89 52 90 53 91
REMARK H PARENT 13 7 5 19 18 25 77 44 45 55
REMARK Flexibility Score: inf
ROOT
ATOM      1  C   UNL     1      -2.998   6.513  -7.296  1.00  0.00     0.023 C 
ENDROOT
BRANCH   1   2
ATOM      2  C   UNL     1      -2.485   5.117  -6.968  1.00  0.00     0.023 C 
BRANCH   2   3
ATOM      3  C   UNL     1      -0.995   4.907  -7.245  1.00  0.00     0.116 C 
BRANCH   3   4
ATOM      4  N   UNL     1      -0.205   5.369  -6.120  1.00  0.00    -0.356 N 
ATOM      5  C   UNL     1       0.545   4.654  -5.237  1.00  0.00     0.225 C 
ATOM      6  O   UNL     1       1.031   5.244  -4.271  1.00  0.00    -0.275 OA
ATOM      7  H   UNL     1      -0.212   6.342  -5.973  1.00  0.00     0.163 HD
BRANCH   5   8
ATOM      8  C   UNL     1       0.796   3.181  -5.463  1.00  0.00     0.166 C 
BRANCH   8   9
ATOM      9  C   UNL     1      -0.226   2.238  -4.832  1.00  0.00     0.217 C 
ATOM     10  C   UNL     1       0.889   0.068   0.337  1.00  0.00     0.045 C 
ATOM     11  C   UNL     1       0.594   0.617  -1.024  1.00  0.00    -0.039 C 
ATOM     12  C   UNL     1       0.378  -0.186  -2.086  1.00  0.00     0.102 C 
ATOM     13  C   UNL     1       0.558   2.078  -1.153  1.00  0.00     0.047 C 
ATOM     14  C   UNL     1       0.172   0.489  -3.388  1.00  0.00     0.283 C 
ATOM     15  C   UNL     1       0.291   2.643  -2.342  1.00  0.00     0.202 C 
ATOM     16  N   UNL     1       0.065  -0.145  -4.521  1.00  0.00    -0.206 N 
ATOM     17  N   UNL     1       0.096   1.866  -3.459  1.00  0.00    -0.217 N 
ATOM     18  C   UNL     1      -0.084   0.837  -5.492  1.00  0.00     0.356 C 
ATOM     19  H   UNL     1       0.084  -1.119  -4.660  1.00  0.00     0.315 HD
ATOM     20  O   UNL     1      -0.118   0.635  -6.697  1.00  0.00    -0.242 OA
ATOM     21  C   UNL     1      -1.704   2.598  -4.931  1.00  0.00     0.076 C 
ENDBRANCH   8   9
ENDBRANCH   5   8
ENDBRANCH   3   4
ENDBRANCH   2   3
ENDBRANCH   1   2
BRANCH   1  22
ATOM     22  C   UNL     1      -2.899   6.889  -8.766  1.00  0.00     0.116 C 
BRANCH  22  23
ATOM     23  N   UNL     1      -3.568   5.939  -9.644  1.00  0.00    -0.352 N 
ATOM     24  C   UNL     1      -4.411   6.193 -10.700  1.00  0.00     0.251 C 
ATOM     25  H   UNL     1      -3.394   4.988  -9.456  1.00  0.00     0.163 HD
ATOM     26  O   UNL     1      -5.006   5.271 -11.247  1.00  0.00    -0.269 OA
BRANCH  24  27
ATOM     27  C   UNL     1      -4.617   7.590 -11.130  1.00  0.00     0.039 A 
ATOM     28  C   UNL     1      -5.918   8.055 -11.317  1.00  0.00     0.014 A 
ATOM     29  C   UNL     1      -3.526   8.453 -11.272  1.00  0.00     0.014 A 
ATOM     30  C   UNL     1      -6.130   9.411 -11.569  1.00  0.00     0.010 A 
ATOM     31  C   UNL     1      -3.745   9.816 -11.427  1.00  0.00     0.010 A 
ATOM     32  C   UNL     1      -5.050  10.310 -11.575  1.00  0.00    -0.014 A 
BRANCH  32  33
ATOM     33  C   UNL     1      -5.265  11.771 -11.730  1.00  0.00     0.031 A 
ATOM     34  C   UNL     1      -4.673  12.497 -12.907  1.00  0.00     0.074 A 
ATOM     35  C   UNL     1      -5.940  12.450 -10.780  1.00  0.00     0.049 A 
ATOM     36  N   UNL     1      -4.690  13.775 -13.184  1.00  0.00    -0.248 NA
ATOM     37  C   UNL     1      -3.937  11.681 -13.885  1.00  0.00     0.031 C 
ATOM     38  C   UNL     1      -6.521  11.859  -9.571  1.00  0.00     0.029 A 
ATOM     39  N   UNL     1      -6.250  13.783 -10.676  1.00  0.00    -0.354 N 
ATOM     40  C   UNL     1      -3.964  13.917 -14.361  1.00  0.00     0.074 A 
ATOM     41  C   UNL     1      -3.460  12.605 -14.704  1.00  0.00     0.031 C 
ATOM     42  C   UNL     1      -7.145  12.818  -8.868  1.00  0.00     0.029 A 
ATOM     43  C   UNL     1      -6.963  14.099  -9.542  1.00  0.00     0.049 A 
ATOM     44  H   UNL     1      -5.986  14.450 -11.349  1.00  0.00     0.167 HD
ATOM     45  C   UNL     1      -3.760  15.034 -15.102  1.00  0.00     0.034 A 
ATOM     46  C   UNL     1      -7.409  15.289  -9.090  1.00  0.00     0.034 A 
ATOM     47  C   UNL     1      -4.279  16.332 -14.747  1.00  0.00     0.049 A 
ATOM     48  C   UNL     1      -7.136  16.524  -9.913  1.00  0.00     0.074 A 
ATOM     49  C   UNL     1      -4.178  17.520 -15.450  1.00  0.00     0.029 A 
ATOM     50  N   UNL     1      -4.988  16.617 -13.587  1.00  0.00    -0.354 N 
ATOM     51  N   UNL     1      -6.494  16.631 -11.054  1.00  0.00    -0.248 NA
ATOM     52  C   UNL     1      -7.655  17.794  -9.393  1.00  0.00     0.031 C 
ATOM     53  C   UNL     1      -4.753  18.535 -14.680  1.00  0.00     0.029 A 
ATOM     54  C   UNL     1      -5.296  17.969 -13.537  1.00  0.00     0.049 A 
ATOM     55  H   UNL     1      -5.236  15.957 -12.900  1.00  0.00     0.167 HD
ATOM     56  C   UNL     1      -6.563  17.978 -11.402  1.00  0.00     0.074 A 
ATOM     57  C   UNL     1      -7.324  18.636 -10.360  1.00  0.00     0.031 C 
ATOM     58  C   UNL     1      -6.047  18.613 -12.485  1.00  0.00     0.034 A 
BRANCH  45  59
ATOM     59  C   UNL     1      -2.924  14.899 -16.352  1.00  0.00     0.023 A 
ATOM     60  C   UNL     1      -3.324  14.080 -17.423  1.00  0.00     0.031 A 
ATOM     61  C   UNL     1      -1.703  15.585 -16.470  1.00  0.00     0.131 A 
ATOM     62  C   UNL     1      -2.478  13.911 -18.530  1.00  0.00     0.055 A 
ATOM     63  C   UNL     1      -0.906  15.480 -17.612  1.00  0.00     0.041 A 
ATOM     64  F   UNL     1      -1.256  16.362 -15.471  1.00  0.00    -0.206 F 
ATOM     65  C   UNL     1      -1.286  14.628 -18.645  1.00  0.00     0.022 A 
BRANCH  62  66
ATOM     66  S   UNL     1      -2.892  12.632 -19.747  1.00  0.00     0.124 S 
ATOM     67  O   UNL     1      -2.917  11.431 -18.916  1.00  0.00    -0.237 OA
ATOM     68  O   UNL     1      -4.181  13.085 -20.256  1.00  0.00    -0.237 OA
ATOM     69  O   UNL     1      -1.786  12.696 -20.701  1.00  0.00    -0.744 OA
ENDBRANCH  62  66
ENDBRANCH  45  59
BRANCH  46  70
ATOM     70  C   UNL     1      -8.143  15.384  -7.794  1.00  0.00     0.023 A 
ATOM     71  C   UNL     1      -9.471  15.838  -7.746  1.00  0.00     0.031 A 
ATOM     72  C   UNL     1      -7.511  15.074  -6.577  1.00  0.00     0.131 A 
ATOM     73  C   UNL     1     -10.104  16.024  -6.507  1.00  0.00     0.055 A 
ATOM     74  C   UNL     1      -8.165  15.201  -5.350  1.00  0.00     0.041 A 
ATOM     75  F   UNL     1      -6.242  14.634  -6.563  1.00  0.00    -0.206 F 
ATOM     76  C   UNL     1      -9.465  15.694  -5.309  1.00  0.00     0.022 A 
BRANCH  73  77
ATOM     77  S   UNL     1     -11.740  16.808  -6.476  1.00  0.00     0.124 S 
ATOM     78  O   UNL     1     -11.475  18.072  -7.152  1.00  0.00    -0.237 OA
ATOM     79  O   UNL     1     -12.550  15.843  -7.212  1.00  0.00    -0.237 OA
ATOM     80  O   UNL     1     -12.039  16.912  -5.050  1.00  0.00    -0.744 OA
ENDBRANCH  73  77
ENDBRANCH  46  70
BRANCH  58  81
ATOM     81  C   UNL     1      -6.332  20.091 -12.616  1.00  0.00     0.023 A 
ATOM     82  C   UNL     1      -5.823  21.028 -11.699  1.00  0.00     0.031 A 
ATOM     83  C   UNL     1      -7.133  20.566 -13.670  1.00  0.00     0.131 A 
ATOM     84  C   UNL     1      -6.171  22.382 -11.819  1.00  0.00     0.055 A 
ATOM     85  C   UNL     1      -7.418  21.922 -13.824  1.00  0.00     0.041 A 
ATOM     86  F   UNL     1      -7.649  19.716 -14.573  1.00  0.00    -0.206 F 
ATOM     87  C   UNL     1      -6.948  22.838 -12.887  1.00  0.00     0.022 A 
BRANCH  84  88
ATOM     88  S   UNL     1      -5.680  23.526 -10.500  1.00  0.00     0.124 S 
ATOM     89  O   UNL     1      -6.305  22.922  -9.328  1.00  0.00    -0.237 OA
ATOM     90  O   UNL     1      -4.223  23.456 -10.552  1.00  0.00    -0.237 OA
ATOM     91  O   UNL     1      -6.254  24.802 -10.922  1.00  0.00    -0.744 OA
ENDBRANCH  84  88
ENDBRANCH  58  81
ENDBRANCH  32  33
ENDBRANCH  24  27
ENDBRANCH  22  23
ENDBRANCH   1  22
TORSDOF 15
