REMARK SMILES CCOC(=O)c1cccc(Nc2c(-c3ccc(C(=O)NCCCCNC(=O)c4ccc(-c5c6nc(c(-c7cc(S(=O)(=O)[O-])ccc7F)c7ccc([nH]7)c(-c7cc(S(=O)(=O)[O-])ccc7F)c7nc(c(-c8cc(S(=O)(=O)[O-])ccc8F)c8ccc5[nH]8)C=C7)C=C6)cc4)cc3)nc3cnccn23)c1
REMARK SMILES IDX 21 1 20 2 18 3 19 4 17 6 14 7 15 8 92 9 16 10 91 11 13 12
REMARK SMILES IDX 12 13 99 14 93 15 94 16 98 17 95 18 97 19 96 20 11 21 10 23
REMARK SMILES IDX 6 24 7 25 100 26 8 27 9 28 4 29 5 30 3 31 2 32 1 33 22 34
REMARK SMILES IDX 23 35 24 36 25 37 26 38 27 40 28 41 29 42 90 43 30 44 89 45
REMARK SMILES IDX 31 46 32 47 33 48 83 49 34 50 88 51 82 52 84 53 35 54 87 55
REMARK SMILES IDX 81 56 80 57 36 59 68 60 48 61 67 62 49 63 52 64 66 65 85 66
REMARK SMILES IDX 50 67 51 68 65 70 86 71 53 72 37 73 38 74 46 75 39 76 45 77
REMARK SMILES IDX 47 78 44 79 40 80 41 81 42 82 43 83 69 84 70 85 78 86 71 87
REMARK SMILES IDX 77 88 79 89 76 90 72 91 73 92 74 93 75 94 54 95 55 96 63 97
REMARK SMILES IDX 56 98 62 99 64 100 61 101 57 102 58 103 59 104 60 105
REMARK H PARENT 20 5 11 22 25 39 84 58 52 69
REMARK Flexibility Score: inf
ROOT
ATOM      1  C   UNL     1       2.954 -13.064  -3.232  1.00  0.00     0.116 C 
ENDROOT
BRANCH   1   2
ATOM      2  N   UNL     1       3.215 -11.778  -3.849  1.00  0.00    -0.352 N 
ATOM      3  C   UNL     1       3.463 -10.542  -3.310  1.00  0.00     0.251 C 
ATOM      4  O   UNL     1       3.707  -9.614  -4.082  1.00  0.00    -0.269 OA
ATOM      5  H   UNL     1       3.215 -11.796  -4.833  1.00  0.00     0.163 HD
BRANCH   3   6
ATOM      6  C   UNL     1       3.489 -10.276  -1.843  1.00  0.00     0.039 A 
ATOM      7  C   UNL     1       3.631  -9.617   0.891  1.00  0.00     0.004 A 
ATOM      8  C   UNL     1       4.380  -8.896  -0.043  1.00  0.00     0.011 A 
ATOM      9  C   UNL     1       2.802 -10.652   0.458  1.00  0.00     0.011 A 
ATOM     10  C   UNL     1       4.311  -9.229  -1.399  1.00  0.00     0.014 A 
ATOM     11  C   UNL     1       2.710 -10.956  -0.903  1.00  0.00     0.014 A 
BRANCH   7  12
ATOM     12  C   UNL     1       3.671  -9.290   2.296  1.00  0.00     0.114 A 
ATOM     13  C   UNL     1       3.206  -8.105   2.848  1.00  0.00     0.143 A 
ATOM     14  N   UNL     1       3.378  -8.278   4.206  1.00  0.00    -0.283 N 
ATOM     15  N   UNL     1       4.181 -10.141   3.250  1.00  0.00    -0.225 NA
ATOM     16  C   UNL     1       4.010  -9.486   4.375  1.00  0.00     0.157 A 
ATOM     17  C   UNL     1       3.032  -7.525   5.315  1.00  0.00     0.115 A 
ATOM     18  C   UNL     1       4.362  -9.895   5.705  1.00  0.00     0.158 A 
ATOM     19  C   UNL     1       3.373  -7.987   6.532  1.00  0.00     0.129 A 
ATOM     20  N   UNL     1       4.061  -9.170   6.751  1.00  0.00    -0.259 NA
BRANCH  13  21
ATOM     21  N   UNL     1       2.622  -7.014   2.278  1.00  0.00    -0.339 N 
ATOM     22  H   UNL     1       1.728  -7.130   1.882  1.00  0.00     0.168 HD
BRANCH  21  23
ATOM     23  C   UNL     1       3.208  -5.723   2.212  1.00  0.00     0.040 A 
ATOM     24  C   UNL     1       3.166  -3.468   1.295  1.00  0.00     0.062 A 
ATOM     25  C   UNL     1       4.350  -3.157   1.968  1.00  0.00     0.016 A 
ATOM     26  C   UNL     1       2.582  -4.734   1.435  1.00  0.00     0.041 A 
ATOM     27  C   UNL     1       4.947  -4.109   2.787  1.00  0.00     0.003 A 
ATOM     28  C   UNL     1       4.381  -5.381   2.902  1.00  0.00     0.026 A 
BRANCH  24  29
ATOM     29  C   UNL     1       2.618  -2.458   0.365  1.00  0.00     0.338 C 
ATOM     30  O   UNL     1       3.324  -1.743  -0.325  1.00  0.00    -0.246 OA
BRANCH  29  31
ATOM     31  O   UNL     1       1.266  -2.424   0.452  1.00  0.00    -0.462 OA
BRANCH  31  32
ATOM     32  C   UNL     1       0.626  -1.483  -0.425  1.00  0.00     0.230 C 
ATOM     33  C   UNL     1       0.774  -0.054   0.074  1.00  0.00     0.049 C 
ENDBRANCH  31  32
ENDBRANCH  29  31
ENDBRANCH  24  29
ENDBRANCH  21  23
ENDBRANCH  13  21
ENDBRANCH   7  12
ENDBRANCH   3   6
ENDBRANCH   1   2
BRANCH   1  34
ATOM     34  C   UNL     1       1.450 -13.346  -3.181  1.00  0.00     0.023 C 
BRANCH  34  35
ATOM     35  C   UNL     1       0.849 -13.825  -4.504  1.00  0.00     0.023 C 
BRANCH  35  36
ATOM     36  C   UNL     1       1.365 -15.173  -4.993  1.00  0.00     0.116 C 
BRANCH  36  37
ATOM     37  N   UNL     1       1.147 -16.249  -4.040  1.00  0.00    -0.352 N 
ATOM     38  C   UNL     1       0.924 -17.581  -4.294  1.00  0.00     0.251 C 
ATOM     39  H   UNL     1       1.161 -15.990  -3.090  1.00  0.00     0.163 HD
ATOM     40  O   UNL     1       0.645 -18.343  -3.373  1.00  0.00    -0.269 OA
BRANCH  38  41
ATOM     41  C   UNL     1       0.976 -18.070  -5.687  1.00  0.00     0.039 A 
ATOM     42  C   UNL     1      -0.084 -18.841  -6.169  1.00  0.00     0.014 A 
ATOM     43  C   UNL     1       2.045 -17.733  -6.524  1.00  0.00     0.014 A 
ATOM     44  C   UNL     1      -0.106 -19.217  -7.513  1.00  0.00     0.010 A 
ATOM     45  C   UNL     1       1.989 -18.055  -7.876  1.00  0.00     0.010 A 
ATOM     46  C   UNL     1       0.911 -18.796  -8.385  1.00  0.00    -0.014 A 
BRANCH  46  47
ATOM     47  C   UNL     1       0.865 -19.116  -9.834  1.00  0.00     0.031 A 
ATOM     48  C   UNL     1       1.908 -20.014 -10.437  1.00  0.00     0.074 A 
ATOM     49  C   UNL     1      -0.072 -18.541 -10.612  1.00  0.00     0.049 A 
ATOM     50  N   UNL     1       2.094 -20.343 -11.689  1.00  0.00    -0.248 NA
ATOM     51  C   UNL     1       2.893 -20.590  -9.510  1.00  0.00     0.031 C 
ATOM     52  C   UNL     1      -1.109 -17.617 -10.145  1.00  0.00     0.029 A 
ATOM     53  N   UNL     1      -0.298 -18.636 -11.962  1.00  0.00    -0.354 N 
ATOM     54  C   UNL     1       3.224 -21.154 -11.704  1.00  0.00     0.074 A 
ATOM     55  C   UNL     1       3.712 -21.214 -10.342  1.00  0.00     0.031 C 
ATOM     56  C   UNL     1      -1.869 -17.245 -11.188  1.00  0.00     0.029 A 
ATOM     57  C   UNL     1      -1.351 -17.869 -12.402  1.00  0.00     0.049 A 
ATOM     58  H   UNL     1       0.244 -19.200 -12.560  1.00  0.00     0.167 HD
ATOM     59  C   UNL     1       3.788 -21.803 -12.752  1.00  0.00     0.034 A 
ATOM     60  C   UNL     1      -1.838 -17.681 -13.645  1.00  0.00     0.034 A 
ATOM     61  C   UNL     1       3.278 -21.741 -14.101  1.00  0.00     0.049 A 
ATOM     62  C   UNL     1      -1.190 -18.406 -14.796  1.00  0.00     0.074 A 
ATOM     63  C   UNL     1       3.735 -22.402 -15.228  1.00  0.00     0.029 A 
ATOM     64  N   UNL     1       2.199 -20.966 -14.508  1.00  0.00    -0.354 N 
ATOM     65  N   UNL     1      -0.151 -19.210 -14.787  1.00  0.00    -0.248 NA
ATOM     66  C   UNL     1      -1.788 -18.208 -16.123  1.00  0.00     0.031 C 
ATOM     67  C   UNL     1       2.971 -21.983 -16.323  1.00  0.00     0.029 A 
ATOM     68  C   UNL     1       1.992 -21.113 -15.871  1.00  0.00     0.049 A 
ATOM     69  H   UNL     1       1.659 -20.396 -13.914  1.00  0.00     0.167 HD
ATOM     70  C   UNL     1       0.010 -19.635 -16.102  1.00  0.00     0.074 A 
ATOM     71  C   UNL     1      -1.045 -19.009 -16.873  1.00  0.00     0.031 C 
ATOM     72  C   UNL     1       0.942 -20.471 -16.626  1.00  0.00     0.034 A 
BRANCH  59  73
ATOM     73  C   UNL     1       5.032 -22.613 -12.475  1.00  0.00     0.023 A 
ATOM     74  C   UNL     1       5.012 -23.722 -11.611  1.00  0.00     0.031 A 
ATOM     75  C   UNL     1       6.262 -22.250 -13.051  1.00  0.00     0.131 A 
ATOM     76  C   UNL     1       6.208 -24.377 -11.283  1.00  0.00     0.055 A 
ATOM     77  C   UNL     1       7.436 -22.958 -12.785  1.00  0.00     0.041 A 
ATOM     78  F   UNL     1       6.348 -21.189 -13.868  1.00  0.00    -0.206 F 
ATOM     79  C   UNL     1       7.417 -24.018 -11.883  1.00  0.00     0.022 A 
BRANCH  76  80
ATOM     80  S   UNL     1       6.184 -25.605  -9.949  1.00  0.00     0.124 S 
ATOM     81  O   UNL     1       5.708 -24.807  -8.822  1.00  0.00    -0.237 OA
ATOM     82  O   UNL     1       5.256 -26.607 -10.460  1.00  0.00    -0.237 OA
ATOM     83  O   UNL     1       7.578 -26.035  -9.854  1.00  0.00    -0.744 OA
ENDBRANCH  76  80
ENDBRANCH  59  73
BRANCH  60  84
ATOM     84  C   UNL     1      -2.991 -16.766 -13.873  1.00  0.00     0.023 A 
ATOM     85  C   UNL     1      -4.228 -17.260 -14.316  1.00  0.00     0.031 A 
ATOM     86  C   UNL     1      -2.862 -15.378 -13.686  1.00  0.00     0.131 A 
ATOM     87  C   UNL     1      -5.274 -16.369 -14.601  1.00  0.00     0.055 A 
ATOM     88  C   UNL     1      -3.921 -14.501 -13.926  1.00  0.00     0.041 A 
ATOM     89  F   UNL     1      -1.702 -14.856 -13.255  1.00  0.00    -0.206 F 
ATOM     90  C   UNL     1      -5.133 -14.995 -14.398  1.00  0.00     0.022 A 
BRANCH  87  91
ATOM     91  S   UNL     1      -6.806 -17.030 -15.313  1.00  0.00     0.124 S 
ATOM     92  O   UNL     1      -6.316 -17.673 -16.527  1.00  0.00    -0.237 OA
ATOM     93  O   UNL     1      -7.270 -17.923 -14.257  1.00  0.00    -0.237 OA
ATOM     94  O   UNL     1      -7.625 -15.839 -15.524  1.00  0.00    -0.744 OA
ENDBRANCH  87  91
ENDBRANCH  60  84
BRANCH  72  95
ATOM     95  C   UNL     1       0.826 -20.785 -18.096  1.00  0.00     0.023 A 
ATOM     96  C   UNL     1       1.066 -19.812 -19.081  1.00  0.00     0.031 A 
ATOM     97  C   UNL     1       0.455 -22.075 -18.514  1.00  0.00     0.131 A 
ATOM     98  C   UNL     1       0.880 -20.129 -20.435  1.00  0.00     0.055 A 
ATOM     99  C   UNL     1       0.326 -22.401 -19.865  1.00  0.00     0.041 A 
ATOM    100  F   UNL     1       0.213 -23.042 -17.614  1.00  0.00    -0.206 F 
ATOM    101  C   UNL     1       0.527 -21.421 -20.834  1.00  0.00     0.022 A 
BRANCH  98 102
ATOM    102  S   UNL     1       1.025 -18.807 -21.668  1.00  0.00     0.124 S 
ATOM    103  O   UNL     1       0.003 -17.864 -21.225  1.00  0.00    -0.237 OA
ATOM    104  O   UNL     1       2.408 -18.373 -21.500  1.00  0.00    -0.237 OA
ATOM    105  O   UNL     1       0.738 -19.483 -22.932  1.00  0.00    -0.744 OA
ENDBRANCH  98 102
ENDBRANCH  72  95
ENDBRANCH  46  47
ENDBRANCH  38  41
ENDBRANCH  36  37
ENDBRANCH  35  36
ENDBRANCH  34  35
ENDBRANCH   1  34
TORSDOF 20
