REMARK SMILES C[C@@H](CCC(=O)NCCCCNC(=O)c1ccc(-c2c3nc(c(-c4cc(S(=O)(=O)[O-])ccc4F)c4ccc([nH]4)c(-c4cc(S(=O)(=O)[O-])ccc4F)c4nc(c(-c5cc(S(=O)(=O)[O-])ccc5F)c5ccc2[nH]5)C=C4)C=C3)cc1)[C@@H]1CC[C@@H]2[C@H]3CC[C@@H]4CC(=O)CC[C@]4(C)[C@@H]3CC(=O)[C@]21C
REMARK SMILES IDX 9 1 8 2 7 3 5 4 6 5 4 7 3 8 2 9 1 10 78 11 79 12 97 13 80 14
REMARK SMILES IDX 81 15 95 16 98 17 82 18 94 19 96 20 83 21 93 22 84 23 91 24
REMARK SMILES IDX 85 25 90 26 92 27 86 28 89 29 87 30 88 31 10 32 11 33 12 34
REMARK SMILES IDX 13 35 14 37 15 38 16 39 77 40 17 41 76 42 18 43 19 44 20 45
REMARK SMILES IDX 70 46 21 47 75 48 69 49 71 50 22 51 74 52 68 53 67 54 23 56
REMARK SMILES IDX 55 57 35 58 54 59 36 60 39 61 53 62 72 63 37 64 38 65 52 67
REMARK SMILES IDX 73 68 40 69 24 70 25 71 33 72 26 73 32 74 34 75 31 76 27 77
REMARK SMILES IDX 28 78 29 79 30 80 56 81 57 82 65 83 58 84 64 85 66 86 63 87
REMARK SMILES IDX 59 88 60 89 61 90 62 91 41 92 42 93 50 94 43 95 49 96 51 97
REMARK SMILES IDX 48 98 44 99 45 100 46 101 47 102
REMARK H PARENT 7 6 12 36 71 55 39 66
REMARK Flexibility Score: inf
ROOT
ATOM      1  C   UNL     1       1.646  -1.490  -0.789  1.00  0.00     0.023 C 
ENDROOT
BRANCH   1   2
ATOM      2  C   UNL     1       1.862  -0.231   0.062  1.00  0.00     0.116 C 
BRANCH   2   3
ATOM      3  N   UNL     1       1.029   0.919  -0.268  1.00  0.00    -0.356 N 
ATOM      4  C   UNL     1      -0.041   1.479   0.358  1.00  0.00     0.220 C 
ATOM      5  O   UNL     1      -0.363   2.626   0.036  1.00  0.00    -0.275 OA
ATOM      6  H   UNL     1       1.291   1.376  -1.100  1.00  0.00     0.163 HD
BRANCH   4   7
ATOM      7  C   UNL     1      -0.832   0.734   1.408  1.00  0.00     0.100 C 
BRANCH   7   8
ATOM      8  C   UNL     1      -2.281   0.394   0.988  1.00  0.00     0.013 C 
BRANCH   8   9
ATOM      9  C   UNL     1      -2.529  -0.844   0.070  1.00  0.00    -0.010 C 
ATOM     10  C   UNL     1      -1.895  -2.057   0.775  1.00  0.00     0.008 C 
BRANCH   9  11
ATOM     11  C   UNL     1      -2.072  -0.652  -1.404  1.00  0.00     0.005 C 
ATOM     12  C   UNL     1      -2.333   0.773  -2.000  1.00  0.00     0.005 C 
ATOM     13  C   UNL     1      -2.622  -1.541  -2.583  1.00  0.00     0.032 C 
ATOM     14  C   UNL     1      -2.224   0.643  -3.532  1.00  0.00     0.005 C 
ATOM     15  C   UNL     1      -1.844  -0.818  -3.718  1.00  0.00     0.006 C 
ATOM     16  C   UNL     1      -2.264  -3.018  -2.705  1.00  0.00     0.139 C 
ATOM     17  C   UNL     1      -4.158  -1.464  -2.704  1.00  0.00     0.020 C 
ATOM     18  C   UNL     1      -1.800  -1.411  -5.135  1.00  0.00    -0.003 C 
ATOM     19  C   UNL     1      -2.449  -3.639  -4.080  1.00  0.00     0.080 C 
ATOM     20  O   UNL     1      -1.913  -3.722  -1.764  1.00  0.00    -0.299 OA
ATOM     21  C   UNL     1      -0.646  -0.741  -5.915  1.00  0.00     0.004 C 
ATOM     22  C   UNL     1      -1.522  -2.939  -5.066  1.00  0.00     0.006 C 
ATOM     23  C   UNL     1      -0.214  -1.442  -7.199  1.00  0.00     0.005 C 
ATOM     24  C   UNL     1      -1.412  -3.602  -6.484  1.00  0.00    -0.025 C 
ATOM     25  C   UNL     1      -0.149  -2.982  -7.129  1.00  0.00     0.002 C 
ATOM     26  C   UNL     1      -2.652  -3.392  -7.402  1.00  0.00     0.015 C 
ATOM     27  C   UNL     1      -1.213  -5.136  -6.325  1.00  0.00     0.012 C 
ATOM     28  C   UNL     1       0.145  -3.627  -8.486  1.00  0.00     0.079 C 
ATOM     29  C   UNL     1      -2.370  -3.126  -8.888  1.00  0.00     0.076 C 
ATOM     30  C   UNL     1      -1.047  -3.635  -9.405  1.00  0.00     0.133 C 
ATOM     31  O   UNL     1      -0.926  -4.006 -10.573  1.00  0.00    -0.300 OA
ENDBRANCH   9  11
ENDBRANCH   8   9
ENDBRANCH   7   8
ENDBRANCH   4   7
ENDBRANCH   2   3
ENDBRANCH   1   2
BRANCH   1  32
ATOM     32  C   UNL     1       1.471  -1.268  -2.289  1.00  0.00     0.023 C 
BRANCH  32  33
ATOM     33  C   UNL     1       2.714  -1.367  -3.157  1.00  0.00     0.116 C 
BRANCH  33  34
ATOM     34  N   UNL     1       3.044  -2.738  -3.506  1.00  0.00    -0.352 N 
ATOM     35  C   UNL     1       3.392  -3.328  -4.702  1.00  0.00     0.251 C 
ATOM     36  H   UNL     1       3.014  -3.363  -2.745  1.00  0.00     0.163 HD
ATOM     37  O   UNL     1       3.503  -4.554  -4.715  1.00  0.00    -0.269 OA
BRANCH  35  38
ATOM     38  C   UNL     1       3.571  -2.564  -5.976  1.00  0.00     0.039 A 
ATOM     39  C   UNL     1       3.451  -3.261  -7.190  1.00  0.00     0.014 A 
ATOM     40  C   UNL     1       3.860  -1.201  -6.028  1.00  0.00     0.014 A 
ATOM     41  C   UNL     1       3.526  -2.590  -8.420  1.00  0.00     0.010 A 
ATOM     42  C   UNL     1       3.835  -0.513  -7.243  1.00  0.00     0.010 A 
ATOM     43  C   UNL     1       3.673  -1.201  -8.453  1.00  0.00    -0.014 A 
BRANCH  43  44
ATOM     44  C   UNL     1       3.849  -0.459  -9.729  1.00  0.00     0.031 A 
ATOM     45  C   UNL     1       5.229   0.018 -10.068  1.00  0.00     0.074 A 
ATOM     46  C   UNL     1       2.809  -0.160 -10.533  1.00  0.00     0.049 A 
ATOM     47  N   UNL     1       5.630   0.749 -11.072  1.00  0.00    -0.248 NA
ATOM     48  C   UNL     1       6.296  -0.359  -9.127  1.00  0.00     0.031 C 
ATOM     49  C   UNL     1       1.433  -0.572 -10.306  1.00  0.00     0.029 A 
ATOM     50  N   UNL     1       2.734   0.566 -11.695  1.00  0.00    -0.354 N 
ATOM     51  C   UNL     1       6.996   0.912 -10.887  1.00  0.00     0.074 A 
ATOM     52  C   UNL     1       7.334   0.284  -9.630  1.00  0.00     0.031 C 
ATOM     53  C   UNL     1       0.642  -0.102 -11.281  1.00  0.00     0.029 A 
ATOM     54  C   UNL     1       1.455   0.678 -12.200  1.00  0.00     0.049 A 
ATOM     55  H   UNL     1       3.520   0.971 -12.128  1.00  0.00     0.167 HD
ATOM     56  C   UNL     1       7.892   1.502 -11.714  1.00  0.00     0.034 A 
ATOM     57  C   UNL     1       0.991   1.337 -13.280  1.00  0.00     0.034 A 
ATOM     58  C   UNL     1       7.523   2.135 -12.953  1.00  0.00     0.049 A 
ATOM     59  C   UNL     1       1.994   2.053 -14.147  1.00  0.00     0.074 A 
ATOM     60  C   UNL     1       8.335   2.755 -13.883  1.00  0.00     0.029 A 
ATOM     61  N   UNL     1       6.219   2.238 -13.429  1.00  0.00    -0.354 N 
ATOM     62  N   UNL     1       3.294   2.155 -13.987  1.00  0.00    -0.248 NA
ATOM     63  C   UNL     1       1.477   2.716 -15.348  1.00  0.00     0.031 C 
ATOM     64  C   UNL     1       7.519   3.289 -14.886  1.00  0.00     0.029 A 
ATOM     65  C   UNL     1       6.202   2.940 -14.623  1.00  0.00     0.049 A 
ATOM     66  H   UNL     1       5.425   1.867 -12.982  1.00  0.00     0.167 HD
ATOM     67  C   UNL     1       3.757   2.857 -15.094  1.00  0.00     0.074 A 
ATOM     68  C   UNL     1       2.595   3.147 -15.913  1.00  0.00     0.031 C 
ATOM     69  C   UNL     1       5.026   3.221 -15.413  1.00  0.00     0.034 A 
BRANCH  56  70
ATOM     70  C   UNL     1       9.328   1.507 -11.255  1.00  0.00     0.023 A 
ATOM     71  C   UNL     1      10.032   0.306 -11.041  1.00  0.00     0.031 A 
ATOM     72  C   UNL     1       9.967   2.713 -10.925  1.00  0.00     0.131 A 
ATOM     73  C   UNL     1      11.285   0.333 -10.413  1.00  0.00     0.055 A 
ATOM     74  C   UNL     1      11.256   2.736 -10.388  1.00  0.00     0.041 A 
ATOM     75  F   UNL     1       9.335   3.887 -11.080  1.00  0.00    -0.206 F 
ATOM     76  C   UNL     1      11.914   1.541 -10.109  1.00  0.00     0.022 A 
BRANCH  73  77
ATOM     77  S   UNL     1      11.994  -1.233  -9.832  1.00  0.00     0.124 S 
ATOM     78  O   UNL     1      10.974  -1.682  -8.886  1.00  0.00    -0.237 OA
ATOM     79  O   UNL     1      12.109  -2.006 -11.062  1.00  0.00    -0.237 OA
ATOM     80  O   UNL     1      13.261  -0.831  -9.225  1.00  0.00    -0.744 OA
ENDBRANCH  73  77
ENDBRANCH  56  70
BRANCH  57  81
ATOM     81  C   UNL     1      -0.466   1.352 -13.609  1.00  0.00     0.023 A 
ATOM     82  C   UNL     1      -0.952   0.762 -14.787  1.00  0.00     0.031 A 
ATOM     83  C   UNL     1      -1.393   1.999 -12.771  1.00  0.00     0.131 A 
ATOM     84  C   UNL     1      -2.312   0.874 -15.122  1.00  0.00     0.055 A 
ATOM     85  C   UNL     1      -2.753   2.066 -13.083  1.00  0.00     0.041 A 
ATOM     86  F   UNL     1      -0.989   2.574 -11.626  1.00  0.00    -0.206 F 
ATOM     87  C   UNL     1      -3.218   1.514 -14.272  1.00  0.00     0.022 A 
BRANCH  84  88
ATOM     88  S   UNL     1      -2.870   0.253 -16.734  1.00  0.00     0.124 S 
ATOM     89  O   UNL     1      -2.011   0.991 -17.651  1.00  0.00    -0.237 OA
ATOM     90  O   UNL     1      -2.605  -1.178 -16.616  1.00  0.00    -0.237 OA
ATOM     91  O   UNL     1      -4.284   0.620 -16.770  1.00  0.00    -0.744 OA
ENDBRANCH  84  88
ENDBRANCH  57  81
BRANCH  69  92
ATOM     92  C   UNL     1       5.215   3.931 -16.728  1.00  0.00     0.023 A 
ATOM     93  C   UNL     1       4.710   5.223 -16.948  1.00  0.00     0.031 A 
ATOM     94  C   UNL     1       5.907   3.299 -17.775  1.00  0.00     0.131 A 
ATOM     95  C   UNL     1       4.858   5.822 -18.206  1.00  0.00     0.055 A 
ATOM     96  C   UNL     1       6.106   3.926 -19.005  1.00  0.00     0.041 A 
ATOM     97  F   UNL     1       6.407   2.063 -17.616  1.00  0.00    -0.206 F 
ATOM     98  C   UNL     1       5.569   5.190 -19.229  1.00  0.00     0.022 A 
BRANCH  95  99
ATOM     99  S   UNL     1       4.032   7.407 -18.514  1.00  0.00     0.124 S 
ATOM    100  O   UNL     1       2.631   7.068 -18.285  1.00  0.00    -0.237 OA
ATOM    101  O   UNL     1       4.647   8.279 -17.520  1.00  0.00    -0.237 OA
ATOM    102  O   UNL     1       4.379   7.709 -19.902  1.00  0.00    -0.744 OA
ENDBRANCH  95  99
ENDBRANCH  69  92
ENDBRANCH  43  44
ENDBRANCH  35  38
ENDBRANCH  33  34
ENDBRANCH  32  33
ENDBRANCH   1  32
TORSDOF 17
