REMARK SMILES N#CCC(=O)N/N=C/c1ccc(OCc2ccc(C(=O)NCCCCNC(=O)c3ccc(-c4c5nc(c(-c6cc(S(=O)(=O)[O-])ccc6F)c6ccc([nH]6)c(-c6cc(S(=O)(=O)[O-])ccc6F)c6nc(c(-c7cc(S(=O)(=O)[O-])ccc7F)c7ccc4[nH]7)C=C6)C=C5)cc3)cc2)c(Br)c1
REMARK SMILES IDX 19 1 20 2 21 3 18 5 15 6 16 7 93 8 17 9 92 10 14 11 13 12
REMARK SMILES IDX 12 13 9 14 10 15 96 16 11 17 94 18 95 19 8 20 7 21 6 22 4 23
REMARK SMILES IDX 5 24 3 26 2 27 1 28 22 29 23 30 24 31 25 32 26 33 27 34
REMARK SMILES IDX 28 36 29 37 30 38 91 39 31 40 90 41 32 42 33 43 34 44 84 45
REMARK SMILES IDX 35 46 89 47 83 48 85 49 36 50 88 51 82 52 81 53 37 55 69 56
REMARK SMILES IDX 49 57 68 58 50 59 53 60 67 61 86 62 51 63 52 64 66 66 87 67
REMARK SMILES IDX 54 68 38 69 39 70 47 71 40 72 46 73 48 74 45 75 41 76 42 77
REMARK SMILES IDX 43 78 44 79 70 80 71 81 79 82 72 83 78 84 80 85 77 86 73 87
REMARK SMILES IDX 74 88 75 89 76 90 55 91 56 92 64 93 57 94 63 95 65 96 62 97
REMARK SMILES IDX 58 98 59 99 60 100 61 101
REMARK H PARENT 21 4 6 25 26 35 85 54 53 65
REMARK Flexibility Score: inf
ROOT
ATOM      1  C   UNL     1      -1.470   6.811   1.970  1.00  0.00     0.251 C 
ATOM      2  O   UNL     1      -2.521   7.304   1.551  1.00  0.00    -0.269 OA
ATOM      3  N   UNL     1      -0.304   7.295   1.433  1.00  0.00    -0.352 N 
ATOM      4  H   UNL     1      -0.447   7.979   0.739  1.00  0.00     0.163 HD
ENDROOT
BRANCH   1   5
ATOM      5  C   UNL     1      -1.546   5.758   3.027  1.00  0.00     0.039 A 
ATOM      6  C   UNL     1      -1.914   3.734   5.002  1.00  0.00    -0.011 A 
ATOM      7  C   UNL     1      -2.963   4.593   4.643  1.00  0.00     0.008 A 
ATOM      8  C   UNL     1      -0.675   3.947   4.398  1.00  0.00     0.008 A 
ATOM      9  C   UNL     1      -2.777   5.596   3.682  1.00  0.00     0.014 A 
ATOM     10  C   UNL     1      -0.511   4.899   3.386  1.00  0.00     0.014 A 
BRANCH   6  11
ATOM     11  C   UNL     1      -2.206   2.605   5.976  1.00  0.00     0.265 C 
BRANCH  11  12
ATOM     12  O   UNL     1      -1.168   1.709   6.387  1.00  0.00    -0.488 OA
BRANCH  12  13
ATOM     13  C   UNL     1      -0.345   1.074   5.504  1.00  0.00     0.134 A 
ATOM     14  C   UNL     1       1.755   0.054   3.945  1.00  0.00    -0.004 A 
ATOM     15  C   UNL     1       2.011   0.483   5.241  1.00  0.00     0.013 A 
ATOM     16  C   UNL     1       0.453   0.081   3.438  1.00  0.00     0.029 A 
ATOM     17  C   UNL     1       0.960   0.963   6.018  1.00  0.00     0.048 A 
ATOM     18  C   UNL     1      -0.604   0.589   4.215  1.00  0.00     0.060 A 
ATOM     19  Br  UNL     1      -2.324   0.520   3.415  1.00  0.00    -0.047 Br
BRANCH  14  20
ATOM     20  C   UNL     1       2.895  -0.447   3.158  1.00  0.00     0.141 C 
ATOM     21  N   UNL     1       2.771  -1.453   2.352  1.00  0.00    -0.181 NA
BRANCH  21  22
ATOM     22  N   UNL     1       3.918  -1.839   1.730  1.00  0.00    -0.246 N 
ATOM     23  C   UNL     1       4.335  -1.380   0.500  1.00  0.00     0.254 C 
ATOM     24  O   UNL     1       5.237  -1.980  -0.090  1.00  0.00    -0.272 OA
ATOM     25  H   UNL     1       4.491  -2.493   2.191  1.00  0.00     0.193 HD
BRANCH  23  26
ATOM     26  C   UNL     1       3.773  -0.090  -0.043  1.00  0.00     0.221 C 
BRANCH  26  27
ATOM     27  C   UNL     1       2.253  -0.090  -0.043  1.00  0.00     0.072 C 
ATOM     28  N   UNL     1       0.992  -0.090  -0.043  1.00  0.00    -0.198 NA
ENDBRANCH  26  27
ENDBRANCH  23  26
ENDBRANCH  21  22
ENDBRANCH  14  20
ENDBRANCH  12  13
ENDBRANCH  11  12
ENDBRANCH   6  11
ENDBRANCH   1   5
BRANCH   3  29
ATOM     29  C   UNL     1       1.094   7.006   1.678  1.00  0.00     0.116 C 
BRANCH  29  30
ATOM     30  C   UNL     1       1.604   5.922   0.724  1.00  0.00     0.023 C 
BRANCH  30  31
ATOM     31  C   UNL     1       2.089   6.463  -0.626  1.00  0.00     0.023 C 
BRANCH  31  32
ATOM     32  C   UNL     1       3.316   7.367  -0.545  1.00  0.00     0.116 C 
BRANCH  32  33
ATOM     33  N   UNL     1       4.470   6.714   0.053  1.00  0.00    -0.352 N 
ATOM     34  C   UNL     1       5.804   6.988  -0.146  1.00  0.00     0.251 C 
ATOM     35  H   UNL     1       4.271   5.981   0.680  1.00  0.00     0.163 HD
ATOM     36  O   UNL     1       6.655   6.260   0.344  1.00  0.00    -0.269 OA
BRANCH  34  37
ATOM     37  C   UNL     1       6.183   8.136  -1.000  1.00  0.00     0.039 A 
ATOM     38  C   UNL     1       7.103   7.930  -2.030  1.00  0.00     0.014 A 
ATOM     39  C   UNL     1       5.601   9.392  -0.813  1.00  0.00     0.014 A 
ATOM     40  C   UNL     1       7.383   8.968  -2.920  1.00  0.00     0.010 A 
ATOM     41  C   UNL     1       5.831  10.405  -1.740  1.00  0.00     0.010 A 
ATOM     42  C   UNL     1       6.719  10.201  -2.807  1.00  0.00    -0.014 A 
BRANCH  42  43
ATOM     43  C   UNL     1       6.928  11.276  -3.811  1.00  0.00     0.031 A 
ATOM     44  C   UNL     1       7.564  12.578  -3.408  1.00  0.00     0.074 A 
ATOM     45  C   UNL     1       6.486  11.097  -5.072  1.00  0.00     0.049 A 
ATOM     46  N   UNL     1       7.789  13.646  -4.128  1.00  0.00    -0.248 NA
ATOM     47  C   UNL     1       7.975  12.703  -2.002  1.00  0.00     0.031 C 
ATOM     48  C   UNL     1       5.803   9.898  -5.565  1.00  0.00     0.029 A 
ATOM     49  N   UNL     1       6.536  11.922  -6.167  1.00  0.00    -0.354 N 
ATOM     50  C   UNL     1       8.360  14.574  -3.264  1.00  0.00     0.074 A 
ATOM     51  C   UNL     1       8.387  13.960  -1.953  1.00  0.00     0.031 C 
ATOM     52  C   UNL     1       5.523  10.056  -6.869  1.00  0.00     0.029 A 
ATOM     53  C   UNL     1       5.968  11.378  -7.296  1.00  0.00     0.049 A 
ATOM     54  H   UNL     1       6.941  12.819  -6.147  1.00  0.00     0.167 HD
ATOM     55  C   UNL     1       8.838  15.812  -3.544  1.00  0.00     0.034 A 
ATOM     56  C   UNL     1       5.816  11.890  -8.533  1.00  0.00     0.034 A 
ATOM     57  C   UNL     1       8.810  16.404  -4.860  1.00  0.00     0.049 A 
ATOM     58  C   UNL     1       6.346  13.272  -8.817  1.00  0.00     0.074 A 
ATOM     59  C   UNL     1       9.320  17.625  -5.268  1.00  0.00     0.029 A 
ATOM     60  N   UNL     1       8.231  15.824  -5.982  1.00  0.00    -0.354 N 
ATOM     61  N   UNL     1       6.943  14.112  -8.002  1.00  0.00    -0.248 NA
ATOM     62  C   UNL     1       6.195  13.768 -10.190  1.00  0.00     0.031 C 
ATOM     63  C   UNL     1       8.993  17.810  -6.616  1.00  0.00     0.029 A 
ATOM     64  C   UNL     1       8.344  16.674  -7.072  1.00  0.00     0.049 A 
ATOM     65  H   UNL     1       7.802  14.937  -6.000  1.00  0.00     0.167 HD
ATOM     66  C   UNL     1       7.260  15.226  -8.774  1.00  0.00     0.074 A 
ATOM     67  C   UNL     1       6.809  14.940 -10.121  1.00  0.00     0.031 C 
ATOM     68  C   UNL     1       7.870  16.382  -8.405  1.00  0.00     0.034 A 
BRANCH  55  69
ATOM     69  C   UNL     1       9.410  16.610  -2.396  1.00  0.00     0.023 A 
ATOM     70  C   UNL     1      10.545  16.174  -1.688  1.00  0.00     0.031 A 
ATOM     71  C   UNL     1       8.801  17.809  -1.986  1.00  0.00     0.131 A 
ATOM     72  C   UNL     1      10.987  16.887  -0.564  1.00  0.00     0.055 A 
ATOM     73  C   UNL     1       9.296  18.558  -0.916  1.00  0.00     0.041 A 
ATOM     74  F   UNL     1       7.704  18.266  -2.609  1.00  0.00    -0.206 F 
ATOM     75  C   UNL     1      10.386  18.090  -0.188  1.00  0.00     0.022 A 
BRANCH  72  76
ATOM     76  S   UNL     1      12.268  16.145   0.483  1.00  0.00     0.124 S 
ATOM     77  O   UNL     1      11.632  14.893   0.884  1.00  0.00    -0.237 OA
ATOM     78  O   UNL     1      13.395  16.024  -0.434  1.00  0.00    -0.237 OA
ATOM     79  O   UNL     1      12.440  17.120   1.558  1.00  0.00    -0.744 OA
ENDBRANCH  72  76
ENDBRANCH  55  69
BRANCH  56  80
ATOM     80  C   UNL     1       5.131  11.104  -9.599  1.00  0.00     0.023 A 
ATOM     81  C   UNL     1       5.826  10.678 -10.742  1.00  0.00     0.031 A 
ATOM     82  C   UNL     1       3.760  10.805  -9.510  1.00  0.00     0.131 A 
ATOM     83  C   UNL     1       5.138  10.020 -11.773  1.00  0.00     0.055 A 
ATOM     84  C   UNL     1       3.092  10.104 -10.516  1.00  0.00     0.041 A 
ATOM     85  F   UNL     1       3.051  11.183  -8.435  1.00  0.00    -0.206 F 
ATOM     86  C   UNL     1       3.779   9.720 -11.663  1.00  0.00     0.022 A 
BRANCH  83  87
ATOM     87  S   UNL     1       6.033   9.635 -13.304  1.00  0.00     0.124 S 
ATOM     88  O   UNL     1       6.493  10.955 -13.720  1.00  0.00    -0.237 OA
ATOM     89  O   UNL     1       7.063   8.717 -12.828  1.00  0.00    -0.237 OA
ATOM     90  O   UNL     1       5.008   9.033 -14.154  1.00  0.00    -0.744 OA
ENDBRANCH  83  87
ENDBRANCH  56  80
BRANCH  68  91
ATOM     91  C   UNL     1       8.109  17.402  -9.492  1.00  0.00     0.023 A 
ATOM     92  C   UNL     1       7.044  18.059 -10.133  1.00  0.00     0.031 A 
ATOM     93  C   UNL     1       9.418  17.698  -9.911  1.00  0.00     0.131 A 
ATOM     94  C   UNL     1       7.302  18.931 -11.200  1.00  0.00     0.055 A 
ATOM     95  C   UNL     1       9.672  18.615 -10.932  1.00  0.00     0.041 A 
ATOM     96  F   UNL     1      10.472  17.098  -9.336  1.00  0.00    -0.206 F 
ATOM     97  C   UNL     1       8.610  19.226 -11.594  1.00  0.00     0.022 A 
BRANCH  94  98
ATOM     98  S   UNL     1       5.900  19.598 -12.138  1.00  0.00     0.124 S 
ATOM     99  O   UNL     1       5.234  18.382 -12.594  1.00  0.00    -0.237 OA
ATOM    100  O   UNL     1       5.189  20.374 -11.127  1.00  0.00    -0.237 OA
ATOM    101  O   UNL     1       6.536  20.389 -13.191  1.00  0.00    -0.744 OA
ENDBRANCH  94  98
ENDBRANCH  68  91
ENDBRANCH  42  43
ENDBRANCH  34  37
ENDBRANCH  32  33
ENDBRANCH  31  32
ENDBRANCH  30  31
ENDBRANCH  29  30
ENDBRANCH   3  29
TORSDOF 21
