REMARK SMILES O=C(NCCCCNC(=O)c1cc(-c2ccsc2)nc2ccccc12)c1ccc(-c2c3nc(c(-c4cc(S(=O)(=O)[O-])ccc4F)c4ccc([nH]4)c(-c4cc(S(=O)(=O)[O-])ccc4F)c4nc(c(-c5cc(S(=O)(=O)[O-])ccc5F)c5ccc2[nH]5)C=C4)C=C3)cc1
REMARK SMILES IDX 4 1 3 2 1 3 2 4 26 6 27 7 88 8 28 9 87 10 29 11 30 12 31 13
REMARK SMILES IDX 81 14 32 15 86 16 80 17 82 18 33 19 85 20 79 21 78 22 34 24
REMARK SMILES IDX 66 25 46 26 65 27 47 28 50 29 64 30 83 31 48 32 49 33 63 35
REMARK SMILES IDX 84 36 51 37 35 38 36 39 44 40 37 41 43 42 45 43 42 44 38 45
REMARK SMILES IDX 39 46 40 47 41 48 67 49 68 50 76 51 69 52 75 53 77 54 74 55
REMARK SMILES IDX 70 56 71 57 72 58 73 59 52 60 53 61 61 62 54 63 60 64 62 65
REMARK SMILES IDX 59 66 55 67 56 68 57 69 58 70 5 71 6 72 7 73 8 74 9 75 10 77
REMARK SMILES IDX 11 78 12 79 25 80 13 81 20 82 24 83 19 84 21 85 23 86 22 87
REMARK SMILES IDX 14 88 15 89 18 90 16 91 17 92
REMARK H PARENT 3 5 82 23 50 34 8 76
REMARK Flexibility Score: inf
ROOT
ATOM      1  C   UNL     1       4.706  -1.305   0.567  1.00  0.00     0.116 C 
ENDROOT
BRANCH   1   2
ATOM      2  N   UNL     1       3.276  -1.197   0.320  1.00  0.00    -0.352 N 
ATOM      3  O   UNL     1       1.295  -0.174  -0.013  1.00  0.00    -0.269 OA
ATOM      4  C   UNL     1       2.519  -0.083   0.040  1.00  0.00     0.251 C 
ATOM      5  H   UNL     1       2.777  -2.045   0.357  1.00  0.00     0.163 HD
BRANCH   4   6
ATOM      6  C   UNL     1       3.176   1.227  -0.170  1.00  0.00     0.039 A 
ATOM      7  C   UNL     1       4.300   1.339  -0.991  1.00  0.00     0.014 A 
ATOM      8  C   UNL     1       2.661   2.358   0.470  1.00  0.00     0.014 A 
ATOM      9  C   UNL     1       4.996   2.542  -1.049  1.00  0.00     0.010 A 
ATOM     10  C   UNL     1       3.315   3.588   0.342  1.00  0.00     0.010 A 
ATOM     11  C   UNL     1       4.509   3.683  -0.389  1.00  0.00    -0.014 A 
BRANCH  11  12
ATOM     12  C   UNL     1       5.247   4.967  -0.514  1.00  0.00     0.031 A 
ATOM     13  C   UNL     1       5.895   5.610   0.683  1.00  0.00     0.074 A 
ATOM     14  C   UNL     1       5.357   5.537  -1.730  1.00  0.00     0.049 A 
ATOM     15  N   UNL     1       6.582   6.722   0.751  1.00  0.00    -0.248 NA
ATOM     16  C   UNL     1       5.743   4.920   1.972  1.00  0.00     0.031 C 
ATOM     17  C   UNL     1       4.766   5.005  -2.962  1.00  0.00     0.029 A 
ATOM     18  N   UNL     1       6.010   6.670  -2.139  1.00  0.00    -0.354 N 
ATOM     19  C   UNL     1       6.933   6.876   2.088  1.00  0.00     0.074 A 
ATOM     20  C   UNL     1       6.352   5.757   2.801  1.00  0.00     0.031 C 
ATOM     21  C   UNL     1       5.119   5.787  -3.992  1.00  0.00     0.029 A 
ATOM     22  C   UNL     1       5.904   6.909  -3.489  1.00  0.00     0.049 A 
ATOM     23  H   UNL     1       6.508   7.256  -1.525  1.00  0.00     0.167 HD
ATOM     24  C   UNL     1       7.677   7.855   2.664  1.00  0.00     0.034 A 
ATOM     25  C   UNL     1       6.365   7.928  -4.239  1.00  0.00     0.034 A 
ATOM     26  C   UNL     1       8.253   8.962   1.936  1.00  0.00     0.049 A 
ATOM     27  C   UNL     1       7.157   9.018  -3.571  1.00  0.00     0.074 A 
ATOM     28  C   UNL     1       9.050   9.989   2.414  1.00  0.00     0.029 A 
ATOM     29  N   UNL     1       8.088   9.194   0.576  1.00  0.00    -0.354 N 
ATOM     30  N   UNL     1       7.489   9.139  -2.307  1.00  0.00    -0.248 NA
ATOM     31  C   UNL     1       7.636  10.106  -4.431  1.00  0.00     0.031 C 
ATOM     32  C   UNL     1       9.312  10.873   1.360  1.00  0.00     0.029 A 
ATOM     33  C   UNL     1       8.740  10.363   0.206  1.00  0.00     0.049 A 
ATOM     34  H   UNL     1       7.582   8.614  -0.037  1.00  0.00     0.167 HD
ATOM     35  C   UNL     1       8.230  10.314  -2.224  1.00  0.00     0.074 A 
ATOM     36  C   UNL     1       8.313  10.849  -3.568  1.00  0.00     0.031 C 
ATOM     37  C   UNL     1       8.791  10.897  -1.134  1.00  0.00     0.034 A 
BRANCH  24  38
ATOM     38  C   UNL     1       7.870   7.794   4.161  1.00  0.00     0.023 A 
ATOM     39  C   UNL     1       8.585   6.752   4.777  1.00  0.00     0.031 A 
ATOM     40  C   UNL     1       7.315   8.788   4.988  1.00  0.00     0.131 A 
ATOM     41  C   UNL     1       8.670   6.691   6.177  1.00  0.00     0.055 A 
ATOM     42  C   UNL     1       7.466   8.761   6.376  1.00  0.00     0.041 A 
ATOM     43  F   UNL     1       6.606   9.798   4.461  1.00  0.00    -0.206 F 
ATOM     44  C   UNL     1       8.135   7.701   6.980  1.00  0.00     0.022 A 
BRANCH  41  45
ATOM     45  S   UNL     1       9.374   5.203   6.940  1.00  0.00     0.124 S 
ATOM     46  O   UNL     1       8.508   4.156   6.404  1.00  0.00    -0.237 OA
ATOM     47  O   UNL     1      10.745   5.213   6.444  1.00  0.00    -0.237 OA
ATOM     48  O   UNL     1       9.226   5.449   8.373  1.00  0.00    -0.744 OA
ENDBRANCH  41  45
ENDBRANCH  24  38
BRANCH  25  49
ATOM     49  C   UNL     1       6.059   7.980  -5.695  1.00  0.00     0.023 A 
ATOM     50  C   UNL     1       7.075   7.875  -6.656  1.00  0.00     0.031 A 
ATOM     51  C   UNL     1       4.737   8.152  -6.145  1.00  0.00     0.131 A 
ATOM     52  C   UNL     1       6.758   7.975  -8.020  1.00  0.00     0.055 A 
ATOM     53  C   UNL     1       4.421   8.201  -7.503  1.00  0.00     0.041 A 
ATOM     54  F   UNL     1       3.728   8.251  -5.265  1.00  0.00    -0.206 F 
ATOM     55  C   UNL     1       5.437   8.124  -8.449  1.00  0.00     0.022 A 
BRANCH  52  56
ATOM     56  S   UNL     1       8.111   7.975  -9.228  1.00  0.00     0.124 S 
ATOM     57  O   UNL     1       8.908   9.113  -8.783  1.00  0.00    -0.237 OA
ATOM     58  O   UNL     1       8.702   6.657  -9.020  1.00  0.00    -0.237 OA
ATOM     59  O   UNL     1       7.425   8.154 -10.506  1.00  0.00    -0.744 OA
ENDBRANCH  52  56
ENDBRANCH  25  49
BRANCH  37  60
ATOM     60  C   UNL     1       9.566  12.168  -1.374  1.00  0.00     0.023 A 
ATOM     61  C   UNL     1       8.926  13.358  -1.763  1.00  0.00     0.031 A 
ATOM     62  C   UNL     1      10.966  12.179  -1.243  1.00  0.00     0.131 A 
ATOM     63  C   UNL     1       9.691  14.495  -2.065  1.00  0.00     0.055 A 
ATOM     64  C   UNL     1      11.716  13.329  -1.490  1.00  0.00     0.041 A 
ATOM     65  F   UNL     1      11.627  11.069  -0.877  1.00  0.00    -0.206 F 
ATOM     66  C   UNL     1      11.081  14.492  -1.917  1.00  0.00     0.022 A 
BRANCH  63  67
ATOM     67  S   UNL     1       8.852  15.953  -2.742  1.00  0.00     0.124 S 
ATOM     68  O   UNL     1       8.242  15.417  -3.954  1.00  0.00    -0.237 OA
ATOM     69  O   UNL     1       7.931  16.311  -1.669  1.00  0.00    -0.237 OA
ATOM     70  O   UNL     1       9.941  16.903  -2.965  1.00  0.00    -0.744 OA
ENDBRANCH  63  67
ENDBRANCH  37  60
ENDBRANCH  11  12
ENDBRANCH   4   6
ENDBRANCH   1   2
BRANCH   1  71
ATOM     71  C   UNL     1       5.035  -1.897   1.933  1.00  0.00     0.023 C 
BRANCH  71  72
ATOM     72  C   UNL     1       4.548  -3.325   2.171  1.00  0.00     0.023 C 
BRANCH  72  73
ATOM     73  C   UNL     1       4.902  -4.333   1.084  1.00  0.00     0.116 C 
BRANCH  73  74
ATOM     74  N   UNL     1       6.331  -4.449   0.839  1.00  0.00    -0.352 N 
ATOM     75  C   UNL     1       7.069  -5.583   0.605  1.00  0.00     0.252 C 
ATOM     76  H   UNL     1       6.835  -3.603   0.842  1.00  0.00     0.163 HD
ATOM     77  O   UNL     1       8.279  -5.527   0.414  1.00  0.00    -0.269 OA
BRANCH  75  78
ATOM     78  C   UNL     1       6.408  -6.899   0.650  1.00  0.00     0.051 A 
ATOM     79  C   UNL     1       6.809  -7.744   1.681  1.00  0.00     0.043 A 
ATOM     80  C   UNL     1       5.404  -7.279  -0.267  1.00  0.00     0.013 A 
ATOM     81  C   UNL     1       6.154  -8.951   1.800  1.00  0.00     0.073 A 
ATOM     82  C   UNL     1       4.771  -8.509  -0.012  1.00  0.00     0.072 A 
ATOM     83  C   UNL     1       4.999  -6.511  -1.387  1.00  0.00     0.011 A 
ATOM     84  N   UNL     1       5.143  -9.330   0.985  1.00  0.00    -0.248 NA
ATOM     85  C   UNL     1       3.704  -8.884  -0.819  1.00  0.00     0.029 A 
ATOM     86  C   UNL     1       3.932  -6.914  -2.185  1.00  0.00     0.001 A 
ATOM     87  C   UNL     1       3.270  -8.097  -1.888  1.00  0.00     0.002 A 
BRANCH  81  88
ATOM     88  C   UNL     1       6.536  -9.919   2.815  1.00  0.00     0.011 A 
ATOM     89  C   UNL     1       6.896 -11.286   2.589  1.00  0.00     0.022 A 
ATOM     90  C   UNL     1       6.574  -9.605   4.160  1.00  0.00     0.075 A 
ATOM     91  C   UNL     1       7.220 -11.944   3.755  1.00  0.00     0.065 A 
ATOM     92  S   UNL     1       7.061 -10.934   5.126  1.00  0.00    -0.152 S 
ENDBRANCH  81  88
ENDBRANCH  75  78
ENDBRANCH  73  74
ENDBRANCH  72  73
ENDBRANCH  71  72
ENDBRANCH   1  71
TORSDOF 15
