REMARK SMILES O=C(CCN1C(=O)S/C(=C\c2ccc(F)cc2)C1=O)Nc1ccc(O)cc1C(=O)NCCCCNC(=O)c1ccc(-c2c3nc(c(-c4cc(S(=O)(=O)[O-])ccc4F)c4ccc([nH]4)c(-c4cc(S(=O)(=O)[O-])ccc4F)c4nc(c(-c5cc(S(=O)(=O)[O-])ccc5F)c5ccc2[nH]5)C=C4)C=C3)cc1
REMARK SMILES IDX 31 1 30 2 28 3 29 4 27 6 21 7 22 8 23 9 26 10 24 11 20 12
REMARK SMILES IDX 1 13 2 14 3 16 4 17 5 18 6 19 18 20 7 21 8 22 9 23 19 24
REMARK SMILES IDX 10 25 11 26 12 27 17 28 13 29 16 30 14 31 15 32 25 33 32 35
REMARK SMILES IDX 33 36 34 37 35 38 36 39 37 41 38 42 39 43 100 44 40 45 99 46
REMARK SMILES IDX 41 47 42 48 43 49 93 50 44 51 98 52 92 53 94 54 45 55 97 56
REMARK SMILES IDX 91 57 90 58 46 60 78 61 58 62 77 63 59 64 62 65 76 66 95 67
REMARK SMILES IDX 60 68 61 69 75 71 96 72 63 73 47 74 48 75 56 76 49 77 55 78
REMARK SMILES IDX 57 79 54 80 50 81 51 82 52 83 53 84 79 85 80 86 88 87 81 88
REMARK SMILES IDX 87 89 89 90 86 91 82 92 83 93 84 94 85 95 64 96 65 97 73 98
REMARK SMILES IDX 66 99 72 100 74 101 71 102 67 103 68 104 69 105 70 106
REMARK H PARENT 30 5 20 15 25 34 35 40 94 59 62 70
REMARK Flexibility Score: inf
ROOT
ATOM      1  C   UNL     1       2.617  -1.381   2.047  1.00  0.00     0.116 C 
ENDROOT
BRANCH   1   2
ATOM      2  N   UNL     1       3.259  -2.662   1.798  1.00  0.00    -0.352 N 
ATOM      3  C   UNL     1       3.152  -3.562   0.748  1.00  0.00     0.253 C 
ATOM      4  O   UNL     1       3.925  -4.522   0.730  1.00  0.00    -0.269 OA
ATOM      5  H   UNL     1       3.883  -2.943   2.506  1.00  0.00     0.163 HD
BRANCH   3   6
ATOM      6  C   UNL     1       2.155  -3.468  -0.366  1.00  0.00     0.067 A 
ATOM      7  C   UNL     1       1.854  -2.310  -1.107  1.00  0.00     0.054 A 
ATOM      8  C   UNL     1       0.842  -2.354  -2.085  1.00  0.00     0.031 A 
ATOM      9  C   UNL     1       0.224  -3.557  -2.428  1.00  0.00     0.048 A 
ATOM     10  C   UNL     1       1.552  -4.683  -0.755  1.00  0.00     0.062 A 
ATOM     11  C   UNL     1       0.616  -4.721  -1.788  1.00  0.00     0.116 A 
BRANCH   7  12
ATOM     12  N   UNL     1       2.686  -1.175  -1.026  1.00  0.00    -0.325 N 
ATOM     13  O   UNL     1       1.194   0.502  -1.558  1.00  0.00    -0.275 OA
ATOM     14  C   UNL     1       2.344   0.120  -1.347  1.00  0.00     0.226 C 
ATOM     15  H   UNL     1       3.606  -1.323  -0.706  1.00  0.00     0.169 HD
BRANCH  14  16
ATOM     16  C   UNL     1       3.513   1.084  -1.484  1.00  0.00     0.122 C 
BRANCH  16  17
ATOM     17  C   UNL     1       4.617   0.958  -0.435  1.00  0.00     0.140 C 
BRANCH  17  18
ATOM     18  N   UNL     1       5.563  -0.143  -0.638  1.00  0.00    -0.268 N 
ATOM     19  C   UNL     1       6.412  -0.182  -1.708  1.00  0.00     0.293 C 
ATOM     20  C   UNL     1       5.846  -1.052   0.347  1.00  0.00     0.268 C 
ATOM     21  O   UNL     1       6.505   0.656  -2.593  1.00  0.00    -0.261 OA
ATOM     22  S   UNL     1       7.396  -1.645  -1.656  1.00  0.00    -0.022 SA
ATOM     23  C   UNL     1       6.763  -2.104  -0.136  1.00  0.00     0.083 C 
ATOM     24  O   UNL     1       5.398  -1.038   1.479  1.00  0.00    -0.268 OA
ATOM     25  C   UNL     1       6.942  -3.216   0.588  1.00  0.00     0.029 C 
BRANCH  25  26
ATOM     26  C   UNL     1       7.754  -4.381   0.248  1.00  0.00    -0.024 A 
ATOM     27  C   UNL     1       8.949  -4.607   0.942  1.00  0.00     0.011 A 
ATOM     28  C   UNL     1       7.305  -5.319  -0.690  1.00  0.00     0.011 A 
ATOM     29  C   UNL     1       9.703  -5.751   0.683  1.00  0.00     0.040 A 
ATOM     30  C   UNL     1       8.063  -6.463  -0.948  1.00  0.00     0.040 A 
ATOM     31  C   UNL     1       9.255  -6.667  -0.262  1.00  0.00     0.123 A 
ATOM     32  F   UNL     1       9.976  -7.769  -0.507  1.00  0.00    -0.207 F 
ENDBRANCH  25  26
ENDBRANCH  17  18
ENDBRANCH  16  17
ENDBRANCH  14  16
ENDBRANCH   7  12
BRANCH  11  33
ATOM     33  O   UNL     1       0.111  -5.931  -2.162  1.00  0.00    -0.508 OA
ATOM     34  H   UNL     1      -0.519  -5.982  -2.854  1.00  0.00     0.293 HD
ENDBRANCH  11  33
ENDBRANCH   3   6
ENDBRANCH   1   2
BRANCH   1  35
ATOM     35  C   UNL     1       2.756  -0.711   3.433  1.00  0.00     0.023 C 
BRANCH  35  36
ATOM     36  C   UNL     1       4.047  -0.422   4.252  1.00  0.00     0.023 C 
BRANCH  36  37
ATOM     37  C   UNL     1       5.279   0.437   3.862  1.00  0.00     0.116 C 
BRANCH  37  38
ATOM     38  N   UNL     1       5.050   1.549   2.961  1.00  0.00    -0.352 N 
ATOM     39  C   UNL     1       5.809   2.683   2.741  1.00  0.00     0.251 C 
ATOM     40  H   UNL     1       4.228   1.487   2.422  1.00  0.00     0.163 HD
ATOM     41  O   UNL     1       5.399   3.543   1.966  1.00  0.00    -0.269 OA
BRANCH  39  42
ATOM     42  C   UNL     1       7.128   2.854   3.396  1.00  0.00     0.039 A 
ATOM     43  C   UNL     1       7.387   3.969   4.203  1.00  0.00     0.014 A 
ATOM     44  C   UNL     1       8.138   1.920   3.153  1.00  0.00     0.014 A 
ATOM     45  C   UNL     1       8.620   4.078   4.862  1.00  0.00     0.010 A 
ATOM     46  C   UNL     1       9.357   2.018   3.827  1.00  0.00     0.010 A 
ATOM     47  C   UNL     1       9.590   3.069   4.726  1.00  0.00    -0.014 A 
BRANCH  47  48
ATOM     48  C   UNL     1      10.760   2.995   5.641  1.00  0.00     0.031 A 
ATOM     49  C   UNL     1      12.166   3.185   5.151  1.00  0.00     0.074 A 
ATOM     50  C   UNL     1      10.531   2.643   6.924  1.00  0.00     0.049 A 
ATOM     51  N   UNL     1      13.289   3.080   5.815  1.00  0.00    -0.248 NA
ATOM     52  C   UNL     1      12.335   3.513   3.729  1.00  0.00     0.031 C 
ATOM     53  C   UNL     1       9.207   2.375   7.494  1.00  0.00     0.029 A 
ATOM     54  N   UNL     1      11.388   2.444   7.976  1.00  0.00    -0.354 N 
ATOM     55  C   UNL     1      14.301   3.334   4.898  1.00  0.00     0.074 A 
ATOM     56  C   UNL     1      13.656   3.552   3.618  1.00  0.00     0.031 C 
ATOM     57  C   UNL     1       9.337   2.086   8.797  1.00  0.00     0.029 A 
ATOM     58  C   UNL     1      10.752   2.104   9.148  1.00  0.00     0.049 A 
ATOM     59  H   UNL     1      12.365   2.536   7.900  1.00  0.00     0.167 HD
ATOM     60  C   UNL     1      15.640   3.395   5.111  1.00  0.00     0.034 A 
ATOM     61  C   UNL     1      11.248   1.833  10.370  1.00  0.00     0.034 A 
ATOM     62  C   UNL     1      16.262   3.170   6.394  1.00  0.00     0.049 A 
ATOM     63  C   UNL     1      12.735   1.891  10.578  1.00  0.00     0.074 A 
ATOM     64  C   UNL     1      17.605   3.246   6.726  1.00  0.00     0.029 A 
ATOM     65  N   UNL     1      15.587   2.817   7.556  1.00  0.00    -0.354 N 
ATOM     66  N   UNL     1      13.675   2.160   9.703  1.00  0.00    -0.248 NA
ATOM     67  C   UNL     1      13.228   1.613  11.932  1.00  0.00     0.031 C 
ATOM     68  C   UNL     1      17.746   2.887   8.072  1.00  0.00     0.029 A 
ATOM     69  C   UNL     1      16.486   2.649   8.598  1.00  0.00     0.049 A 
ATOM     70  H   UNL     1      14.612   2.704   7.628  1.00  0.00     0.167 HD
ATOM     71  C   UNL     1      14.873   2.100  10.405  1.00  0.00     0.074 A 
ATOM     72  C   UNL     1      14.536   1.775  11.777  1.00  0.00     0.031 C 
ATOM     73  C   UNL     1      16.135   2.304   9.955  1.00  0.00     0.034 A 
BRANCH  60  74
ATOM     74  C   UNL     1      16.523   3.706   3.929  1.00  0.00     0.023 A 
ATOM     75  C   UNL     1      16.487   4.962   3.300  1.00  0.00     0.031 A 
ATOM     76  C   UNL     1      17.422   2.745   3.432  1.00  0.00     0.131 A 
ATOM     77  C   UNL     1      17.293   5.208   2.178  1.00  0.00     0.055 A 
ATOM     78  C   UNL     1      18.270   3.018   2.356  1.00  0.00     0.041 A 
ATOM     79  F   UNL     1      17.490   1.524   3.985  1.00  0.00    -0.206 F 
ATOM     80  C   UNL     1      18.201   4.252   1.716  1.00  0.00     0.022 A 
BRANCH  77  81
ATOM     81  S   UNL     1      17.075   6.765   1.276  1.00  0.00     0.124 S 
ATOM     82  O   UNL     1      15.710   6.625   0.776  1.00  0.00    -0.237 OA
ATOM     83  O   UNL     1      17.274   7.767   2.317  1.00  0.00    -0.237 OA
ATOM     84  O   UNL     1      18.117   6.717   0.252  1.00  0.00    -0.744 OA
ENDBRANCH  77  81
ENDBRANCH  60  74
BRANCH  61  85
ATOM     85  C   UNL     1      10.321   1.499  11.485  1.00  0.00     0.023 A 
ATOM     86  C   UNL     1      10.096   2.409  12.528  1.00  0.00     0.031 A 
ATOM     87  C   UNL     1       9.618   0.281  11.502  1.00  0.00     0.131 A 
ATOM     88  C   UNL     1       9.199   2.083  13.556  1.00  0.00     0.055 A 
ATOM     89  C   UNL     1       8.703  -0.025  12.509  1.00  0.00     0.041 A 
ATOM     90  F   UNL     1       9.787  -0.613  10.514  1.00  0.00    -0.206 F 
ATOM     91  C   UNL     1       8.492   0.878  13.547  1.00  0.00     0.022 A 
BRANCH  88  92
ATOM     92  S   UNL     1       8.972   3.257  14.920  1.00  0.00     0.124 S 
ATOM     93  O   UNL     1      10.293   3.254  15.537  1.00  0.00    -0.237 OA
ATOM     94  O   UNL     1       8.595   4.477  14.212  1.00  0.00    -0.237 OA
ATOM     95  O   UNL     1       7.907   2.650  15.716  1.00  0.00    -0.744 OA
ENDBRANCH  88  92
ENDBRANCH  61  85
BRANCH  73  96
ATOM     96  C   UNL     1      17.249   2.202  10.961  1.00  0.00     0.023 A 
ATOM     97  C   UNL     1      17.659   0.961  11.477  1.00  0.00     0.031 A 
ATOM     98  C   UNL     1      17.935   3.357  11.374  1.00  0.00     0.131 A 
ATOM     99  C   UNL     1      18.713   0.907  12.400  1.00  0.00     0.055 A 
ATOM    100  C   UNL     1      19.012   3.292  12.259  1.00  0.00     0.041 A 
ATOM    101  F   UNL     1      17.580   4.565  10.908  1.00  0.00    -0.206 F 
ATOM    102  C   UNL     1      19.403   2.062  12.780  1.00  0.00     0.022 A 
BRANCH  99 103
ATOM    103  S   UNL     1      19.159  -0.696  13.123  1.00  0.00     0.124 S 
ATOM    104  O   UNL     1      17.967  -1.017  13.901  1.00  0.00    -0.237 OA
ATOM    105  O   UNL     1      19.391  -1.522  11.943  1.00  0.00    -0.237 OA
ATOM    106  O   UNL     1      20.353  -0.396  13.912  1.00  0.00    -0.744 OA
ENDBRANCH  99 103
ENDBRANCH  73  96
ENDBRANCH  47  48
ENDBRANCH  39  42
ENDBRANCH  37  38
ENDBRANCH  36  37
ENDBRANCH  35  36
ENDBRANCH   1  35
TORSDOF 20
