REMARK SMILES Cc1ccc(F)c(C(=O)N[C@@H]2C=C[C@@H](C(=O)NCCCCNC(=O)c3ccc(-c4c5nc(c(-c6cc(S(=O)(=O)[O-])ccc6F)c6ccc([nH]6)c(-c6cc(S(=O)(=O)[O-])ccc6F)c6nc(c(-c7cc(S(=O)(=O)[O-])ccc7F)c7ccc4[nH]7)C=C6)C=C5)cc3)C2)c1
REMARK SMILES IDX 20 1 19 2 18 3 17 4 15 5 16 6 14 8 11 9 12 10 88 11 13 12
REMARK SMILES IDX 10 13 8 14 9 15 7 17 1 18 2 19 3 20 89 21 4 22 5 23 6 24
REMARK SMILES IDX 21 25 22 26 23 27 24 29 25 30 26 31 87 32 27 33 86 34 28 35
REMARK SMILES IDX 29 36 30 37 80 38 31 39 85 40 79 41 81 42 32 43 84 44 78 45
REMARK SMILES IDX 77 46 33 48 65 49 45 50 64 51 46 52 49 53 63 54 82 55 47 56
REMARK SMILES IDX 48 57 62 59 83 60 50 61 34 62 35 63 43 64 36 65 42 66 44 67
REMARK SMILES IDX 41 68 37 69 38 70 39 71 40 72 66 73 67 74 75 75 68 76 74 77
REMARK SMILES IDX 76 78 73 79 69 80 70 81 71 82 72 83 51 84 52 85 60 86 53 87
REMARK SMILES IDX 59 88 61 89 58 90 54 91 55 92 56 93 57 94
REMARK H PARENT 17 7 10 16 22 28 81 47 49 58
REMARK Flexibility Score: inf
ROOT
ATOM      1  C   UNL     1      -1.379  -6.032   4.412  1.00  0.00     0.023 C 
ENDROOT
BRANCH   1   2
ATOM      2  C   UNL     1      -0.975  -5.185   3.204  1.00  0.00     0.023 C 
BRANCH   2   3
ATOM      3  C   UNL     1       0.156  -4.190   3.459  1.00  0.00     0.116 C 
BRANCH   3   4
ATOM      4  N   UNL     1       1.404  -4.829   3.827  1.00  0.00    -0.356 N 
ATOM      5  C   UNL     1       2.655  -4.741   3.302  1.00  0.00     0.227 C 
ATOM      6  O   UNL     1       3.566  -5.271   3.949  1.00  0.00    -0.274 OA
ATOM      7  H   UNL     1       1.332  -5.436   4.598  1.00  0.00     0.163 HD
BRANCH   5   8
ATOM      8  C   UNL     1       2.964  -4.127   1.928  1.00  0.00     0.103 C 
ATOM      9  C   UNL     1       1.325  -3.984   0.094  1.00  0.00     0.106 C 
ATOM     10  C   UNL     1       1.718  -2.633   0.607  1.00  0.00    -0.006 C 
ATOM     11  C   UNL     1       2.315  -4.919   0.796  1.00  0.00     0.047 C 
ATOM     12  C   UNL     1       2.556  -2.717   1.649  1.00  0.00    -0.016 C 
BRANCH   9  13
ATOM     13  N   UNL     1       1.354  -4.010  -1.352  1.00  0.00    -0.346 N 
ATOM     14  C   UNL     1       1.120  -5.040  -2.240  1.00  0.00     0.254 C 
ATOM     15  O   UNL     1       1.007  -4.766  -3.433  1.00  0.00    -0.269 OA
ATOM     16  H   UNL     1       1.579  -3.149  -1.773  1.00  0.00     0.164 HD
BRANCH  14  17
ATOM     17  C   UNL     1       1.085  -6.459  -1.801  1.00  0.00     0.075 A 
ATOM     18  C   UNL     1       0.296  -8.496   1.309  1.00  0.00     0.044 C 
ATOM     19  C   UNL     1       0.720  -8.153  -0.091  1.00  0.00    -0.050 A 
ATOM     20  C   UNL     1       1.445  -9.075  -0.851  1.00  0.00     0.006 A 
ATOM     21  C   UNL     1       0.451  -6.882  -0.627  1.00  0.00     0.020 A 
ATOM     22  C   UNL     1       1.954  -8.706  -2.094  1.00  0.00     0.040 A 
ATOM     23  C   UNL     1       1.801  -7.398  -2.548  1.00  0.00     0.135 A 
ATOM     24  F   UNL     1       2.408  -7.061  -3.695  1.00  0.00    -0.206 F 
ENDBRANCH  14  17
ENDBRANCH   9  13
ENDBRANCH   5   8
ENDBRANCH   3   4
ENDBRANCH   2   3
ENDBRANCH   1   2
BRANCH   1  25
ATOM     25  C   UNL     1      -1.775  -5.231   5.648  1.00  0.00     0.116 C 
BRANCH  25  26
ATOM     26  N   UNL     1      -2.870  -4.310   5.385  1.00  0.00    -0.352 N 
ATOM     27  C   UNL     1      -4.007  -4.078   6.123  1.00  0.00     0.251 C 
ATOM     28  H   UNL     1      -2.785  -3.777   4.562  1.00  0.00     0.163 HD
ATOM     29  O   UNL     1      -4.904  -3.392   5.652  1.00  0.00    -0.269 OA
BRANCH  27  30
ATOM     30  C   UNL     1      -4.146  -4.688   7.463  1.00  0.00     0.039 A 
ATOM     31  C   UNL     1      -5.362  -5.277   7.813  1.00  0.00     0.014 A 
ATOM     32  C   UNL     1      -3.076  -4.690   8.363  1.00  0.00     0.014 A 
ATOM     33  C   UNL     1      -5.484  -5.923   9.044  1.00  0.00     0.010 A 
ATOM     34  C   UNL     1      -3.173  -5.409   9.550  1.00  0.00     0.010 A 
ATOM     35  C   UNL     1      -4.380  -6.028   9.907  1.00  0.00    -0.014 A 
BRANCH  35  36
ATOM     36  C   UNL     1      -4.479  -6.778  11.186  1.00  0.00     0.031 A 
ATOM     37  C   UNL     1      -4.277  -6.070  12.497  1.00  0.00     0.074 A 
ATOM     38  C   UNL     1      -4.695  -8.107  11.160  1.00  0.00     0.049 A 
ATOM     39  N   UNL     1      -4.280  -6.557  13.711  1.00  0.00    -0.248 NA
ATOM     40  C   UNL     1      -3.999  -4.628  12.428  1.00  0.00     0.031 C 
ATOM     41  C   UNL     1      -4.845  -8.914   9.947  1.00  0.00     0.029 A 
ATOM     42  N   UNL     1      -4.819  -9.017  12.180  1.00  0.00    -0.354 N 
ATOM     43  C   UNL     1      -4.002  -5.483  14.550  1.00  0.00     0.074 A 
ATOM     44  C   UNL     1      -3.749  -4.342  13.695  1.00  0.00     0.031 C 
ATOM     45  C   UNL     1      -5.065 -10.191  10.293  1.00  0.00     0.029 A 
ATOM     46  C   UNL     1      -5.025 -10.306  11.747  1.00  0.00     0.049 A 
ATOM     47  H   UNL     1      -4.766  -8.770  13.131  1.00  0.00     0.167 HD
ATOM     48  C   UNL     1      -3.990  -5.444  15.907  1.00  0.00     0.034 A 
ATOM     49  C   UNL     1      -5.152 -11.454  12.441  1.00  0.00     0.034 A 
ATOM     50  C   UNL     1      -4.234  -6.598  16.739  1.00  0.00     0.049 A 
ATOM     51  C   UNL     1      -5.111 -11.399  13.945  1.00  0.00     0.074 A 
ATOM     52  C   UNL     1      -4.292  -6.671  18.120  1.00  0.00     0.029 A 
ATOM     53  N   UNL     1      -4.444  -7.890  16.268  1.00  0.00    -0.354 N 
ATOM     54  N   UNL     1      -4.915 -10.363  14.729  1.00  0.00    -0.248 NA
ATOM     55  C   UNL     1      -5.325 -12.663  14.657  1.00  0.00     0.031 C 
ATOM     56  C   UNL     1      -4.455  -8.013  18.483  1.00  0.00     0.029 A 
ATOM     57  C   UNL     1      -4.593  -8.771  17.330  1.00  0.00     0.049 A 
ATOM     58  H   UNL     1      -4.482  -8.143  15.317  1.00  0.00     0.167 HD
ATOM     59  C   UNL     1      -5.002 -10.850  16.031  1.00  0.00     0.074 A 
ATOM     60  C   UNL     1      -5.295 -12.266  15.920  1.00  0.00     0.031 C 
ATOM     61  C   UNL     1      -4.854 -10.189  17.209  1.00  0.00     0.034 A 
BRANCH  48  62
ATOM     62  C   UNL     1      -3.672  -4.113  16.554  1.00  0.00     0.023 A 
ATOM     63  C   UNL     1      -4.459  -2.971  16.313  1.00  0.00     0.031 A 
ATOM     64  C   UNL     1      -2.535  -3.962  17.367  1.00  0.00     0.131 A 
ATOM     65  C   UNL     1      -4.039  -1.716  16.781  1.00  0.00     0.055 A 
ATOM     66  C   UNL     1      -2.180  -2.727  17.916  1.00  0.00     0.041 A 
ATOM     67  F   UNL     1      -1.730  -5.005  17.620  1.00  0.00    -0.206 F 
ATOM     68  C   UNL     1      -2.920  -1.590  17.605  1.00  0.00     0.022 A 
BRANCH  65  69
ATOM     69  S   UNL     1      -4.860  -0.235  16.128  1.00  0.00     0.124 S 
ATOM     70  O   UNL     1      -4.676  -0.406  14.689  1.00  0.00    -0.237 OA
ATOM     71  O   UNL     1      -6.224  -0.388  16.621  1.00  0.00    -0.237 OA
ATOM     72  O   UNL     1      -4.101   0.866  16.718  1.00  0.00    -0.744 OA
ENDBRANCH  65  69
ENDBRANCH  48  62
BRANCH  49  73
ATOM     73  C   UNL     1      -5.309 -12.748  11.717  1.00  0.00     0.023 A 
ATOM     74  C   UNL     1      -6.490 -13.501  11.806  1.00  0.00     0.031 A 
ATOM     75  C   UNL     1      -4.263 -13.254  10.923  1.00  0.00     0.131 A 
ATOM     76  C   UNL     1      -6.585 -14.734  11.140  1.00  0.00     0.055 A 
ATOM     77  C   UNL     1      -4.381 -14.454  10.221  1.00  0.00     0.041 A 
ATOM     78  F   UNL     1      -3.114 -12.570  10.798  1.00  0.00    -0.206 F 
ATOM     79  C   UNL     1      -5.545 -15.207  10.336  1.00  0.00     0.022 A 
BRANCH  76  80
ATOM     80  S   UNL     1      -8.068 -15.748  11.389  1.00  0.00     0.124 S 
ATOM     81  O   UNL     1      -8.045 -15.960  12.831  1.00  0.00    -0.237 OA
ATOM     82  O   UNL     1      -9.121 -14.872  10.886  1.00  0.00    -0.237 OA
ATOM     83  O   UNL     1      -7.808 -16.935  10.577  1.00  0.00    -0.744 OA
ENDBRANCH  76  80
ENDBRANCH  49  73
BRANCH  61  84
ATOM     84  C   UNL     1      -5.036 -10.998  18.473  1.00  0.00     0.023 A 
ATOM     85  C   UNL     1      -4.173 -12.059  18.802  1.00  0.00     0.031 A 
ATOM     86  C   UNL     1      -6.106 -10.726  19.343  1.00  0.00     0.131 A 
ATOM     87  C   UNL     1      -4.440 -12.854  19.927  1.00  0.00     0.055 A 
ATOM     88  C   UNL     1      -6.321 -11.473  20.503  1.00  0.00     0.041 A 
ATOM     89  F   UNL     1      -6.967  -9.730  19.079  1.00  0.00    -0.206 F 
ATOM     90  C   UNL     1      -5.496 -12.556  20.790  1.00  0.00     0.022 A 
BRANCH  87  91
ATOM     91  S   UNL     1      -3.466 -14.366  20.172  1.00  0.00     0.124 S 
ATOM     92  O   UNL     1      -3.689 -15.075  18.916  1.00  0.00    -0.237 OA
ATOM     93  O   UNL     1      -2.121 -13.840  20.378  1.00  0.00    -0.237 OA
ATOM     94  O   UNL     1      -4.079 -14.980  21.349  1.00  0.00    -0.744 OA
ENDBRANCH  87  91
ENDBRANCH  61  84
ENDBRANCH  35  36
ENDBRANCH  27  30
ENDBRANCH  25  26
ENDBRANCH   1  25
TORSDOF 16
