REMARK SMILES O=C(NC[C@@H]1CC[C@H](C(=O)NCCCCNC(=O)c2ccc(-c3c4nc(c(-c5cc(S(=O)(=O)[O-])ccc5F)c5ccc([nH]5)c(-c5cc(S(=O)(=O)[O-])ccc5F)c5nc(c(-c6cc(S(=O)(=O)[O-])ccc6F)c6ccc3[nH]6)C=C5)C=C4)cc2)O1)Nc1ncccn1
REMARK SMILES IDX 13 1 12 2 11 3 9 4 10 5 8 7 5 8 6 9 82 10 7 11 4 12 3 13
REMARK SMILES IDX 1 14 2 15 83 16 84 19 85 20 89 21 86 22 88 23 87 24 14 25
REMARK SMILES IDX 15 26 16 27 17 28 18 30 19 31 20 32 81 33 21 34 80 35 22 36
REMARK SMILES IDX 23 37 24 38 74 39 25 40 79 41 73 42 75 43 26 44 78 45 72 46
REMARK SMILES IDX 71 47 27 49 59 50 39 51 58 52 40 53 43 54 57 55 76 56 41 57
REMARK SMILES IDX 42 58 56 60 77 61 44 62 28 63 29 64 37 65 30 66 36 67 38 68
REMARK SMILES IDX 35 69 31 70 32 71 33 72 34 73 60 74 61 75 69 76 62 77 68 78
REMARK SMILES IDX 70 79 67 80 63 81 64 82 65 83 66 84 45 85 46 86 54 87 47 88
REMARK SMILES IDX 53 89 55 90 52 91 48 92 49 93 50 94 51 95
REMARK H PARENT 11 6 3 17 83 18 16 29 75 48 43 59
REMARK Flexibility Score: inf
ROOT
ATOM      1  C   UNL     1       2.656   5.002   1.338  1.00  0.00     0.023 C 
ENDROOT
BRANCH   1   2
ATOM      2  C   UNL     1       2.440   3.845   0.371  1.00  0.00     0.116 C 
BRANCH   2   3
ATOM      3  N   UNL     1       1.928   4.277  -0.909  1.00  0.00    -0.354 N 
ATOM      4  C   UNL     1       2.508   4.303  -2.144  1.00  0.00     0.249 C 
ATOM      5  O   UNL     1       1.835   4.768  -3.071  1.00  0.00    -0.272 OA
ATOM      6  H   UNL     1       1.002   4.610  -0.887  1.00  0.00     0.163 HD
BRANCH   4   7
ATOM      7  C   UNL     1       3.937   3.771  -2.415  1.00  0.00     0.207 C 
ATOM      8  C   UNL     1       5.178   2.008  -1.456  1.00  0.00     0.138 C 
ATOM      9  C   UNL     1       5.692   3.295  -0.822  1.00  0.00     0.037 C 
ATOM     10  O   UNL     1       4.052   2.359  -2.278  1.00  0.00    -0.363 OA
ATOM     11  C   UNL     1       5.057   4.415  -1.621  1.00  0.00     0.045 C 
BRANCH   8  12
ATOM     12  C   UNL     1       4.743   0.894  -0.468  1.00  0.00     0.149 C 
BRANCH  12  13
ATOM     13  N   UNL     1       3.290   0.806  -0.409  1.00  0.00    -0.335 N 
ATOM     14  O   UNL     1       1.245   0.035  -0.564  1.00  0.00    -0.248 OA
ATOM     15  C   UNL     1       2.427  -0.234  -0.370  1.00  0.00     0.321 C 
ATOM     16  N   UNL     1       2.952  -1.456  -0.134  1.00  0.00    -0.276 N 
ATOM     17  H   UNL     1       2.845   1.684  -0.396  1.00  0.00     0.165 HD
ATOM     18  H   UNL     1       3.868  -1.506   0.223  1.00  0.00     0.175 HD
BRANCH  16  19
ATOM     19  C   UNL     1       2.275  -2.645  -0.365  1.00  0.00     0.230 A 
ATOM     20  N   UNL     1       2.860  -3.743   0.141  1.00  0.00    -0.221 NA
ATOM     21  N   UNL     1       1.156  -2.663  -1.101  1.00  0.00    -0.221 NA
ATOM     22  C   UNL     1       2.213  -4.908  -0.065  1.00  0.00     0.117 A 
ATOM     23  C   UNL     1       0.555  -3.848  -1.289  1.00  0.00     0.117 A 
ATOM     24  C   UNL     1       1.044  -5.022  -0.780  1.00  0.00     0.040 A 
ENDBRANCH  16  19
ENDBRANCH  12  13
ENDBRANCH   8  12
ENDBRANCH   4   7
ENDBRANCH   2   3
ENDBRANCH   1   2
BRANCH   1  25
ATOM     25  C   UNL     1       1.411   5.402   2.126  1.00  0.00     0.023 C 
BRANCH  25  26
ATOM     26  C   UNL     1       0.769   4.288   2.951  1.00  0.00     0.116 C 
BRANCH  26  27
ATOM     27  N   UNL     1       1.690   3.623   3.862  1.00  0.00    -0.352 N 
ATOM     28  C   UNL     1       1.431   3.125   5.123  1.00  0.00     0.251 C 
ATOM     29  H   UNL     1       2.613   3.515   3.538  1.00  0.00     0.163 HD
ATOM     30  O   UNL     1       2.332   2.659   5.801  1.00  0.00    -0.269 OA
BRANCH  28  31
ATOM     31  C   UNL     1       0.052   3.221   5.648  1.00  0.00     0.039 A 
ATOM     32  C   UNL     1      -0.161   3.862   6.870  1.00  0.00     0.014 A 
ATOM     33  C   UNL     1      -1.027   2.763   4.888  1.00  0.00     0.014 A 
ATOM     34  C   UNL     1      -1.467   4.125   7.288  1.00  0.00     0.010 A 
ATOM     35  C   UNL     1      -2.324   3.087   5.273  1.00  0.00     0.010 A 
ATOM     36  C   UNL     1      -2.556   3.783   6.470  1.00  0.00    -0.014 A 
BRANCH  36  37
ATOM     37  C   UNL     1      -3.946   4.160   6.838  1.00  0.00     0.031 A 
ATOM     38  C   UNL     1      -4.967   3.092   7.111  1.00  0.00     0.074 A 
ATOM     39  C   UNL     1      -4.304   5.460   6.849  1.00  0.00     0.049 A 
ATOM     40  N   UNL     1      -6.245   3.212   7.362  1.00  0.00    -0.248 NA
ATOM     41  C   UNL     1      -4.490   1.702   7.062  1.00  0.00     0.031 C 
ATOM     42  C   UNL     1      -3.415   6.586   6.551  1.00  0.00     0.029 A 
ATOM     43  N   UNL     1      -5.513   6.056   7.109  1.00  0.00    -0.354 N 
ATOM     44  C   UNL     1      -6.729   1.914   7.486  1.00  0.00     0.074 A 
ATOM     45  C   UNL     1      -5.617   1.026   7.221  1.00  0.00     0.031 C 
ATOM     46  C   UNL     1      -4.103   7.734   6.667  1.00  0.00     0.029 A 
ATOM     47  C   UNL     1      -5.489   7.428   7.006  1.00  0.00     0.049 A 
ATOM     48  H   UNL     1      -6.322   5.549   7.348  1.00  0.00     0.167 HD
ATOM     49  C   UNL     1      -7.979   1.502   7.813  1.00  0.00     0.034 A 
ATOM     50  C   UNL     1      -6.474   8.335   7.157  1.00  0.00     0.034 A 
ATOM     51  C   UNL     1      -9.074   2.401   8.086  1.00  0.00     0.049 A 
ATOM     52  C   UNL     1      -7.858   7.854   7.511  1.00  0.00     0.074 A 
ATOM     53  C   UNL     1     -10.365   2.095   8.481  1.00  0.00     0.029 A 
ATOM     54  N   UNL     1      -9.009   3.786   7.985  1.00  0.00    -0.354 N 
ATOM     55  N   UNL     1      -8.288   6.625   7.678  1.00  0.00    -0.248 NA
ATOM     56  C   UNL     1      -8.886   8.884   7.709  1.00  0.00     0.031 C 
ATOM     57  C   UNL     1     -11.094   3.287   8.562  1.00  0.00     0.029 A 
ATOM     58  C   UNL     1     -10.242   4.345   8.286  1.00  0.00     0.049 A 
ATOM     59  H   UNL     1      -8.204   4.296   7.737  1.00  0.00     0.167 HD
ATOM     60  C   UNL     1      -9.630   6.737   8.030  1.00  0.00     0.074 A 
ATOM     61  C   UNL     1      -9.933   8.154   8.063  1.00  0.00     0.031 C 
ATOM     62  C   UNL     1     -10.530   5.760   8.305  1.00  0.00     0.034 A 
BRANCH  49  63
ATOM     63  C   UNL     1      -8.223   0.013   7.867  1.00  0.00     0.023 A 
ATOM     64  C   UNL     1      -7.550  -0.811   8.787  1.00  0.00     0.031 A 
ATOM     65  C   UNL     1      -9.109  -0.599   6.963  1.00  0.00     0.131 A 
ATOM     66  C   UNL     1      -7.709  -2.203   8.730  1.00  0.00     0.055 A 
ATOM     67  C   UNL     1      -9.326  -1.979   6.965  1.00  0.00     0.041 A 
ATOM     68  F   UNL     1      -9.766   0.132   6.048  1.00  0.00    -0.206 F 
ATOM     69  C   UNL     1      -8.611  -2.791   7.841  1.00  0.00     0.022 A 
BRANCH  66  70
ATOM     70  S   UNL     1      -6.611  -3.242   9.732  1.00  0.00     0.124 S 
ATOM     71  O   UNL     1      -5.296  -2.855   9.227  1.00  0.00    -0.237 OA
ATOM     72  O   UNL     1      -6.925  -2.814  11.091  1.00  0.00    -0.237 OA
ATOM     73  O   UNL     1      -7.024  -4.603   9.396  1.00  0.00    -0.744 OA
ENDBRANCH  66  70
ENDBRANCH  49  63
BRANCH  50  74
ATOM     74  C   UNL     1      -6.199   9.789   6.974  1.00  0.00     0.023 A 
ATOM     75  C   UNL     1      -6.295  10.683   8.052  1.00  0.00     0.031 A 
ATOM     76  C   UNL     1      -5.879  10.312   5.709  1.00  0.00     0.131 A 
ATOM     77  C   UNL     1      -6.118  12.059   7.838  1.00  0.00     0.055 A 
ATOM     78  C   UNL     1      -5.657  11.676   5.510  1.00  0.00     0.041 A 
ATOM     79  F   UNL     1      -5.768   9.499   4.646  1.00  0.00    -0.206 F 
ATOM     80  C   UNL     1      -5.790  12.560   6.576  1.00  0.00     0.022 A 
BRANCH  77  81
ATOM     81  S   UNL     1      -6.402  13.197   9.222  1.00  0.00     0.124 S 
ATOM     82  O   UNL     1      -7.783  12.893   9.579  1.00  0.00    -0.237 OA
ATOM     83  O   UNL     1      -5.384  12.771  10.177  1.00  0.00    -0.237 OA
ATOM     84  O   UNL     1      -6.184  14.514   8.629  1.00  0.00    -0.744 OA
ENDBRANCH  77  81
ENDBRANCH  50  74
BRANCH  62  85
ATOM     85  C   UNL     1     -11.914   6.200   8.713  1.00  0.00     0.023 A 
ATOM     86  C   UNL     1     -12.787   6.830   7.809  1.00  0.00     0.031 A 
ATOM     87  C   UNL     1     -12.358   5.998  10.032  1.00  0.00     0.131 A 
ATOM     88  C   UNL     1     -14.040   7.284   8.250  1.00  0.00     0.055 A 
ATOM     89  C   UNL     1     -13.627   6.401  10.450  1.00  0.00     0.041 A 
ATOM     90  F   UNL     1     -11.563   5.403  10.936  1.00  0.00    -0.206 F 
ATOM     91  C   UNL     1     -14.471   7.059   9.560  1.00  0.00     0.022 A 
BRANCH  88  92
ATOM     92  S   UNL     1     -15.068   8.250   7.109  1.00  0.00     0.124 S 
ATOM     93  O   UNL     1     -14.197   9.379   6.798  1.00  0.00    -0.237 OA
ATOM     94  O   UNL     1     -15.301   7.305   6.022  1.00  0.00    -0.237 OA
ATOM     95  O   UNL     1     -16.248   8.579   7.907  1.00  0.00    -0.744 OA
ENDBRANCH  88  92
ENDBRANCH  62  85
ENDBRANCH  36  37
ENDBRANCH  28  31
ENDBRANCH  26  27
ENDBRANCH  25  26
ENDBRANCH   1  25
TORSDOF 17
