REMARK SMILES Cc1ccc(NC(=O)C[NH+]2CCC(C(=O)NCCCCNC(=O)c3ccc(-c4c5nc(c(-c6cc(S(=O)(=O)[O-])ccc6F)c6ccc([nH]6)c(-c6cc(S(=O)(=O)[O-])ccc6F)c6nc(c(-c7cc(S(=O)(=O)[O-])ccc7F)c7ccc4[nH]7)C=C6)C=C5)cc3)CC2)cc1Cl
REMARK SMILES IDX 18 1 17 2 16 3 14 4 15 5 13 7 10 8 11 9 88 10 12 12 87 13
REMARK SMILES IDX 9 14 7 15 6 16 8 18 5 19 1 20 2 21 3 22 90 23 4 24 89 25
REMARK SMILES IDX 91 26 19 27 20 28 21 29 22 30 23 32 24 33 25 34 86 35 26 36
REMARK SMILES IDX 85 37 27 38 28 39 29 40 79 41 30 42 84 43 78 44 80 45 31 46
REMARK SMILES IDX 83 47 77 48 76 49 32 51 64 52 44 53 63 54 45 55 48 56 62 57
REMARK SMILES IDX 81 58 46 59 47 60 61 62 82 63 49 64 33 65 34 66 42 67 35 68
REMARK SMILES IDX 41 69 43 70 40 71 36 72 37 73 38 74 39 75 65 76 66 77 74 78
REMARK SMILES IDX 67 79 73 80 75 81 72 82 68 83 69 84 70 85 71 86 50 87 51 88
REMARK SMILES IDX 59 89 52 90 58 91 60 92 57 93 53 94 54 95 55 96 56 97
REMARK H PARENT 16 6 10 11 6 17 21 31 80 50 48 61
REMARK Flexibility Score: inf
ROOT
ATOM      1  C   UNL     1       3.432  -3.338  -4.717  1.00  0.00     0.023 C 
ENDROOT
BRANCH   1   2
ATOM      2  C   UNL     1       2.500  -2.233  -4.237  1.00  0.00     0.116 C 
BRANCH   2   3
ATOM      3  N   UNL     1       1.614  -1.780  -5.300  1.00  0.00    -0.356 N 
ATOM      4  C   UNL     1       0.255  -1.777  -5.382  1.00  0.00     0.223 C 
ATOM      5  O   UNL     1      -0.268  -1.351  -6.414  1.00  0.00    -0.275 OA
ATOM      6  H   UNL     1       2.074  -1.414  -6.090  1.00  0.00     0.163 HD
BRANCH   4   7
ATOM      7  C   UNL     1      -0.607  -2.235  -4.218  1.00  0.00     0.089 C 
ATOM      8  N   UNL     1      -0.433  -3.320  -1.529  1.00  0.00    -0.327 N 
ATOM      9  C   UNL     1      -1.049  -4.140  -2.571  1.00  0.00     0.263 C 
ATOM     10  C   UNL     1      -0.791  -1.918  -1.707  1.00  0.00     0.263 C 
ATOM     11  H   UNL     1       0.578  -3.400  -1.637  1.00  0.00     0.348 HD
ATOM     12  C   UNL     1      -0.480  -3.738  -3.936  1.00  0.00     0.075 C 
ATOM     13  C   UNL     1      -0.356  -1.319  -3.025  1.00  0.00     0.075 C 
BRANCH   8  14
ATOM     14  C   UNL     1      -0.694  -3.818  -0.152  1.00  0.00     0.363 C 
BRANCH  14  15
ATOM     15  C   UNL     1      -2.130  -3.628   0.369  1.00  0.00     0.279 C 
ATOM     16  N   UNL     1      -2.575  -2.454   0.932  1.00  0.00    -0.321 N 
ATOM     17  H   UNL     1      -3.503  -2.476   1.259  1.00  0.00     0.170 HD
ATOM     18  O   UNL     1      -2.967  -4.529   0.223  1.00  0.00    -0.268 OA
BRANCH  16  19
ATOM     19  C   UNL     1      -1.913  -1.227   1.114  1.00  0.00     0.042 A 
ATOM     20  C   UNL     1       0.259   2.426   0.425  1.00  0.00     0.046 C 
ATOM     21  C   UNL     1      -0.515   1.200   0.822  1.00  0.00    -0.032 A 
ATOM     22  C   UNL     1      -1.876   1.114   0.492  1.00  0.00     0.007 A 
ATOM     23  C   UNL     1       0.098   0.085   1.414  1.00  0.00     0.046 A 
ATOM     24  C   UNL     1      -2.579  -0.082   0.666  1.00  0.00     0.026 A 
ATOM     25  C   UNL     1      -0.604  -1.116   1.578  1.00  0.00     0.047 A 
ATOM     26  Cl  UNL     1       1.765   0.103   1.866  1.00  0.00    -0.084 Cl
ENDBRANCH  16  19
ENDBRANCH  14  15
ENDBRANCH   8  14
ENDBRANCH   4   7
ENDBRANCH   2   3
ENDBRANCH   1   2
BRANCH   1  27
ATOM     27  C   UNL     1       4.420  -2.897  -5.794  1.00  0.00     0.023 C 
BRANCH  27  28
ATOM     28  C   UNL     1       5.304  -1.719  -5.404  1.00  0.00     0.116 C 
BRANCH  28  29
ATOM     29  N   UNL     1       6.147  -2.005  -4.251  1.00  0.00    -0.352 N 
ATOM     30  C   UNL     1       7.505  -1.816  -4.127  1.00  0.00     0.251 C 
ATOM     31  H   UNL     1       5.690  -2.380  -3.464  1.00  0.00     0.163 HD
ATOM     32  O   UNL     1       8.111  -2.242  -3.150  1.00  0.00    -0.269 OA
BRANCH  30  33
ATOM     33  C   UNL     1       8.216  -1.121  -5.218  1.00  0.00     0.039 A 
ATOM     34  C   UNL     1       9.288  -1.754  -5.849  1.00  0.00     0.014 A 
ATOM     35  C   UNL     1       7.743   0.113  -5.673  1.00  0.00     0.014 A 
ATOM     36  C   UNL     1       9.841  -1.183  -6.997  1.00  0.00     0.010 A 
ATOM     37  C   UNL     1       8.245   0.639  -6.856  1.00  0.00     0.010 A 
ATOM     38  C   UNL     1       9.294  -0.006  -7.533  1.00  0.00    -0.014 A 
BRANCH  38  39
ATOM     39  C   UNL     1       9.796   0.590  -8.798  1.00  0.00     0.031 A 
ATOM     40  C   UNL     1      10.387   1.971  -8.776  1.00  0.00     0.074 A 
ATOM     41  C   UNL     1       9.605  -0.049  -9.968  1.00  0.00     0.049 A 
ATOM     42  N   UNL     1      10.708   2.755  -9.772  1.00  0.00    -0.248 NA
ATOM     43  C   UNL     1      10.598   2.564  -7.447  1.00  0.00     0.031 C 
ATOM     44  C   UNL     1       8.996  -1.372 -10.121  1.00  0.00     0.029 A 
ATOM     45  N   UNL     1       9.872   0.344 -11.256  1.00  0.00    -0.354 N 
ATOM     46  C   UNL     1      11.123   3.949  -9.191  1.00  0.00     0.074 A 
ATOM     47  C   UNL     1      10.955   3.799  -7.761  1.00  0.00     0.031 C 
ATOM     48  C   UNL     1       8.931  -1.677 -11.427  1.00  0.00     0.029 A 
ATOM     49  C   UNL     1       9.447  -0.556 -12.206  1.00  0.00     0.049 A 
ATOM     50  H   UNL     1      10.325   1.189 -11.479  1.00  0.00     0.167 HD
ATOM     51  C   UNL     1      11.616   5.058  -9.796  1.00  0.00     0.034 A 
ATOM     52  C   UNL     1       9.443  -0.475 -13.552  1.00  0.00     0.034 A 
ATOM     53  C   UNL     1      11.796   5.173 -11.223  1.00  0.00     0.049 A 
ATOM     54  C   UNL     1       9.997   0.762 -14.210  1.00  0.00     0.074 A 
ATOM     55  C   UNL     1      12.365   6.210 -11.940  1.00  0.00     0.029 A 
ATOM     56  N   UNL     1      11.397   4.220 -12.152  1.00  0.00    -0.354 N 
ATOM     57  N   UNL     1      10.446   1.861 -13.651  1.00  0.00    -0.248 NA
ATOM     58  C   UNL     1      10.053   0.767 -15.678  1.00  0.00     0.031 C 
ATOM     59  C   UNL     1      12.251   5.914 -13.303  1.00  0.00     0.029 A 
ATOM     60  C   UNL     1      11.678   4.659 -13.436  1.00  0.00     0.049 A 
ATOM     61  H   UNL     1      10.977   3.358 -11.931  1.00  0.00     0.167 HD
ATOM     62  C   UNL     1      10.864   2.678 -14.697  1.00  0.00     0.074 A 
ATOM     63  C   UNL     1      10.613   1.944 -15.921  1.00  0.00     0.031 C 
ATOM     64  C   UNL     1      11.415   3.917 -14.648  1.00  0.00     0.034 A 
BRANCH  51  65
ATOM     65  C   UNL     1      11.955   6.234  -8.910  1.00  0.00     0.023 A 
ATOM     66  C   UNL     1      12.915   6.136  -7.886  1.00  0.00     0.031 A 
ATOM     67  C   UNL     1      11.263   7.451  -9.044  1.00  0.00     0.131 A 
ATOM     68  C   UNL     1      13.074   7.187  -6.972  1.00  0.00     0.055 A 
ATOM     69  C   UNL     1      11.498   8.530  -8.190  1.00  0.00     0.041 A 
ATOM     70  F   UNL     1      10.323   7.603  -9.990  1.00  0.00    -0.206 F 
ATOM     71  C   UNL     1      12.392   8.394  -7.131  1.00  0.00     0.022 A 
BRANCH  68  72
ATOM     72  S   UNL     1      14.039   6.879  -5.466  1.00  0.00     0.124 S 
ATOM     73  O   UNL     1      13.348   5.720  -4.905  1.00  0.00    -0.237 OA
ATOM     74  O   UNL     1      15.376   6.633  -5.994  1.00  0.00    -0.237 OA
ATOM     75  O   UNL     1      13.886   8.115  -4.702  1.00  0.00    -0.744 OA
ENDBRANCH  68  72
ENDBRANCH  51  65
BRANCH  52  76
ATOM     76  C   UNL     1       8.867  -1.585 -14.360  1.00  0.00     0.023 A 
ATOM     77  C   UNL     1       9.682  -2.410 -15.150  1.00  0.00     0.031 A 
ATOM     78  C   UNL     1       7.484  -1.841 -14.345  1.00  0.00     0.131 A 
ATOM     79  C   UNL     1       9.104  -3.437 -15.913  1.00  0.00     0.055 A 
ATOM     80  C   UNL     1       6.919  -2.888 -15.074  1.00  0.00     0.041 A 
ATOM     81  F   UNL     1       6.663  -1.086 -13.596  1.00  0.00    -0.206 F 
ATOM     82  C   UNL     1       7.730  -3.689 -15.871  1.00  0.00     0.022 A 
BRANCH  79  83
ATOM     83  S   UNL     1      10.172  -4.421 -17.000  1.00  0.00     0.124 S 
ATOM     84  O   UNL     1      10.690  -3.404 -17.908  1.00  0.00    -0.237 OA
ATOM     85  O   UNL     1      11.130  -4.986 -16.055  1.00  0.00    -0.237 OA
ATOM     86  O   UNL     1       9.253  -5.385 -17.601  1.00  0.00    -0.744 OA
ENDBRANCH  79  83
ENDBRANCH  52  76
BRANCH  64  87
ATOM     87  C   UNL     1      11.837   4.539 -15.955  1.00  0.00     0.023 A 
ATOM     88  C   UNL     1      10.900   5.004 -16.894  1.00  0.00     0.031 A 
ATOM     89  C   UNL     1      13.204   4.697 -16.244  1.00  0.00     0.131 A 
ATOM     90  C   UNL     1      11.346   5.582 -18.093  1.00  0.00     0.055 A 
ATOM     91  C   UNL     1      13.640   5.314 -17.416  1.00  0.00     0.041 A 
ATOM     92  F   UNL     1      14.138   4.268 -15.380  1.00  0.00    -0.206 F 
ATOM     93  C   UNL     1      12.709   5.756 -18.351  1.00  0.00     0.022 A 
BRANCH  90  94
ATOM     94  S   UNL     1      10.121   6.070 -19.339  1.00  0.00     0.124 S 
ATOM     95  O   UNL     1       9.506   4.790 -19.676  1.00  0.00    -0.237 OA
ATOM     96  O   UNL     1       9.279   7.007 -18.602  1.00  0.00    -0.237 OA
ATOM     97  O   UNL     1      10.930   6.668 -20.400  1.00  0.00    -0.744 OA
ENDBRANCH  90  94
ENDBRANCH  64  87
ENDBRANCH  38  39
ENDBRANCH  30  33
ENDBRANCH  28  29
ENDBRANCH  27  28
ENDBRANCH   1  27
TORSDOF 17
