REMARK SMILES O=C(COc1ccc2c(c1)O/C(=C\c1cccs1)C2=O)NCCCCNC(=O)c1ccc(-c2c3nc(c(-c4cc(S(=O)(=O)[O-])ccc4F)c4ccc([nH]4)c(-c4cc(S(=O)(=O)[O-])ccc4F)c4nc(c(-c5cc(S(=O)(=O)[O-])ccc5F)c5ccc2[nH]5)C=C4)C=C3)cc1
REMARK SMILES IDX 23 1 22 2 21 3 1 4 2 5 3 7 4 8 5 9 6 10 10 11 7 12 9 13 8 14
REMARK SMILES IDX 11 15 19 16 12 17 20 18 13 19 14 20 15 21 18 22 16 23 17 24
REMARK SMILES IDX 24 25 25 26 26 27 27 28 28 30 29 31 30 32 91 33 31 34 90 35
REMARK SMILES IDX 32 36 33 37 34 38 84 39 35 40 89 41 83 42 85 43 36 44 88 45
REMARK SMILES IDX 82 46 81 47 37 49 69 50 49 51 68 52 50 53 53 54 67 55 86 56
REMARK SMILES IDX 51 57 52 58 66 60 87 61 54 62 38 63 39 64 47 65 40 66 46 67
REMARK SMILES IDX 48 68 45 69 41 70 42 71 43 72 44 73 70 74 71 75 79 76 72 77
REMARK SMILES IDX 78 78 80 79 77 80 73 81 74 82 75 83 76 84 55 85 56 86 64 87
REMARK SMILES IDX 57 88 63 89 65 90 62 91 58 92 59 93 60 94 61 95
REMARK H PARENT 21 6 26 29 85 48 53 59
REMARK Flexibility Score: inf
ROOT
ATOM      1  C   UNL     1       2.484   0.832   3.414  1.00  0.00     0.023 C 
ENDROOT
BRANCH   1   2
ATOM      2  C   UNL     1       2.077   1.317   2.030  1.00  0.00     0.116 C 
BRANCH   2   3
ATOM      3  N   UNL     1       2.759   0.626   0.956  1.00  0.00    -0.353 N 
ATOM      4  O   UNL     1       0.969  -0.668   0.309  1.00  0.00    -0.271 OA
ATOM      5  C   UNL     1       2.100  -0.237   0.103  1.00  0.00     0.257 C 
ATOM      6  H   UNL     1       3.724   0.776   0.829  1.00  0.00     0.163 HD
BRANCH   5   7
ATOM      7  C   UNL     1       2.885  -0.584  -1.166  1.00  0.00     0.329 C 
BRANCH   7   8
ATOM      8  O   UNL     1       3.721   0.444  -1.697  1.00  0.00    -0.484 OA
BRANCH   8   9
ATOM      9  C   UNL     1       3.073   1.431  -2.397  1.00  0.00     0.123 A 
ATOM     10  C   UNL     1       2.053   2.226  -1.831  1.00  0.00     0.047 A 
ATOM     11  C   UNL     1       3.583   1.732  -3.667  1.00  0.00     0.094 A 
ATOM     12  C   UNL     1       1.538   3.335  -2.504  1.00  0.00     0.020 A 
ATOM     13  C   UNL     1       3.052   2.821  -4.329  1.00  0.00     0.142 A 
ATOM     14  C   UNL     1       2.066   3.610  -3.743  1.00  0.00     0.069 A 
ATOM     15  O   UNL     1       3.431   3.277  -5.571  1.00  0.00    -0.452 OA
ATOM     16  C   UNL     1       1.788   4.714  -4.647  1.00  0.00     0.232 C 
ATOM     17  C   UNL     1       2.697   4.442  -5.786  1.00  0.00     0.176 C 
ATOM     18  O   UNL     1       0.993   5.617  -4.497  1.00  0.00    -0.285 OA
ATOM     19  C   UNL     1       2.790   5.255  -6.845  1.00  0.00     0.070 C 
BRANCH  19  20
ATOM     20  C   UNL     1       3.633   4.943  -7.941  1.00  0.00     0.031 A 
ATOM     21  C   UNL     1       3.662   3.800  -8.722  1.00  0.00     0.020 A 
ATOM     22  S   UNL     1       4.806   6.077  -8.477  1.00  0.00    -0.144 S 
ATOM     23  C   UNL     1       4.669   3.841  -9.726  1.00  0.00     0.012 A 
ATOM     24  C   UNL     1       5.382   5.016  -9.687  1.00  0.00     0.065 A 
ENDBRANCH  19  20
ENDBRANCH   8   9
ENDBRANCH   7   8
ENDBRANCH   5   7
ENDBRANCH   2   3
ENDBRANCH   1   2
BRANCH   1  25
ATOM     25  C   UNL     1       3.967   1.005   3.743  1.00  0.00     0.023 C 
BRANCH  25  26
ATOM     26  C   UNL     1       4.503   2.431   3.640  1.00  0.00     0.116 C 
BRANCH  26  27
ATOM     27  N   UNL     1       3.882   3.341   4.589  1.00  0.00    -0.352 N 
ATOM     28  C   UNL     1       4.468   4.163   5.525  1.00  0.00     0.251 C 
ATOM     29  H   UNL     1       2.899   3.373   4.558  1.00  0.00     0.163 HD
ATOM     30  O   UNL     1       3.763   4.739   6.348  1.00  0.00    -0.269 OA
BRANCH  28  31
ATOM     31  C   UNL     1       5.941   4.324   5.563  1.00  0.00     0.039 A 
ATOM     32  C   UNL     1       6.593   4.286   6.798  1.00  0.00     0.014 A 
ATOM     33  C   UNL     1       6.681   4.507   4.391  1.00  0.00     0.014 A 
ATOM     34  C   UNL     1       7.988   4.353   6.851  1.00  0.00     0.010 A 
ATOM     35  C   UNL     1       8.074   4.493   4.439  1.00  0.00     0.010 A 
ATOM     36  C   UNL     1       8.745   4.412   5.669  1.00  0.00    -0.014 A 
BRANCH  36  37
ATOM     37  C   UNL     1      10.234   4.378   5.703  1.00  0.00     0.031 A 
ATOM     38  C   UNL     1      11.034   5.542   5.179  1.00  0.00     0.074 A 
ATOM     39  C   UNL     1      10.868   3.276   6.154  1.00  0.00     0.049 A 
ATOM     40  N   UNL     1      12.331   5.670   5.063  1.00  0.00    -0.248 NA
ATOM     41  C   UNL     1      10.271   6.703   4.698  1.00  0.00     0.031 C 
ATOM     42  C   UNL     1      10.209   2.070   6.660  1.00  0.00     0.029 A 
ATOM     43  N   UNL     1      12.207   2.985   6.258  1.00  0.00    -0.354 N 
ATOM     44  C   UNL     1      12.541   6.919   4.487  1.00  0.00     0.074 A 
ATOM     45  C   UNL     1      11.233   7.479   4.221  1.00  0.00     0.031 C 
ATOM     46  C   UNL     1      11.142   1.187   7.050  1.00  0.00     0.029 A 
ATOM     47  C   UNL     1      12.466   1.734   6.771  1.00  0.00     0.049 A 
ATOM     48  H   UNL     1      12.916   3.614   5.991  1.00  0.00     0.167 HD
ATOM     49  C   UNL     1      13.714   7.547   4.223  1.00  0.00     0.034 A 
ATOM     50  C   UNL     1      13.633   1.091   6.978  1.00  0.00     0.034 A 
ATOM     51  C   UNL     1      15.011   6.977   4.501  1.00  0.00     0.049 A 
ATOM     52  C   UNL     1      14.923   1.793   6.630  1.00  0.00     0.074 A 
ATOM     53  C   UNL     1      16.258   7.551   4.324  1.00  0.00     0.029 A 
ATOM     54  N   UNL     1      15.232   5.699   4.999  1.00  0.00    -0.354 N 
ATOM     55  N   UNL     1      15.103   2.995   6.133  1.00  0.00    -0.248 NA
ATOM     56  C   UNL     1      16.168   1.054   6.880  1.00  0.00     0.031 C 
ATOM     57  C   UNL     1      17.230   6.595   4.631  1.00  0.00     0.029 A 
ATOM     58  C   UNL     1      16.594   5.454   5.094  1.00  0.00     0.049 A 
ATOM     59  H   UNL     1      14.525   5.061   5.249  1.00  0.00     0.167 HD
ATOM     60  C   UNL     1      16.483   3.167   6.048  1.00  0.00     0.074 A 
ATOM     61  C   UNL     1      17.085   1.953   6.558  1.00  0.00     0.031 C 
ATOM     62  C   UNL     1      17.188   4.236   5.595  1.00  0.00     0.034 A 
BRANCH  49  63
ATOM     63  C   UNL     1      13.647   8.909   3.572  1.00  0.00     0.023 A 
ATOM     64  C   UNL     1      13.032  10.005   4.204  1.00  0.00     0.031 A 
ATOM     65  C   UNL     1      14.196   9.114   2.293  1.00  0.00     0.131 A 
ATOM     66  C   UNL     1      12.915  11.229   3.529  1.00  0.00     0.055 A 
ATOM     67  C   UNL     1      14.154  10.360   1.663  1.00  0.00     0.041 A 
ATOM     68  F   UNL     1      14.776   8.103   1.628  1.00  0.00    -0.206 F 
ATOM     69  C   UNL     1      13.497  11.423   2.275  1.00  0.00     0.022 A 
BRANCH  66  70
ATOM     70  S   UNL     1      11.861  12.517   4.250  1.00  0.00     0.124 S 
ATOM     71  O   UNL     1      10.578  11.825   4.350  1.00  0.00    -0.237 OA
ATOM     72  O   UNL     1      12.532  12.806   5.511  1.00  0.00    -0.237 OA
ATOM     73  O   UNL     1      11.905  13.590   3.258  1.00  0.00    -0.744 OA
ENDBRANCH  66  70
ENDBRANCH  49  63
BRANCH  50  74
ATOM     74  C   UNL     1      13.650  -0.297   7.527  1.00  0.00     0.023 A 
ATOM     75  C   UNL     1      14.267  -0.581   8.756  1.00  0.00     0.031 A 
ATOM     76  C   UNL     1      13.101  -1.372   6.805  1.00  0.00     0.131 A 
ATOM     77  C   UNL     1      14.370  -1.909   9.199  1.00  0.00     0.055 A 
ATOM     78  C   UNL     1      13.148  -2.683   7.280  1.00  0.00     0.041 A 
ATOM     79  F   UNL     1      12.500  -1.160   5.623  1.00  0.00    -0.206 F 
ATOM     80  C   UNL     1      13.800  -2.960   8.477  1.00  0.00     0.022 A 
BRANCH  77  81
ATOM     81  S   UNL     1      15.357  -2.256  10.681  1.00  0.00     0.124 S 
ATOM     82  O   UNL     1      16.656  -1.710  10.305  1.00  0.00    -0.237 OA
ATOM     83  O   UNL     1      14.626  -1.525  11.710  1.00  0.00    -0.237 OA
ATOM     84  O   UNL     1      15.300  -3.712  10.793  1.00  0.00    -0.744 OA
ENDBRANCH  77  81
ENDBRANCH  50  74
BRANCH  62  85
ATOM     85  C   UNL     1      18.695   4.158   5.683  1.00  0.00     0.023 A 
ATOM     86  C   UNL     1      19.437   3.224   4.939  1.00  0.00     0.031 A 
ATOM     87  C   UNL     1      19.398   5.030   6.534  1.00  0.00     0.131 A 
ATOM     88  C   UNL     1      20.828   3.143   5.106  1.00  0.00     0.055 A 
ATOM     89  C   UNL     1      20.788   4.992   6.642  1.00  0.00     0.041 A 
ATOM     90  F   UNL     1      18.743   5.939   7.274  1.00  0.00    -0.206 F 
ATOM     91  C   UNL     1      21.511   4.035   5.937  1.00  0.00     0.022 A 
BRANCH  88  92
ATOM     92  S   UNL     1      21.725   1.786   4.303  1.00  0.00     0.124 S 
ATOM     93  O   UNL     1      21.054   0.612   4.853  1.00  0.00    -0.237 OA
ATOM     94  O   UNL     1      21.489   2.049   2.887  1.00  0.00    -0.237 OA
ATOM     95  O   UNL     1      23.105   1.976   4.747  1.00  0.00    -0.744 OA
ENDBRANCH  88  92
ENDBRANCH  62  85
ENDBRANCH  36  37
ENDBRANCH  28  31
ENDBRANCH  26  27
ENDBRANCH  25  26
ENDBRANCH   1  25
TORSDOF 17
