REMARK SMILES CN(C(=O)N1CCC(C(=O)NCCCCNC(=O)c2ccc(-c3c4nc(c(-c5cc(S(=O)(=O)[O-])ccc5F)c5ccc([nH]5)c(-c5cc(S(=O)(=O)[O-])ccc5F)c5nc(c(-c6cc(S(=O)(=O)[O-])ccc6F)c6ccc3[nH]6)C=C5)C=C4)cc2)CC1)[C@H]1CCSC1
REMARK SMILES IDX 14 1 13 2 12 3 11 4 9 5 10 6 8 8 3 9 4 10 5 11 6 12 83 13
REMARK SMILES IDX 7 14 82 15 2 16 1 17 84 18 85 19 88 20 86 21 87 22 15 23
REMARK SMILES IDX 16 24 17 25 18 27 19 28 20 29 81 30 21 31 80 32 22 33 23 34
REMARK SMILES IDX 24 35 74 36 25 37 79 38 73 39 75 40 26 41 78 42 72 43 71 44
REMARK SMILES IDX 27 46 59 47 39 48 58 49 40 50 43 51 57 52 76 53 41 54 42 55
REMARK SMILES IDX 56 57 77 58 44 59 28 60 29 61 37 62 30 63 36 64 38 65 35 66
REMARK SMILES IDX 31 67 32 68 33 69 34 70 60 71 61 72 69 73 62 74 68 75 70 76
REMARK SMILES IDX 67 77 63 78 64 79 65 80 66 81 45 82 46 83 54 84 47 85 53 86
REMARK SMILES IDX 55 87 52 88 48 89 49 90 50 91 51 92
REMARK H PARENT 11 7 16 26 75 45 43 56
REMARK Flexibility Score: inf
ROOT
ATOM      1  C   UNL     1       5.802   4.732  -6.029  1.00  0.00     0.023 C 
ENDROOT
BRANCH   1   2
ATOM      2  C   UNL     1       4.665   3.743  -5.779  1.00  0.00     0.023 C 
BRANCH   2   3
ATOM      3  C   UNL     1       3.545   4.276  -4.893  1.00  0.00     0.116 C 
BRANCH   3   4
ATOM      4  N   UNL     1       2.774   5.314  -5.558  1.00  0.00    -0.356 N 
ATOM      5  C   UNL     1       1.472   5.340  -5.953  1.00  0.00     0.223 C 
ATOM      6  O   UNL     1       1.054   6.355  -6.515  1.00  0.00    -0.275 OA
ATOM      7  H   UNL     1       3.278   6.136  -5.754  1.00  0.00     0.163 HD
BRANCH   5   8
ATOM      8  C   UNL     1       0.533   4.170  -5.694  1.00  0.00     0.082 C 
ATOM      9  C   UNL     1       0.615   0.330  -4.095  1.00  0.00     0.320 C 
ATOM     10  O   UNL     1       1.395  -0.348  -4.765  1.00  0.00    -0.248 OA
ATOM     11  N   UNL     1       0.115   1.519  -4.602  1.00  0.00    -0.325 N 
ATOM     12  C   UNL     1       0.128   1.706  -6.050  1.00  0.00     0.122 C 
ATOM     13  C   UNL     1      -0.388   2.661  -3.842  1.00  0.00     0.122 C 
ATOM     14  C   UNL     1       0.954   2.913  -6.459  1.00  0.00     0.035 C 
ATOM     15  C   UNL     1       0.310   3.969  -4.191  1.00  0.00     0.035 C 
BRANCH   9  16
ATOM     16  N   UNL     1       0.195  -0.100  -2.844  1.00  0.00    -0.324 N 
ATOM     17  C   UNL     1      -1.104   0.246  -2.277  1.00  0.00     0.149 C 
BRANCH  16  18
ATOM     18  C   UNL     1       0.840  -1.260  -2.197  1.00  0.00     0.097 C 
ATOM     19  C   UNL     1       0.366  -2.597  -2.776  1.00  0.00     0.037 C 
ATOM     20  C   UNL     1       2.373  -1.331  -2.186  1.00  0.00     0.094 C 
ATOM     21  C   UNL     1       1.064  -3.679  -1.971  1.00  0.00     0.072 C 
ATOM     22  S   UNL     1       2.733  -3.044  -1.652  1.00  0.00    -0.160 SA
ENDBRANCH  16  18
ENDBRANCH   9  16
ENDBRANCH   5   8
ENDBRANCH   3   4
ENDBRANCH   2   3
ENDBRANCH   1   2
BRANCH   1  23
ATOM     23  C   UNL     1       6.444   5.313  -4.774  1.00  0.00     0.116 C 
BRANCH  23  24
ATOM     24  N   UNL     1       6.946   4.294  -3.864  1.00  0.00    -0.352 N 
ATOM     25  C   UNL     1       8.145   4.256  -3.193  1.00  0.00     0.251 C 
ATOM     26  H   UNL     1       6.346   3.530  -3.708  1.00  0.00     0.163 HD
ATOM     27  O   UNL     1       8.460   3.256  -2.556  1.00  0.00    -0.269 OA
BRANCH  25  28
ATOM     28  C   UNL     1       9.063   5.410  -3.283  1.00  0.00     0.039 A 
ATOM     29  C   UNL     1      10.403   5.185  -3.607  1.00  0.00     0.014 A 
ATOM     30  C   UNL     1       8.592   6.712  -3.093  1.00  0.00     0.014 A 
ATOM     31  C   UNL     1      11.254   6.272  -3.813  1.00  0.00     0.010 A 
ATOM     32  C   UNL     1       9.422   7.794  -3.371  1.00  0.00     0.010 A 
ATOM     33  C   UNL     1      10.761   7.585  -3.739  1.00  0.00    -0.014 A 
BRANCH  33  34
ATOM     34  C   UNL     1      11.630   8.755  -4.033  1.00  0.00     0.031 A 
ATOM     35  C   UNL     1      11.931   9.754  -2.949  1.00  0.00     0.074 A 
ATOM     36  C   UNL     1      12.096   8.947  -5.283  1.00  0.00     0.049 A 
ATOM     37  N   UNL     1      12.581  10.887  -3.024  1.00  0.00    -0.248 NA
ATOM     38  C   UNL     1      11.405   9.449  -1.610  1.00  0.00     0.031 C 
ATOM     39  C   UNL     1      11.845   8.064  -6.425  1.00  0.00     0.029 A 
ATOM     40  N   UNL     1      12.870   9.951  -5.808  1.00  0.00    -0.354 N 
ATOM     41  C   UNL     1      12.542  11.431  -1.745  1.00  0.00     0.074 A 
ATOM     42  C   UNL     1      11.742  10.537  -0.934  1.00  0.00     0.031 C 
ATOM     43  C   UNL     1      12.471   8.555  -7.507  1.00  0.00     0.029 A 
ATOM     44  C   UNL     1      13.127   9.810  -7.153  1.00  0.00     0.049 A 
ATOM     45  H   UNL     1      13.211  10.704  -5.272  1.00  0.00     0.167 HD
ATOM     46  C   UNL     1      13.143  12.554  -1.281  1.00  0.00     0.034 A 
ATOM     47  C   UNL     1      13.801  10.608  -8.005  1.00  0.00     0.034 A 
ATOM     48  C   UNL     1      13.941  13.434  -2.099  1.00  0.00     0.049 A 
ATOM     49  C   UNL     1      14.424  11.876  -7.473  1.00  0.00     0.074 A 
ATOM     50  C   UNL     1      14.606  14.590  -1.730  1.00  0.00     0.029 A 
ATOM     51  N   UNL     1      14.184  13.254  -3.455  1.00  0.00    -0.354 N 
ATOM     52  N   UNL     1      14.401  12.360  -6.252  1.00  0.00    -0.248 NA
ATOM     53  C   UNL     1      15.175  12.698  -8.431  1.00  0.00     0.031 C 
ATOM     54  C   UNL     1      15.205  15.137  -2.870  1.00  0.00     0.029 A 
ATOM     55  C   UNL     1      14.974  14.285  -3.938  1.00  0.00     0.049 A 
ATOM     56  H   UNL     1      13.845  12.503  -3.994  1.00  0.00     0.167 HD
ATOM     57  C   UNL     1      15.167  13.523  -6.292  1.00  0.00     0.074 A 
ATOM     58  C   UNL     1      15.649  13.657  -7.650  1.00  0.00     0.031 C 
ATOM     59  C   UNL     1      15.449  14.401  -5.296  1.00  0.00     0.034 A 
BRANCH  46  60
ATOM     60  C   UNL     1      12.945  12.891   0.177  1.00  0.00     0.023 A 
ATOM     61  C   UNL     1      13.420  12.044   1.194  1.00  0.00     0.031 A 
ATOM     62  C   UNL     1      12.257  14.055   0.559  1.00  0.00     0.131 A 
ATOM     63  C   UNL     1      13.137  12.333   2.537  1.00  0.00     0.055 A 
ATOM     64  C   UNL     1      12.050  14.380   1.902  1.00  0.00     0.041 A 
ATOM     65  F   UNL     1      11.761  14.892  -0.366  1.00  0.00    -0.206 F 
ATOM     66  C   UNL     1      12.478  13.509   2.900  1.00  0.00     0.022 A 
BRANCH  63  67
ATOM     67  S   UNL     1      13.524  11.081   3.791  1.00  0.00     0.124 S 
ATOM     68  O   UNL     1      12.699   9.959   3.350  1.00  0.00    -0.237 OA
ATOM     69  O   UNL     1      14.965  10.914   3.637  1.00  0.00    -0.237 OA
ATOM     70  O   UNL     1      13.099  11.706   5.041  1.00  0.00    -0.744 OA
ENDBRANCH  63  67
ENDBRANCH  46  60
BRANCH  47  71
ATOM     71  C   UNL     1      13.920  10.257  -9.450  1.00  0.00     0.023 A 
ATOM     72  C   UNL     1      15.175  10.023 -10.035  1.00  0.00     0.031 A 
ATOM     73  C   UNL     1      12.790  10.226 -10.286  1.00  0.00     0.131 A 
ATOM     74  C   UNL     1      15.278   9.835 -11.422  1.00  0.00     0.055 A 
ATOM     75  C   UNL     1      12.891   9.976 -11.656  1.00  0.00     0.041 A 
ATOM     76  F   UNL     1      11.564  10.439  -9.781  1.00  0.00    -0.206 F 
ATOM     77  C   UNL     1      14.144   9.798 -12.235  1.00  0.00     0.022 A 
BRANCH  74  78
ATOM     78  S   UNL     1      16.932   9.764 -12.166  1.00  0.00     0.124 S 
ATOM     79  O   UNL     1      17.523  11.011 -11.694  1.00  0.00    -0.237 OA
ATOM     80  O   UNL     1      17.470   8.538 -11.586  1.00  0.00    -0.237 OA
ATOM     81  O   UNL     1      16.657   9.706 -13.600  1.00  0.00    -0.744 OA
ENDBRANCH  74  78
ENDBRANCH  47  71
BRANCH  59  82
ATOM     82  C   UNL     1      16.370  15.547  -5.635  1.00  0.00     0.023 A 
ATOM     83  C   UNL     1      15.989  16.568  -6.521  1.00  0.00     0.031 A 
ATOM     84  C   UNL     1      17.657  15.606  -5.070  1.00  0.00     0.131 A 
ATOM     85  C   UNL     1      16.905  17.575  -6.862  1.00  0.00     0.055 A 
ATOM     86  C   UNL     1      18.543  16.642  -5.367  1.00  0.00     0.041 A 
ATOM     87  F   UNL     1      18.073  14.656  -4.217  1.00  0.00    -0.206 F 
ATOM     88  C   UNL     1      18.173  17.627  -6.279  1.00  0.00     0.022 A 
BRANCH  85  89
ATOM     89  S   UNL     1      16.447  18.769  -8.148  1.00  0.00     0.124 S 
ATOM     90  O   UNL     1      16.191  17.901  -9.293  1.00  0.00    -0.237 OA
ATOM     91  O   UNL     1      15.277  19.420  -7.568  1.00  0.00    -0.237 OA
ATOM     92  O   UNL     1      17.632  19.618  -8.266  1.00  0.00    -0.744 OA
ENDBRANCH  85  89
ENDBRANCH  59  82
ENDBRANCH  33  34
ENDBRANCH  25  28
ENDBRANCH  23  24
ENDBRANCH   1  23
TORSDOF 16
