REMARK SMILES C[C@@H]1CC[C@@]1(SC1CCCCC1)C(=O)NCCCCNC(=O)c1ccc(-c2c3nc(c(-c4cc(S(=O)(=O)[O-])ccc4F)c4ccc([nH]4)c(-c4cc(S(=O)(=O)[O-])ccc4F)c4nc(c(-c5cc(S(=O)(=O)[O-])ccc5F)c5ccc2[nH]5)C=C4)C=C3)cc1
REMARK SMILES IDX 18 1 17 2 16 3 15 4 13 5 14 6 5 8 1 9 2 10 3 11 4 12 6 13
REMARK SMILES IDX 7 14 8 15 12 16 9 17 11 18 10 19 19 20 20 21 21 22 22 24
REMARK SMILES IDX 23 25 24 26 85 27 25 28 84 29 26 30 27 31 28 32 78 33 29 34
REMARK SMILES IDX 83 35 77 36 79 37 30 38 82 39 76 40 75 41 31 43 63 44 43 45
REMARK SMILES IDX 62 46 44 47 47 48 61 49 80 50 45 51 46 52 60 54 81 55 48 56
REMARK SMILES IDX 32 57 33 58 41 59 34 60 40 61 42 62 39 63 35 64 36 65 37 66
REMARK SMILES IDX 38 67 64 68 65 69 73 70 66 71 72 72 74 73 71 74 67 75 68 76
REMARK SMILES IDX 69 77 70 78 49 79 50 80 58 81 51 82 57 83 59 84 56 85 52 86
REMARK SMILES IDX 53 87 54 88 55 89
REMARK H PARENT 15 7 20 23 79 42 47 53
REMARK Flexibility Score: inf
ROOT
ATOM      1  C   UNL     1       0.663   2.153  -4.924  1.00  0.00     0.023 C 
ENDROOT
BRANCH   1   2
ATOM      2  C   UNL     1       1.157   1.190  -3.842  1.00  0.00     0.023 C 
BRANCH   2   3
ATOM      3  C   UNL     1       1.637   1.889  -2.577  1.00  0.00     0.116 C 
BRANCH   3   4
ATOM      4  N   UNL     1       0.529   2.473  -1.853  1.00  0.00    -0.355 N 
ATOM      5  C   UNL     1       0.033   2.198  -0.599  1.00  0.00     0.236 C 
ATOM      6  O   UNL     1      -0.870   2.958  -0.218  1.00  0.00    -0.273 OA
ATOM      7  H   UNL     1       0.052   3.185  -2.336  1.00  0.00     0.163 HD
BRANCH   5   8
ATOM      8  C   UNL     1       0.560   0.985   0.263  1.00  0.00     0.097 C 
ATOM      9  C   UNL     1      -1.407   0.140   2.014  1.00  0.00     0.009 C 
ATOM     10  C   UNL     1      -0.673   0.043   0.689  1.00  0.00     0.012 C 
ATOM     11  C   UNL     1       0.252  -1.176   0.539  1.00  0.00     0.007 C 
ATOM     12  C   UNL     1       1.159  -0.320  -0.350  1.00  0.00     0.028 C 
BRANCH   8  13
ATOM     13  S   UNL     1       1.475   1.548   1.803  1.00  0.00    -0.141 SA
BRANCH  13  14
ATOM     14  C   UNL     1       2.972   2.442   1.243  1.00  0.00     0.047 C 
ATOM     15  C   UNL     1       4.021   1.512   0.628  1.00  0.00     0.014 C 
ATOM     16  C   UNL     1       2.741   3.716   0.425  1.00  0.00     0.014 C 
ATOM     17  C   UNL     1       5.313   2.260   0.303  1.00  0.00     0.001 C 
ATOM     18  C   UNL     1       4.047   4.414   0.034  1.00  0.00     0.001 C 
ATOM     19  C   UNL     1       5.040   3.450  -0.609  1.00  0.00     0.000 C 
ENDBRANCH  13  14
ENDBRANCH   8  13
ENDBRANCH   5   8
ENDBRANCH   3   4
ENDBRANCH   2   3
ENDBRANCH   1   2
BRANCH   1  20
ATOM     20  C   UNL     1       1.688   3.190  -5.375  1.00  0.00     0.116 C 
BRANCH  20  21
ATOM     21  N   UNL     1       2.906   2.584  -5.885  1.00  0.00    -0.352 N 
ATOM     22  C   UNL     1       3.630   2.926  -7.000  1.00  0.00     0.251 C 
ATOM     23  H   UNL     1       3.259   1.828  -5.363  1.00  0.00     0.163 HD
ATOM     24  O   UNL     1       4.536   2.191  -7.385  1.00  0.00    -0.269 OA
BRANCH  22  25
ATOM     25  C   UNL     1       3.294   4.160  -7.742  1.00  0.00     0.039 A 
ATOM     26  C   UNL     1       3.240   4.116  -9.136  1.00  0.00     0.014 A 
ATOM     27  C   UNL     1       3.033   5.356  -7.065  1.00  0.00     0.014 A 
ATOM     28  C   UNL     1       2.889   5.263  -9.849  1.00  0.00     0.010 A 
ATOM     29  C   UNL     1       2.602   6.474  -7.773  1.00  0.00     0.010 A 
ATOM     30  C   UNL     1       2.546   6.447  -9.175  1.00  0.00    -0.014 A 
BRANCH  30  31
ATOM     31  C   UNL     1       2.171   7.673  -9.930  1.00  0.00     0.031 A 
ATOM     32  C   UNL     1       3.031   8.908  -9.828  1.00  0.00     0.074 A 
ATOM     33  C   UNL     1       1.052   7.682 -10.681  1.00  0.00     0.049 A 
ATOM     34  N   UNL     1       2.869  10.076 -10.394  1.00  0.00    -0.248 NA
ATOM     35  C   UNL     1       4.213   8.830  -8.953  1.00  0.00     0.031 C 
ATOM     36  C   UNL     1       0.117   6.561 -10.820  1.00  0.00     0.029 A 
ATOM     37  N   UNL     1       0.506   8.663 -11.471  1.00  0.00    -0.354 N 
ATOM     38  C   UNL     1       3.912  10.873  -9.932  1.00  0.00     0.074 A 
ATOM     39  C   UNL     1       4.670  10.073  -8.996  1.00  0.00     0.031 C 
ATOM     40  C   UNL     1      -0.864   6.908 -11.669  1.00  0.00     0.029 A 
ATOM     41  C   UNL     1      -0.660   8.287 -12.101  1.00  0.00     0.049 A 
ATOM     42  H   UNL     1       0.911   9.554 -11.578  1.00  0.00     0.167 HD
ATOM     43  C   UNL     1       4.220  12.148 -10.272  1.00  0.00     0.034 A 
ATOM     44  C   UNL     1      -1.473   8.978 -12.926  1.00  0.00     0.034 A 
ATOM     45  C   UNL     1       3.472  12.922 -11.231  1.00  0.00     0.049 A 
ATOM     46  C   UNL     1      -1.096  10.395 -13.292  1.00  0.00     0.074 A 
ATOM     47  C   UNL     1       3.739  14.196 -11.702  1.00  0.00     0.029 A 
ATOM     48  N   UNL     1       2.308  12.503 -11.862  1.00  0.00    -0.354 N 
ATOM     49  N   UNL     1      -0.060  11.104 -12.902  1.00  0.00    -0.248 NA
ATOM     50  C   UNL     1      -1.983  11.094 -14.229  1.00  0.00     0.031 C 
ATOM     51  C   UNL     1       2.697  14.577 -12.553  1.00  0.00     0.029 A 
ATOM     52  C   UNL     1       1.831  13.505 -12.692  1.00  0.00     0.049 A 
ATOM     53  H   UNL     1       1.885  11.623 -11.738  1.00  0.00     0.167 HD
ATOM     54  C   UNL     1      -0.150  12.313 -13.590  1.00  0.00     0.074 A 
ATOM     55  C   UNL     1      -1.323  12.223 -14.432  1.00  0.00     0.031 C 
ATOM     56  C   UNL     1       0.663  13.399 -13.534  1.00  0.00     0.034 A 
BRANCH  43  57
ATOM     57  C   UNL     1       5.396  12.801  -9.587  1.00  0.00     0.023 A 
ATOM     58  C   UNL     1       6.713  12.341  -9.760  1.00  0.00     0.031 A 
ATOM     59  C   UNL     1       5.194  13.924  -8.764  1.00  0.00     0.131 A 
ATOM     60  C   UNL     1       7.770  12.972  -9.085  1.00  0.00     0.055 A 
ATOM     61  C   UNL     1       6.257  14.593  -8.155  1.00  0.00     0.041 A 
ATOM     62  F   UNL     1       3.957  14.393  -8.540  1.00  0.00    -0.206 F 
ATOM     63  C   UNL     1       7.554  14.113  -8.307  1.00  0.00     0.022 A 
BRANCH  60  64
ATOM     64  S   UNL     1       9.419  12.220  -9.149  1.00  0.00     0.124 S 
ATOM     65  O   UNL     1       9.171  10.914  -8.543  1.00  0.00    -0.237 OA
ATOM     66  O   UNL     1       9.709  12.215 -10.578  1.00  0.00    -0.237 OA
ATOM     67  O   UNL     1      10.241  13.125  -8.349  1.00  0.00    -0.744 OA
ENDBRANCH  60  64
ENDBRANCH  43  57
BRANCH  44  68
ATOM     68  C   UNL     1      -2.728   8.369 -13.463  1.00  0.00     0.023 A 
ATOM     69  C   UNL     1      -2.937   8.239 -14.846  1.00  0.00     0.031 A 
ATOM     70  C   UNL     1      -3.781   8.005 -12.606  1.00  0.00     0.131 A 
ATOM     71  C   UNL     1      -4.194   7.847 -15.333  1.00  0.00     0.055 A 
ATOM     72  C   UNL     1      -5.005   7.541 -13.093  1.00  0.00     0.041 A 
ATOM     73  F   UNL     1      -3.640   8.103 -11.274  1.00  0.00    -0.206 F 
ATOM     74  C   UNL     1      -5.226   7.484 -14.465  1.00  0.00     0.022 A 
BRANCH  71  75
ATOM     75  S   UNL     1      -4.510   7.970 -17.116  1.00  0.00     0.124 S 
ATOM     76  O   UNL     1      -4.162   9.361 -17.382  1.00  0.00    -0.237 OA
ATOM     77  O   UNL     1      -3.599   6.965 -17.653  1.00  0.00    -0.237 OA
ATOM     78  O   UNL     1      -5.931   7.647 -17.232  1.00  0.00    -0.744 OA
ENDBRANCH  71  75
ENDBRANCH  44  68
BRANCH  56  79
ATOM     79  C   UNL     1       0.349  14.543 -14.472  1.00  0.00     0.023 A 
ATOM     80  C   UNL     1      -0.855  15.264 -14.392  1.00  0.00     0.031 A 
ATOM     81  C   UNL     1       1.256  14.886 -15.490  1.00  0.00     0.131 A 
ATOM     82  C   UNL     1      -1.158  16.227 -15.367  1.00  0.00     0.055 A 
ATOM     83  C   UNL     1       0.985  15.903 -16.407  1.00  0.00     0.041 A 
ATOM     84  F   UNL     1       2.423  14.233 -15.617  1.00  0.00    -0.206 F 
ATOM     85  C   UNL     1      -0.238  16.564 -16.362  1.00  0.00     0.022 A 
BRANCH  82  86
ATOM     86  S   UNL     1      -2.832  16.926 -15.404  1.00  0.00     0.124 S 
ATOM     87  O   UNL     1      -3.660  15.726 -15.472  1.00  0.00    -0.237 OA
ATOM     88  O   UNL     1      -2.886  17.668 -14.149  1.00  0.00    -0.237 OA
ATOM     89  O   UNL     1      -2.832  17.749 -16.612  1.00  0.00    -0.744 OA
ENDBRANCH  82  86
ENDBRANCH  56  79
ENDBRANCH  30  31
ENDBRANCH  22  25
ENDBRANCH  20  21
ENDBRANCH   1  20
TORSDOF 16
