REMARK SMILES CC[C@@H]1CCCC[C@@]1(O)[C@H](F)C(=O)NCCCCNC(=O)c1ccc(-c2c3nc(c(-c4cc(S(=O)(=O)[O-])ccc4F)c4ccc([nH]4)c(-c4cc(S(=O)(=O)[O-])ccc4F)c4nc(c(-c5cc(S(=O)(=O)[O-])ccc5F)c5ccc2[nH]5)C=C4)C=C3)cc1
REMARK SMILES IDX 17 1 16 2 15 3 14 4 12 5 13 6 10 8 11 9 8 10 3 11 4 12 5 13
REMARK SMILES IDX 7 14 6 15 2 16 1 17 9 18 18 20 19 21 20 22 21 24 22 25 23 26
REMARK SMILES IDX 84 27 24 28 83 29 25 30 26 31 27 32 77 33 28 34 82 35 76 36
REMARK SMILES IDX 78 37 29 38 81 39 75 40 74 41 30 43 62 44 42 45 61 46 43 47
REMARK SMILES IDX 46 48 60 49 79 50 44 51 45 52 59 54 80 55 47 56 31 57 32 58
REMARK SMILES IDX 40 59 33 60 39 61 41 62 38 63 34 64 35 65 36 66 37 67 63 68
REMARK SMILES IDX 64 69 72 70 65 71 71 72 73 73 70 74 66 75 67 76 68 77 69 78
REMARK SMILES IDX 48 79 49 80 57 81 50 82 56 83 58 84 55 85 51 86 52 87 53 88
REMARK SMILES IDX 54 89
REMARK H PARENT 14 7 9 19 19 23 78 42 46 53
REMARK Flexibility Score: inf
ROOT
ATOM      1  C   UNL     1       0.747  -0.363   1.466  1.00  0.00     0.023 C 
ENDROOT
BRANCH   1   2
ATOM      2  C   UNL     1       1.141   0.401   0.208  1.00  0.00     0.023 C 
BRANCH   2   3
ATOM      3  C   UNL     1      -0.007   0.779  -0.712  1.00  0.00     0.116 C 
BRANCH   3   4
ATOM      4  N   UNL     1      -0.997   1.672  -0.132  1.00  0.00    -0.353 N 
ATOM      5  C   UNL     1      -1.637   2.704  -0.774  1.00  0.00     0.257 C 
ATOM      6  O   UNL     1      -2.659   3.177  -0.270  1.00  0.00    -0.272 OA
ATOM      7  H   UNL     1      -1.231   1.522   0.813  1.00  0.00     0.163 HD
BRANCH   5   8
ATOM      8  C   UNL     1      -1.080   3.247  -2.097  1.00  0.00     0.287 C 
ATOM      9  F   UNL     1       0.268   3.464  -1.955  1.00  0.00    -0.234 F 
BRANCH   8  10
ATOM     10  C   UNL     1      -1.351   2.352  -3.371  1.00  0.00     0.108 C 
ATOM     11  C   UNL     1      -2.546   2.879  -4.229  1.00  0.00     0.024 C 
ATOM     12  C   UNL     1      -2.182   4.231  -4.896  1.00  0.00     0.007 C 
ATOM     13  C   UNL     1      -0.890   4.152  -5.714  1.00  0.00     0.001 C 
ATOM     14  C   UNL     1      -0.073   2.285  -4.239  1.00  0.00     0.039 C 
ATOM     15  C   UNL     1       0.275   3.616  -4.894  1.00  0.00     0.003 C 
BRANCH  11  16
ATOM     16  C   UNL     1      -3.162   1.948  -5.332  1.00  0.00     0.003 C 
ATOM     17  C   UNL     1      -2.866   0.455  -5.358  1.00  0.00     0.004 C 
ENDBRANCH  11  16
BRANCH  10  18
ATOM     18  O   UNL     1      -1.653   1.009  -2.975  1.00  0.00    -0.386 OA
ATOM     19  H   UNL     1      -1.818   0.469  -3.764  1.00  0.00     0.211 HD
ENDBRANCH  10  18
ENDBRANCH   8  10
ENDBRANCH   5   8
ENDBRANCH   3   4
ENDBRANCH   2   3
ENDBRANCH   1   2
BRANCH   1  20
ATOM     20  C   UNL     1      -0.170  -1.562   1.253  1.00  0.00     0.116 C 
BRANCH  20  21
ATOM     21  N   UNL     1       0.401  -2.583   0.390  1.00  0.00    -0.352 N 
ATOM     22  C   UNL     1       0.569  -3.931   0.625  1.00  0.00     0.251 C 
ATOM     23  H   UNL     1       0.712  -2.266  -0.489  1.00  0.00     0.163 HD
ATOM     24  O   UNL     1       1.190  -4.616  -0.174  1.00  0.00    -0.269 OA
BRANCH  22  25
ATOM     25  C   UNL     1       0.026  -4.531   1.867  1.00  0.00     0.039 A 
ATOM     26  C   UNL     1       0.838  -5.389   2.611  1.00  0.00     0.014 A 
ATOM     27  C   UNL     1      -1.264  -4.229   2.308  1.00  0.00     0.014 A 
ATOM     28  C   UNL     1       0.379  -5.885   3.835  1.00  0.00     0.010 A 
ATOM     29  C   UNL     1      -1.682  -4.648   3.569  1.00  0.00     0.010 A 
ATOM     30  C   UNL     1      -0.868  -5.487   4.345  1.00  0.00    -0.014 A 
BRANCH  30  31
ATOM     31  C   UNL     1      -1.339  -5.955   5.678  1.00  0.00     0.031 A 
ATOM     32  C   UNL     1      -2.589  -6.788   5.787  1.00  0.00     0.074 A 
ATOM     33  C   UNL     1      -0.669  -5.592   6.791  1.00  0.00     0.049 A 
ATOM     34  N   UNL     1      -3.182  -7.257   6.855  1.00  0.00    -0.248 NA
ATOM     35  C   UNL     1      -3.282  -7.110   4.530  1.00  0.00     0.031 C 
ATOM     36  C   UNL     1       0.525  -4.743   6.820  1.00  0.00     0.029 A 
ATOM     37  N   UNL     1      -0.895  -5.885   8.113  1.00  0.00    -0.354 N 
ATOM     38  C   UNL     1      -4.321  -7.915   6.401  1.00  0.00     0.074 A 
ATOM     39  C   UNL     1      -4.370  -7.724   4.968  1.00  0.00     0.031 C 
ATOM     40  C   UNL     1       0.942  -4.612   8.090  1.00  0.00     0.029 A 
ATOM     41  C   UNL     1       0.025  -5.327   8.971  1.00  0.00     0.049 A 
ATOM     42  H   UNL     1      -1.646  -6.443   8.419  1.00  0.00     0.167 HD
ATOM     43  C   UNL     1      -5.228  -8.632   7.110  1.00  0.00     0.034 A 
ATOM     44  C   UNL     1       0.117  -5.379  10.316  1.00  0.00     0.034 A 
ATOM     45  C   UNL     1      -5.155  -8.826   8.538  1.00  0.00     0.049 A 
ATOM     46  C   UNL     1      -0.905  -6.184  11.082  1.00  0.00     0.074 A 
ATOM     47  C   UNL     1      -5.987  -9.580   9.348  1.00  0.00     0.029 A 
ATOM     48  N   UNL     1      -4.200  -8.258   9.373  1.00  0.00    -0.354 N 
ATOM     49  N   UNL     1      -1.942  -6.851  10.629  1.00  0.00    -0.248 NA
ATOM     50  C   UNL     1      -0.730  -6.259  12.537  1.00  0.00     0.031 C 
ATOM     51  C   UNL     1      -5.581  -9.408  10.676  1.00  0.00     0.029 A 
ATOM     52  C   UNL     1      -4.440  -8.622  10.690  1.00  0.00     0.049 A 
ATOM     53  H   UNL     1      -3.460  -7.682   9.073  1.00  0.00     0.167 HD
ATOM     54  C   UNL     1      -2.519  -7.456  11.743  1.00  0.00     0.074 A 
ATOM     55  C   UNL     1      -1.701  -7.090  12.881  1.00  0.00     0.031 C 
ATOM     56  C   UNL     1      -3.622  -8.245  11.819  1.00  0.00     0.034 A 
BRANCH  43  57
ATOM     57  C   UNL     1      -6.387  -9.237   6.352  1.00  0.00     0.023 A 
ATOM     58  C   UNL     1      -6.195 -10.200   5.346  1.00  0.00     0.031 A 
ATOM     59  C   UNL     1      -7.705  -8.832   6.629  1.00  0.00     0.131 A 
ATOM     60  C   UNL     1      -7.291 -10.672   4.606  1.00  0.00     0.055 A 
ATOM     61  C   UNL     1      -8.800  -9.369   5.947  1.00  0.00     0.041 A 
ATOM     62  F   UNL     1      -7.953  -7.899   7.561  1.00  0.00    -0.206 F 
ATOM     63  C   UNL     1      -8.595 -10.284   4.919  1.00  0.00     0.022 A 
BRANCH  60  64
ATOM     64  S   UNL     1      -6.974 -11.690   3.139  1.00  0.00     0.124 S 
ATOM     65  O   UNL     1      -6.151 -10.794   2.330  1.00  0.00    -0.237 OA
ATOM     66  O   UNL     1      -6.293 -12.851   3.701  1.00  0.00    -0.237 OA
ATOM     67  O   UNL     1      -8.310 -11.948   2.606  1.00  0.00    -0.744 OA
ENDBRANCH  60  64
ENDBRANCH  43  57
BRANCH  44  68
ATOM     68  C   UNL     1       1.204  -4.650  11.034  1.00  0.00     0.023 A 
ATOM     69  C   UNL     1       2.163  -5.339  11.794  1.00  0.00     0.031 A 
ATOM     70  C   UNL     1       1.263  -3.245  11.020  1.00  0.00     0.131 A 
ATOM     71  C   UNL     1       3.101  -4.623  12.556  1.00  0.00     0.055 A 
ATOM     72  C   UNL     1       2.237  -2.539  11.729  1.00  0.00     0.041 A 
ATOM     73  F   UNL     1       0.374  -2.534  10.308  1.00  0.00    -0.206 F 
ATOM     74  C   UNL     1       3.153  -3.228  12.517  1.00  0.00     0.022 A 
BRANCH  71  75
ATOM     75  S   UNL     1       4.187  -5.540  13.684  1.00  0.00     0.124 S 
ATOM     76  O   UNL     1       3.221  -6.245  14.518  1.00  0.00    -0.237 OA
ATOM     77  O   UNL     1       4.958  -6.363  12.758  1.00  0.00    -0.237 OA
ATOM     78  O   UNL     1       4.944  -4.487  14.357  1.00  0.00    -0.744 OA
ENDBRANCH  71  75
ENDBRANCH  44  68
BRANCH  56  79
ATOM     79  C   UNL     1      -3.968  -8.811  13.177  1.00  0.00     0.023 A 
ATOM     80  C   UNL     1      -4.327  -7.986  14.258  1.00  0.00     0.031 A 
ATOM     81  C   UNL     1      -3.903 -10.198  13.401  1.00  0.00     0.131 A 
ATOM     82  C   UNL     1      -4.528  -8.546  15.529  1.00  0.00     0.055 A 
ATOM     83  C   UNL     1      -4.179 -10.757  14.649  1.00  0.00     0.041 A 
ATOM     84  F   UNL     1      -3.564 -11.036  12.408  1.00  0.00    -0.206 F 
ATOM     85  C   UNL     1      -4.475  -9.928  15.727  1.00  0.00     0.022 A 
BRANCH  82  86
ATOM     86  S   UNL     1      -4.730  -7.433  16.947  1.00  0.00     0.124 S 
ATOM     87  O   UNL     1      -3.527  -6.612  16.861  1.00  0.00    -0.237 OA
ATOM     88  O   UNL     1      -5.986  -6.758  16.637  1.00  0.00    -0.237 OA
ATOM     89  O   UNL     1      -4.780  -8.342  18.091  1.00  0.00    -0.744 OA
ENDBRANCH  82  86
ENDBRANCH  56  79
ENDBRANCH  30  31
ENDBRANCH  22  25
ENDBRANCH  20  21
ENDBRANCH   1  20
TORSDOF 17
