REMARK SMILES CC(=O)N1CCC2(CC1)C[C@H](C(=O)NCCCCNC(=O)c1ccc(-c3c4nc(c(-c5cc(S(=O)(=O)[O-])ccc5F)c5ccc([nH]5)c(-c5cc(S(=O)(=O)[O-])ccc5F)c5nc(c(-c6cc(S(=O)(=O)[O-])ccc6F)c6ccc3[nH]6)C=C5)C=C4)cc1)[N@H+](Cc1ncc[nH]1)C2
REMARK SMILES IDX 17 1 16 2 15 3 14 4 12 5 13 6 11 8 1 9 2 10 3 11 4 12 5 13
REMARK SMILES IDX 9 14 6 15 8 16 7 17 10 18 92 19 85 20 86 22 87 23 88 24
REMARK SMILES IDX 91 25 89 26 90 27 18 29 19 30 20 31 21 33 22 34 23 35 84 36
REMARK SMILES IDX 24 37 83 38 25 39 26 40 27 41 77 42 28 43 82 44 76 45 78 46
REMARK SMILES IDX 29 47 81 48 75 49 74 50 30 52 62 53 42 54 61 55 43 56 46 57
REMARK SMILES IDX 60 58 79 59 44 60 45 61 59 63 80 64 47 65 31 66 32 67 40 68
REMARK SMILES IDX 33 69 39 70 41 71 38 72 34 73 35 74 36 75 37 76 63 77 64 78
REMARK SMILES IDX 72 79 65 80 71 81 73 82 70 83 66 84 67 85 68 86 69 87 48 88
REMARK SMILES IDX 49 89 57 90 50 91 56 92 58 93 55 94 51 95 52 96 53 97 54 98
REMARK H PARENT 14 7 85 21 91 28 19 32 78 51 46 62
REMARK Flexibility Score: inf
ROOT
ATOM      1  C   UNL     1      -1.404  -2.767   7.963  1.00  0.00     0.023 C 
ENDROOT
BRANCH   1   2
ATOM      2  C   UNL     1      -0.560  -1.967   6.965  1.00  0.00     0.023 C 
BRANCH   2   3
ATOM      3  C   UNL     1      -0.740  -0.456   7.063  1.00  0.00     0.116 C 
BRANCH   3   4
ATOM      4  N   UNL     1       0.104   0.138   8.075  1.00  0.00    -0.351 N 
ATOM      5  C   UNL     1       1.009   1.145   7.986  1.00  0.00     0.278 C 
ATOM      6  O   UNL     1       1.353   1.664   9.059  1.00  0.00    -0.268 OA
ATOM      7  H   UNL     1       0.006  -0.250   8.974  1.00  0.00     0.163 HD
BRANCH   5   8
ATOM      8  C   UNL     1       1.633   1.648   6.673  1.00  0.00     0.275 C 
ATOM      9  C   UNL     1       1.788   0.214  -0.426  1.00  0.00     0.114 C 
ATOM     10  C   UNL     1       0.778   1.169   0.150  1.00  0.00     0.219 C 
ATOM     11  O   UNL     1      -0.333   1.282  -0.369  1.00  0.00    -0.275 OA
ATOM     12  N   UNL     1       1.113   1.794   1.338  1.00  0.00    -0.343 N 
ATOM     13  C   UNL     1       0.038   2.110   2.265  1.00  0.00     0.120 C 
ATOM     14  C   UNL     1       2.461   2.081   1.821  1.00  0.00     0.120 C 
ATOM     15  C   UNL     1       0.267   1.286   3.537  1.00  0.00     0.034 C 
ATOM     16  C   UNL     1       2.732   1.397   3.160  1.00  0.00     0.034 C 
ATOM     17  C   UNL     1       1.616   1.634   4.210  1.00  0.00     0.029 C 
ATOM     18  C   UNL     1       1.871   0.751   5.458  1.00  0.00     0.088 C 
ATOM     19  C   UNL     1       1.616   3.069   4.784  1.00  0.00     0.270 C 
ATOM     20  N   UNL     1       1.172   2.947   6.162  1.00  0.00    -0.318 N 
ATOM     21  H   UNL     1       1.621   3.665   6.731  1.00  0.00     0.349 HD
BRANCH  20  22
ATOM     22  C   UNL     1      -0.077   3.558   6.598  1.00  0.00     0.339 C 
BRANCH  22  23
ATOM     23  C   UNL     1      -1.345   3.077   5.958  1.00  0.00     0.161 A 
ATOM     24  N   UNL     1      -2.052   2.012   6.282  1.00  0.00    -0.236 NA
ATOM     25  N   UNL     1      -1.974   3.761   4.942  1.00  0.00    -0.344 N 
ATOM     26  C   UNL     1      -3.114   1.969   5.416  1.00  0.00     0.131 A 
ATOM     27  C   UNL     1      -3.078   3.045   4.566  1.00  0.00     0.104 A 
ATOM     28  H   UNL     1      -1.680   4.616   4.553  1.00  0.00     0.167 HD
ENDBRANCH  22  23
ENDBRANCH  20  22
ENDBRANCH   5   8
ENDBRANCH   3   4
ENDBRANCH   2   3
ENDBRANCH   1   2
BRANCH   1  29
ATOM     29  C   UNL     1      -2.910  -2.503   7.922  1.00  0.00     0.116 C 
BRANCH  29  30
ATOM     30  N   UNL     1      -3.499  -2.637   6.597  1.00  0.00    -0.352 N 
ATOM     31  C   UNL     1      -4.768  -3.063   6.271  1.00  0.00     0.251 C 
ATOM     32  H   UNL     1      -2.918  -2.394   5.841  1.00  0.00     0.163 HD
ATOM     33  O   UNL     1      -5.102  -3.189   5.102  1.00  0.00    -0.269 OA
BRANCH  31  34
ATOM     34  C   UNL     1      -5.699  -3.409   7.366  1.00  0.00     0.039 A 
ATOM     35  C   UNL     1      -6.266  -4.685   7.392  1.00  0.00     0.014 A 
ATOM     36  C   UNL     1      -5.938  -2.503   8.402  1.00  0.00     0.014 A 
ATOM     37  C   UNL     1      -7.004  -5.085   8.508  1.00  0.00     0.010 A 
ATOM     38  C   UNL     1      -6.621  -2.925   9.539  1.00  0.00     0.010 A 
ATOM     39  C   UNL     1      -7.147  -4.225   9.609  1.00  0.00    -0.014 A 
BRANCH  39  40
ATOM     40  C   UNL     1      -7.822  -4.674  10.854  1.00  0.00     0.031 A 
ATOM     41  C   UNL     1      -9.097  -4.013  11.299  1.00  0.00     0.074 A 
ATOM     42  C   UNL     1      -7.244  -5.619  11.622  1.00  0.00     0.049 A 
ATOM     43  N   UNL     1      -9.785  -4.195  12.396  1.00  0.00    -0.248 NA
ATOM     44  C   UNL     1      -9.649  -2.987  10.403  1.00  0.00     0.031 C 
ATOM     45  C   UNL     1      -5.979  -6.294  11.323  1.00  0.00     0.029 A 
ATOM     46  N   UNL     1      -7.634  -6.165  12.819  1.00  0.00    -0.354 N 
ATOM     47  C   UNL     1     -10.846  -3.299  12.330  1.00  0.00     0.074 A 
ATOM     48  C   UNL     1     -10.670  -2.533  11.114  1.00  0.00     0.031 C 
ATOM     49  C   UNL     1      -5.706  -7.173  12.302  1.00  0.00     0.029 A 
ATOM     50  C   UNL     1      -6.753  -7.098  13.316  1.00  0.00     0.049 A 
ATOM     51  H   UNL     1      -8.467  -5.912  13.280  1.00  0.00     0.167 HD
ATOM     52  C   UNL     1     -11.883  -3.145  13.191  1.00  0.00     0.034 A 
ATOM     53  C   UNL     1      -6.780  -7.805  14.463  1.00  0.00     0.034 A 
ATOM     54  C   UNL     1     -12.048  -3.922  14.396  1.00  0.00     0.049 A 
ATOM     55  C   UNL     1      -7.941  -7.618  15.406  1.00  0.00     0.074 A 
ATOM     56  C   UNL     1     -13.081  -3.882  15.316  1.00  0.00     0.029 A 
ATOM     57  N   UNL     1     -11.150  -4.880  14.852  1.00  0.00    -0.354 N 
ATOM     58  N   UNL     1      -8.963  -6.800  15.305  1.00  0.00    -0.248 NA
ATOM     59  C   UNL     1      -7.959  -8.460  16.609  1.00  0.00     0.031 C 
ATOM     60  C   UNL     1     -12.784  -4.775  16.352  1.00  0.00     0.029 A 
ATOM     61  C   UNL     1     -11.597  -5.421  16.048  1.00  0.00     0.049 A 
ATOM     62  H   UNL     1     -10.318  -5.137  14.392  1.00  0.00     0.167 HD
ATOM     63  C   UNL     1      -9.759  -7.049  16.420  1.00  0.00     0.074 A 
ATOM     64  C   UNL     1      -9.105  -8.102  17.170  1.00  0.00     0.031 C 
ATOM     65  C   UNL     1     -10.927  -6.464  16.788  1.00  0.00     0.034 A 
BRANCH  52  66
ATOM     66  C   UNL     1     -12.900  -2.080  12.859  1.00  0.00     0.023 A 
ATOM     67  C   UNL     1     -13.682  -2.151  11.692  1.00  0.00     0.031 A 
ATOM     68  C   UNL     1     -13.062  -0.960  13.692  1.00  0.00     0.131 A 
ATOM     69  C   UNL     1     -14.523  -1.083  11.346  1.00  0.00     0.055 A 
ATOM     70  C   UNL     1     -13.965   0.061  13.385  1.00  0.00     0.041 A 
ATOM     71  F   UNL     1     -12.332  -0.827  14.810  1.00  0.00    -0.206 F 
ATOM     72  C   UNL     1     -14.689   0.011  12.197  1.00  0.00     0.022 A 
BRANCH  69  73
ATOM     73  S   UNL     1     -15.281  -1.079   9.698  1.00  0.00     0.124 S 
ATOM     74  O   UNL     1     -14.104  -1.096   8.833  1.00  0.00    -0.237 OA
ATOM     75  O   UNL     1     -16.079  -2.299   9.715  1.00  0.00    -0.237 OA
ATOM     76  O   UNL     1     -16.045   0.167   9.675  1.00  0.00    -0.744 OA
ENDBRANCH  69  73
ENDBRANCH  52  66
BRANCH  53  77
ATOM     77  C   UNL     1      -5.675  -8.747  14.795  1.00  0.00     0.023 A 
ATOM     78  C   UNL     1      -5.897 -10.131  14.856  1.00  0.00     0.031 A 
ATOM     79  C   UNL     1      -4.386  -8.271  15.095  1.00  0.00     0.131 A 
ATOM     80  C   UNL     1      -4.859 -10.990  15.251  1.00  0.00     0.055 A 
ATOM     81  C   UNL     1      -3.344  -9.133  15.443  1.00  0.00     0.041 A 
ATOM     82  F   UNL     1      -4.119  -6.956  15.042  1.00  0.00    -0.206 F 
ATOM     83  C   UNL     1      -3.582 -10.501  15.535  1.00  0.00     0.022 A 
BRANCH  80  84
ATOM     84  S   UNL     1      -5.224 -12.754  15.463  1.00  0.00     0.124 S 
ATOM     85  O   UNL     1      -6.292 -12.720  16.456  1.00  0.00    -0.237 OA
ATOM     86  O   UNL     1      -5.615 -13.146  14.113  1.00  0.00    -0.237 OA
ATOM     87  O   UNL     1      -3.956 -13.310  15.929  1.00  0.00    -0.744 OA
ENDBRANCH  80  84
ENDBRANCH  53  77
BRANCH  65  88
ATOM     88  C   UNL     1     -11.587  -6.989  18.038  1.00  0.00     0.023 A 
ATOM     89  C   UNL     1     -11.027  -6.786  19.312  1.00  0.00     0.031 A 
ATOM     90  C   UNL     1     -12.789  -7.713  17.949  1.00  0.00     0.131 A 
ATOM     91  C   UNL     1     -11.643  -7.346  20.441  1.00  0.00     0.055 A 
ATOM     92  C   UNL     1     -13.425  -8.223  19.081  1.00  0.00     0.041 A 
ATOM     93  F   UNL     1     -13.365  -7.936  16.757  1.00  0.00    -0.206 F 
ATOM     94  C   UNL     1     -12.845  -8.051  20.336  1.00  0.00     0.022 A 
BRANCH  91  95
ATOM     95  S   UNL     1     -10.808  -7.211  22.046  1.00  0.00     0.124 S 
ATOM     96  O   UNL     1      -9.535  -7.876  21.784  1.00  0.00    -0.237 OA
ATOM     97  O   UNL     1     -10.745  -5.767  22.245  1.00  0.00    -0.237 OA
ATOM     98  O   UNL     1     -11.702  -7.922  22.959  1.00  0.00    -0.744 OA
ENDBRANCH  91  95
ENDBRANCH  65  88
ENDBRANCH  39  40
ENDBRANCH  31  34
ENDBRANCH  29  30
ENDBRANCH   1  29
TORSDOF 16
