REMARK SMILES N#CCCn1cc(C(=O)NCCCCNC(=O)c2ccc(-c3c4nc(c(-c5cc(S(=O)(=O)[O-])ccc5F)c5ccc([nH]5)c(-c5cc(S(=O)(=O)[O-])ccc5F)c5nc(c(-c6cc(S(=O)(=O)[O-])ccc6F)c6ccc3[nH]6)C=C5)C=C4)cc2)c(-c2cccc([N+](=O)[O-])c2)n1
REMARK SMILES IDX 12 1 11 2 10 3 8 4 9 5 7 7 5 8 6 9 91 10 81 11 4 12 3 13
REMARK SMILES IDX 2 14 1 15 82 16 83 17 90 18 84 19 86 20 85 21 87 22 88 23
REMARK SMILES IDX 89 24 13 25 14 26 15 27 16 28 17 30 18 31 19 32 80 33 20 34
REMARK SMILES IDX 79 35 21 36 22 37 23 38 73 39 24 40 78 41 72 42 74 43 25 44
REMARK SMILES IDX 77 45 71 46 70 47 26 49 58 50 38 51 57 52 39 53 42 54 56 55
REMARK SMILES IDX 75 56 40 57 41 58 55 60 76 61 43 62 27 63 28 64 36 65 29 66
REMARK SMILES IDX 35 67 37 68 34 69 30 70 31 71 32 72 33 73 59 74 60 75 68 76
REMARK SMILES IDX 61 77 67 78 69 79 66 80 62 81 63 82 64 83 65 84 44 85 45 86
REMARK SMILES IDX 53 87 46 88 52 89 54 90 51 91 47 92 48 93 49 94 50 95
REMARK H PARENT 10 6 15 29 74 48 42 59
REMARK Flexibility Score: inf
ROOT
ATOM      1  C   UNL     1       2.742   0.830   4.751  1.00  0.00     0.023 C 
ENDROOT
BRANCH   1   2
ATOM      2  C   UNL     1       1.708   1.694   4.018  1.00  0.00     0.116 C 
BRANCH   2   3
ATOM      3  N   UNL     1       1.973   3.109   4.185  1.00  0.00    -0.352 N 
ATOM      4  C   UNL     1       2.677   4.017   3.434  1.00  0.00     0.255 C 
ATOM      5  O   UNL     1       2.667   5.177   3.839  1.00  0.00    -0.269 OA
ATOM      6  H   UNL     1       1.570   3.494   4.997  1.00  0.00     0.163 HD
BRANCH   4   7
ATOM      7  C   UNL     1       3.376   3.627   2.213  1.00  0.00     0.085 A 
ATOM      8  N   UNL     1       4.157   2.494   0.496  1.00  0.00    -0.270 N 
ATOM      9  C   UNL     1       3.743   2.370   1.784  1.00  0.00     0.123 A 
ATOM     10  N   UNL     1       4.360   3.773   0.136  1.00  0.00    -0.172 NA
ATOM     11  C   UNL     1       3.902   4.486   1.184  1.00  0.00     0.105 A 
BRANCH   8  12
ATOM     12  C   UNL     1       4.405   1.420  -0.452  1.00  0.00     0.159 C 
BRANCH  12  13
ATOM     13  C   UNL     1       3.855   0.046  -0.049  1.00  0.00     0.144 C 
BRANCH  13  14
ATOM     14  C   UNL     1       2.335   0.046  -0.049  1.00  0.00     0.064 C 
ATOM     15  N   UNL     1       1.074   0.046  -0.049  1.00  0.00    -0.198 NA
ENDBRANCH  13  14
ENDBRANCH  12  13
ENDBRANCH   8  12
BRANCH  11  16
ATOM     16  C   UNL     1       4.001   5.945   1.212  1.00  0.00     0.010 A 
ATOM     17  C   UNL     1       4.710   6.558   2.260  1.00  0.00     0.011 A 
ATOM     18  C   UNL     1       3.373   6.742   0.249  1.00  0.00     0.096 A 
ATOM     19  C   UNL     1       4.741   7.945   2.394  1.00  0.00     0.008 A 
ATOM     20  C   UNL     1       3.416   8.139   0.385  1.00  0.00     0.270 A 
ATOM     21  C   UNL     1       4.085   8.742   1.462  1.00  0.00     0.085 A 
BRANCH  20  22
ATOM     22  N   UNL     1       2.754   8.994  -0.608  1.00  0.00     0.062 N 
ATOM     23  O   UNL     1       2.792  10.221  -0.429  1.00  0.00    -0.258 OA
ATOM     24  O   UNL     1       2.226   8.446  -1.585  1.00  0.00    -0.258 OA
ENDBRANCH  20  22
ENDBRANCH  11  16
ENDBRANCH   4   7
ENDBRANCH   2   3
ENDBRANCH   1   2
BRANCH   1  25
ATOM     25  C   UNL     1       2.638   0.837   6.283  1.00  0.00     0.023 C 
BRANCH  25  26
ATOM     26  C   UNL     1       1.380   0.186   6.848  1.00  0.00     0.116 C 
BRANCH  26  27
ATOM     27  N   UNL     1       1.263  -1.233   6.501  1.00  0.00    -0.352 N 
ATOM     28  C   UNL     1       0.142  -2.045   6.579  1.00  0.00     0.251 C 
ATOM     29  H   UNL     1       2.085  -1.664   6.171  1.00  0.00     0.163 HD
ATOM     30  O   UNL     1       0.258  -3.262   6.653  1.00  0.00    -0.269 OA
BRANCH  28  31
ATOM     31  C   UNL     1      -1.185  -1.407   6.554  1.00  0.00     0.039 A 
ATOM     32  C   UNL     1      -2.235  -1.803   7.388  1.00  0.00     0.014 A 
ATOM     33  C   UNL     1      -1.335  -0.336   5.684  1.00  0.00     0.014 A 
ATOM     34  C   UNL     1      -3.409  -1.046   7.399  1.00  0.00     0.010 A 
ATOM     35  C   UNL     1      -2.398   0.509   5.834  1.00  0.00     0.010 A 
ATOM     36  C   UNL     1      -3.474   0.120   6.627  1.00  0.00    -0.014 A 
BRANCH  36  37
ATOM     37  C   UNL     1      -4.626   1.016   6.639  1.00  0.00     0.031 A 
ATOM     38  C   UNL     1      -4.924   1.677   7.939  1.00  0.00     0.074 A 
ATOM     39  C   UNL     1      -5.156   1.456   5.474  1.00  0.00     0.049 A 
ATOM     40  N   UNL     1      -5.997   1.575   8.650  1.00  0.00    -0.248 NA
ATOM     41  C   UNL     1      -3.861   2.451   8.600  1.00  0.00     0.031 C 
ATOM     42  C   UNL     1      -4.725   1.129   4.107  1.00  0.00     0.029 A 
ATOM     43  N   UNL     1      -6.074   2.434   5.263  1.00  0.00    -0.354 N 
ATOM     44  C   UNL     1      -5.843   2.439   9.734  1.00  0.00     0.074 A 
ATOM     45  C   UNL     1      -4.446   2.782   9.754  1.00  0.00     0.031 C 
ATOM     46  C   UNL     1      -5.168   2.076   3.255  1.00  0.00     0.029 A 
ATOM     47  C   UNL     1      -6.054   2.970   3.977  1.00  0.00     0.049 A 
ATOM     48  H   UNL     1      -6.699   2.739   5.959  1.00  0.00     0.167 HD
ATOM     49  C   UNL     1      -6.924   2.959  10.386  1.00  0.00     0.034 A 
ATOM     50  C   UNL     1      -6.682   4.096   3.543  1.00  0.00     0.034 A 
ATOM     51  C   UNL     1      -8.136   2.291   9.962  1.00  0.00     0.049 A 
ATOM     52  C   UNL     1      -7.782   4.356   4.509  1.00  0.00     0.074 A 
ATOM     53  C   UNL     1      -8.584   0.985  10.001  1.00  0.00     0.029 A 
ATOM     54  N   UNL     1      -8.928   2.929   9.029  1.00  0.00    -0.354 N 
ATOM     55  N   UNL     1      -8.787   3.537   4.679  1.00  0.00    -0.248 NA
ATOM     56  C   UNL     1      -7.508   5.228   5.645  1.00  0.00     0.031 C 
ATOM     57  C   UNL     1      -9.231   0.790   8.746  1.00  0.00     0.029 A 
ATOM     58  C   UNL     1      -9.234   2.007   8.059  1.00  0.00     0.049 A 
ATOM     59  H   UNL     1      -9.220   3.869   9.055  1.00  0.00     0.167 HD
ATOM     60  C   UNL     1      -8.969   3.466   6.053  1.00  0.00     0.074 A 
ATOM     61  C   UNL     1      -8.232   4.613   6.587  1.00  0.00     0.031 C 
ATOM     62  C   UNL     1      -9.433   2.329   6.656  1.00  0.00     0.034 A 
BRANCH  49  63
ATOM     63  C   UNL     1      -6.991   4.272  11.143  1.00  0.00     0.023 A 
ATOM     64  C   UNL     1      -8.243   4.627  11.690  1.00  0.00     0.031 A 
ATOM     65  C   UNL     1      -6.024   5.299  11.129  1.00  0.00     0.131 A 
ATOM     66  C   UNL     1      -8.534   5.952  12.052  1.00  0.00     0.055 A 
ATOM     67  C   UNL     1      -6.296   6.604  11.559  1.00  0.00     0.041 A 
ATOM     68  F   UNL     1      -4.797   5.135  10.627  1.00  0.00    -0.206 F 
ATOM     69  C   UNL     1      -7.568   6.948  11.986  1.00  0.00     0.022 A 
BRANCH  66  70
ATOM     70  S   UNL     1     -10.257   6.381  12.416  1.00  0.00     0.124 S 
ATOM     71  O   UNL     1     -10.948   5.841  11.251  1.00  0.00    -0.237 OA
ATOM     72  O   UNL     1     -10.478   5.685  13.679  1.00  0.00    -0.237 OA
ATOM     73  O   UNL     1     -10.229   7.840  12.504  1.00  0.00    -0.744 OA
ENDBRANCH  66  70
ENDBRANCH  49  63
BRANCH  50  74
ATOM     74  C   UNL     1      -6.181   5.065   2.525  1.00  0.00     0.023 A 
ATOM     75  C   UNL     1      -7.015   5.967   1.832  1.00  0.00     0.031 A 
ATOM     76  C   UNL     1      -4.786   5.251   2.364  1.00  0.00     0.131 A 
ATOM     77  C   UNL     1      -6.451   6.981   1.016  1.00  0.00     0.055 A 
ATOM     78  C   UNL     1      -4.236   6.245   1.550  1.00  0.00     0.041 A 
ATOM     79  F   UNL     1      -3.902   4.518   3.059  1.00  0.00    -0.206 F 
ATOM     80  C   UNL     1      -5.068   7.121   0.877  1.00  0.00     0.022 A 
BRANCH  77  81
ATOM     81  S   UNL     1      -7.518   8.209   0.190  1.00  0.00     0.124 S 
ATOM     82  O   UNL     1      -8.184   7.407  -0.830  1.00  0.00    -0.237 OA
ATOM     83  O   UNL     1      -8.352   8.688   1.286  1.00  0.00    -0.237 OA
ATOM     84  O   UNL     1      -6.568   9.195  -0.328  1.00  0.00    -0.744 OA
ENDBRANCH  77  81
ENDBRANCH  50  74
BRANCH  62  85
ATOM     85  C   UNL     1      -9.986   1.212   5.790  1.00  0.00     0.023 A 
ATOM     86  C   UNL     1      -9.254   0.531   4.789  1.00  0.00     0.031 A 
ATOM     87  C   UNL     1     -11.251   0.701   6.130  1.00  0.00     0.131 A 
ATOM     88  C   UNL     1      -9.797  -0.615   4.174  1.00  0.00     0.055 A 
ATOM     89  C   UNL     1     -11.774  -0.447   5.537  1.00  0.00     0.041 A 
ATOM     90  F   UNL     1     -11.982   1.282   7.096  1.00  0.00    -0.206 F 
ATOM     91  C   UNL     1     -11.049  -1.109   4.554  1.00  0.00     0.022 A 
BRANCH  88  92
ATOM     92  S   UNL     1      -8.879  -1.491   2.865  1.00  0.00     0.124 S 
ATOM     93  O   UNL     1      -8.490  -0.424   1.951  1.00  0.00    -0.237 OA
ATOM     94  O   UNL     1      -7.794  -2.128   3.607  1.00  0.00    -0.237 OA
ATOM     95  O   UNL     1      -9.869  -2.424   2.322  1.00  0.00    -0.744 OA
ENDBRANCH  88  92
ENDBRANCH  62  85
ENDBRANCH  36  37
ENDBRANCH  28  31
ENDBRANCH  26  27
ENDBRANCH  25  26
ENDBRANCH   1  25
TORSDOF 19
