REMARK SMILES CS(=O)(=O)c1ccc(-c2cc(Cl)cc3c2O[C@H](C(F)(F)F)C(C(=O)NCCCCNC(=O)c2ccc(-c4c5nc(c(-c6cc(S(=O)(=O)[O-])ccc6F)c6ccc([nH]6)c(-c6cc(S(=O)(=O)[O-])ccc6F)c6nc(c(-c7cc(S(=O)(=O)[O-])ccc7F)c7ccc4[nH]7)C=C6)C=C5)cc2)=C3)cc1
REMARK SMILES IDX 28 1 27 2 26 3 25 4 23 5 24 6 22 8 9 9 10 10 15 11 11 12
REMARK SMILES IDX 14 13 16 14 12 15 13 16 96 17 17 18 8 19 5 20 6 21 98 22
REMARK SMILES IDX 7 23 97 24 2 25 1 26 3 27 4 28 18 29 19 30 20 31 21 32 29 33
REMARK SMILES IDX 30 34 31 35 32 37 33 38 34 39 95 40 35 41 94 42 36 43 37 44
REMARK SMILES IDX 38 45 88 46 39 47 93 48 87 49 89 50 40 51 92 52 86 53 85 54
REMARK SMILES IDX 41 56 73 57 53 58 72 59 54 60 57 61 71 62 90 63 55 64 56 65
REMARK SMILES IDX 70 67 91 68 58 69 42 70 43 71 51 72 44 73 50 74 52 75 49 76
REMARK SMILES IDX 45 77 46 78 47 79 48 80 74 81 75 82 83 83 76 84 82 85 84 86
REMARK SMILES IDX 81 87 77 88 78 89 79 90 80 91 59 92 60 93 68 94 61 95 67 96
REMARK SMILES IDX 69 97 66 98 62 99 63 100 64 101 65 102
REMARK H PARENT 25 7 30 36 89 55 57 66
REMARK Flexibility Score: inf
ROOT
ATOM      1  C   UNL     1       8.432  -2.315 -13.866  1.00  0.00     0.023 C 
ENDROOT
BRANCH   1   2
ATOM      2  C   UNL     1       8.784  -1.547 -12.585  1.00  0.00     0.023 C 
BRANCH   2   3
ATOM      3  C   UNL     1       7.677  -0.628 -12.054  1.00  0.00     0.116 C 
BRANCH   3   4
ATOM      4  N   UNL     1       6.509  -1.415 -11.720  1.00  0.00    -0.352 N 
ATOM      5  C   UNL     1       5.756  -1.380 -10.598  1.00  0.00     0.251 C 
ATOM      6  O   UNL     1       5.208  -2.408 -10.214  1.00  0.00    -0.270 OA
ATOM      7  H   UNL     1       6.223  -2.063 -12.404  1.00  0.00     0.163 HD
BRANCH   5   8
ATOM      8  C   UNL     1       5.562  -0.065  -9.913  1.00  0.00     0.067 C 
ATOM      9  C   UNL     1       3.135  -1.337  -6.906  1.00  0.00     0.026 A 
ATOM     10  C   UNL     1       2.086  -2.113  -7.460  1.00  0.00     0.033 A 
ATOM     11  C   UNL     1       3.894  -0.571  -7.801  1.00  0.00     0.135 A 
ATOM     12  C   UNL     1       1.728  -2.029  -8.804  1.00  0.00     0.042 A 
ATOM     13  C   UNL     1       3.455  -0.421  -9.139  1.00  0.00     0.019 A 
ATOM     14  O   UNL     1       5.089   0.023  -7.433  1.00  0.00    -0.475 OA
ATOM     15  Cl  UNL     1       0.458  -3.017  -9.408  1.00  0.00    -0.084 Cl
ATOM     16  C   UNL     1       2.373  -1.137  -9.641  1.00  0.00     0.032 A 
ATOM     17  C   UNL     1       4.298   0.386 -10.051  1.00  0.00     0.025 C 
ATOM     18  C   UNL     1       6.127  -0.038  -8.495  1.00  0.00     0.314 C 
BRANCH   9  19
ATOM     19  C   UNL     1       3.165  -1.274  -5.426  1.00  0.00    -0.015 A 
ATOM     20  C   UNL     1       2.022  -1.302  -2.858  1.00  0.00     0.067 A 
ATOM     21  C   UNL     1       2.567  -2.475  -3.384  1.00  0.00     0.021 A 
ATOM     22  C   UNL     1       2.175  -0.089  -3.531  1.00  0.00     0.021 A 
ATOM     23  C   UNL     1       3.148  -2.455  -4.658  1.00  0.00     0.010 A 
ATOM     24  C   UNL     1       2.766  -0.077  -4.802  1.00  0.00     0.010 A 
BRANCH  20  25
ATOM     25  S   UNL     1       0.966  -1.406  -1.429  1.00  0.00     0.175 S 
ATOM     26  C   UNL     1       1.403  -0.045  -0.389  1.00  0.00     0.163 C 
ATOM     27  O   UNL     1       1.321  -2.618  -0.711  1.00  0.00    -0.224 OA
ATOM     28  O   UNL     1      -0.389  -1.188  -1.897  1.00  0.00    -0.224 OA
ENDBRANCH  20  25
ENDBRANCH   9  19
BRANCH  18  29
ATOM     29  C   UNL     1       7.120   1.134  -8.361  1.00  0.00     0.429 C 
ATOM     30  F   UNL     1       6.635   2.143  -7.600  1.00  0.00    -0.167 F 
ATOM     31  F   UNL     1       8.284   0.727  -7.800  1.00  0.00    -0.167 F 
ATOM     32  F   UNL     1       7.447   1.681  -9.561  1.00  0.00    -0.167 F 
ENDBRANCH  18  29
ENDBRANCH   5   8
ENDBRANCH   3   4
ENDBRANCH   2   3
ENDBRANCH   1   2
BRANCH   1  33
ATOM     33  C   UNL     1       8.037  -1.437 -15.047  1.00  0.00     0.116 C 
BRANCH  33  34
ATOM     34  N   UNL     1       9.158  -0.648 -15.531  1.00  0.00    -0.352 N 
ATOM     35  C   UNL     1       9.684  -0.599 -16.801  1.00  0.00     0.251 C 
ATOM     36  H   UNL     1       9.597  -0.073 -14.863  1.00  0.00     0.163 HD
ATOM     37  O   UNL     1      10.757  -0.037 -17.000  1.00  0.00    -0.269 OA
BRANCH  35  38
ATOM     38  C   UNL     1       8.957  -1.253 -17.910  1.00  0.00     0.039 A 
ATOM     39  C   UNL     1       9.644  -2.122 -18.761  1.00  0.00     0.014 A 
ATOM     40  C   UNL     1       7.588  -1.030 -18.084  1.00  0.00     0.014 A 
ATOM     41  C   UNL     1       8.941  -2.828 -19.742  1.00  0.00     0.010 A 
ATOM     42  C   UNL     1       6.881  -1.782 -19.017  1.00  0.00     0.010 A 
ATOM     43  C   UNL     1       7.548  -2.693 -19.853  1.00  0.00    -0.014 A 
BRANCH  43  44
ATOM     44  C   UNL     1       6.755  -3.473 -20.841  1.00  0.00     0.031 A 
ATOM     45  C   UNL     1       6.004  -2.747 -21.924  1.00  0.00     0.074 A 
ATOM     46  C   UNL     1       6.639  -4.810 -20.718  1.00  0.00     0.049 A 
ATOM     47  N   UNL     1       5.109  -3.201 -22.762  1.00  0.00    -0.248 NA
ATOM     48  C   UNL     1       6.278  -1.307 -22.055  1.00  0.00     0.031 C 
ATOM     49  C   UNL     1       7.309  -5.630 -19.706  1.00  0.00     0.029 A 
ATOM     50  N   UNL     1       5.895  -5.716 -21.434  1.00  0.00    -0.354 N 
ATOM     51  C   UNL     1       4.704  -2.103 -23.514  1.00  0.00     0.074 A 
ATOM     52  C   UNL     1       5.406  -0.952 -22.987  1.00  0.00     0.031 C 
ATOM     53  C   UNL     1       6.950  -6.913 -19.869  1.00  0.00     0.029 A 
ATOM     54  C   UNL     1       5.981  -7.005 -20.958  1.00  0.00     0.049 A 
ATOM     55  H   UNL     1       5.351  -5.467 -22.216  1.00  0.00     0.167 HD
ATOM     56  C   UNL     1       3.843  -2.062 -24.561  1.00  0.00     0.034 A 
ATOM     57  C   UNL     1       5.331  -8.126 -21.335  1.00  0.00     0.034 A 
ATOM     58  C   UNL     1       3.156  -3.218 -25.081  1.00  0.00     0.049 A 
ATOM     59  C   UNL     1       4.336  -8.046 -22.469  1.00  0.00     0.074 A 
ATOM     60  C   UNL     1       2.267  -3.291 -26.140  1.00  0.00     0.029 A 
ATOM     61  N   UNL     1       3.286  -4.508 -24.584  1.00  0.00    -0.354 N 
ATOM     62  N   UNL     1       3.966  -6.999 -23.172  1.00  0.00    -0.248 NA
ATOM     63  C   UNL     1       3.675  -9.297 -22.867  1.00  0.00     0.031 C 
ATOM     64  C   UNL     1       1.821  -4.612 -26.250  1.00  0.00     0.029 A 
ATOM     65  C   UNL     1       2.486  -5.379 -25.306  1.00  0.00     0.049 A 
ATOM     66  H   UNL     1       3.862  -4.767 -23.829  1.00  0.00     0.167 HD
ATOM     67  C   UNL     1       3.067  -7.478 -24.121  1.00  0.00     0.074 A 
ATOM     68  C   UNL     1       2.953  -8.905 -23.905  1.00  0.00     0.031 C 
ATOM     69  C   UNL     1       2.400  -6.802 -25.090  1.00  0.00     0.034 A 
BRANCH  56  70
ATOM     70  C   UNL     1       3.592  -0.718 -25.198  1.00  0.00     0.023 A 
ATOM     71  C   UNL     1       4.623  -0.010 -25.841  1.00  0.00     0.031 A 
ATOM     72  C   UNL     1       2.319  -0.125 -25.146  1.00  0.00     0.131 A 
ATOM     73  C   UNL     1       4.382   1.278 -26.339  1.00  0.00     0.055 A 
ATOM     74  C   UNL     1       2.065   1.123 -25.719  1.00  0.00     0.041 A 
ATOM     75  F   UNL     1       1.300  -0.744 -24.528  1.00  0.00    -0.206 F 
ATOM     76  C   UNL     1       3.104   1.839 -26.307  1.00  0.00     0.022 A 
BRANCH  73  77
ATOM     77  S   UNL     1       5.795   2.262 -26.907  1.00  0.00     0.124 S 
ATOM     78  O   UNL     1       6.595   2.357 -25.688  1.00  0.00    -0.237 OA
ATOM     79  O   UNL     1       6.350   1.434 -27.972  1.00  0.00    -0.237 OA
ATOM     80  O   UNL     1       5.186   3.516 -27.344  1.00  0.00    -0.744 OA
ENDBRANCH  73  77
ENDBRANCH  56  70
BRANCH  57  81
ATOM     81  C   UNL     1       5.563  -9.420 -20.628  1.00  0.00     0.023 A 
ATOM     82  C   UNL     1       6.080 -10.532 -21.311  1.00  0.00     0.031 A 
ATOM     83  C   UNL     1       5.197  -9.589 -19.281  1.00  0.00     0.131 A 
ATOM     84  C   UNL     1       6.152 -11.778 -20.670  1.00  0.00     0.055 A 
ATOM     85  C   UNL     1       5.331 -10.816 -18.627  1.00  0.00     0.041 A 
ATOM     86  F   UNL     1       4.699  -8.560 -18.577  1.00  0.00    -0.206 F 
ATOM     87  C   UNL     1       5.793 -11.925 -19.329  1.00  0.00     0.022 A 
BRANCH  84  88
ATOM     88  S   UNL     1       6.602 -13.234 -21.655  1.00  0.00     0.124 S 
ATOM     89  O   UNL     1       5.619 -13.179 -22.730  1.00  0.00    -0.237 OA
ATOM     90  O   UNL     1       7.980 -12.931 -22.028  1.00  0.00    -0.237 OA
ATOM     91  O   UNL     1       6.441 -14.342 -20.716  1.00  0.00    -0.744 OA
ENDBRANCH  84  88
ENDBRANCH  57  81
BRANCH  69  92
ATOM     92  C   UNL     1       1.554  -7.610 -26.041  1.00  0.00     0.023 A 
ATOM     93  C   UNL     1       0.365  -8.239 -25.633  1.00  0.00     0.031 A 
ATOM     94  C   UNL     1       1.944  -7.736 -27.387  1.00  0.00     0.131 A 
ATOM     95  C   UNL     1      -0.372  -8.999 -26.554  1.00  0.00     0.055 A 
ATOM     96  C   UNL     1       1.179  -8.450 -28.310  1.00  0.00     0.041 A 
ATOM     97  F   UNL     1       3.071  -7.154 -27.828  1.00  0.00    -0.206 F 
ATOM     98  C   UNL     1       0.019  -9.095 -27.893  1.00  0.00     0.022 A 
BRANCH  95  99
ATOM     99  S   UNL     1      -1.824  -9.915 -25.967  1.00  0.00     0.124 S 
ATOM    100  O   UNL     1      -1.237 -10.815 -24.980  1.00  0.00    -0.237 OA
ATOM    101  O   UNL     1      -2.671  -8.851 -25.437  1.00  0.00    -0.237 OA
ATOM    102  O   UNL     1      -2.331 -10.565 -27.174  1.00  0.00    -0.744 OA
ENDBRANCH  95  99
ENDBRANCH  69  92
ENDBRANCH  43  44
ENDBRANCH  35  38
ENDBRANCH  33  34
ENDBRANCH   1  33
TORSDOF 17
