REMARK SMILES CC1=C(C)C[C@H](C(=O)NNC(=O)c2cccc(C)c2)[C@@H](C(=O)NCCCCNC(=O)c2ccc(-c3c4nc(c(-c5cc(S(=O)(=O)[O-])ccc5F)c5ccc([nH]5)c(-c5cc(S(=O)(=O)[O-])ccc5F)c5nc(c(-c6cc(S(=O)(=O)[O-])ccc6F)c6ccc3[nH]6)C=C5)C=C4)cc2)C1
REMARK SMILES IDX 25 1 24 2 23 3 21 4 22 5 20 7 1 8 2 9 3 10 94 11 4 12 5 13
REMARK SMILES IDX 6 14 7 15 8 16 9 17 10 19 11 20 12 22 13 23 14 24 19 25
REMARK SMILES IDX 15 26 17 27 16 28 18 29 26 30 27 31 28 32 29 33 30 35 31 36
REMARK SMILES IDX 32 37 93 38 33 39 92 40 34 41 35 42 36 43 86 44 37 45 91 46
REMARK SMILES IDX 85 47 87 48 38 49 90 50 84 51 83 52 39 54 71 55 51 56 70 57
REMARK SMILES IDX 52 58 55 59 69 60 88 61 53 62 54 63 68 65 89 66 56 67 40 68
REMARK SMILES IDX 41 69 49 70 42 71 48 72 50 73 47 74 43 75 44 76 45 77 46 78
REMARK SMILES IDX 72 79 73 80 81 81 74 82 80 83 82 84 79 85 75 86 76 87 77 88
REMARK SMILES IDX 78 89 57 90 58 91 66 92 59 93 65 94 67 95 64 96 60 97 61 98
REMARK SMILES IDX 62 99 63 100
REMARK H PARENT 23 6 9 18 10 21 28 34 87 53 55 64
REMARK Flexibility Score: inf
ROOT
ATOM      1  C   UNL     1       2.971  -0.307   2.757  1.00  0.00     0.023 C 
ENDROOT
BRANCH   1   2
ATOM      2  C   UNL     1       2.562  -1.730   3.160  1.00  0.00     0.116 C 
BRANCH   2   3
ATOM      3  N   UNL     1       1.466  -1.756   4.116  1.00  0.00    -0.356 N 
ATOM      4  C   UNL     1       0.136  -1.974   3.977  1.00  0.00     0.224 C 
ATOM      5  O   UNL     1      -0.538  -1.956   5.014  1.00  0.00    -0.275 OA
ATOM      6  H   UNL     1       1.745  -1.583   5.044  1.00  0.00     0.163 HD
BRANCH   4   7
ATOM      7  C   UNL     1      -0.553  -2.267   2.643  1.00  0.00     0.095 C 
ATOM      8  C   UNL     1       0.794   0.020  -0.227  1.00  0.00     0.039 C 
ATOM      9  C   UNL     1       0.430  -1.266   0.472  1.00  0.00    -0.074 C 
ATOM     10  C   UNL     1       0.900  -2.468   0.083  1.00  0.00    -0.074 C 
ATOM     11  C   UNL     1      -0.484  -1.106   1.654  1.00  0.00     0.045 C 
ATOM     12  C   UNL     1       1.853  -2.659  -1.074  1.00  0.00     0.039 C 
ATOM     13  C   UNL     1       0.545  -3.758   0.785  1.00  0.00     0.045 C 
ATOM     14  C   UNL     1      -0.215  -3.673   2.118  1.00  0.00     0.097 C 
BRANCH  14  15
ATOM     15  C   UNL     1      -1.513  -4.477   1.985  1.00  0.00     0.242 C 
ATOM     16  O   UNL     1      -2.517  -4.011   1.438  1.00  0.00    -0.273 OA
ATOM     17  N   UNL     1      -1.564  -5.764   2.461  1.00  0.00    -0.267 N 
ATOM     18  H   UNL     1      -2.422  -6.243   2.389  1.00  0.00     0.191 HD
BRANCH  17  19
ATOM     19  N   UNL     1      -0.498  -6.441   3.035  1.00  0.00    -0.263 N 
ATOM     20  C   UNL     1      -0.306  -7.808   2.993  1.00  0.00     0.269 C 
ATOM     21  H   UNL     1       0.176  -5.903   3.510  1.00  0.00     0.191 HD
ATOM     22  O   UNL     1       0.535  -8.312   3.734  1.00  0.00    -0.267 OA
BRANCH  20  23
ATOM     23  C   UNL     1      -1.129  -8.693   2.125  1.00  0.00     0.041 A 
ATOM     24  C   UNL     1      -1.396  -9.988   2.595  1.00  0.00     0.014 A 
ATOM     25  C   UNL     1      -1.596  -8.314   0.860  1.00  0.00     0.017 A 
ATOM     26  C   UNL     1      -2.148 -10.878   1.829  1.00  0.00     0.001 A 
ATOM     27  C   UNL     1      -2.376  -9.196   0.096  1.00  0.00    -0.050 A 
ATOM     28  C   UNL     1      -2.643 -10.481   0.588  1.00  0.00     0.003 A 
ATOM     29  C   UNL     1      -2.892  -8.796  -1.255  1.00  0.00     0.044 C 
ENDBRANCH  20  23
ENDBRANCH  17  19
ENDBRANCH  14  15
ENDBRANCH   4   7
ENDBRANCH   2   3
ENDBRANCH   1   2
BRANCH   1  30
ATOM     30  C   UNL     1       3.492   0.569   3.900  1.00  0.00     0.023 C 
BRANCH  30  31
ATOM     31  C   UNL     1       4.815   0.099   4.494  1.00  0.00     0.116 C 
BRANCH  31  32
ATOM     32  N   UNL     1       5.992   0.820   4.032  1.00  0.00    -0.352 N 
ATOM     33  C   UNL     1       7.323   0.611   4.364  1.00  0.00     0.251 C 
ATOM     34  H   UNL     1       5.821   1.555   3.400  1.00  0.00     0.163 HD
ATOM     35  O   UNL     1       8.187   1.407   4.026  1.00  0.00    -0.269 OA
BRANCH  33  36
ATOM     36  C   UNL     1       7.709  -0.653   5.041  1.00  0.00     0.039 A 
ATOM     37  C   UNL     1       8.730  -1.413   4.454  1.00  0.00     0.014 A 
ATOM     38  C   UNL     1       6.944  -1.188   6.073  1.00  0.00     0.014 A 
ATOM     39  C   UNL     1       8.809  -2.778   4.723  1.00  0.00     0.010 A 
ATOM     40  C   UNL     1       6.956  -2.555   6.268  1.00  0.00     0.010 A 
ATOM     41  C   UNL     1       7.836  -3.359   5.533  1.00  0.00    -0.014 A 
BRANCH  41  42
ATOM     42  C   UNL     1       7.519  -4.784   5.517  1.00  0.00     0.031 A 
ATOM     43  C   UNL     1       7.700  -5.627   6.715  1.00  0.00     0.074 A 
ATOM     44  C   UNL     1       6.893  -5.293   4.430  1.00  0.00     0.049 A 
ATOM     45  N   UNL     1       7.578  -6.911   6.715  1.00  0.00    -0.248 NA
ATOM     46  C   UNL     1       8.115  -5.097   8.011  1.00  0.00     0.031 C 
ATOM     47  C   UNL     1       6.141  -6.541   4.329  1.00  0.00     0.029 A 
ATOM     48  N   UNL     1       7.074  -4.892   3.107  1.00  0.00    -0.354 N 
ATOM     49  C   UNL     1       7.557  -7.326   8.021  1.00  0.00     0.074 A 
ATOM     50  C   UNL     1       8.047  -6.197   8.770  1.00  0.00     0.031 C 
ATOM     51  C   UNL     1       6.148  -6.949   3.051  1.00  0.00     0.029 A 
ATOM     52  C   UNL     1       7.039  -6.065   2.324  1.00  0.00     0.049 A 
ATOM     53  H   UNL     1       7.202  -3.972   2.783  1.00  0.00     0.167 HD
ATOM     54  C   UNL     1       6.987  -8.527   8.315  1.00  0.00     0.034 A 
ATOM     55  C   UNL     1       8.148  -6.457   1.627  1.00  0.00     0.034 A 
ATOM     56  C   UNL     1       6.866  -9.366   7.117  1.00  0.00     0.049 A 
ATOM     57  C   UNL     1       8.720  -7.795   2.062  1.00  0.00     0.074 A 
ATOM     58  C   UNL     1       5.829  -9.841   6.334  1.00  0.00     0.029 A 
ATOM     59  N   UNL     1       8.027  -9.661   6.419  1.00  0.00    -0.354 N 
ATOM     60  N   UNL     1       8.234  -8.533   3.024  1.00  0.00    -0.248 NA
ATOM     61  C   UNL     1       9.946  -8.362   1.499  1.00  0.00     0.031 C 
ATOM     62  C   UNL     1       6.392 -10.345   5.117  1.00  0.00     0.029 A 
ATOM     63  C   UNL     1       7.769 -10.217   5.184  1.00  0.00     0.049 A 
ATOM     64  H   UNL     1       8.933  -9.492   6.766  1.00  0.00     0.167 HD
ATOM     65  C   UNL     1       9.079  -9.584   3.267  1.00  0.00     0.074 A 
ATOM     66  C   UNL     1      10.133  -9.441   2.277  1.00  0.00     0.031 C 
ATOM     67  C   UNL     1       8.893 -10.469   4.291  1.00  0.00     0.034 A 
BRANCH  54  68
ATOM     68  C   UNL     1       6.405  -8.907   9.663  1.00  0.00     0.023 A 
ATOM     69  C   UNL     1       5.813 -10.180   9.815  1.00  0.00     0.031 A 
ATOM     70  C   UNL     1       6.266  -8.049  10.779  1.00  0.00     0.131 A 
ATOM     71  C   UNL     1       5.133 -10.540  10.998  1.00  0.00     0.055 A 
ATOM     72  C   UNL     1       5.646  -8.430  11.976  1.00  0.00     0.041 A 
ATOM     73  F   UNL     1       6.652  -6.769  10.764  1.00  0.00    -0.206 F 
ATOM     74  C   UNL     1       5.067  -9.679  12.088  1.00  0.00     0.022 A 
BRANCH  71  75
ATOM     75  S   UNL     1       4.251 -12.123  11.071  1.00  0.00     0.124 S 
ATOM     76  O   UNL     1       3.279 -11.984   9.993  1.00  0.00    -0.237 OA
ATOM     77  O   UNL     1       5.325 -13.086  10.859  1.00  0.00    -0.237 OA
ATOM     78  O   UNL     1       3.677 -12.128  12.417  1.00  0.00    -0.744 OA
ENDBRANCH  71  75
ENDBRANCH  54  68
BRANCH  55  79
ATOM     79  C   UNL     1       8.925  -5.292   1.105  1.00  0.00     0.023 A 
ATOM     80  C   UNL     1       8.212  -4.362   0.318  1.00  0.00     0.031 A 
ATOM     81  C   UNL     1      10.136  -4.875   1.672  1.00  0.00     0.131 A 
ATOM     82  C   UNL     1       8.602  -3.017   0.291  1.00  0.00     0.055 A 
ATOM     83  C   UNL     1      10.578  -3.550   1.550  1.00  0.00     0.041 A 
ATOM     84  F   UNL     1      10.844  -5.695   2.462  1.00  0.00    -0.206 F 
ATOM     85  C   UNL     1       9.786  -2.602   0.899  1.00  0.00     0.022 A 
BRANCH  82  86
ATOM     86  S   UNL     1       7.380  -1.805  -0.292  1.00  0.00     0.124 S 
ATOM     87  O   UNL     1       7.275  -2.131  -1.710  1.00  0.00    -0.237 OA
ATOM     88  O   UNL     1       6.210  -2.134   0.524  1.00  0.00    -0.237 OA
ATOM     89  O   UNL     1       7.997  -0.517   0.010  1.00  0.00    -0.744 OA
ENDBRANCH  82  86
ENDBRANCH  55  79
BRANCH  67  90
ATOM     90  C   UNL     1       9.828 -11.625   4.542  1.00  0.00     0.023 A 
ATOM     91  C   UNL     1      10.342 -12.398   3.488  1.00  0.00     0.031 A 
ATOM     92  C   UNL     1      10.185 -12.029   5.847  1.00  0.00     0.131 A 
ATOM     93  C   UNL     1      11.223 -13.463   3.742  1.00  0.00     0.055 A 
ATOM     94  C   UNL     1      10.986 -13.146   6.100  1.00  0.00     0.041 A 
ATOM     95  F   UNL     1       9.811 -11.329   6.929  1.00  0.00    -0.206 F 
ATOM     96  C   UNL     1      11.524 -13.864   5.043  1.00  0.00     0.022 A 
BRANCH  93  97
ATOM     97  S   UNL     1      12.044 -14.261   2.338  1.00  0.00     0.124 S 
ATOM     98  O   UNL     1      10.925 -14.633   1.480  1.00  0.00    -0.237 OA
ATOM     99  O   UNL     1      12.893 -13.180   1.841  1.00  0.00    -0.237 OA
ATOM    100  O   UNL     1      12.761 -15.380   2.946  1.00  0.00    -0.744 OA
ENDBRANCH  93  97
ENDBRANCH  67  90
ENDBRANCH  41  42
ENDBRANCH  33  36
ENDBRANCH  31  32
ENDBRANCH  30  31
ENDBRANCH   1  30
TORSDOF 17
