REMARK SMILES C=Cc1cc(Cl)cc2c1O[C@H](C(F)(F)F)C(C(=O)NCCCCNC(=O)c1ccc(-c3c4nc(c(-c5cc(S(=O)(=O)[O-])ccc5F)c5ccc([nH]5)c(-c5cc(S(=O)(=O)[O-])ccc5F)c5nc(c(-c6cc(S(=O)(=O)[O-])ccc6F)c6ccc3[nH]6)C=C5)C=C4)cc1)=C2
REMARK SMILES IDX 22 1 21 2 20 3 19 4 17 5 18 6 16 8 3 9 4 10 9 11 5 12 8 13
REMARK SMILES IDX 10 14 6 15 7 16 90 17 11 18 2 19 1 20 12 21 13 22 14 23
REMARK SMILES IDX 15 24 23 25 24 26 25 27 26 29 27 30 28 31 89 32 29 33 88 34
REMARK SMILES IDX 30 35 31 36 32 37 82 38 33 39 87 40 81 41 83 42 34 43 86 44
REMARK SMILES IDX 80 45 79 46 35 48 67 49 47 50 66 51 48 52 51 53 65 54 84 55
REMARK SMILES IDX 49 56 50 57 64 59 85 60 52 61 36 62 37 63 45 64 38 65 44 66
REMARK SMILES IDX 46 67 43 68 39 69 40 70 41 71 42 72 68 73 69 74 77 75 70 76
REMARK SMILES IDX 76 77 78 78 75 79 71 80 72 81 73 82 74 83 53 84 54 85 62 86
REMARK SMILES IDX 55 87 61 88 63 89 60 90 56 91 57 92 58 93 59 94
REMARK H PARENT 19 7 24 28 83 47 51 58
REMARK Flexibility Score: inf
ROOT
ATOM      1  C   UNL     1      -1.813  -7.949   4.714  1.00  0.00     0.023 C 
ENDROOT
BRANCH   1   2
ATOM      2  C   UNL     1      -1.427  -6.860   3.708  1.00  0.00     0.023 C 
BRANCH   2   3
ATOM      3  C   UNL     1      -1.981  -7.075   2.301  1.00  0.00     0.116 C 
BRANCH   3   4
ATOM      4  N   UNL     1      -3.323  -6.538   2.151  1.00  0.00    -0.352 N 
ATOM      5  C   UNL     1      -3.887  -5.416   1.646  1.00  0.00     0.251 C 
ATOM      6  O   UNL     1      -5.119  -5.364   1.719  1.00  0.00    -0.270 OA
ATOM      7  H   UNL     1      -4.001  -7.153   2.513  1.00  0.00     0.163 HD
BRANCH   5   8
ATOM      8  C   UNL     1      -3.144  -4.277   1.028  1.00  0.00     0.067 C 
ATOM      9  C   UNL     1      -1.188  -0.862  -0.487  1.00  0.00     0.018 A 
ATOM     10  C   UNL     1      -1.959   0.173  -1.032  1.00  0.00     0.032 A 
ATOM     11  C   UNL     1      -1.843  -1.981   0.055  1.00  0.00     0.135 A 
ATOM     12  C   UNL     1      -3.352   0.098  -1.005  1.00  0.00     0.042 A 
ATOM     13  C   UNL     1      -3.240  -2.050   0.090  1.00  0.00     0.019 A 
ATOM     14  O   UNL     1      -1.070  -2.971   0.605  1.00  0.00    -0.475 OA
ATOM     15  Cl  UNL     1      -4.285   1.382  -1.673  1.00  0.00    -0.084 Cl
ATOM     16  C   UNL     1      -3.996  -1.003  -0.443  1.00  0.00     0.032 A 
ATOM     17  C   UNL     1      -3.886  -3.197   0.719  1.00  0.00     0.025 C 
ATOM     18  C   UNL     1      -1.677  -4.288   0.710  1.00  0.00     0.314 C 
BRANCH   9  19
ATOM     19  C   UNL     1       0.281  -0.809  -0.536  1.00  0.00     0.004 C 
ATOM     20  C   UNL     1       1.001   0.257  -0.162  1.00  0.00     0.009 C 
ENDBRANCH   9  19
BRANCH  18  21
ATOM     21  C   UNL     1      -1.349  -5.100  -0.557  1.00  0.00     0.429 C 
ATOM     22  F   UNL     1      -0.015  -5.329  -0.640  1.00  0.00    -0.167 F 
ATOM     23  F   UNL     1      -1.951  -6.311  -0.571  1.00  0.00    -0.167 F 
ATOM     24  F   UNL     1      -1.718  -4.462  -1.692  1.00  0.00    -0.167 F 
ENDBRANCH  18  21
ENDBRANCH   5   8
ENDBRANCH   3   4
ENDBRANCH   2   3
ENDBRANCH   1   2
BRANCH   1  25
ATOM     25  C   UNL     1      -1.431  -9.374   4.320  1.00  0.00     0.116 C 
BRANCH  25  26
ATOM     26  N   UNL     1      -0.026  -9.551   3.974  1.00  0.00    -0.352 N 
ATOM     27  C   UNL     1       0.700 -10.723   3.993  1.00  0.00     0.251 C 
ATOM     28  H   UNL     1       0.459  -8.741   3.695  1.00  0.00     0.163 HD
ATOM     29  O   UNL     1       1.900 -10.720   3.744  1.00  0.00    -0.269 OA
BRANCH  27  30
ATOM     30  C   UNL     1       0.007 -11.968   4.387  1.00  0.00     0.039 A 
ATOM     31  C   UNL     1      -1.177 -12.336   3.748  1.00  0.00     0.014 A 
ATOM     32  C   UNL     1       0.475 -12.686   5.490  1.00  0.00     0.014 A 
ATOM     33  C   UNL     1      -1.993 -13.296   4.333  1.00  0.00     0.010 A 
ATOM     34  C   UNL     1      -0.311 -13.708   6.027  1.00  0.00     0.010 A 
ATOM     35  C   UNL     1      -1.583 -13.972   5.496  1.00  0.00    -0.014 A 
BRANCH  35  36
ATOM     36  C   UNL     1      -2.527 -14.910   6.158  1.00  0.00     0.031 A 
ATOM     37  C   UNL     1      -3.094 -14.597   7.518  1.00  0.00     0.074 A 
ATOM     38  C   UNL     1      -2.940 -16.005   5.491  1.00  0.00     0.049 A 
ATOM     39  N   UNL     1      -3.980 -15.264   8.213  1.00  0.00    -0.248 NA
ATOM     40  C   UNL     1      -2.607 -13.380   8.188  1.00  0.00     0.031 C 
ATOM     41  C   UNL     1      -2.465 -16.396   4.164  1.00  0.00     0.029 A 
ATOM     42  N   UNL     1      -3.868 -16.963   5.812  1.00  0.00    -0.354 N 
ATOM     43  C   UNL     1      -4.144 -14.561   9.402  1.00  0.00     0.074 A 
ATOM     44  C   UNL     1      -3.241 -13.433   9.351  1.00  0.00     0.031 C 
ATOM     45  C   UNL     1      -3.150 -17.473   3.756  1.00  0.00     0.029 A 
ATOM     46  C   UNL     1      -4.066 -17.890   4.816  1.00  0.00     0.049 A 
ATOM     47  H   UNL     1      -4.346 -16.984   6.672  1.00  0.00     0.167 HD
ATOM     48  C   UNL     1      -4.981 -14.825  10.434  1.00  0.00     0.034 A 
ATOM     49  C   UNL     1      -4.891 -18.955   4.756  1.00  0.00     0.034 A 
ATOM     50  C   UNL     1      -5.889 -15.943  10.465  1.00  0.00     0.049 A 
ATOM     51  C   UNL     1      -5.808 -19.231   5.919  1.00  0.00     0.074 A 
ATOM     52  C   UNL     1      -6.774 -16.299  11.468  1.00  0.00     0.029 A 
ATOM     53  N   UNL     1      -6.043 -16.875   9.449  1.00  0.00    -0.354 N 
ATOM     54  N   UNL     1      -5.961 -18.544   7.027  1.00  0.00    -0.248 NA
ATOM     55  C   UNL     1      -6.666 -20.420   5.828  1.00  0.00     0.031 C 
ATOM     56  C   UNL     1      -7.432 -17.466  11.077  1.00  0.00     0.029 A 
ATOM     57  C   UNL     1      -7.001 -17.809   9.805  1.00  0.00     0.049 A 
ATOM     58  H   UNL     1      -5.546 -16.872   8.599  1.00  0.00     0.167 HD
ATOM     59  C   UNL     1      -6.941 -19.209   7.758  1.00  0.00     0.074 A 
ATOM     60  C   UNL     1      -7.366 -20.335   6.952  1.00  0.00     0.031 C 
ATOM     61  C   UNL     1      -7.433 -18.918   8.988  1.00  0.00     0.034 A 
BRANCH  48  62
ATOM     62  C   UNL     1      -4.979 -13.893  11.620  1.00  0.00     0.023 A 
ATOM     63  C   UNL     1      -4.560 -14.355  12.882  1.00  0.00     0.031 A 
ATOM     64  C   UNL     1      -5.497 -12.589  11.526  1.00  0.00     0.131 A 
ATOM     65  C   UNL     1      -4.694 -13.528  14.005  1.00  0.00     0.055 A 
ATOM     66  C   UNL     1      -5.598 -11.758  12.643  1.00  0.00     0.041 A 
ATOM     67  F   UNL     1      -5.904 -12.102  10.343  1.00  0.00    -0.206 F 
ATOM     68  C   UNL     1      -5.206 -12.231  13.891  1.00  0.00     0.022 A 
BRANCH  65  69
ATOM     69  S   UNL     1      -4.261 -14.119  15.664  1.00  0.00     0.124 S 
ATOM     70  O   UNL     1      -3.216 -13.175  16.054  1.00  0.00    -0.237 OA
ATOM     71  O   UNL     1      -5.527 -13.979  16.379  1.00  0.00    -0.237 OA
ATOM     72  O   UNL     1      -3.810 -15.489  15.443  1.00  0.00    -0.744 OA
ENDBRANCH  65  69
ENDBRANCH  48  62
BRANCH  49  73
ATOM     73  C   UNL     1      -4.909 -19.786   3.517  1.00  0.00     0.023 A 
ATOM     74  C   UNL     1      -3.751 -20.458   3.083  1.00  0.00     0.031 A 
ATOM     75  C   UNL     1      -6.041 -19.815   2.687  1.00  0.00     0.131 A 
ATOM     76  C   UNL     1      -3.728 -21.059   1.818  1.00  0.00     0.055 A 
ATOM     77  C   UNL     1      -6.036 -20.479   1.459  1.00  0.00     0.041 A 
ATOM     78  F   UNL     1      -7.164 -19.177   3.053  1.00  0.00    -0.206 F 
ATOM     79  C   UNL     1      -4.868 -21.087   1.010  1.00  0.00     0.022 A 
BRANCH  76  80
ATOM     80  S   UNL     1      -2.174 -21.681   1.118  1.00  0.00     0.124 S 
ATOM     81  O   UNL     1      -2.453 -23.107   0.980  1.00  0.00    -0.237 OA
ATOM     82  O   UNL     1      -2.086 -20.931  -0.133  1.00  0.00    -0.237 OA
ATOM     83  O   UNL     1      -1.177 -21.325   2.122  1.00  0.00    -0.744 OA
ENDBRANCH  76  80
ENDBRANCH  49  73
BRANCH  61  84
ATOM     84  C   UNL     1      -8.496 -19.816   9.568  1.00  0.00     0.023 A 
ATOM     85  C   UNL     1      -9.785 -19.310   9.821  1.00  0.00     0.031 A 
ATOM     86  C   UNL     1      -8.192 -21.117  10.005  1.00  0.00     0.131 A 
ATOM     87  C   UNL     1     -10.713 -20.089  10.523  1.00  0.00     0.055 A 
ATOM     88  C   UNL     1      -9.133 -21.904  10.670  1.00  0.00     0.041 A 
ATOM     89  F   UNL     1      -6.972 -21.637   9.797  1.00  0.00    -0.206 F 
ATOM     90  C   UNL     1     -10.395 -21.385  10.944  1.00  0.00     0.022 A 
BRANCH  87  91
ATOM     91  S   UNL     1     -12.334 -19.422  10.990  1.00  0.00     0.124 S 
ATOM     92  O   UNL     1     -13.244 -20.314  10.275  1.00  0.00    -0.237 OA
ATOM     93  O   UNL     1     -12.324 -19.576  12.443  1.00  0.00    -0.237 OA
ATOM     94  O   UNL     1     -12.303 -18.047  10.505  1.00  0.00    -0.744 OA
ENDBRANCH  87  91
ENDBRANCH  61  84
ENDBRANCH  35  36
ENDBRANCH  27  30
ENDBRANCH  25  26
ENDBRANCH   1  25
TORSDOF 16
