REMARK SMILES C[C@H]1[C@H](C(=O)NCCCCNC(=O)c2ccc(-c3c4nc(c(-c5cc(S(=O)(=O)[O-])ccc5F)c5ccc([nH]5)c(-c5cc(S(=O)(=O)[O-])ccc5F)c5nc(c(-c6cc(S(=O)(=O)[O-])ccc6F)c6ccc3[nH]6)C=C5)C=C4)cc2)CCN1C(=O)Nc1ccc(F)c(Cl)c1
REMARK SMILES IDX 9 1 8 2 7 3 6 4 4 5 5 6 3 8 1 9 2 10 79 11 77 12 78 13 80 14
REMARK SMILES IDX 81 15 82 16 83 18 84 19 90 20 85 21 88 22 86 23 89 24 87 25
REMARK SMILES IDX 10 26 11 27 12 28 13 30 14 31 15 32 76 33 16 34 75 35 17 36
REMARK SMILES IDX 18 37 19 38 69 39 20 40 74 41 68 42 70 43 21 44 73 45 67 46
REMARK SMILES IDX 66 47 22 49 54 50 34 51 53 52 35 53 38 54 52 55 71 56 36 57
REMARK SMILES IDX 37 58 51 60 72 61 39 62 23 63 24 64 32 65 25 66 31 67 33 68
REMARK SMILES IDX 30 69 26 70 27 71 28 72 29 73 55 74 56 75 64 76 57 77 63 78
REMARK SMILES IDX 65 79 62 80 58 81 59 82 60 83 61 84 40 85 41 86 49 87 42 88
REMARK SMILES IDX 48 89 50 90 47 91 43 92 44 93 45 94 46 95
REMARK H PARENT 6 7 82 17 11 29 70 48 38 59
REMARK Flexibility Score: inf
ROOT
ATOM      1  C   UNL     1      -0.413   1.021   5.390  1.00  0.00     0.023 C 
ENDROOT
BRANCH   1   2
ATOM      2  C   UNL     1      -0.204   0.209   4.126  1.00  0.00     0.023 C 
BRANCH   2   3
ATOM      3  C   UNL     1      -1.012   0.637   2.906  1.00  0.00     0.116 C 
BRANCH   3   4
ATOM      4  N   UNL     1      -0.547   1.889   2.334  1.00  0.00    -0.356 N 
ATOM      5  C   UNL     1      -0.261   2.244   1.053  1.00  0.00     0.225 C 
ATOM      6  O   UNL     1       0.057   3.420   0.850  1.00  0.00    -0.275 OA
ATOM      7  H   UNL     1      -0.416   2.609   2.992  1.00  0.00     0.163 HD
BRANCH   5   8
ATOM      8  C   UNL     1      -0.268   1.262  -0.116  1.00  0.00     0.102 C 
ATOM      9  C   UNL     1       1.793   0.274  -1.213  1.00  0.00     0.032 C 
ATOM     10  C   UNL     1       0.861   0.226  -0.002  1.00  0.00     0.096 C 
ATOM     11  N   UNL     1       0.197  -1.076   0.123  1.00  0.00    -0.321 N 
ATOM     12  C   UNL     1      -1.568   0.489  -0.301  1.00  0.00     0.037 C 
ATOM     13  C   UNL     1      -1.166  -0.974  -0.379  1.00  0.00     0.122 C 
BRANCH  11  14
ATOM     14  C   UNL     1       0.680  -2.330   0.392  1.00  0.00     0.322 C 
ATOM     15  O   UNL     1      -0.036  -3.325   0.225  1.00  0.00    -0.248 OA
ATOM     16  N   UNL     1       1.975  -2.585   0.704  1.00  0.00    -0.308 N 
ATOM     17  H   UNL     1       2.249  -3.496   0.449  1.00  0.00     0.171 HD
BRANCH  16  18
ATOM     18  C   UNL     1       3.016  -1.866   1.301  1.00  0.00     0.044 A 
ATOM     19  C   UNL     1       4.332  -2.215   0.991  1.00  0.00     0.029 A 
ATOM     20  C   UNL     1       2.795  -0.853   2.223  1.00  0.00     0.049 A 
ATOM     21  C   UNL     1       5.396  -1.449   1.477  1.00  0.00     0.043 A 
ATOM     22  C   UNL     1       3.845  -0.063   2.691  1.00  0.00     0.078 A 
ATOM     23  C   UNL     1       5.144  -0.355   2.299  1.00  0.00     0.141 A 
ATOM     24  Cl  UNL     1       3.520   1.291   3.702  1.00  0.00    -0.081 Cl
ATOM     25  F   UNL     1       6.171   0.407   2.698  1.00  0.00    -0.205 F 
ENDBRANCH  16  18
ENDBRANCH  11  14
ENDBRANCH   5   8
ENDBRANCH   3   4
ENDBRANCH   2   3
ENDBRANCH   1   2
BRANCH   1  26
ATOM     26  C   UNL     1      -1.837   1.013   5.907  1.00  0.00     0.116 C 
BRANCH  26  27
ATOM     27  N   UNL     1      -2.317  -0.326   6.223  1.00  0.00    -0.352 N 
ATOM     28  C   UNL     1      -2.709  -0.857   7.433  1.00  0.00     0.251 C 
ATOM     29  H   UNL     1      -2.369  -0.944   5.458  1.00  0.00     0.163 HD
ATOM     30  O   UNL     1      -2.921  -2.057   7.534  1.00  0.00    -0.269 OA
BRANCH  28  31
ATOM     31  C   UNL     1      -2.828   0.034   8.608  1.00  0.00     0.039 A 
ATOM     32  C   UNL     1      -2.312  -0.379   9.837  1.00  0.00     0.014 A 
ATOM     33  C   UNL     1      -3.399   1.300   8.476  1.00  0.00     0.014 A 
ATOM     34  C   UNL     1      -2.286   0.519  10.907  1.00  0.00     0.010 A 
ATOM     35  C   UNL     1      -3.252   2.229   9.495  1.00  0.00     0.010 A 
ATOM     36  C   UNL     1      -2.707   1.847  10.729  1.00  0.00    -0.014 A 
BRANCH  36  37
ATOM     37  C   UNL     1      -2.622   2.852  11.821  1.00  0.00     0.031 A 
ATOM     38  C   UNL     1      -3.877   3.541  12.292  1.00  0.00     0.074 A 
ATOM     39  C   UNL     1      -1.422   3.201  12.325  1.00  0.00     0.049 A 
ATOM     40  N   UNL     1      -4.013   4.525  13.143  1.00  0.00    -0.248 NA
ATOM     41  C   UNL     1      -5.142   3.095  11.687  1.00  0.00     0.031 C 
ATOM     42  C   UNL     1      -0.132   2.647  11.907  1.00  0.00     0.029 A 
ATOM     43  N   UNL     1      -1.088   4.115  13.293  1.00  0.00    -0.354 N 
ATOM     44  C   UNL     1      -5.370   4.830  13.153  1.00  0.00     0.074 A 
ATOM     45  C   UNL     1      -5.999   3.982  12.164  1.00  0.00     0.031 C 
ATOM     46  C   UNL     1       0.846   3.204  12.639  1.00  0.00     0.029 A 
ATOM     47  C   UNL     1       0.264   4.191  13.541  1.00  0.00     0.049 A 
ATOM     48  H   UNL     1      -1.753   4.665  13.766  1.00  0.00     0.167 HD
ATOM     49  C   UNL     1      -6.038   5.710  13.938  1.00  0.00     0.034 A 
ATOM     50  C   UNL     1       0.954   4.975  14.393  1.00  0.00     0.034 A 
ATOM     51  C   UNL     1      -5.397   6.522  14.943  1.00  0.00     0.049 A 
ATOM     52  C   UNL     1       0.192   5.948  15.258  1.00  0.00     0.074 A 
ATOM     53  C   UNL     1      -5.977   7.398  15.842  1.00  0.00     0.029 A 
ATOM     54  N   UNL     1      -4.028   6.557  15.179  1.00  0.00    -0.354 N 
ATOM     55  N   UNL     1      -1.100   6.185  15.296  1.00  0.00    -0.248 NA
ATOM     56  C   UNL     1       0.979   6.750  16.203  1.00  0.00     0.031 C 
ATOM     57  C   UNL     1      -4.956   8.010  16.577  1.00  0.00     0.029 A 
ATOM     58  C   UNL     1      -3.744   7.460  16.191  1.00  0.00     0.049 A 
ATOM     59  H   UNL     1      -3.359   6.019  14.699  1.00  0.00     0.167 HD
ATOM     60  C   UNL     1      -1.281   7.142  16.290  1.00  0.00     0.074 A 
ATOM     61  C   UNL     1       0.031   7.423  16.837  1.00  0.00     0.031 C 
ATOM     62  C   UNL     1      -2.426   7.733  16.717  1.00  0.00     0.034 A 
BRANCH  49  63
ATOM     63  C   UNL     1      -7.528   5.842  13.724  1.00  0.00     0.023 A 
ATOM     64  C   UNL     1      -8.400   4.754  13.910  1.00  0.00     0.031 A 
ATOM     65  C   UNL     1      -8.081   7.058  13.288  1.00  0.00     0.131 A 
ATOM     66  C   UNL     1      -9.758   4.878  13.578  1.00  0.00     0.055 A 
ATOM     67  C   UNL     1      -9.450   7.201  13.046  1.00  0.00     0.041 A 
ATOM     68  F   UNL     1      -7.299   8.127  13.071  1.00  0.00    -0.206 F 
ATOM     69  C   UNL     1     -10.294   6.101  13.174  1.00  0.00     0.022 A 
BRANCH  66  70
ATOM     70  S   UNL     1     -10.776   3.378  13.532  1.00  0.00     0.124 S 
ATOM     71  O   UNL     1     -10.071   2.574  12.536  1.00  0.00    -0.237 OA
ATOM     72  O   UNL     1     -10.700   2.901  14.908  1.00  0.00    -0.237 OA
ATOM     73  O   UNL     1     -12.088   3.866  13.111  1.00  0.00    -0.744 OA
ENDBRANCH  66  70
ENDBRANCH  49  63
BRANCH  50  74
ATOM     74  C   UNL     1       2.441   4.881  14.477  1.00  0.00     0.023 A 
ATOM     75  C   UNL     1       3.071   4.449  15.655  1.00  0.00     0.031 A 
ATOM     76  C   UNL     1       3.255   5.261  13.396  1.00  0.00     0.131 A 
ATOM     77  C   UNL     1       4.473   4.454  15.742  1.00  0.00     0.055 A 
ATOM     78  C   UNL     1       4.649   5.212  13.469  1.00  0.00     0.041 A 
ATOM     79  F   UNL     1       2.705   5.676  12.244  1.00  0.00    -0.206 F 
ATOM     80  C   UNL     1       5.266   4.819  14.653  1.00  0.00     0.022 A 
BRANCH  77  81
ATOM     81  S   UNL     1       5.245   4.056  17.335  1.00  0.00     0.124 S 
ATOM     82  O   UNL     1       4.650   5.058  18.212  1.00  0.00    -0.237 OA
ATOM     83  O   UNL     1       4.812   2.679  17.547  1.00  0.00    -0.237 OA
ATOM     84  O   UNL     1       6.673   4.225  17.073  1.00  0.00    -0.744 OA
ENDBRANCH  77  81
ENDBRANCH  50  74
BRANCH  62  85
ATOM     85  C   UNL     1      -2.308   8.707  17.862  1.00  0.00     0.023 A 
ATOM     86  C   UNL     1      -1.634   9.933  17.724  1.00  0.00     0.031 A 
ATOM     87  C   UNL     1      -2.872   8.398  19.113  1.00  0.00     0.131 A 
ATOM     88  C   UNL     1      -1.493  10.780  18.834  1.00  0.00     0.055 A 
ATOM     89  C   UNL     1      -2.783   9.273  20.195  1.00  0.00     0.041 A 
ATOM     90  F   UNL     1      -3.525   7.240  19.300  1.00  0.00    -0.206 F 
ATOM     91  C   UNL     1      -2.079  10.466  20.063  1.00  0.00     0.022 A 
BRANCH  88  92
ATOM     92  S   UNL     1      -0.452  12.256  18.674  1.00  0.00     0.124 S 
ATOM     93  O   UNL     1       0.834  11.681  18.293  1.00  0.00    -0.237 OA
ATOM     94  O   UNL     1      -1.143  13.015  17.637  1.00  0.00    -0.237 OA
ATOM     95  O   UNL     1      -0.494  12.851  20.009  1.00  0.00    -0.744 OA
ENDBRANCH  88  92
ENDBRANCH  62  85
ENDBRANCH  36  37
ENDBRANCH  28  31
ENDBRANCH  26  27
ENDBRANCH   1  26
TORSDOF 16
