REMARK SMILES Cc1ccc(C[C@H](C(=O)NCCCCNC(=O)c2ccc(-c3c4nc(c(-c5cc(S(=O)(=O)[O-])ccc5F)c5ccc([nH]5)c(-c5cc(S(=O)(=O)[O-])ccc5F)c5nc(c(-c6cc(S(=O)(=O)[O-])ccc6F)c6ccc3[nH]6)C=C5)C=C4)cc2)[C@@H]2CCCC[C@@H]2O)cc1
REMARK SMILES IDX 13 1 12 2 11 3 10 4 8 5 9 6 7 8 6 9 5 10 1 11 2 12 3 13
REMARK SMILES IDX 89 14 4 15 88 16 81 17 82 18 86 19 83 20 85 21 84 22 87 23
REMARK SMILES IDX 14 25 15 26 16 27 17 29 18 30 19 31 80 32 20 33 79 34 21 35
REMARK SMILES IDX 22 36 23 37 73 38 24 39 78 40 72 41 74 42 25 43 77 44 71 45
REMARK SMILES IDX 70 46 26 48 58 49 38 50 57 51 39 52 42 53 56 54 75 55 40 56
REMARK SMILES IDX 41 57 55 59 76 60 43 61 27 62 28 63 36 64 29 65 35 66 37 67
REMARK SMILES IDX 34 68 30 69 31 70 32 71 33 72 59 73 60 74 68 75 61 76 67 77
REMARK SMILES IDX 69 78 66 79 62 80 63 81 64 82 65 83 44 84 45 85 53 86 46 87
REMARK SMILES IDX 52 88 54 89 51 90 47 91 48 92 49 93 50 94
REMARK H PARENT 10 7 87 24 15 28 74 47 42 58
REMARK Flexibility Score: inf
ROOT
ATOM      1  C   UNL     1      -2.915  -5.075  -1.060  1.00  0.00     0.023 C 
ENDROOT
BRANCH   1   2
ATOM      2  C   UNL     1      -4.136  -4.350  -1.609  1.00  0.00     0.023 C 
BRANCH   2   3
ATOM      3  C   UNL     1      -5.120  -3.777  -0.568  1.00  0.00     0.116 C 
BRANCH   3   4
ATOM      4  N   UNL     1      -4.476  -2.750   0.243  1.00  0.00    -0.356 N 
ATOM      5  C   UNL     1      -4.691  -1.441   0.487  1.00  0.00     0.223 C 
ATOM      6  O   UNL     1      -3.909  -0.993   1.336  1.00  0.00    -0.275 OA
ATOM      7  H   UNL     1      -3.694  -3.097   0.731  1.00  0.00     0.163 HD
BRANCH   5   8
ATOM      8  C   UNL     1      -5.822  -0.562  -0.126  1.00  0.00     0.088 C 
BRANCH   8   9
ATOM      9  C   UNL     1      -6.168   0.543   0.952  1.00  0.00     0.049 C 
BRANCH   9  10
ATOM     10  C   UNL     1      -5.390   1.856   1.032  1.00  0.00    -0.047 A 
ATOM     11  C   UNL     1      -3.286   5.642   1.327  1.00  0.00     0.044 C 
ATOM     12  C   UNL     1      -4.031   4.348   1.212  1.00  0.00    -0.051 A 
ATOM     13  C   UNL     1      -3.322   3.151   1.111  1.00  0.00     0.004 A 
ATOM     14  C   UNL     1      -5.426   4.297   1.242  1.00  0.00     0.004 A 
ATOM     15  C   UNL     1      -3.994   1.929   1.011  1.00  0.00     0.004 A 
ATOM     16  C   UNL     1      -6.094   3.067   1.171  1.00  0.00     0.004 A 
ENDBRANCH   9  10
ENDBRANCH   8   9
BRANCH   8  17
ATOM     17  C   UNL     1      -5.587   0.033  -1.576  1.00  0.00     0.030 C 
ATOM     18  C   UNL     1      -6.396   1.307  -1.942  1.00  0.00     0.007 C 
ATOM     19  C   UNL     1      -5.916  -0.895  -2.771  1.00  0.00     0.118 C 
ATOM     20  C   UNL     1      -7.904   1.066  -2.061  1.00  0.00     0.001 C 
ATOM     21  C   UNL     1      -7.388  -1.302  -2.823  1.00  0.00     0.032 C 
ATOM     22  C   UNL     1      -8.254  -0.064  -3.029  1.00  0.00     0.003 C 
BRANCH  19  23
ATOM     23  O   UNL     1      -5.077  -2.007  -2.833  1.00  0.00    -0.393 OA
ATOM     24  H   UNL     1      -5.221  -2.565  -2.053  1.00  0.00     0.210 HD
ENDBRANCH  19  23
ENDBRANCH   8  17
ENDBRANCH   5   8
ENDBRANCH   3   4
ENDBRANCH   2   3
ENDBRANCH   1   2
BRANCH   1  25
ATOM     25  C   UNL     1      -3.204  -6.494  -0.624  1.00  0.00     0.116 C 
BRANCH  25  26
ATOM     26  N   UNL     1      -3.081  -7.488  -1.687  1.00  0.00    -0.352 N 
ATOM     27  C   UNL     1      -3.194  -8.869  -1.583  1.00  0.00     0.251 C 
ATOM     28  H   UNL     1      -2.895  -7.137  -2.588  1.00  0.00     0.163 HD
ATOM     29  O   UNL     1      -3.041  -9.607  -2.540  1.00  0.00    -0.269 OA
BRANCH  27  30
ATOM     30  C   UNL     1      -3.634  -9.420  -0.277  1.00  0.00     0.039 A 
ATOM     31  C   UNL     1      -4.837 -10.130  -0.252  1.00  0.00     0.014 A 
ATOM     32  C   UNL     1      -3.062  -8.949   0.898  1.00  0.00     0.014 A 
ATOM     33  C   UNL     1      -5.594 -10.133   0.917  1.00  0.00     0.010 A 
ATOM     34  C   UNL     1      -3.876  -8.818   2.004  1.00  0.00     0.010 A 
ATOM     35  C   UNL     1      -5.165  -9.365   2.000  1.00  0.00    -0.014 A 
BRANCH  35  36
ATOM     36  C   UNL     1      -6.024  -9.016   3.129  1.00  0.00     0.031 A 
ATOM     37  C   UNL     1      -5.737  -9.568   4.470  1.00  0.00     0.074 A 
ATOM     38  C   UNL     1      -7.067  -8.170   2.971  1.00  0.00     0.049 A 
ATOM     39  N   UNL     1      -6.608  -9.684   5.413  1.00  0.00    -0.248 NA
ATOM     40  C   UNL     1      -4.422 -10.079   4.840  1.00  0.00     0.031 C 
ATOM     41  C   UNL     1      -7.893  -7.573   4.019  1.00  0.00     0.029 A 
ATOM     42  N   UNL     1      -7.762  -7.906   1.792  1.00  0.00    -0.354 N 
ATOM     43  C   UNL     1      -5.944 -10.041   6.563  1.00  0.00     0.074 A 
ATOM     44  C   UNL     1      -4.587 -10.298   6.146  1.00  0.00     0.031 C 
ATOM     45  C   UNL     1      -9.099  -7.289   3.505  1.00  0.00     0.029 A 
ATOM     46  C   UNL     1      -9.124  -7.793   2.146  1.00  0.00     0.049 A 
ATOM     47  H   UNL     1      -7.378  -7.816   0.890  1.00  0.00     0.167 HD
ATOM     48  C   UNL     1      -6.592  -9.987   7.760  1.00  0.00     0.034 A 
ATOM     49  C   UNL     1     -10.047  -8.651   1.619  1.00  0.00     0.034 A 
ATOM     50  C   UNL     1      -8.004  -9.644   7.600  1.00  0.00     0.049 A 
ATOM     51  C   UNL     1     -10.728  -9.527   2.653  1.00  0.00     0.074 A 
ATOM     52  C   UNL     1      -8.748  -8.482   7.723  1.00  0.00     0.029 A 
ATOM     53  N   UNL     1      -8.829 -10.558   6.972  1.00  0.00    -0.354 N 
ATOM     54  N   UNL     1     -10.484  -9.487   3.936  1.00  0.00    -0.248 NA
ATOM     55  C   UNL     1     -11.674 -10.588   2.304  1.00  0.00     0.031 C 
ATOM     56  C   UNL     1     -10.017  -8.704   7.107  1.00  0.00     0.029 A 
ATOM     57  C   UNL     1     -10.049 -10.005   6.637  1.00  0.00     0.049 A 
ATOM     58  H   UNL     1      -8.577 -11.491   6.786  1.00  0.00     0.167 HD
ATOM     59  C   UNL     1     -11.137 -10.521   4.555  1.00  0.00     0.074 A 
ATOM     60  C   UNL     1     -11.878 -11.177   3.493  1.00  0.00     0.031 C 
ATOM     61  C   UNL     1     -10.993 -10.813   5.881  1.00  0.00     0.034 A 
BRANCH  48  62
ATOM     62  C   UNL     1      -5.891 -10.037   9.094  1.00  0.00     0.023 A 
ATOM     63  C   UNL     1      -6.452  -9.347  10.186  1.00  0.00     0.031 A 
ATOM     64  C   UNL     1      -4.676 -10.700   9.355  1.00  0.00     0.131 A 
ATOM     65  C   UNL     1      -5.774  -9.248  11.415  1.00  0.00     0.055 A 
ATOM     66  C   UNL     1      -3.964 -10.540  10.550  1.00  0.00     0.041 A 
ATOM     67  F   UNL     1      -4.155 -11.582   8.491  1.00  0.00    -0.206 F 
ATOM     68  C   UNL     1      -4.508  -9.799  11.586  1.00  0.00     0.022 A 
BRANCH  65  69
ATOM     69  S   UNL     1      -6.586  -8.409  12.801  1.00  0.00     0.124 S 
ATOM     70  O   UNL     1      -6.824  -7.075  12.260  1.00  0.00    -0.237 OA
ATOM     71  O   UNL     1      -7.765  -9.241  13.014  1.00  0.00    -0.237 OA
ATOM     72  O   UNL     1      -5.587  -8.473  13.867  1.00  0.00    -0.744 OA
ENDBRANCH  65  69
ENDBRANCH  48  62
BRANCH  49  73
ATOM     73  C   UNL     1      -9.726  -9.024   0.207  1.00  0.00     0.023 A 
ATOM     74  C   UNL     1      -9.506  -7.951  -0.686  1.00  0.00     0.031 A 
ATOM     75  C   UNL     1      -9.227 -10.283  -0.151  1.00  0.00     0.131 A 
ATOM     76  C   UNL     1      -8.611  -8.097  -1.752  1.00  0.00     0.055 A 
ATOM     77  C   UNL     1      -8.434 -10.450  -1.294  1.00  0.00     0.041 A 
ATOM     78  F   UNL     1      -9.370 -11.338   0.664  1.00  0.00    -0.206 F 
ATOM     79  C   UNL     1      -8.073  -9.344  -2.066  1.00  0.00     0.022 A 
BRANCH  76  80
ATOM     80  S   UNL     1      -7.892  -6.585  -2.471  1.00  0.00     0.124 S 
ATOM     81  O   UNL     1      -8.878  -6.232  -3.486  1.00  0.00    -0.237 OA
ATOM     82  O   UNL     1      -7.811  -5.691  -1.316  1.00  0.00    -0.237 OA
ATOM     83  O   UNL     1      -6.594  -7.030  -2.973  1.00  0.00    -0.744 OA
ENDBRANCH  76  80
ENDBRANCH  49  73
BRANCH  61  84
ATOM     84  C   UNL     1     -11.739 -11.939   6.543  1.00  0.00     0.023 A 
ATOM     85  C   UNL     1     -13.098 -12.170   6.275  1.00  0.00     0.031 A 
ATOM     86  C   UNL     1     -11.137 -12.774   7.508  1.00  0.00     0.131 A 
ATOM     87  C   UNL     1     -13.779 -13.233   6.889  1.00  0.00     0.055 A 
ATOM     88  C   UNL     1     -11.843 -13.771   8.187  1.00  0.00     0.041 A 
ATOM     89  F   UNL     1      -9.830 -12.689   7.796  1.00  0.00    -0.206 F 
ATOM     90  C   UNL     1     -13.171 -14.015   7.869  1.00  0.00     0.022 A 
BRANCH  87  91
ATOM     91  S   UNL     1     -15.446 -13.637   6.309  1.00  0.00     0.124 S 
ATOM     92  O   UNL     1     -16.156 -12.372   6.468  1.00  0.00    -0.237 OA
ATOM     93  O   UNL     1     -15.186 -14.051   4.933  1.00  0.00    -0.237 OA
ATOM     94  O   UNL     1     -15.873 -14.708   7.207  1.00  0.00    -0.744 OA
ENDBRANCH  87  91
ENDBRANCH  61  84
ENDBRANCH  35  36
ENDBRANCH  27  30
ENDBRANCH  25  26
ENDBRANCH   1  25
TORSDOF 18
