REMARK SMILES C#CCN(CC(=O)NCCCCNC(=O)c1ccc(-c2c3nc(c(-c4cc(S(=O)(=O)[O-])ccc4F)c4ccc([nH]4)c(-c4cc(S(=O)(=O)[O-])ccc4F)c4nc(c(-c5cc(S(=O)(=O)[O-])ccc5F)c5ccc2[nH]5)C=C4)C=C3)cc1)C(=O)[C@H](c1ccc(Cl)cc1)C(C)C
REMARK SMILES IDX 10 1 9 2 8 3 6 4 7 5 5 7 4 8 3 9 2 10 1 11 79 12 80 13 81 14
REMARK SMILES IDX 89 15 90 16 91 17 82 18 83 19 88 20 84 21 87 22 85 23 86 24
REMARK SMILES IDX 11 25 12 26 13 27 14 28 15 30 16 31 17 32 78 33 18 34 77 35
REMARK SMILES IDX 19 36 20 37 21 38 71 39 22 40 76 41 70 42 72 43 23 44 75 45
REMARK SMILES IDX 69 46 68 47 24 49 56 50 36 51 55 52 37 53 40 54 54 55 73 56
REMARK SMILES IDX 38 57 39 58 53 60 74 61 41 62 25 63 26 64 34 65 27 66 33 67
REMARK SMILES IDX 35 68 32 69 28 70 29 71 30 72 31 73 57 74 58 75 66 76 59 77
REMARK SMILES IDX 65 78 67 79 64 80 60 81 61 82 62 83 63 84 42 85 43 86 51 87
REMARK SMILES IDX 44 88 50 89 52 90 49 91 45 92 46 93 47 94 48 95
REMARK H PARENT 8 6 13 29 72 48 40 59
REMARK Flexibility Score: inf
ROOT
ATOM      1  C   UNL     1       0.183   0.155   3.478  1.00  0.00     0.023 C 
ENDROOT
BRANCH   1   2
ATOM      2  C   UNL     1      -1.173   0.856   3.498  1.00  0.00     0.116 C 
BRANCH   2   3
ATOM      3  N   UNL     1      -1.964   0.596   2.313  1.00  0.00    -0.355 N 
ATOM      4  C   UNL     1      -3.053  -0.213   2.167  1.00  0.00     0.239 C 
ATOM      5  O   UNL     1      -3.750  -0.092   1.157  1.00  0.00    -0.273 OA
ATOM      6  H   UNL     1      -1.676   1.069   1.499  1.00  0.00     0.163 HD
BRANCH   4   7
ATOM      7  C   UNL     1      -3.469  -1.173   3.285  1.00  0.00     0.220 C 
BRANCH   7   8
ATOM      8  N   UNL     1      -2.471  -2.176   3.659  1.00  0.00    -0.322 N 
BRANCH   8   9
ATOM      9  C   UNL     1      -1.932  -2.085   5.021  1.00  0.00     0.209 C 
BRANCH   9  10
ATOM     10  C   UNL     1      -2.249  -3.329   5.836  1.00  0.00    -0.085 C 
ATOM     11  C   UNL     1      -2.521  -4.395   6.535  1.00  0.00     0.006 C 
ENDBRANCH   9  10
ENDBRANCH   8   9
BRANCH   8  12
ATOM     12  C   UNL     1      -2.018  -3.222   2.854  1.00  0.00     0.231 C 
ATOM     13  O   UNL     1      -1.134  -3.982   3.281  1.00  0.00    -0.274 OA
BRANCH  12  14
ATOM     14  C   UNL     1      -2.518  -3.475   1.386  1.00  0.00     0.111 C 
BRANCH  14  15
ATOM     15  C   UNL     1      -4.068  -3.695   1.279  1.00  0.00    -0.000 C 
ATOM     16  C   UNL     1      -4.570  -4.263  -0.062  1.00  0.00     0.008 C 
ATOM     17  C   UNL     1      -4.545  -4.677   2.369  1.00  0.00     0.008 C 
ENDBRANCH  14  15
BRANCH  14  18
ATOM     18  C   UNL     1      -1.731  -2.609   0.383  1.00  0.00    -0.035 A 
ATOM     19  C   UNL     1      -2.251  -2.134  -0.828  1.00  0.00     0.006 A 
ATOM     20  C   UNL     1      -0.364  -2.348   0.624  1.00  0.00     0.006 A 
ATOM     21  C   UNL     1      -1.466  -1.403  -1.732  1.00  0.00     0.021 A 
ATOM     22  C   UNL     1       0.419  -1.601  -0.264  1.00  0.00     0.021 A 
ATOM     23  C   UNL     1      -0.140  -1.121  -1.437  1.00  0.00     0.041 A 
ATOM     24  Cl  UNL     1       0.804  -0.176  -2.515  1.00  0.00    -0.084 Cl
ENDBRANCH  14  18
ENDBRANCH  12  14
ENDBRANCH   8  12
ENDBRANCH   7   8
ENDBRANCH   4   7
ENDBRANCH   2   3
ENDBRANCH   1   2
BRANCH   1  25
ATOM     25  C   UNL     1       1.165   0.697   2.444  1.00  0.00     0.023 C 
BRANCH  25  26
ATOM     26  C   UNL     1       1.513   2.168   2.584  1.00  0.00     0.116 C 
BRANCH  26  27
ATOM     27  N   UNL     1       2.130   2.497   3.857  1.00  0.00    -0.352 N 
ATOM     28  C   UNL     1       3.194   3.340   4.099  1.00  0.00     0.251 C 
ATOM     29  H   UNL     1       1.738   2.062   4.649  1.00  0.00     0.163 HD
ATOM     30  O   UNL     1       3.667   3.417   5.221  1.00  0.00    -0.269 OA
BRANCH  28  31
ATOM     31  C   UNL     1       3.778   4.105   2.972  1.00  0.00     0.039 A 
ATOM     32  C   UNL     1       5.165   4.122   2.816  1.00  0.00     0.014 A 
ATOM     33  C   UNL     1       2.958   4.759   2.049  1.00  0.00     0.014 A 
ATOM     34  C   UNL     1       5.725   4.739   1.694  1.00  0.00     0.010 A 
ATOM     35  C   UNL     1       3.510   5.288   0.887  1.00  0.00     0.010 A 
ATOM     36  C   UNL     1       4.900   5.293   0.701  1.00  0.00    -0.014 A 
BRANCH  36  37
ATOM     37  C   UNL     1       5.471   5.913  -0.524  1.00  0.00     0.031 A 
ATOM     38  C   UNL     1       5.246   7.376  -0.794  1.00  0.00     0.074 A 
ATOM     39  C   UNL     1       6.139   5.154  -1.415  1.00  0.00     0.049 A 
ATOM     40  N   UNL     1       5.594   8.093  -1.832  1.00  0.00    -0.248 NA
ATOM     41  C   UNL     1       4.496   8.123   0.227  1.00  0.00     0.031 C 
ATOM     42  C   UNL     1       6.388   3.716  -1.284  1.00  0.00     0.029 A 
ATOM     43  N   UNL     1       6.731   5.484  -2.607  1.00  0.00    -0.354 N 
ATOM     44  C   UNL     1       5.095   9.370  -1.594  1.00  0.00     0.074 A 
ATOM     45  C   UNL     1       4.352   9.303  -0.354  1.00  0.00     0.031 C 
ATOM     46  C   UNL     1       7.113   3.299  -2.334  1.00  0.00     0.029 A 
ATOM     47  C   UNL     1       7.342   4.424  -3.236  1.00  0.00     0.049 A 
ATOM     48  H   UNL     1       6.720   6.396  -2.979  1.00  0.00     0.167 HD
ATOM     49  C   UNL     1       5.269  10.501  -2.323  1.00  0.00     0.034 A 
ATOM     50  C   UNL     1       8.007   4.366  -4.407  1.00  0.00     0.034 A 
ATOM     51  C   UNL     1       6.022  10.550  -3.552  1.00  0.00     0.049 A 
ATOM     52  C   UNL     1       8.154   5.626  -5.222  1.00  0.00     0.074 A 
ATOM     53  C   UNL     1       6.299  11.645  -4.353  1.00  0.00     0.029 A 
ATOM     54  N   UNL     1       6.615   9.452  -4.164  1.00  0.00    -0.354 N 
ATOM     55  N   UNL     1       7.714   6.836  -4.963  1.00  0.00    -0.248 NA
ATOM     56  C   UNL     1       8.896   5.512  -6.484  1.00  0.00     0.031 C 
ATOM     57  C   UNL     1       7.002  11.199  -5.478  1.00  0.00     0.029 A 
ATOM     58  C   UNL     1       7.232   9.839  -5.345  1.00  0.00     0.049 A 
ATOM     59  H   UNL     1       6.600   8.533  -3.811  1.00  0.00     0.167 HD
ATOM     60  C   UNL     1       8.157   7.633  -6.015  1.00  0.00     0.074 A 
ATOM     61  C   UNL     1       8.908   6.769  -6.902  1.00  0.00     0.031 C 
ATOM     62  C   UNL     1       7.968   8.961  -6.225  1.00  0.00     0.034 A 
BRANCH  49  63
ATOM     63  C   UNL     1       4.610  11.759  -1.806  1.00  0.00     0.023 A 
ATOM     64  C   UNL     1       4.936  12.297  -0.548  1.00  0.00     0.031 A 
ATOM     65  C   UNL     1       3.603  12.399  -2.550  1.00  0.00     0.131 A 
ATOM     66  C   UNL     1       4.197  13.370  -0.029  1.00  0.00     0.055 A 
ATOM     67  C   UNL     1       2.936  13.528  -2.068  1.00  0.00     0.041 A 
ATOM     68  F   UNL     1       3.231  11.924  -3.749  1.00  0.00    -0.206 F 
ATOM     69  C   UNL     1       3.216  14.008  -0.792  1.00  0.00     0.022 A 
BRANCH  66  70
ATOM     70  S   UNL     1       4.414  13.803   1.719  1.00  0.00     0.124 S 
ATOM     71  O   UNL     1       4.076  12.543   2.378  1.00  0.00    -0.237 OA
ATOM     72  O   UNL     1       5.816  14.197   1.775  1.00  0.00    -0.237 OA
ATOM     73  O   UNL     1       3.451  14.883   1.927  1.00  0.00    -0.744 OA
ENDBRANCH  66  70
ENDBRANCH  49  63
BRANCH  50  74
ATOM     74  C   UNL     1       8.592   3.080  -4.883  1.00  0.00     0.023 A 
ATOM     75  C   UNL     1       9.982   2.928  -5.011  1.00  0.00     0.031 A 
ATOM     76  C   UNL     1       7.774   1.999  -5.253  1.00  0.00     0.131 A 
ATOM     77  C   UNL     1      10.511   1.741  -5.540  1.00  0.00     0.055 A 
ATOM     78  C   UNL     1       8.307   0.800  -5.731  1.00  0.00     0.041 A 
ATOM     79  F   UNL     1       6.439   2.090  -5.146  1.00  0.00    -0.206 F 
ATOM     80  C   UNL     1       9.684   0.671  -5.888  1.00  0.00     0.022 A 
BRANCH  77  81
ATOM     81  S   UNL     1      12.298   1.644  -5.840  1.00  0.00     0.124 S 
ATOM     82  O   UNL     1      12.505   2.756  -6.761  1.00  0.00    -0.237 OA
ATOM     83  O   UNL     1      12.840   1.814  -4.496  1.00  0.00    -0.237 OA
ATOM     84  O   UNL     1      12.474   0.313  -6.417  1.00  0.00    -0.744 OA
ENDBRANCH  77  81
ENDBRANCH  50  74
BRANCH  62  85
ATOM     85  C   UNL     1       8.629   9.562  -7.441  1.00  0.00     0.023 A 
ATOM     86  C   UNL     1       8.229   9.224  -8.746  1.00  0.00     0.031 A 
ATOM     87  C   UNL     1       9.685  10.478  -7.289  1.00  0.00     0.131 A 
ATOM     88  C   UNL     1       8.919   9.754  -9.847  1.00  0.00     0.055 A 
ATOM     89  C   UNL     1      10.327  11.049  -8.388  1.00  0.00     0.041 A 
ATOM     90  F   UNL     1      10.108  10.836  -6.066  1.00  0.00    -0.206 F 
ATOM     91  C   UNL     1       9.953  10.678  -9.677  1.00  0.00     0.022 A 
BRANCH  88  92
ATOM     92  S   UNL     1       8.505   9.152 -11.507  1.00  0.00     0.124 S 
ATOM     93  O   UNL     1       8.759   7.720 -11.383  1.00  0.00    -0.237 OA
ATOM     94  O   UNL     1       7.105   9.541 -11.641  1.00  0.00    -0.237 OA
ATOM     95  O   UNL     1       9.434   9.873 -12.376  1.00  0.00    -0.744 OA
ENDBRANCH  88  92
ENDBRANCH  62  85
ENDBRANCH  36  37
ENDBRANCH  28  31
ENDBRANCH  26  27
ENDBRANCH  25  26
ENDBRANCH   1  25
TORSDOF 21
