REMARK SMILES Cc1cc(C)c(C(=O)NC[C@H]2CC[C@@H](C(=O)NCCCCNC(=O)c3ccc(-c4c5nc(c(-c6cc(S(=O)(=O)[O-])ccc6F)c6ccc([nH]6)c(-c6cc(S(=O)(=O)[O-])ccc6F)c6nc(c(-c7cc(S(=O)(=O)[O-])ccc7F)c7ccc4[nH]7)C=C6)C=C5)cc3)O2)c(C)c1
REMARK SMILES IDX 19 1 18 2 17 3 15 4 16 5 14 7 11 8 12 9 88 10 13 11 10 12
REMARK SMILES IDX 9 13 7 14 8 15 6 17 1 18 2 19 3 20 91 21 4 22 89 23 5 24
REMARK SMILES IDX 90 25 20 26 21 27 22 28 23 29 24 31 25 32 26 33 87 34 27 35
REMARK SMILES IDX 86 36 28 37 29 38 30 39 80 40 31 41 85 42 79 43 81 44 32 45
REMARK SMILES IDX 84 46 78 47 77 48 33 50 65 51 45 52 64 53 46 54 49 55 63 56
REMARK SMILES IDX 82 57 47 58 48 59 62 61 83 62 50 63 34 64 35 65 43 66 36 67
REMARK SMILES IDX 42 68 44 69 41 70 37 71 38 72 39 73 40 74 66 75 67 76 75 77
REMARK SMILES IDX 68 78 74 79 76 80 73 81 69 82 70 83 71 84 72 85 51 86 52 87
REMARK SMILES IDX 60 88 53 89 59 90 61 91 58 92 54 93 55 94 56 95 57 96
REMARK H PARENT 17 6 9 16 22 30 81 49 49 60
REMARK Flexibility Score: inf
ROOT
ATOM      1  C   UNL     1      -4.127  -8.302   0.638  1.00  0.00     0.023 C 
ENDROOT
BRANCH   1   2
ATOM      2  C   UNL     1      -3.257  -7.260   1.334  1.00  0.00     0.116 C 
BRANCH   2   3
ATOM      3  N   UNL     1      -2.440  -7.838   2.388  1.00  0.00    -0.354 N 
ATOM      4  C   UNL     1      -1.082  -7.776   2.544  1.00  0.00     0.249 C 
ATOM      5  O   UNL     1      -0.578  -8.317   3.529  1.00  0.00    -0.272 OA
ATOM      6  H   UNL     1      -2.928  -8.340   3.080  1.00  0.00     0.163 HD
BRANCH   4   7
ATOM      7  C   UNL     1      -0.245  -7.072   1.464  1.00  0.00     0.207 C 
ATOM      8  C   UNL     1       0.405  -4.818   1.447  1.00  0.00     0.138 C 
ATOM      9  C   UNL     1       1.647  -5.661   1.229  1.00  0.00     0.037 C 
ATOM     10  O   UNL     1      -0.696  -5.719   1.275  1.00  0.00    -0.363 OA
ATOM     11  C   UNL     1       1.240  -6.996   1.802  1.00  0.00     0.045 C 
BRANCH   8  12
ATOM     12  C   UNL     1       0.312  -4.156   2.841  1.00  0.00     0.148 C 
BRANCH  12  13
ATOM     13  N   UNL     1       1.026  -2.894   2.868  1.00  0.00    -0.349 N 
ATOM     14  C   UNL     1       0.827  -1.630   2.380  1.00  0.00     0.251 C 
ATOM     15  O   UNL     1       1.899  -1.097   2.059  1.00  0.00    -0.269 OA
ATOM     16  H   UNL     1       1.873  -2.965   3.365  1.00  0.00     0.163 HD
BRANCH  14  17
ATOM     17  C   UNL     1      -0.451  -0.816   2.241  1.00  0.00     0.045 A 
ATOM     18  C   UNL     1      -3.687   1.993   1.324  1.00  0.00     0.044 C 
ATOM     19  C   UNL     1      -2.592   1.038   1.688  1.00  0.00    -0.051 A 
ATOM     20  C   UNL     1      -1.335   1.500   2.037  1.00  0.00     0.007 A 
ATOM     21  C   UNL     1      -2.795  -0.334   1.668  1.00  0.00     0.007 A 
ATOM     22  C   UNL     1      -0.282   0.610   2.350  1.00  0.00    -0.038 A 
ATOM     23  C   UNL     1      -1.756  -1.270   1.921  1.00  0.00    -0.038 A 
ATOM     24  C   UNL     1       1.005   1.304   2.750  1.00  0.00     0.045 C 
ATOM     25  C   UNL     1      -2.225  -2.686   1.807  1.00  0.00     0.045 C 
ENDBRANCH  14  17
ENDBRANCH  12  13
ENDBRANCH   8  12
ENDBRANCH   4   7
ENDBRANCH   2   3
ENDBRANCH   1   2
BRANCH   1  26
ATOM     26  C   UNL     1      -5.135  -9.015   1.539  1.00  0.00     0.023 C 
BRANCH  26  27
ATOM     27  C   UNL     1      -6.089  -8.102   2.303  1.00  0.00     0.116 C 
BRANCH  27  28
ATOM     28  N   UNL     1      -6.928  -7.301   1.426  1.00  0.00    -0.352 N 
ATOM     29  C   UNL     1      -8.300  -7.197   1.379  1.00  0.00     0.251 C 
ATOM     30  H   UNL     1      -6.443  -6.752   0.768  1.00  0.00     0.163 HD
ATOM     31  O   UNL     1      -8.829  -6.585   0.460  1.00  0.00    -0.269 OA
BRANCH  29  32
ATOM     32  C   UNL     1      -9.129  -7.855   2.417  1.00  0.00     0.039 A 
ATOM     33  C   UNL     1     -10.253  -8.585   2.020  1.00  0.00     0.014 A 
ATOM     34  C   UNL     1      -8.796  -7.766   3.771  1.00  0.00     0.014 A 
ATOM     35  C   UNL     1     -10.990  -9.295   2.972  1.00  0.00     0.010 A 
ATOM     36  C   UNL     1      -9.485  -8.535   4.706  1.00  0.00     0.010 A 
ATOM     37  C   UNL     1     -10.584  -9.316   4.317  1.00  0.00    -0.014 A 
BRANCH  37  38
ATOM     38  C   UNL     1     -11.284 -10.158   5.326  1.00  0.00     0.031 A 
ATOM     39  C   UNL     1     -11.971  -9.516   6.502  1.00  0.00     0.074 A 
ATOM     40  C   UNL     1     -11.246 -11.502   5.219  1.00  0.00     0.049 A 
ATOM     41  N   UNL     1     -12.543 -10.079   7.535  1.00  0.00    -0.248 NA
ATOM     42  C   UNL     1     -11.994  -8.046   6.528  1.00  0.00     0.031 C 
ATOM     43  C   UNL     1     -10.594 -12.245   4.138  1.00  0.00     0.029 A 
ATOM     44  N   UNL     1     -11.757 -12.484   6.032  1.00  0.00    -0.354 N 
ATOM     45  C   UNL     1     -12.991  -9.035   8.337  1.00  0.00     0.074 A 
ATOM     46  C   UNL     1     -12.565  -7.806   7.699  1.00  0.00     0.031 C 
ATOM     47  C   UNL     1     -10.767 -13.561   4.342  1.00  0.00     0.029 A 
ATOM     48  C   UNL     1     -11.488 -13.762   5.595  1.00  0.00     0.049 A 
ATOM     49  H   UNL     1     -12.268 -12.292   6.851  1.00  0.00     0.167 HD
ATOM     50  C   UNL     1     -13.712  -9.094   9.485  1.00  0.00     0.034 A 
ATOM     51  C   UNL     1     -11.770 -14.958   6.149  1.00  0.00     0.034 A 
ATOM     52  C   UNL     1     -14.130 -10.325  10.110  1.00  0.00     0.049 A 
ATOM     53  C   UNL     1     -12.511 -14.996   7.463  1.00  0.00     0.074 A 
ATOM     54  C   UNL     1     -14.891 -10.496  11.254  1.00  0.00     0.029 A 
ATOM     55  N   UNL     1     -13.817 -11.599   9.651  1.00  0.00    -0.354 N 
ATOM     56  N   UNL     1     -12.959 -13.997   8.190  1.00  0.00    -0.248 NA
ATOM     57  C   UNL     1     -12.790 -16.322   8.030  1.00  0.00     0.031 C 
ATOM     58  C   UNL     1     -14.973 -11.864  11.528  1.00  0.00     0.029 A 
ATOM     59  C   UNL     1     -14.339 -12.556  10.509  1.00  0.00     0.049 A 
ATOM     60  H   UNL     1     -13.301 -11.794   8.836  1.00  0.00     0.167 HD
ATOM     61  C   UNL     1     -13.603 -14.580   9.279  1.00  0.00     0.074 A 
ATOM     62  C   UNL     1     -13.501 -16.013   9.103  1.00  0.00     0.031 C 
ATOM     63  C   UNL     1     -14.224 -13.984  10.329  1.00  0.00     0.034 A 
BRANCH  50  64
ATOM     64  C   UNL     1     -14.072  -7.785  10.149  1.00  0.00     0.023 A 
ATOM     65  C   UNL     1     -14.893  -6.838   9.512  1.00  0.00     0.031 A 
ATOM     66  C   UNL     1     -13.581  -7.473  11.429  1.00  0.00     0.131 A 
ATOM     67  C   UNL     1     -15.139  -5.599  10.123  1.00  0.00     0.055 A 
ATOM     68  C   UNL     1     -13.899  -6.273  12.068  1.00  0.00     0.041 A 
ATOM     69  F   UNL     1     -12.774  -8.327  12.079  1.00  0.00    -0.206 F 
ATOM     70  C   UNL     1     -14.671  -5.321  11.409  1.00  0.00     0.022 A 
BRANCH  67  71
ATOM     71  S   UNL     1     -15.957  -4.304   9.153  1.00  0.00     0.124 S 
ATOM     72  O   UNL     1     -15.044  -4.161   8.022  1.00  0.00    -0.237 OA
ATOM     73  O   UNL     1     -17.253  -4.903   8.856  1.00  0.00    -0.237 OA
ATOM     74  O   UNL     1     -15.991  -3.163  10.065  1.00  0.00    -0.744 OA
ENDBRANCH  67  71
ENDBRANCH  50  64
BRANCH  51  75
ATOM     75  C   UNL     1     -11.338 -16.227   5.490  1.00  0.00     0.023 A 
ATOM     76  C   UNL     1     -12.282 -17.179   5.071  1.00  0.00     0.031 A 
ATOM     77  C   UNL     1      -9.976 -16.539   5.332  1.00  0.00     0.131 A 
ATOM     78  C   UNL     1     -11.853 -18.419   4.575  1.00  0.00     0.055 A 
ATOM     79  C   UNL     1      -9.555 -17.748   4.776  1.00  0.00     0.041 A 
ATOM     80  F   UNL     1      -9.030 -15.667   5.716  1.00  0.00    -0.206 F 
ATOM     81  C   UNL     1     -10.496 -18.705   4.410  1.00  0.00     0.022 A 
BRANCH  78  82
ATOM     82  S   UNL     1     -13.096 -19.702   4.258  1.00  0.00     0.124 S 
ATOM     83  O   UNL     1     -13.737 -19.821   5.562  1.00  0.00    -0.237 OA
ATOM     84  O   UNL     1     -13.897 -19.092   3.202  1.00  0.00    -0.237 OA
ATOM     85  O   UNL     1     -12.298 -20.854   3.846  1.00  0.00    -0.744 OA
ENDBRANCH  78  82
ENDBRANCH  51  75
BRANCH  63  86
ATOM     86  C   UNL     1     -14.884 -14.890  11.342  1.00  0.00     0.023 A 
ATOM     87  C   UNL     1     -14.138 -15.763  12.153  1.00  0.00     0.031 A 
ATOM     88  C   UNL     1     -16.283 -14.886  11.489  1.00  0.00     0.131 A 
ATOM     89  C   UNL     1     -14.798 -16.639  13.029  1.00  0.00     0.055 A 
ATOM     90  C   UNL     1     -16.929 -15.711  12.411  1.00  0.00     0.041 A 
ATOM     91  F   UNL     1     -17.047 -14.076  10.739  1.00  0.00    -0.206 F 
ATOM     92  C   UNL     1     -16.186 -16.604  13.178  1.00  0.00     0.022 A 
BRANCH  89  93
ATOM     93  S   UNL     1     -13.823 -17.896  13.901  1.00  0.00     0.124 S 
ATOM     94  O   UNL     1     -13.214 -18.628  12.796  1.00  0.00    -0.237 OA
ATOM     95  O   UNL     1     -12.915 -17.085  14.706  1.00  0.00    -0.237 OA
ATOM     96  O   UNL     1     -14.825 -18.641  14.661  1.00  0.00    -0.744 OA
ENDBRANCH  89  93
ENDBRANCH  63  86
ENDBRANCH  37  38
ENDBRANCH  29  32
ENDBRANCH  27  28
ENDBRANCH  26  27
ENDBRANCH   1  26
TORSDOF 17
