REMARK SMILES O=C(NCCCCNC(=O)c1ccc([C@H]2CCCN(C(=O)c3ccc4[nH]ccc4c3)C2)cc1)c1ccc(-c2c3nc(c(-c4cc(S(=O)(=O)[O-])ccc4F)c4ccc([nH]4)c(-c4cc(S(=O)(=O)[O-])ccc4F)c4nc(c(-c5cc(S(=O)(=O)[O-])ccc5F)c5ccc2[nH]5)C=C4)C=C3)cc1
REMARK SMILES IDX 5 1 4 2 3 3 1 4 2 5 34 7 35 8 96 9 36 10 95 11 37 12 38 13
REMARK SMILES IDX 39 14 89 15 40 16 94 17 88 18 90 19 41 20 93 21 87 22 86 23
REMARK SMILES IDX 42 25 74 26 54 27 73 28 55 29 58 30 72 31 91 32 56 33 57 34
REMARK SMILES IDX 71 36 92 37 59 38 43 39 44 40 52 41 45 42 51 43 53 44 50 45
REMARK SMILES IDX 46 46 47 47 48 48 49 49 75 50 76 51 84 52 77 53 83 54 85 55
REMARK SMILES IDX 82 56 78 57 79 58 80 59 81 60 60 61 61 62 69 63 62 64 68 65
REMARK SMILES IDX 70 66 67 67 63 68 64 69 65 70 66 71 6 72 7 73 8 74 9 75
REMARK SMILES IDX 10 77 11 78 12 79 33 80 13 81 32 82 14 83 15 84 16 85 31 86
REMARK SMILES IDX 17 87 19 88 18 89 20 90 21 91 22 92 23 93 30 94 24 95 29 96
REMARK SMILES IDX 25 97 28 98 26 99 27 100
REMARK H PARENT 3 6 90 24 58 35 8 76 26 101
REMARK Flexibility Score: inf
ROOT
ATOM      1  C   UNL     1       5.017   4.619  18.217  1.00  0.00     0.023 C 
ENDROOT
BRANCH   1   2
ATOM      2  C   UNL     1       4.212   5.908  18.308  1.00  0.00     0.116 C 
BRANCH   2   3
ATOM      3  N   UNL     1       2.785   5.676  18.478  1.00  0.00    -0.352 N 
ATOM      4  O   UNL     1       0.795   5.708  19.542  1.00  0.00    -0.269 OA
ATOM      5  C   UNL     1       1.950   6.119  19.478  1.00  0.00     0.251 C 
ATOM      6  H   UNL     1       2.358   5.125  17.782  1.00  0.00     0.163 HD
BRANCH   5   7
ATOM      7  C   UNL     1       2.460   7.074  20.486  1.00  0.00     0.039 A 
ATOM      8  C   UNL     1       3.209   8.185  20.091  1.00  0.00     0.014 A 
ATOM      9  C   UNL     1       2.203   6.846  21.840  1.00  0.00     0.014 A 
ATOM     10  C   UNL     1       3.828   8.976  21.050  1.00  0.00     0.010 A 
ATOM     11  C   UNL     1       2.749   7.702  22.803  1.00  0.00     0.010 A 
ATOM     12  C   UNL     1       3.591   8.758  22.417  1.00  0.00    -0.014 A 
BRANCH  12  13
ATOM     13  C   UNL     1       4.181   9.688  23.415  1.00  0.00     0.031 A 
ATOM     14  C   UNL     1       5.189   9.213  24.425  1.00  0.00     0.074 A 
ATOM     15  C   UNL     1       3.816  10.985  23.378  1.00  0.00     0.049 A 
ATOM     16  N   UNL     1       5.794   9.892  25.367  1.00  0.00    -0.248 NA
ATOM     17  C   UNL     1       5.560   7.792  24.378  1.00  0.00     0.031 C 
ATOM     18  C   UNL     1       2.850  11.558  22.436  1.00  0.00     0.029 A 
ATOM     19  N   UNL     1       4.218  12.057  24.130  1.00  0.00    -0.354 N 
ATOM     20  C   UNL     1       6.609   8.982  26.033  1.00  0.00     0.074 A 
ATOM     21  C   UNL     1       6.389   7.694  25.407  1.00  0.00     0.031 C 
ATOM     22  C   UNL     1       2.772  12.880  22.635  1.00  0.00     0.029 A 
ATOM     23  C   UNL     1       3.616  13.239  23.768  1.00  0.00     0.049 A 
ATOM     24  H   UNL     1       4.876  11.988  24.860  1.00  0.00     0.167 HD
ATOM     25  C   UNL     1       7.464   9.207  27.064  1.00  0.00     0.034 A 
ATOM     26  C   UNL     1       3.706  14.472  24.303  1.00  0.00     0.034 A 
ATOM     27  C   UNL     1       7.662  10.501  27.676  1.00  0.00     0.049 A 
ATOM     28  C   UNL     1       4.610  14.679  25.486  1.00  0.00     0.074 A 
ATOM     29  C   UNL     1       8.518  10.845  28.710  1.00  0.00     0.029 A 
ATOM     30  N   UNL     1       6.990  11.665  27.320  1.00  0.00    -0.354 N 
ATOM     31  N   UNL     1       5.378  13.808  26.101  1.00  0.00    -0.248 NA
ATOM     32  C   UNL     1       4.661  16.033  26.048  1.00  0.00     0.031 C 
ATOM     33  C   UNL     1       8.310  12.192  29.026  1.00  0.00     0.029 A 
ATOM     34  C   UNL     1       7.386  12.716  28.136  1.00  0.00     0.049 A 
ATOM     35  H   UNL     1       6.330  11.735  26.593  1.00  0.00     0.167 HD
ATOM     36  C   UNL     1       6.020  14.518  27.110  1.00  0.00     0.074 A 
ATOM     37  C   UNL     1       5.565  15.890  27.006  1.00  0.00     0.031 C 
ATOM     38  C   UNL     1       6.908  14.076  28.036  1.00  0.00     0.034 A 
BRANCH  25  39
ATOM     39  C   UNL     1       8.212   8.018  27.623  1.00  0.00     0.023 A 
ATOM     40  C   UNL     1       9.142   7.296  26.854  1.00  0.00     0.031 A 
ATOM     41  C   UNL     1       7.984   7.593  28.944  1.00  0.00     0.131 A 
ATOM     42  C   UNL     1       9.756   6.152  27.387  1.00  0.00     0.055 A 
ATOM     43  C   UNL     1       8.658   6.500  29.495  1.00  0.00     0.041 A 
ATOM     44  F   UNL     1       7.094   8.228  29.723  1.00  0.00    -0.206 F 
ATOM     45  C   UNL     1       9.540   5.763  28.711  1.00  0.00     0.022 A 
BRANCH  42  46
ATOM     46  S   UNL     1      10.734   5.097  26.281  1.00  0.00     0.124 S 
ATOM     47  O   UNL     1       9.755   4.762  25.249  1.00  0.00    -0.237 OA
ATOM     48  O   UNL     1      11.815   5.985  25.872  1.00  0.00    -0.237 OA
ATOM     49  O   UNL     1      11.133   3.980  27.136  1.00  0.00    -0.744 OA
ENDBRANCH  42  46
ENDBRANCH  25  39
BRANCH  26  50
ATOM     50  C   UNL     1       2.889  15.589  23.750  1.00  0.00     0.023 A 
ATOM     51  C   UNL     1       3.497  16.712  23.171  1.00  0.00     0.031 A 
ATOM     52  C   UNL     1       1.484  15.557  23.816  1.00  0.00     0.131 A 
ATOM     53  C   UNL     1       2.703  17.776  22.714  1.00  0.00     0.055 A 
ATOM     54  C   UNL     1       0.698  16.590  23.307  1.00  0.00     0.041 A 
ATOM     55  F   UNL     1       0.853  14.503  24.358  1.00  0.00    -0.206 F 
ATOM     56  C   UNL     1       1.308  17.715  22.763  1.00  0.00     0.022 A 
BRANCH  53  57
ATOM     57  S   UNL     1       3.526  19.281  22.128  1.00  0.00     0.124 S 
ATOM     58  O   UNL     1       4.314  19.662  23.294  1.00  0.00    -0.237 OA
ATOM     59  O   UNL     1       4.276  18.788  20.978  1.00  0.00    -0.237 OA
ATOM     60  O   UNL     1       2.414  20.174  21.808  1.00  0.00    -0.744 OA
ENDBRANCH  53  57
ENDBRANCH  26  50
BRANCH  38  61
ATOM     61  C   UNL     1       7.470  15.107  28.985  1.00  0.00     0.023 A 
ATOM     62  C   UNL     1       6.663  15.751  29.940  1.00  0.00     0.031 A 
ATOM     63  C   UNL     1       8.827  15.467  28.914  1.00  0.00     0.131 A 
ATOM     64  C   UNL     1       7.207  16.762  30.745  1.00  0.00     0.055 A 
ATOM     65  C   UNL     1       9.377  16.430  29.761  1.00  0.00     0.041 A 
ATOM     66  F   UNL     1       9.642  14.888  28.017  1.00  0.00    -0.206 F 
ATOM     67  C   UNL     1       8.563  17.094  30.674  1.00  0.00     0.022 A 
BRANCH  64  68
ATOM     68  S   UNL     1       6.097  17.709  31.823  1.00  0.00     0.124 S 
ATOM     69  O   UNL     1       5.154  18.275  30.865  1.00  0.00    -0.237 OA
ATOM     70  O   UNL     1       5.566  16.678  32.708  1.00  0.00    -0.237 OA
ATOM     71  O   UNL     1       6.985  18.677  32.465  1.00  0.00    -0.744 OA
ENDBRANCH  64  68
ENDBRANCH  38  61
ENDBRANCH  12  13
ENDBRANCH   5   7
ENDBRANCH   2   3
ENDBRANCH   1   2
BRANCH   1  72
ATOM     72  C   UNL     1       4.698   3.741  17.011  1.00  0.00     0.023 C 
BRANCH  72  73
ATOM     73  C   UNL     1       4.770   4.443  15.659  1.00  0.00     0.116 C 
BRANCH  73  74
ATOM     74  N   UNL     1       6.087   4.993  15.368  1.00  0.00    -0.352 N 
ATOM     75  C   UNL     1       6.874   4.804  14.255  1.00  0.00     0.251 C 
ATOM     76  H   UNL     1       6.465   5.581  16.062  1.00  0.00     0.163 HD
ATOM     77  O   UNL     1       8.012   5.245  14.198  1.00  0.00    -0.269 OA
BRANCH  75  78
ATOM     78  C   UNL     1       6.333   4.014  13.134  1.00  0.00     0.039 A 
ATOM     79  C   UNL     1       7.019   2.875  12.719  1.00  0.00     0.014 A 
ATOM     80  C   UNL     1       5.122   4.365  12.541  1.00  0.00     0.014 A 
ATOM     81  C   UNL     1       6.423   2.019  11.792  1.00  0.00     0.005 A 
ATOM     82  C   UNL     1       4.520   3.493  11.635  1.00  0.00     0.005 A 
ATOM     83  C   UNL     1       5.132   2.276  11.291  1.00  0.00    -0.043 A 
BRANCH  83  84
ATOM     84  C   UNL     1       4.437   1.224  10.427  1.00  0.00     0.039 C 
ATOM     85  C   UNL     1       4.412  -0.146  11.155  1.00  0.00     0.012 C 
ATOM     86  C   UNL     1       2.996   1.601  10.010  1.00  0.00     0.128 C 
ATOM     87  C   UNL     1       3.657  -1.217  10.367  1.00  0.00     0.022 C 
ATOM     88  N   UNL     1       2.338   0.522   9.282  1.00  0.00    -0.338 N 
ATOM     89  C   UNL     1       2.256  -0.747  10.000  1.00  0.00     0.120 C 
BRANCH  88  90
ATOM     90  C   UNL     1       1.899   0.753   7.985  1.00  0.00     0.253 C 
ATOM     91  O   UNL     1       2.041   1.811   7.379  1.00  0.00    -0.269 OA
BRANCH  90  92
ATOM     92  C   UNL     1       1.237  -0.351   7.275  1.00  0.00     0.040 A 
ATOM     93  C   UNL     1       1.984  -1.107   6.371  1.00  0.00     0.016 A 
ATOM     94  C   UNL     1      -0.117  -0.611   7.523  1.00  0.00     0.024 A 
ATOM     95  C   UNL     1       1.400  -2.187   5.707  1.00  0.00     0.027 A 
ATOM     96  C   UNL     1      -0.719  -1.691   6.854  1.00  0.00     0.000 A 
ATOM     97  C   UNL     1       0.051  -2.456   5.975  1.00  0.00     0.045 A 
ATOM     98  C   UNL     1      -2.031  -2.240   6.850  1.00  0.00     0.028 A 
ATOM     99  N   UNL     1      -0.769  -3.444   5.477  1.00  0.00    -0.361 N 
ATOM    100  C   UNL     1      -2.032  -3.317   5.993  1.00  0.00     0.083 A 
ATOM    101  H   UNL     1      -0.488  -4.142   4.842  1.00  0.00     0.166 HD
ENDBRANCH  90  92
ENDBRANCH  88  90
ENDBRANCH  83  84
ENDBRANCH  75  78
ENDBRANCH  73  74
ENDBRANCH  72  73
ENDBRANCH   1  72
TORSDOF 17
