REMARK SMILES Cc1cc(C(=O)NCCCCNC(=O)c2ccc(-c3c4nc(c(-c5cc(S(=O)(=O)[O-])ccc5F)c5ccc([nH]5)c(-c5cc(S(=O)(=O)[O-])ccc5F)c5nc(c(-c6cc(S(=O)(=O)[O-])ccc6F)c6ccc3[nH]6)C=C5)C=C4)cc2)ccc1NC(=O)N1C[C@@H](C)[C@H](C)C1
REMARK SMILES IDX 10 1 9 2 8 3 7 4 5 5 6 6 4 8 1 9 2 10 3 11 80 12 79 13 78 14
REMARK SMILES IDX 81 15 82 16 83 18 84 19 85 20 90 21 86 22 88 23 87 24 89 25
REMARK SMILES IDX 11 26 12 27 13 28 14 30 15 31 16 32 77 33 17 34 76 35 18 36
REMARK SMILES IDX 19 37 20 38 70 39 21 40 75 41 69 42 71 43 22 44 74 45 68 46
REMARK SMILES IDX 67 47 23 49 55 50 35 51 54 52 36 53 39 54 53 55 72 56 37 57
REMARK SMILES IDX 38 58 52 60 73 61 40 62 24 63 25 64 33 65 26 66 32 67 34 68
REMARK SMILES IDX 31 69 27 70 28 71 29 72 30 73 56 74 57 75 65 76 58 77 64 78
REMARK SMILES IDX 66 79 63 80 59 81 60 82 61 83 62 84 41 85 42 86 50 87 43 88
REMARK SMILES IDX 49 89 51 90 48 91 44 92 45 93 46 94 47 95
REMARK H PARENT 7 7 81 17 12 29 71 48 39 59
REMARK Flexibility Score: inf
ROOT
ATOM      1  C   UNL     1      -5.703  -2.021  -1.999  1.00  0.00     0.023 C 
ENDROOT
BRANCH   1   2
ATOM      2  C   UNL     1      -4.851  -0.932  -1.353  1.00  0.00     0.023 C 
BRANCH   2   3
ATOM      3  C   UNL     1      -4.094  -1.363  -0.082  1.00  0.00     0.116 C 
BRANCH   3   4
ATOM      4  N   UNL     1      -3.118  -2.433  -0.316  1.00  0.00    -0.352 N 
ATOM      5  C   UNL     1      -1.744  -2.414  -0.417  1.00  0.00     0.251 C 
ATOM      6  O   UNL     1      -1.127  -3.479  -0.438  1.00  0.00    -0.269 OA
ATOM      7  H   UNL     1      -3.517  -3.327  -0.420  1.00  0.00     0.163 HD
BRANCH   5   8
ATOM      8  C   UNL     1      -0.980  -1.142  -0.473  1.00  0.00     0.040 A 
ATOM      9  C   UNL     1       2.423   0.135   0.631  1.00  0.00     0.046 C 
ATOM     10  C   UNL     1       1.004   0.168   0.136  1.00  0.00    -0.027 A 
ATOM     11  C   UNL     1       0.299  -1.059   0.092  1.00  0.00     0.019 A 
ATOM     12  C   UNL     1       0.363   1.329  -0.333  1.00  0.00     0.045 A 
ATOM     13  C   UNL     1      -0.823   1.188  -1.055  1.00  0.00     0.027 A 
ATOM     14  C   UNL     1      -1.470  -0.035  -1.143  1.00  0.00     0.016 A 
BRANCH  12  15
ATOM     15  N   UNL     1       0.906   2.615  -0.135  1.00  0.00    -0.308 N 
ATOM     16  C   UNL     1       0.293   3.826  -0.324  1.00  0.00     0.321 C 
ATOM     17  H   UNL     1       1.839   2.647   0.178  1.00  0.00     0.171 HD
ATOM     18  O   UNL     1       0.965   4.771  -0.744  1.00  0.00    -0.248 OA
ATOM     19  N   UNL     1      -1.041   3.945  -0.026  1.00  0.00    -0.324 N 
ATOM     20  C   UNL     1      -1.891   4.914  -0.694  1.00  0.00     0.125 C 
ATOM     21  C   UNL     1      -1.702   3.402   1.162  1.00  0.00     0.125 C 
ATOM     22  C   UNL     1      -3.043   5.178   0.272  1.00  0.00     0.010 C 
ATOM     23  C   UNL     1      -3.160   3.856   1.050  1.00  0.00     0.010 C 
ATOM     24  C   UNL     1      -4.327   5.575  -0.440  1.00  0.00     0.010 C 
ATOM     25  C   UNL     1      -3.850   4.013   2.401  1.00  0.00     0.010 C 
ENDBRANCH  12  15
ENDBRANCH   5   8
ENDBRANCH   3   4
ENDBRANCH   2   3
ENDBRANCH   1   2
BRANCH   1  26
ATOM     26  C   UNL     1      -7.010  -2.269  -1.263  1.00  0.00     0.116 C 
BRANCH  26  27
ATOM     27  N   UNL     1      -8.177  -1.640  -1.872  1.00  0.00    -0.352 N 
ATOM     28  C   UNL     1      -9.505  -1.711  -1.471  1.00  0.00     0.251 C 
ATOM     29  H   UNL     1      -8.000  -1.094  -2.672  1.00  0.00     0.163 HD
ATOM     30  O   UNL     1     -10.404  -1.224  -2.132  1.00  0.00    -0.269 OA
BRANCH  28  31
ATOM     31  C   UNL     1      -9.796  -2.294  -0.138  1.00  0.00     0.039 A 
ATOM     32  C   UNL     1     -10.435  -1.468   0.793  1.00  0.00     0.014 A 
ATOM     33  C   UNL     1      -9.190  -3.479   0.261  1.00  0.00     0.014 A 
ATOM     34  C   UNL     1     -10.236  -1.699   2.151  1.00  0.00     0.010 A 
ATOM     35  C   UNL     1      -8.889  -3.639   1.599  1.00  0.00     0.010 A 
ATOM     36  C   UNL     1      -9.353  -2.707   2.536  1.00  0.00    -0.014 A 
BRANCH  36  37
ATOM     37  C   UNL     1      -8.720  -2.744   3.851  1.00  0.00     0.031 A 
ATOM     38  C   UNL     1      -9.004  -3.835   4.804  1.00  0.00     0.074 A 
ATOM     39  C   UNL     1      -7.795  -1.810   4.165  1.00  0.00     0.049 A 
ATOM     40  N   UNL     1      -8.829  -3.756   6.080  1.00  0.00    -0.248 NA
ATOM     41  C   UNL     1      -9.570  -5.109   4.384  1.00  0.00     0.031 C 
ATOM     42  C   UNL     1      -6.851  -1.831   5.279  1.00  0.00     0.029 A 
ATOM     43  N   UNL     1      -7.698  -0.519   3.656  1.00  0.00    -0.354 N 
ATOM     44  C   UNL     1      -8.943  -5.026   6.598  1.00  0.00     0.074 A 
ATOM     45  C   UNL     1      -9.499  -5.808   5.519  1.00  0.00     0.031 C 
ATOM     46  C   UNL     1      -6.456  -0.574   5.537  1.00  0.00     0.029 A 
ATOM     47  C   UNL     1      -7.242   0.309   4.694  1.00  0.00     0.049 A 
ATOM     48  H   UNL     1      -7.910  -0.238   2.736  1.00  0.00     0.167 HD
ATOM     49  C   UNL     1      -8.408  -5.297   7.825  1.00  0.00     0.034 A 
ATOM     50  C   UNL     1      -8.004   1.350   5.141  1.00  0.00     0.034 A 
ATOM     51  C   UNL     1      -7.913  -4.077   8.473  1.00  0.00     0.049 A 
ATOM     52  C   UNL     1      -8.406   1.226   6.594  1.00  0.00     0.074 A 
ATOM     53  C   UNL     1      -6.643  -3.555   8.660  1.00  0.00     0.029 A 
ATOM     54  N   UNL     1      -8.804  -3.059   8.802  1.00  0.00    -0.354 N 
ATOM     55  N   UNL     1      -8.312   0.124   7.287  1.00  0.00    -0.248 NA
ATOM     56  C   UNL     1      -8.958   2.327   7.377  1.00  0.00     0.031 C 
ATOM     57  C   UNL     1      -6.777  -2.192   9.034  1.00  0.00     0.029 A 
ATOM     58  C   UNL     1      -8.127  -1.893   9.109  1.00  0.00     0.049 A 
ATOM     59  H   UNL     1      -9.784  -3.156   8.814  1.00  0.00     0.167 HD
ATOM     60  C   UNL     1      -8.791   0.330   8.556  1.00  0.00     0.074 A 
ATOM     61  C   UNL     1      -9.156   1.737   8.569  1.00  0.00     0.031 C 
ATOM     62  C   UNL     1      -8.854  -0.682   9.475  1.00  0.00     0.034 A 
BRANCH  49  63
ATOM     63  C   UNL     1      -8.030  -6.694   8.294  1.00  0.00     0.023 A 
ATOM     64  C   UNL     1      -6.977  -6.845   9.224  1.00  0.00     0.031 A 
ATOM     65  C   UNL     1      -8.585  -7.902   7.832  1.00  0.00     0.131 A 
ATOM     66  C   UNL     1      -6.449  -8.111   9.548  1.00  0.00     0.055 A 
ATOM     67  C   UNL     1      -8.027  -9.159   8.107  1.00  0.00     0.041 A 
ATOM     68  F   UNL     1      -9.734  -7.939   7.148  1.00  0.00    -0.206 F 
ATOM     69  C   UNL     1      -6.940  -9.268   8.957  1.00  0.00     0.022 A 
BRANCH  66  70
ATOM     70  S   UNL     1      -5.104  -8.225  10.760  1.00  0.00     0.124 S 
ATOM     71  O   UNL     1      -4.059  -7.418  10.141  1.00  0.00    -0.237 OA
ATOM     72  O   UNL     1      -5.724  -7.673  11.960  1.00  0.00    -0.237 OA
ATOM     73  O   UNL     1      -4.823  -9.660  10.819  1.00  0.00    -0.744 OA
ENDBRANCH  66  70
ENDBRANCH  49  63
BRANCH  50  74
ATOM     74  C   UNL     1      -8.804   1.992   4.059  1.00  0.00     0.023 A 
ATOM     75  C   UNL     1      -8.083   2.499   2.957  1.00  0.00     0.031 A 
ATOM     76  C   UNL     1     -10.174   1.752   3.890  1.00  0.00     0.131 A 
ATOM     77  C   UNL     1      -8.681   2.579   1.693  1.00  0.00     0.055 A 
ATOM     78  C   UNL     1     -10.789   1.912   2.640  1.00  0.00     0.041 A 
ATOM     79  F   UNL     1     -10.906   1.236   4.888  1.00  0.00    -0.206 F 
ATOM     80  C   UNL     1     -10.033   2.282   1.524  1.00  0.00     0.022 A 
BRANCH  77  81
ATOM     81  S   UNL     1      -7.595   2.799   0.252  1.00  0.00     0.124 S 
ATOM     82  O   UNL     1      -7.376   4.240   0.257  1.00  0.00    -0.237 OA
ATOM     83  O   UNL     1      -6.434   1.978   0.598  1.00  0.00    -0.237 OA
ATOM     84  O   UNL     1      -8.385   2.284  -0.862  1.00  0.00    -0.744 OA
ENDBRANCH  77  81
ENDBRANCH  50  74
BRANCH  62  85
ATOM     85  C   UNL     1      -9.527  -0.613  10.833  1.00  0.00     0.023 A 
ATOM     86  C   UNL     1     -10.463   0.368  11.189  1.00  0.00     0.031 A 
ATOM     87  C   UNL     1      -9.292  -1.613  11.811  1.00  0.00     0.131 A 
ATOM     88  C   UNL     1     -11.051   0.388  12.469  1.00  0.00     0.055 A 
ATOM     89  C   UNL     1      -9.937  -1.638  13.051  1.00  0.00     0.041 A 
ATOM     90  F   UNL     1      -8.428  -2.618  11.603  1.00  0.00    -0.206 F 
ATOM     91  C   UNL     1     -10.813  -0.622  13.395  1.00  0.00     0.022 A 
BRANCH  88  92
ATOM     92  S   UNL     1     -12.088   1.806  12.917  1.00  0.00     0.124 S 
ATOM     93  O   UNL     1     -11.138   2.911  12.828  1.00  0.00    -0.237 OA
ATOM     94  O   UNL     1     -13.122   1.776  11.888  1.00  0.00    -0.237 OA
ATOM     95  O   UNL     1     -12.544   1.487  14.268  1.00  0.00    -0.744 OA
ENDBRANCH  88  92
ENDBRANCH  62  85
ENDBRANCH  36  37
ENDBRANCH  28  31
ENDBRANCH  26  27
ENDBRANCH   1  26
TORSDOF 15
