REMARK SMILES C[C@@H](CC(=O)NCCCCNC(=O)c1ccc(-c2c3nc(c(-c4cc(S(=O)(=O)[O-])ccc4F)c4ccc([nH]4)c(-c4cc(S(=O)(=O)[O-])ccc4F)c4nc(c(-c5cc(S(=O)(=O)[O-])ccc5F)c5ccc2[nH]5)C=C4)C=C3)cc1)Cc1nnc(C2C(C)(C)C2(C)C)o1
REMARK SMILES IDX 8 1 7 2 6 3 4 4 5 5 3 7 2 8 1 9 77 10 78 11 79 12 89 13
REMARK SMILES IDX 80 14 81 15 82 16 83 17 86 18 84 19 85 20 87 21 88 22 9 23
REMARK SMILES IDX 10 24 11 25 12 26 13 28 14 29 15 30 76 31 16 32 75 33 17 34
REMARK SMILES IDX 18 35 19 36 69 37 20 38 74 39 68 40 70 41 21 42 73 43 67 44
REMARK SMILES IDX 66 45 22 47 54 48 34 49 53 50 35 51 38 52 52 53 71 54 36 55
REMARK SMILES IDX 37 56 51 58 72 59 39 60 23 61 24 62 32 63 25 64 31 65 33 66
REMARK SMILES IDX 30 67 26 68 27 69 28 70 29 71 55 72 56 73 64 74 57 75 63 76
REMARK SMILES IDX 65 77 62 78 58 79 59 80 60 81 61 82 40 83 41 84 49 85 42 86
REMARK SMILES IDX 48 87 50 88 47 89 43 90 44 91 45 92 46 93
REMARK H PARENT 6 6 11 27 70 46 38 57
REMARK Flexibility Score: inf
ROOT
ATOM      1  C   UNL     1       0.886  -0.683   2.202  1.00  0.00     0.023 C 
ENDROOT
BRANCH   1   2
ATOM      2  C   UNL     1       1.604  -1.754   1.378  1.00  0.00     0.116 C 
BRANCH   2   3
ATOM      3  N   UNL     1       0.646  -2.585   0.678  1.00  0.00    -0.356 N 
ATOM      4  C   UNL     1       0.257  -2.566  -0.623  1.00  0.00     0.220 C 
ATOM      5  O   UNL     1      -0.672  -3.299  -0.968  1.00  0.00    -0.275 OA
ATOM      6  H   UNL     1       0.208  -3.270   1.233  1.00  0.00     0.163 HD
BRANCH   4   7
ATOM      7  C   UNL     1       0.949  -1.679  -1.645  1.00  0.00     0.103 C 
BRANCH   7   8
ATOM      8  C   UNL     1       0.482  -0.209  -1.755  1.00  0.00     0.004 C 
ATOM      9  C   UNL     1       1.301   0.707  -0.845  1.00  0.00     0.009 C 
BRANCH   8  10
ATOM     10  C   UNL     1      -1.048  -0.056  -1.618  1.00  0.00     0.103 C 
BRANCH  10  11
ATOM     11  C   UNL     1      -1.560   1.327  -1.407  1.00  0.00     0.216 A 
ATOM     12  N   UNL     1      -2.620   1.692  -0.720  1.00  0.00    -0.113 NA
ATOM     13  O   UNL     1      -0.843   2.396  -1.878  1.00  0.00    -0.425 OA
ATOM     14  N   UNL     1      -2.591   3.064  -0.666  1.00  0.00    -0.113 NA
ATOM     15  C   UNL     1      -1.516   3.456  -1.323  1.00  0.00     0.220 A 
BRANCH  15  16
ATOM     16  C   UNL     1      -1.127   4.927  -1.370  1.00  0.00     0.090 C 
ATOM     17  C   UNL     1       0.326   5.415  -1.344  1.00  0.00    -0.017 C 
ATOM     18  C   UNL     1      -0.520   5.592  -2.604  1.00  0.00    -0.017 C 
ATOM     19  C   UNL     1       0.607   6.601  -0.439  1.00  0.00     0.012 C 
ATOM     20  C   UNL     1       1.508   4.477  -1.369  1.00  0.00     0.012 C 
ATOM     21  C   UNL     1      -0.212   4.792  -3.852  1.00  0.00     0.012 C 
ATOM     22  C   UNL     1      -1.040   6.973  -2.949  1.00  0.00     0.012 C 
ENDBRANCH  15  16
ENDBRANCH  10  11
ENDBRANCH   8  10
ENDBRANCH   7   8
ENDBRANCH   4   7
ENDBRANCH   2   3
ENDBRANCH   1   2
BRANCH   1  23
ATOM     23  C   UNL     1       0.400  -1.146   3.571  1.00  0.00     0.023 C 
BRANCH  23  24
ATOM     24  C   UNL     1       1.503  -1.560   4.533  1.00  0.00     0.116 C 
BRANCH  24  25
ATOM     25  N   UNL     1       2.477  -0.510   4.790  1.00  0.00    -0.352 N 
ATOM     26  C   UNL     1       3.116  -0.207   5.968  1.00  0.00     0.251 C 
ATOM     27  H   UNL     1       2.708   0.057   4.019  1.00  0.00     0.163 HD
ATOM     28  O   UNL     1       3.831   0.789   6.037  1.00  0.00    -0.269 OA
BRANCH  26  29
ATOM     29  C   UNL     1       2.899  -1.064   7.154  1.00  0.00     0.039 A 
ATOM     30  C   UNL     1       2.661  -0.462   8.391  1.00  0.00     0.014 A 
ATOM     31  C   UNL     1       2.893  -2.457   7.037  1.00  0.00     0.014 A 
ATOM     32  C   UNL     1       2.365  -1.259   9.499  1.00  0.00     0.010 A 
ATOM     33  C   UNL     1       2.495  -3.240   8.114  1.00  0.00     0.010 A 
ATOM     34  C   UNL     1       2.252  -2.653   9.363  1.00  0.00    -0.014 A 
BRANCH  34  35
ATOM     35  C   UNL     1       1.941  -3.516  10.530  1.00  0.00     0.031 A 
ATOM     36  C   UNL     1       2.947  -4.540  10.988  1.00  0.00     0.074 A 
ATOM     37  C   UNL     1       0.747  -3.409  11.146  1.00  0.00     0.049 A 
ATOM     38  N   UNL     1       2.862  -5.410  11.961  1.00  0.00    -0.248 NA
ATOM     39  C   UNL     1       4.199  -4.624  10.220  1.00  0.00     0.031 C 
ATOM     40  C   UNL     1      -0.332  -2.501  10.749  1.00  0.00     0.029 A 
ATOM     41  N   UNL     1       0.239  -4.068  12.236  1.00  0.00    -0.354 N 
ATOM     42  C   UNL     1       4.038  -6.152  11.909  1.00  0.00     0.074 A 
ATOM     43  C   UNL     1       4.777  -5.686  10.757  1.00  0.00     0.031 C 
ATOM     44  C   UNL     1      -1.355  -2.631  11.609  1.00  0.00     0.029 A 
ATOM     45  C   UNL     1      -1.022  -3.652  12.596  1.00  0.00     0.049 A 
ATOM     46  H   UNL     1       0.731  -4.772  12.717  1.00  0.00     0.167 HD
ATOM     47  C   UNL     1       4.480  -7.107  12.764  1.00  0.00     0.034 A 
ATOM     48  C   UNL     1      -1.813  -4.048  13.613  1.00  0.00     0.034 A 
ATOM     49  C   UNL     1       3.740  -7.538  13.924  1.00  0.00     0.049 A 
ATOM     50  C   UNL     1      -1.294  -5.096  14.565  1.00  0.00     0.074 A 
ATOM     51  C   UNL     1       4.107  -8.454  14.893  1.00  0.00     0.029 A 
ATOM     52  N   UNL     1       2.475  -7.078  14.272  1.00  0.00    -0.354 N 
ATOM     53  N   UNL     1      -0.150  -5.743  14.540  1.00  0.00    -0.248 NA
ATOM     54  C   UNL     1      -2.163  -5.449  15.693  1.00  0.00     0.031 C 
ATOM     55  C   UNL     1       3.043  -8.591  15.792  1.00  0.00     0.029 A 
ATOM     56  C   UNL     1       2.039  -7.707  15.428  1.00  0.00     0.049 A 
ATOM     57  H   UNL     1       1.963  -6.403  13.770  1.00  0.00     0.167 HD
ATOM     58  C   UNL     1      -0.153  -6.560  15.668  1.00  0.00     0.074 A 
ATOM     59  C   UNL     1      -1.399  -6.301  16.360  1.00  0.00     0.031 C 
ATOM     60  C   UNL     1       0.785  -7.445  16.094  1.00  0.00     0.034 A 
BRANCH  47  61
ATOM     61  C   UNL     1       5.814  -7.748  12.456  1.00  0.00     0.023 A 
ATOM     62  C   UNL     1       7.002  -6.993  12.406  1.00  0.00     0.031 A 
ATOM     63  C   UNL     1       5.898  -9.119  12.158  1.00  0.00     0.131 A 
ATOM     64  C   UNL     1       8.196  -7.590  11.976  1.00  0.00     0.055 A 
ATOM     65  C   UNL     1       7.109  -9.727  11.820  1.00  0.00     0.041 A 
ATOM     66  F   UNL     1       4.799  -9.889  12.167  1.00  0.00    -0.206 F 
ATOM     67  C   UNL     1       8.265  -8.958  11.709  1.00  0.00     0.022 A 
BRANCH  64  68
ATOM     68  S   UNL     1       9.617  -6.520  11.616  1.00  0.00     0.124 S 
ATOM     69  O   UNL     1       9.074  -5.654  10.572  1.00  0.00    -0.237 OA
ATOM     70  O   UNL     1       9.870  -5.886  12.904  1.00  0.00    -0.237 OA
ATOM     71  O   UNL     1      10.645  -7.456  11.167  1.00  0.00    -0.744 OA
ENDBRANCH  64  68
ENDBRANCH  47  61
BRANCH  48  72
ATOM     72  C   UNL     1      -3.166  -3.448  13.802  1.00  0.00     0.023 A 
ATOM     73  C   UNL     1      -3.464  -2.680  14.939  1.00  0.00     0.031 A 
ATOM     74  C   UNL     1      -4.194  -3.670  12.869  1.00  0.00     0.131 A 
ATOM     75  C   UNL     1      -4.769  -2.206  15.142  1.00  0.00     0.055 A 
ATOM     76  C   UNL     1      -5.478  -3.152  13.050  1.00  0.00     0.041 A 
ATOM     77  F   UNL     1      -3.961  -4.390  11.760  1.00  0.00    -0.206 F 
ATOM     78  C   UNL     1      -5.775  -2.427  14.200  1.00  0.00     0.022 A 
BRANCH  75  79
ATOM     79  S   UNL     1      -5.155  -1.366  16.703  1.00  0.00     0.124 S 
ATOM     80  O   UNL     1      -4.791  -2.381  17.686  1.00  0.00    -0.237 OA
ATOM     81  O   UNL     1      -4.286  -0.195  16.639  1.00  0.00    -0.237 OA
ATOM     82  O   UNL     1      -6.585  -1.085  16.595  1.00  0.00    -0.744 OA
ENDBRANCH  75  79
ENDBRANCH  48  72
BRANCH  60  83
ATOM     83  C   UNL     1       0.499  -8.164  17.390  1.00  0.00     0.023 A 
ATOM     84  C   UNL     1      -0.573  -9.064  17.512  1.00  0.00     0.031 A 
ATOM     85  C   UNL     1       1.289  -7.917  18.527  1.00  0.00     0.131 A 
ATOM     86  C   UNL     1      -0.874  -9.627  18.761  1.00  0.00     0.055 A 
ATOM     87  C   UNL     1       1.027  -8.534  19.751  1.00  0.00     0.041 A 
ATOM     88  F   UNL     1       2.326  -7.066  18.468  1.00  0.00    -0.206 F 
ATOM     89  C   UNL     1      -0.070  -9.381  19.878  1.00  0.00     0.022 A 
BRANCH  86  90
ATOM     90  S   UNL     1      -2.402 -10.588  18.934  1.00  0.00     0.124 S 
ATOM     91  O   UNL     1      -3.412  -9.636  18.484  1.00  0.00    -0.237 OA
ATOM     92  O   UNL     1      -2.157 -11.723  18.051  1.00  0.00    -0.237 OA
ATOM     93  O   UNL     1      -2.445 -10.910  20.360  1.00  0.00    -0.744 OA
ENDBRANCH  86  90
ENDBRANCH  60  83
ENDBRANCH  34  35
ENDBRANCH  26  29
ENDBRANCH  24  25
ENDBRANCH  23  24
ENDBRANCH   1  23
TORSDOF 18
