REMARK SMILES CC[C@@H](C)[NH2+][C@H](CN=[N+]=[N-])C(=O)NCCCCNC(=O)c1ccc(-c2c3nc(c(-c4cc(S(=O)(=O)[O-])ccc4F)c4ccc([nH]4)c(-c4cc(S(=O)(=O)[O-])ccc4F)c4nc(c(-c5cc(S(=O)(=O)[O-])ccc5F)c5ccc2[nH]5)C=C4)C=C3)cc1
REMARK SMILES IDX 15 1 14 2 13 3 11 4 12 5 6 7 5 8 3 11 4 12 2 13 1 14 7 15
REMARK SMILES IDX 8 16 9 17 10 18 16 19 17 20 18 21 19 22 20 24 21 25 22 26
REMARK SMILES IDX 83 27 23 28 82 29 24 30 25 31 26 32 76 33 27 34 81 35 75 36
REMARK SMILES IDX 77 37 28 38 80 39 74 40 73 41 29 43 61 44 41 45 60 46 42 47
REMARK SMILES IDX 45 48 59 49 78 50 43 51 44 52 58 54 79 55 46 56 30 57 31 58
REMARK SMILES IDX 39 59 32 60 38 61 40 62 37 63 33 64 34 65 35 66 36 67 62 68
REMARK SMILES IDX 63 69 71 70 64 71 70 72 72 73 69 74 65 75 66 76 67 77 68 78
REMARK SMILES IDX 47 79 48 80 56 81 49 82 55 83 57 84 54 85 50 86 51 87 52 88
REMARK SMILES IDX 53 89
REMARK H PARENT 13 6 5 9 5 10 18 23 77 42 45 53
REMARK Flexibility Score: inf
ROOT
ATOM      1  C   UNL     1      -2.682   4.061  -4.063  1.00  0.00     0.023 C 
ENDROOT
BRANCH   1   2
ATOM      2  C   UNL     1      -1.882   3.550  -5.256  1.00  0.00     0.116 C 
BRANCH   2   3
ATOM      3  N   UNL     1      -0.438   3.741  -5.193  1.00  0.00    -0.351 N 
ATOM      4  C   UNL     1       0.662   2.942  -5.257  1.00  0.00     0.278 C 
ATOM      5  O   UNL     1       1.575   3.407  -5.963  1.00  0.00    -0.268 OA
ATOM      6  H   UNL     1      -0.198   4.688  -5.073  1.00  0.00     0.163 HD
BRANCH   4   7
ATOM      7  C   UNL     1       0.995   1.709  -4.367  1.00  0.00     0.278 C 
BRANCH   7   8
ATOM      8  N   UNL     1       0.396   0.383  -4.724  1.00  0.00    -0.334 N 
ATOM      9  H   UNL     1       0.749   0.113  -5.642  1.00  0.00     0.347 HD
ATOM     10  H   UNL     1       0.666  -0.263  -3.982  1.00  0.00     0.347 HD
BRANCH   8  11
ATOM     11  C   UNL     1      -1.057   0.360  -4.775  1.00  0.00     0.179 C 
ATOM     12  C   UNL     1      -1.673   0.606  -3.397  1.00  0.00     0.075 C 
BRANCH  11  13
ATOM     13  C   UNL     1      -1.677  -0.885  -5.432  1.00  0.00     0.061 C 
ATOM     14  C   UNL     1      -3.102  -0.567  -5.911  1.00  0.00     0.010 C 
ENDBRANCH  11  13
ENDBRANCH   8  11
ENDBRANCH   7   8
BRANCH   7  15
ATOM     15  C   UNL     1       1.213   2.002  -2.860  1.00  0.00     0.166 C 
BRANCH  15  16
ATOM     16  N   UNL     1       0.912   3.384  -2.459  1.00  0.00    -0.087 NA
ATOM     17  N   UNL     1       1.848   4.204  -2.563  1.00  0.00     0.001 N 
ATOM     18  N   UNL     1       2.707   4.943  -2.645  1.00  0.00    -0.003 NA
ENDBRANCH  15  16
ENDBRANCH   7  15
ENDBRANCH   4   7
ENDBRANCH   2   3
ENDBRANCH   1   2
BRANCH   1  19
ATOM     19  C   UNL     1      -3.940   4.815  -4.509  1.00  0.00     0.023 C 
BRANCH  19  20
ATOM     20  C   UNL     1      -4.824   4.110  -5.538  1.00  0.00     0.116 C 
BRANCH  20  21
ATOM     21  N   UNL     1      -5.651   3.039  -5.003  1.00  0.00    -0.352 N 
ATOM     22  C   UNL     1      -6.992   2.815  -5.257  1.00  0.00     0.251 C 
ATOM     23  H   UNL     1      -5.207   2.405  -4.395  1.00  0.00     0.163 HD
ATOM     24  O   UNL     1      -7.587   1.887  -4.722  1.00  0.00    -0.269 OA
BRANCH  22  25
ATOM     25  C   UNL     1      -7.707   3.769  -6.136  1.00  0.00     0.039 A 
ATOM     26  C   UNL     1      -8.739   4.533  -5.589  1.00  0.00     0.014 A 
ATOM     27  C   UNL     1      -7.236   4.030  -7.426  1.00  0.00     0.014 A 
ATOM     28  C   UNL     1      -9.217   5.641  -6.292  1.00  0.00     0.010 A 
ATOM     29  C   UNL     1      -7.659   5.182  -8.088  1.00  0.00     0.010 A 
ATOM     30  C   UNL     1      -8.630   6.020  -7.512  1.00  0.00    -0.014 A 
BRANCH  30  31
ATOM     31  C   UNL     1      -8.968   7.322  -8.154  1.00  0.00     0.031 A 
ATOM     32  C   UNL     1      -9.586   7.354  -9.525  1.00  0.00     0.074 A 
ATOM     33  C   UNL     1      -8.653   8.476  -7.526  1.00  0.00     0.049 A 
ATOM     34  N   UNL     1      -9.885   8.387 -10.270  1.00  0.00    -0.248 NA
ATOM     35  C   UNL     1      -9.891   6.057 -10.148  1.00  0.00     0.031 C 
ATOM     36  C   UNL     1      -8.015   8.576  -6.210  1.00  0.00     0.029 A 
ATOM     37  N   UNL     1      -8.815   9.788  -7.907  1.00  0.00    -0.354 N 
ATOM     38  C   UNL     1     -10.401   7.868 -11.452  1.00  0.00     0.074 A 
ATOM     39  C   UNL     1     -10.334   6.427 -11.342  1.00  0.00     0.031 C 
ATOM     40  C   UNL     1      -7.863   9.870  -5.886  1.00  0.00     0.029 A 
ATOM     41  C   UNL     1      -8.331  10.699  -6.992  1.00  0.00     0.049 A 
ATOM     42  H   UNL     1      -9.238  10.053  -8.755  1.00  0.00     0.167 HD
ATOM     43  C   UNL     1     -10.897   8.534 -12.522  1.00  0.00     0.034 A 
ATOM     44  C   UNL     1      -8.246  12.046  -7.046  1.00  0.00     0.034 A 
ATOM     45  C   UNL     1     -10.970   9.972 -12.611  1.00  0.00     0.049 A 
ATOM     46  C   UNL     1      -8.763  12.755  -8.276  1.00  0.00     0.074 A 
ATOM     47  C   UNL     1     -11.529  10.740 -13.618  1.00  0.00     0.029 A 
ATOM     48  N   UNL     1     -10.455  10.858 -11.676  1.00  0.00    -0.354 N 
ATOM     49  N   UNL     1      -9.328  12.244  -9.347  1.00  0.00    -0.248 NA
ATOM     50  C   UNL     1      -8.636  14.219  -8.307  1.00  0.00     0.031 C 
ATOM     51  C   UNL     1     -11.268  12.084 -13.340  1.00  0.00     0.029 A 
ATOM     52  C   UNL     1     -10.630  12.162 -12.113  1.00  0.00     0.049 A 
ATOM     53  H   UNL     1     -10.027  10.599 -10.828  1.00  0.00     0.167 HD
ATOM     54  C   UNL     1      -9.642  13.329 -10.162  1.00  0.00     0.074 A 
ATOM     55  C   UNL     1      -9.235  14.519  -9.448  1.00  0.00     0.031 C 
ATOM     56  C   UNL     1     -10.210  13.341 -11.395  1.00  0.00     0.034 A 
BRANCH  43  57
ATOM     57  C   UNL     1     -11.374   7.727 -13.703  1.00  0.00     0.023 A 
ATOM     58  C   UNL     1     -12.492   6.880 -13.623  1.00  0.00     0.031 A 
ATOM     59  C   UNL     1     -10.722   7.845 -14.944  1.00  0.00     0.131 A 
ATOM     60  C   UNL     1     -12.900   6.155 -14.753  1.00  0.00     0.055 A 
ATOM     61  C   UNL     1     -11.176   7.176 -16.081  1.00  0.00     0.041 A 
ATOM     62  F   UNL     1      -9.634   8.621 -15.072  1.00  0.00    -0.206 F 
ATOM     63  C   UNL     1     -12.268   6.319 -15.988  1.00  0.00     0.022 A 
BRANCH  60  64
ATOM     64  S   UNL     1     -14.210   4.915 -14.563  1.00  0.00     0.124 S 
ATOM     65  O   UNL     1     -13.624   4.016 -13.572  1.00  0.00    -0.237 OA
ATOM     66  O   UNL     1     -15.341   5.717 -14.108  1.00  0.00    -0.237 OA
ATOM     67  O   UNL     1     -14.345   4.351 -15.904  1.00  0.00    -0.744 OA
ENDBRANCH  60  64
ENDBRANCH  43  57
BRANCH  44  68
ATOM     68  C   UNL     1      -7.603  12.825  -5.943  1.00  0.00     0.023 A 
ATOM     69  C   UNL     1      -8.306  13.829  -5.256  1.00  0.00     0.031 A 
ATOM     70  C   UNL     1      -6.243  12.649  -5.627  1.00  0.00     0.131 A 
ATOM     71  C   UNL     1      -7.631  14.664  -4.350  1.00  0.00     0.055 A 
ATOM     72  C   UNL     1      -5.596  13.431  -4.669  1.00  0.00     0.041 A 
ATOM     73  F   UNL     1      -5.515  11.710  -6.254  1.00  0.00    -0.206 F 
ATOM     74  C   UNL     1      -6.286  14.461  -4.039  1.00  0.00     0.022 A 
BRANCH  71  75
ATOM     75  S   UNL     1      -8.502  16.117  -3.698  1.00  0.00     0.124 S 
ATOM     76  O   UNL     1      -8.918  16.787  -4.925  1.00  0.00    -0.237 OA
ATOM     77  O   UNL     1      -9.565  15.504  -2.909  1.00  0.00    -0.237 OA
ATOM     78  O   UNL     1      -7.474  16.811  -2.925  1.00  0.00    -0.744 OA
ENDBRANCH  71  75
ENDBRANCH  44  68
BRANCH  56  79
ATOM     79  C   UNL     1     -10.448  14.688 -12.033  1.00  0.00     0.023 A 
ATOM     80  C   UNL     1      -9.382  15.522 -12.412  1.00  0.00     0.031 A 
ATOM     81  C   UNL     1     -11.758  15.142 -12.269  1.00  0.00     0.131 A 
ATOM     82  C   UNL     1      -9.644  16.787 -12.957  1.00  0.00     0.055 A 
ATOM     83  C   UNL     1     -12.012  16.372 -12.876  1.00  0.00     0.041 A 
ATOM     84  F   UNL     1     -12.815  14.389 -11.923  1.00  0.00    -0.206 F 
ATOM     85  C   UNL     1     -10.951  17.208 -13.213  1.00  0.00     0.022 A 
BRANCH  82  86
ATOM     86  S   UNL     1      -8.253  17.914 -13.247  1.00  0.00     0.124 S 
ATOM     87  O   UNL     1      -7.695  18.056 -11.906  1.00  0.00    -0.237 OA
ATOM     88  O   UNL     1      -7.438  17.168 -14.200  1.00  0.00    -0.237 OA
ATOM     89  O   UNL     1      -8.891  19.114 -13.784  1.00  0.00    -0.744 OA
ENDBRANCH  82  86
ENDBRANCH  56  79
ENDBRANCH  30  31
ENDBRANCH  22  25
ENDBRANCH  20  21
ENDBRANCH  19  20
ENDBRANCH   1  19
TORSDOF 19
