REMARK SMILES CN(Cc1ccnn1C)C(=O)c1c(C(=O)NCCCCNC(=O)c2ccc(-c3c4nc(c(-c5cc(S(=O)(=O)[O-])ccc5F)c5ccc([nH]5)c(-c5cc(S(=O)(=O)[O-])ccc5F)c5nc(c(-c6cc(S(=O)(=O)[O-])ccc6F)c6ccc3[nH]6)C=C5)C=C4)cc2)cnn1C
REMARK SMILES IDX 18 1 17 2 16 3 14 4 15 5 13 7 12 8 89 9 87 10 88 11 90 12
REMARK SMILES IDX 10 13 11 14 2 15 1 16 3 17 4 18 5 19 8 20 6 21 7 22 9 23
REMARK SMILES IDX 19 24 20 25 21 26 22 27 23 29 24 30 25 31 86 32 26 33 85 34
REMARK SMILES IDX 27 35 28 36 29 37 79 38 30 39 84 40 78 41 80 42 31 43 83 44
REMARK SMILES IDX 77 45 76 46 32 48 64 49 44 50 63 51 45 52 48 53 62 54 81 55
REMARK SMILES IDX 46 56 47 57 61 59 82 60 49 61 33 62 34 63 42 64 35 65 41 66
REMARK SMILES IDX 43 67 40 68 36 69 37 70 38 71 39 72 65 73 66 74 74 75 67 76
REMARK SMILES IDX 73 77 75 78 72 79 68 80 69 81 70 82 71 83 50 84 51 85 59 86
REMARK SMILES IDX 52 87 58 88 60 89 57 90 53 91 54 92 55 93 56 94
REMARK H PARENT 16 6 21 28 80 47 48 58
REMARK Flexibility Score: inf
ROOT
ATOM      1  C   UNL     1       4.224  -1.603  -0.947  1.00  0.00     0.023 C 
ENDROOT
BRANCH   1   2
ATOM      2  C   UNL     1       3.284  -1.736  -2.136  1.00  0.00     0.116 C 
BRANCH   2   3
ATOM      3  N   UNL     1       3.393  -2.996  -2.816  1.00  0.00    -0.352 N 
ATOM      4  C   UNL     1       2.460  -3.897  -3.249  1.00  0.00     0.255 C 
ATOM      5  O   UNL     1       2.933  -4.938  -3.716  1.00  0.00    -0.269 OA
ATOM      6  H   UNL     1       4.321  -3.264  -3.007  1.00  0.00     0.163 HD
BRANCH   4   7
ATOM      7  C   UNL     1       1.004  -3.733  -3.215  1.00  0.00     0.090 A 
ATOM      8  C   UNL     1       0.082  -2.736  -2.873  1.00  0.00     0.138 A 
ATOM      9  N   UNL     1      -1.142  -3.204  -3.297  1.00  0.00    -0.262 N 
ATOM     10  C   UNL     1       0.159  -4.802  -3.643  1.00  0.00     0.149 A 
ATOM     11  N   UNL     1      -1.136  -4.502  -3.634  1.00  0.00    -0.180 NA
ATOM     12  C   UNL     1      -2.375  -2.464  -3.450  1.00  0.00     0.174 C 
BRANCH   8  13
ATOM     13  C   UNL     1       0.220  -1.413  -2.322  1.00  0.00     0.273 C 
ATOM     14  O   UNL     1       0.491  -0.455  -3.041  1.00  0.00    -0.267 OA
BRANCH  13  15
ATOM     15  N   UNL     1       0.073  -1.280  -0.933  1.00  0.00    -0.334 N 
ATOM     16  C   UNL     1       0.429  -0.014  -0.305  1.00  0.00     0.147 C 
BRANCH  15  17
ATOM     17  C   UNL     1      -0.319  -2.369  -0.038  1.00  0.00     0.175 C 
BRANCH  17  18
ATOM     18  C   UNL     1      -1.808  -2.442   0.006  1.00  0.00     0.057 A 
ATOM     19  C   UNL     1      -2.757  -1.435   0.045  1.00  0.00     0.047 A 
ATOM     20  N   UNL     1      -2.528  -3.614   0.003  1.00  0.00    -0.271 N 
ATOM     21  C   UNL     1      -3.995  -2.089   0.006  1.00  0.00     0.135 A 
ATOM     22  N   UNL     1      -3.862  -3.414  -0.022  1.00  0.00    -0.181 NA
ATOM     23  C   UNL     1      -2.046  -4.976  -0.014  1.00  0.00     0.174 C 
ENDBRANCH  17  18
ENDBRANCH  15  17
ENDBRANCH  13  15
ENDBRANCH   8  13
ENDBRANCH   4   7
ENDBRANCH   2   3
ENDBRANCH   1   2
BRANCH   1  24
ATOM     24  C   UNL     1       5.665  -1.257  -1.285  1.00  0.00     0.023 C 
BRANCH  24  25
ATOM     25  C   UNL     1       5.850  -0.022  -2.158  1.00  0.00     0.116 C 
BRANCH  25  26
ATOM     26  N   UNL     1       5.155   1.161  -1.663  1.00  0.00    -0.352 N 
ATOM     27  C   UNL     1       5.643   2.439  -1.481  1.00  0.00     0.251 C 
ATOM     28  H   UNL     1       4.209   1.029  -1.426  1.00  0.00     0.163 HD
ATOM     29  O   UNL     1       4.953   3.298  -0.960  1.00  0.00    -0.269 OA
BRANCH  27  30
ATOM     30  C   UNL     1       7.035   2.723  -1.891  1.00  0.00     0.039 A 
ATOM     31  C   UNL     1       7.916   3.278  -0.962  1.00  0.00     0.014 A 
ATOM     32  C   UNL     1       7.484   2.334  -3.155  1.00  0.00     0.014 A 
ATOM     33  C   UNL     1       9.277   3.346  -1.268  1.00  0.00     0.010 A 
ATOM     34  C   UNL     1       8.848   2.317  -3.419  1.00  0.00     0.010 A 
ATOM     35  C   UNL     1       9.761   2.813  -2.474  1.00  0.00    -0.014 A 
BRANCH  35  36
ATOM     36  C   UNL     1      11.216   2.760  -2.775  1.00  0.00     0.031 A 
ATOM     37  C   UNL     1      11.754   3.493  -3.974  1.00  0.00     0.074 A 
ATOM     38  C   UNL     1      12.033   1.995  -2.022  1.00  0.00     0.049 A 
ATOM     39  N   UNL     1      12.958   3.478  -4.482  1.00  0.00    -0.248 NA
ATOM     40  C   UNL     1      10.796   4.322  -4.722  1.00  0.00     0.031 C 
ATOM     41  C   UNL     1      11.619   1.196  -0.864  1.00  0.00     0.029 A 
ATOM     42  N   UNL     1      13.380   1.750  -2.123  1.00  0.00    -0.354 N 
ATOM     43  C   UNL     1      12.901   4.285  -5.613  1.00  0.00     0.074 A 
ATOM     44  C   UNL     1      11.525   4.711  -5.756  1.00  0.00     0.031 C 
ATOM     45  C   UNL     1      12.692   0.571  -0.353  1.00  0.00     0.029 A 
ATOM     46  C   UNL     1      13.861   0.882  -1.169  1.00  0.00     0.049 A 
ATOM     47  H   UNL     1      13.950   2.159  -2.814  1.00  0.00     0.167 HD
ATOM     48  C   UNL     1      13.908   4.665  -6.437  1.00  0.00     0.034 A 
ATOM     49  C   UNL     1      15.100   0.383  -0.983  1.00  0.00     0.034 A 
ATOM     50  C   UNL     1      15.277   4.248  -6.272  1.00  0.00     0.049 A 
ATOM     51  C   UNL     1      16.203   0.814  -1.921  1.00  0.00     0.074 A 
ATOM     52  C   UNL     1      16.382   4.594  -7.030  1.00  0.00     0.029 A 
ATOM     53  N   UNL     1      15.732   3.397  -5.273  1.00  0.00    -0.354 N 
ATOM     54  N   UNL     1      16.136   1.610  -2.963  1.00  0.00    -0.248 NA
ATOM     55  C   UNL     1      17.549   0.292  -1.648  1.00  0.00     0.031 C 
ATOM     56  C   UNL     1      17.494   3.915  -6.521  1.00  0.00     0.029 A 
ATOM     57  C   UNL     1      17.097   3.198  -5.404  1.00  0.00     0.049 A 
ATOM     58  H   UNL     1      15.167   2.994  -4.574  1.00  0.00     0.167 HD
ATOM     59  C   UNL     1      17.438   1.710  -3.447  1.00  0.00     0.074 A 
ATOM     60  C   UNL     1      18.269   0.910  -2.572  1.00  0.00     0.031 C 
ATOM     61  C   UNL     1      17.908   2.400  -4.517  1.00  0.00     0.034 A 
BRANCH  48  62
ATOM     62  C   UNL     1      13.553   5.573  -7.588  1.00  0.00     0.023 A 
ATOM     63  C   UNL     1      13.058   6.871  -7.369  1.00  0.00     0.031 A 
ATOM     64  C   UNL     1      13.690   5.135  -8.917  1.00  0.00     0.131 A 
ATOM     65  C   UNL     1      12.651   7.658  -8.455  1.00  0.00     0.055 A 
ATOM     66  C   UNL     1      13.358   5.955  -9.998  1.00  0.00     0.041 A 
ATOM     67  F   UNL     1      14.137   3.899  -9.187  1.00  0.00    -0.206 F 
ATOM     68  C   UNL     1      12.822   7.219  -9.770  1.00  0.00     0.022 A 
BRANCH  65  69
ATOM     69  S   UNL     1      11.777   9.210  -8.118  1.00  0.00     0.124 S 
ATOM     70  O   UNL     1      10.586   8.731  -7.422  1.00  0.00    -0.237 OA
ATOM     71  O   UNL     1      12.739   9.945  -7.305  1.00  0.00    -0.237 OA
ATOM     72  O   UNL     1      11.534   9.763  -9.449  1.00  0.00    -0.744 OA
ENDBRANCH  65  69
ENDBRANCH  48  62
BRANCH  49  73
ATOM     73  C   UNL     1      15.379  -0.588   0.116  1.00  0.00     0.023 A 
ATOM     74  C   UNL     1      16.278  -0.275   1.148  1.00  0.00     0.031 A 
ATOM     75  C   UNL     1      14.807  -1.873   0.111  1.00  0.00     0.131 A 
ATOM     76  C   UNL     1      16.632  -1.252   2.091  1.00  0.00     0.055 A 
ATOM     77  C   UNL     1      15.116  -2.823   1.088  1.00  0.00     0.041 A 
ATOM     78  F   UNL     1      13.936  -2.226  -0.847  1.00  0.00    -0.206 F 
ATOM     79  C   UNL     1      16.048  -2.521   2.075  1.00  0.00     0.022 A 
BRANCH  76  80
ATOM     80  S   UNL     1      17.959  -0.879   3.271  1.00  0.00     0.124 S 
ATOM     81  O   UNL     1      19.047  -0.489   2.381  1.00  0.00    -0.237 OA
ATOM     82  O   UNL     1      17.364   0.191   4.064  1.00  0.00    -0.237 OA
ATOM     83  O   UNL     1      18.152  -2.144   3.977  1.00  0.00    -0.744 OA
ENDBRANCH  76  80
ENDBRANCH  49  73
BRANCH  61  84
ATOM     84  C   UNL     1      19.396   2.362  -4.757  1.00  0.00     0.023 A 
ATOM     85  C   UNL     1      20.052   1.183  -5.150  1.00  0.00     0.031 A 
ATOM     86  C   UNL     1      20.167   3.524  -4.582  1.00  0.00     0.131 A 
ATOM     87  C   UNL     1      21.447   1.179  -5.300  1.00  0.00     0.055 A 
ATOM     88  C   UNL     1      21.547   3.528  -4.790  1.00  0.00     0.041 A 
ATOM     89  F   UNL     1      19.590   4.677  -4.207  1.00  0.00    -0.206 F 
ATOM     90  C   UNL     1      22.196   2.347  -5.138  1.00  0.00     0.022 A 
BRANCH  87  91
ATOM     91  S   UNL     1      22.282  -0.398  -5.628  1.00  0.00     0.124 S 
ATOM     92  O   UNL     1      21.890  -1.196  -4.471  1.00  0.00    -0.237 OA
ATOM     93  O   UNL     1      21.701  -0.799  -6.906  1.00  0.00    -0.237 OA
ATOM     94  O   UNL     1      23.696  -0.033  -5.680  1.00  0.00    -0.744 OA
ENDBRANCH  87  91
ENDBRANCH  61  84
ENDBRANCH  35  36
ENDBRANCH  27  30
ENDBRANCH  25  26
ENDBRANCH  24  25
ENDBRANCH   1  24
TORSDOF 18
