REMARK SMILES C[C@@H]1[C@H](C(=O)NCCCCNC(=O)c2ccc(-c3c4nc(c(-c5cc(S(=O)(=O)[O-])ccc5F)c5ccc([nH]5)c(-c5cc(S(=O)(=O)[O-])ccc5F)c5nc(c(-c6cc(S(=O)(=O)[O-])ccc6F)c6ccc3[nH]6)C=C5)C=C4)cc2)CCN1C(=O)C1CC1
REMARK SMILES IDX 9 1 8 2 7 3 6 4 4 5 5 6 3 8 1 9 2 10 79 11 77 12 78 13 80 14
REMARK SMILES IDX 81 15 82 16 83 17 84 18 10 19 11 20 12 21 13 23 14 24 15 25
REMARK SMILES IDX 76 26 16 27 75 28 17 29 18 30 19 31 69 32 20 33 74 34 68 35
REMARK SMILES IDX 70 36 21 37 73 38 67 39 66 40 22 42 54 43 34 44 53 45 35 46
REMARK SMILES IDX 38 47 52 48 71 49 36 50 37 51 51 53 72 54 39 55 23 56 24 57
REMARK SMILES IDX 32 58 25 59 31 60 33 61 30 62 26 63 27 64 28 65 29 66 55 67
REMARK SMILES IDX 56 68 64 69 57 70 63 71 65 72 62 73 58 74 59 75 60 76 61 77
REMARK SMILES IDX 40 78 41 79 49 80 42 81 48 82 50 83 47 84 43 85 44 86 45 87
REMARK SMILES IDX 46 88
REMARK H PARENT 6 7 11 22 70 41 38 52
REMARK Flexibility Score: inf
ROOT
ATOM      1  C   UNL     1       3.646   2.406   3.086  1.00  0.00     0.023 C 
ENDROOT
BRANCH   1   2
ATOM      2  C   UNL     1       2.767   1.305   2.521  1.00  0.00     0.023 C 
BRANCH   2   3
ATOM      3  C   UNL     1       1.319   1.695   2.206  1.00  0.00     0.116 C 
BRANCH   3   4
ATOM      4  N   UNL     1       1.200   2.533   1.022  1.00  0.00    -0.356 N 
ATOM      5  C   UNL     1       0.643   2.333  -0.204  1.00  0.00     0.225 C 
ATOM      6  O   UNL     1       0.751   3.259  -1.016  1.00  0.00    -0.275 OA
ATOM      7  H   UNL     1       1.603   3.425   1.129  1.00  0.00     0.163 HD
BRANCH   5   8
ATOM      8  C   UNL     1      -0.078   1.056  -0.636  1.00  0.00     0.102 C 
ATOM      9  C   UNL     1       2.107  -0.233  -0.231  1.00  0.00     0.032 C 
ATOM     10  C   UNL     1       0.764  -0.210  -0.934  1.00  0.00     0.094 C 
ATOM     11  N   UNL     1      -0.100  -1.334  -0.541  1.00  0.00    -0.339 N 
ATOM     12  C   UNL     1      -1.224   0.625   0.269  1.00  0.00     0.037 C 
ATOM     13  C   UNL     1      -1.347  -0.866   0.046  1.00  0.00     0.120 C 
BRANCH  11  14
ATOM     14  C   UNL     1       0.011  -2.707  -0.731  1.00  0.00     0.225 C 
ATOM     15  O   UNL     1      -0.835  -3.463  -0.250  1.00  0.00    -0.275 OA
BRANCH  14  16
ATOM     16  C   UNL     1       1.073  -3.382  -1.531  1.00  0.00     0.079 C 
ATOM     17  C   UNL     1       2.299  -2.886  -2.228  1.00  0.00     0.014 C 
ATOM     18  C   UNL     1       2.434  -3.577  -0.898  1.00  0.00     0.014 C 
ENDBRANCH  14  16
ENDBRANCH  11  14
ENDBRANCH   5   8
ENDBRANCH   3   4
ENDBRANCH   2   3
ENDBRANCH   1   2
BRANCH   1  19
ATOM     19  C   UNL     1       3.191   2.945   4.426  1.00  0.00     0.116 C 
BRANCH  19  20
ATOM     20  N   UNL     1       3.041   1.912   5.443  1.00  0.00    -0.352 N 
ATOM     21  C   UNL     1       3.516   1.901   6.735  1.00  0.00     0.251 C 
ATOM     22  H   UNL     1       2.531   1.115   5.169  1.00  0.00     0.163 HD
ATOM     23  O   UNL     1       3.413   0.896   7.424  1.00  0.00    -0.269 OA
BRANCH  21  24
ATOM     24  C   UNL     1       4.187   3.112   7.248  1.00  0.00     0.039 A 
ATOM     25  C   UNL     1       5.423   2.992   7.885  1.00  0.00     0.014 A 
ATOM     26  C   UNL     1       3.625   4.369   7.014  1.00  0.00     0.014 A 
ATOM     27  C   UNL     1       6.133   4.146   8.218  1.00  0.00     0.010 A 
ATOM     28  C   UNL     1       4.382   5.507   7.241  1.00  0.00     0.010 A 
ATOM     29  C   UNL     1       5.636   5.410   7.861  1.00  0.00    -0.014 A 
BRANCH  29  30
ATOM     30  C   UNL     1       6.374   6.659   8.171  1.00  0.00     0.031 A 
ATOM     31  C   UNL     1       5.731   7.683   9.066  1.00  0.00     0.074 A 
ATOM     32  C   UNL     1       7.562   6.907   7.587  1.00  0.00     0.049 A 
ATOM     33  N   UNL     1       6.124   8.895   9.361  1.00  0.00    -0.248 NA
ATOM     34  C   UNL     1       4.439   7.309   9.665  1.00  0.00     0.031 C 
ATOM     35  C   UNL     1       8.255   6.012   6.657  1.00  0.00     0.029 A 
ATOM     36  N   UNL     1       8.395   7.992   7.682  1.00  0.00    -0.354 N 
ATOM     37  C   UNL     1       5.113   9.435  10.150  1.00  0.00     0.074 A 
ATOM     38  C   UNL     1       4.057   8.449  10.215  1.00  0.00     0.031 C 
ATOM     39  C   UNL     1       9.421   6.572   6.293  1.00  0.00     0.029 A 
ATOM     40  C   UNL     1       9.540   7.880   6.928  1.00  0.00     0.049 A 
ATOM     41  H   UNL     1       8.191   8.779   8.239  1.00  0.00     0.167 HD
ATOM     42  C   UNL     1       5.083  10.631  10.789  1.00  0.00     0.034 A 
ATOM     43  C   UNL     1      10.564   8.740   6.769  1.00  0.00     0.034 A 
ATOM     44  C   UNL     1       6.166  11.580  10.741  1.00  0.00     0.049 A 
ATOM     45  C   UNL     1      10.527  10.052   7.511  1.00  0.00     0.074 A 
ATOM     46  C   UNL     1       6.280  12.797  11.388  1.00  0.00     0.029 A 
ATOM     47  N   UNL     1       7.333  11.411  10.004  1.00  0.00    -0.354 N 
ATOM     48  N   UNL     1       9.584  10.535   8.288  1.00  0.00    -0.248 NA
ATOM     49  C   UNL     1      11.698  10.925   7.369  1.00  0.00     0.031 C 
ATOM     50  C   UNL     1       7.491  13.385  11.005  1.00  0.00     0.029 A 
ATOM     51  C   UNL     1       8.165  12.506  10.171  1.00  0.00     0.049 A 
ATOM     52  H   UNL     1       7.538  10.627   9.445  1.00  0.00     0.167 HD
ATOM     53  C   UNL     1      10.066  11.755   8.754  1.00  0.00     0.074 A 
ATOM     54  C   UNL     1      11.385  11.925   8.179  1.00  0.00     0.031 C 
ATOM     55  C   UNL     1       9.476  12.652   9.586  1.00  0.00     0.034 A 
BRANCH  42  56
ATOM     56  C   UNL     1       3.833  10.963  11.570  1.00  0.00     0.023 A 
ATOM     57  C   UNL     1       3.405  10.166  12.648  1.00  0.00     0.031 A 
ATOM     58  C   UNL     1       3.022  12.048  11.195  1.00  0.00     0.131 A 
ATOM     59  C   UNL     1       2.156  10.400  13.241  1.00  0.00     0.055 A 
ATOM     60  C   UNL     1       1.824  12.334  11.854  1.00  0.00     0.041 A 
ATOM     61  F   UNL     1       3.365  12.833  10.162  1.00  0.00    -0.206 F 
ATOM     62  C   UNL     1       1.374  11.495  12.870  1.00  0.00     0.022 A 
BRANCH  59  63
ATOM     63  S   UNL     1       1.493   9.151  14.378  1.00  0.00     0.124 S 
ATOM     64  O   UNL     1       1.440   7.971  13.517  1.00  0.00    -0.237 OA
ATOM     65  O   UNL     1       2.495   9.125  15.437  1.00  0.00    -0.237 OA
ATOM     66  O   UNL     1       0.192   9.693  14.762  1.00  0.00    -0.744 OA
ENDBRANCH  59  63
ENDBRANCH  42  56
BRANCH  43  67
ATOM     67  C   UNL     1      11.716   8.391   5.890  1.00  0.00     0.023 A 
ATOM     68  C   UNL     1      12.995   8.179   6.429  1.00  0.00     0.031 A 
ATOM     69  C   UNL     1      11.563   8.293   4.496  1.00  0.00     0.131 A 
ATOM     70  C   UNL     1      14.081   7.924   5.578  1.00  0.00     0.055 A 
ATOM     71  C   UNL     1      12.639   7.993   3.656  1.00  0.00     0.041 A 
ATOM     72  F   UNL     1      10.360   8.475   3.930  1.00  0.00    -0.206 F 
ATOM     73  C   UNL     1      13.910   7.819   4.196  1.00  0.00     0.022 A 
BRANCH  70  74
ATOM     74  S   UNL     1      15.740   7.801   6.301  1.00  0.00     0.124 S 
ATOM     75  O   UNL     1      15.879   9.100   6.950  1.00  0.00    -0.237 OA
ATOM     76  O   UNL     1      15.599   6.652   7.188  1.00  0.00    -0.237 OA
ATOM     77  O   UNL     1      16.602   7.588   5.140  1.00  0.00    -0.744 OA
ENDBRANCH  70  74
ENDBRANCH  43  67
BRANCH  55  78
ATOM     78  C   UNL     1      10.286  13.866   9.963  1.00  0.00     0.023 A 
ATOM     79  C   UNL     1      10.605  14.862   9.025  1.00  0.00     0.031 A 
ATOM     80  C   UNL     1      10.751  14.018  11.281  1.00  0.00     0.131 A 
ATOM     81  C   UNL     1      11.415  15.942   9.406  1.00  0.00     0.055 A 
ATOM     82  C   UNL     1      11.509  15.123  11.668  1.00  0.00     0.041 A 
ATOM     83  F   UNL     1      10.474  13.094  12.214  1.00  0.00    -0.206 F 
ATOM     84  C   UNL     1      11.856  16.087  10.725  1.00  0.00     0.022 A 
BRANCH  81  85
ATOM     85  S   UNL     1      11.960  17.113   8.133  1.00  0.00     0.124 S 
ATOM     86  O   UNL     1      12.657  16.238   7.195  1.00  0.00    -0.237 OA
ATOM     87  O   UNL     1      10.697  17.673   7.663  1.00  0.00    -0.237 OA
ATOM     88  O   UNL     1      12.816  18.044   8.866  1.00  0.00    -0.744 OA
ENDBRANCH  81  85
ENDBRANCH  55  78
ENDBRANCH  29  30
ENDBRANCH  21  24
ENDBRANCH  19  20
ENDBRANCH   1  19
TORSDOF 16
