REMARK SMILES CC(C)c1cc(O)cc(C(C)C)c1O[C@@H]1O[C@@H](C(=O)NCCCCNC(=O)c2ccc(-c3c4nc(c(-c5cc(S(=O)(=O)[O-])ccc5F)c5ccc([nH]5)c(-c5cc(S(=O)(=O)[O-])ccc5F)c5nc(c(-c6cc(S(=O)(=O)[O-])ccc6F)c6ccc3[nH]6)C=C5)C=C4)cc2)[C@@H](O)[C@H](O)[C@@H]1O
REMARK SMILES IDX 22 1 21 2 20 3 18 4 19 5 17 7 15 8 16 9 95 10 93 11 91 12
REMARK SMILES IDX 14 13 13 14 4 15 5 16 6 17 9 18 8 19 2 20 1 21 3 22 7 23
REMARK SMILES IDX 10 25 11 26 12 27 96 28 94 30 92 32 23 34 24 35 25 36 26 37
REMARK SMILES IDX 27 39 28 40 29 41 90 42 30 43 89 44 31 45 32 46 33 47 83 48
REMARK SMILES IDX 34 49 88 50 82 51 84 52 35 53 87 54 81 55 80 56 36 58 68 59
REMARK SMILES IDX 48 60 67 61 49 62 52 63 66 64 85 65 50 66 51 67 65 69 86 70
REMARK SMILES IDX 53 71 37 72 38 73 46 74 39 75 45 76 47 77 44 78 40 79 41 80
REMARK SMILES IDX 42 81 43 82 69 83 70 84 78 85 71 86 77 87 79 88 76 89 72 90
REMARK SMILES IDX 73 91 74 92 75 93 54 94 55 95 63 96 56 97 62 98 64 99 61 100
REMARK SMILES IDX 57 101 58 102 59 103 60 104
REMARK H PARENT 20 6 7 24 96 29 94 31 92 33 25 38 84 57 52 68
REMARK Flexibility Score: inf
ROOT
ATOM      1  C   UNL     1      -2.239   4.318  -0.258  1.00  0.00     0.023 C 
ENDROOT
BRANCH   1   2
ATOM      2  C   UNL     1      -2.192   2.882   0.253  1.00  0.00     0.116 C 
BRANCH   2   3
ATOM      3  N   UNL     1      -2.186   1.872  -0.793  1.00  0.00    -0.354 N 
ATOM      4  C   UNL     1      -1.250   1.038  -1.309  1.00  0.00     0.252 C 
ATOM      5  O   UNL     1      -1.706   0.097  -1.975  1.00  0.00    -0.272 OA
ATOM      6  H   UNL     1      -3.064   1.770  -1.226  1.00  0.00     0.163 HD
BRANCH   4   7
ATOM      7  C   UNL     1       0.298   1.204  -1.201  1.00  0.00     0.242 C 
ATOM      8  C   UNL     1       0.807  -0.987  -0.323  1.00  0.00     0.339 C 
ATOM      9  O   UNL     1       1.000  -0.044  -1.386  1.00  0.00    -0.324 OA
ATOM     10  C   UNL     1       0.891  -0.447   1.144  1.00  0.00     0.214 C 
ATOM     11  C   UNL     1       0.573   1.058   1.277  1.00  0.00     0.181 C 
ATOM     12  C   UNL     1       0.922   1.870   0.017  1.00  0.00     0.184 C 
BRANCH   8  13
ATOM     13  O   UNL     1       1.521  -2.219  -0.516  1.00  0.00    -0.461 OA
BRANCH  13  14
ATOM     14  C   UNL     1       2.851  -2.516  -0.486  1.00  0.00     0.130 A 
ATOM     15  C   UNL     1       3.094  -3.921  -0.391  1.00  0.00     0.001 A 
ATOM     16  C   UNL     1       4.424  -4.405  -0.358  1.00  0.00     0.054 A 
ATOM     17  C   UNL     1       5.494  -3.539  -0.432  1.00  0.00     0.116 A 
ATOM     18  C   UNL     1       3.967  -1.637  -0.537  1.00  0.00     0.001 A 
ATOM     19  C   UNL     1       5.273  -2.181  -0.528  1.00  0.00     0.054 A 
BRANCH  15  20
ATOM     20  C   UNL     1       2.023  -5.023  -0.353  1.00  0.00     0.017 C 
ATOM     21  C   UNL     1       0.646  -4.692   0.227  1.00  0.00     0.012 C 
ATOM     22  C   UNL     1       1.870  -5.652  -1.743  1.00  0.00     0.012 C 
ENDBRANCH  15  20
BRANCH  17  23
ATOM     23  O   UNL     1       6.783  -3.978  -0.418  1.00  0.00    -0.508 OA
ATOM     24  H   UNL     1       6.964  -4.895  -0.354  1.00  0.00     0.293 HD
ENDBRANCH  17  23
BRANCH  18  25
ATOM     25  C   UNL     1       3.912  -0.125  -0.617  1.00  0.00     0.017 C 
ATOM     26  C   UNL     1       4.787   0.606   0.415  1.00  0.00     0.012 C 
ATOM     27  C   UNL     1       4.176   0.395  -2.028  1.00  0.00     0.012 C 
ENDBRANCH  18  25
ENDBRANCH  13  14
ENDBRANCH   8  13
BRANCH  10  28
ATOM     28  O   UNL     1       2.151  -0.678   1.804  1.00  0.00    -0.384 OA
ATOM     29  H   UNL     1       2.844  -0.156   1.371  1.00  0.00     0.211 HD
ENDBRANCH  10  28
BRANCH  11  30
ATOM     30  O   UNL     1       1.266   1.604   2.411  1.00  0.00    -0.387 OA
ATOM     31  H   UNL     1       2.223   1.526   2.274  1.00  0.00     0.211 HD
ENDBRANCH  11  30
BRANCH  12  32
ATOM     32  O   UNL     1       0.628   3.264   0.087  1.00  0.00    -0.387 OA
ATOM     33  H   UNL     1      -0.331   3.389   0.169  1.00  0.00     0.211 HD
ENDBRANCH  12  32
ENDBRANCH   4   7
ENDBRANCH   2   3
ENDBRANCH   1   2
BRANCH   1  34
ATOM     34  C   UNL     1      -3.567   5.030   0.002  1.00  0.00     0.023 C 
BRANCH  34  35
ATOM     35  C   UNL     1      -4.098   4.953   1.430  1.00  0.00     0.116 C 
BRANCH  35  36
ATOM     36  N   UNL     1      -3.167   5.377   2.467  1.00  0.00    -0.352 N 
ATOM     37  C   UNL     1      -3.509   5.725   3.762  1.00  0.00     0.251 C 
ATOM     38  H   UNL     1      -2.213   5.418   2.226  1.00  0.00     0.163 HD
ATOM     39  O   UNL     1      -2.683   6.112   4.573  1.00  0.00    -0.269 OA
BRANCH  37  40
ATOM     40  C   UNL     1      -4.944   5.648   4.102  1.00  0.00     0.039 A 
ATOM     41  C   UNL     1      -5.676   6.833   4.204  1.00  0.00     0.014 A 
ATOM     42  C   UNL     1      -5.578   4.405   4.058  1.00  0.00     0.014 A 
ATOM     43  C   UNL     1      -7.069   6.775   4.163  1.00  0.00     0.010 A 
ATOM     44  C   UNL     1      -6.961   4.359   3.947  1.00  0.00     0.010 A 
ATOM     45  C   UNL     1      -7.718   5.544   3.975  1.00  0.00    -0.014 A 
BRANCH  45  46
ATOM     46  C   UNL     1      -9.189   5.456   3.784  1.00  0.00     0.031 A 
ATOM     47  C   UNL     1     -10.012   4.692   4.780  1.00  0.00     0.074 A 
ATOM     48  C   UNL     1      -9.755   5.945   2.663  1.00  0.00     0.049 A 
ATOM     49  N   UNL     1     -11.269   4.337   4.721  1.00  0.00    -0.248 NA
ATOM     50  C   UNL     1      -9.304   4.222   5.979  1.00  0.00     0.031 C 
ATOM     51  C   UNL     1      -9.047   6.650   1.592  1.00  0.00     0.029 A 
ATOM     52  N   UNL     1     -11.054   5.895   2.221  1.00  0.00    -0.354 N 
ATOM     53  C   UNL     1     -11.493   3.568   5.857  1.00  0.00     0.074 A 
ATOM     54  C   UNL     1     -10.225   3.462   6.549  1.00  0.00     0.031 C 
ATOM     55  C   UNL     1      -9.918   6.964   0.620  1.00  0.00     0.029 A 
ATOM     56  C   UNL     1     -11.237   6.450   0.976  1.00  0.00     0.049 A 
ATOM     57  H   UNL     1     -11.787   5.500   2.747  1.00  0.00     0.167 HD
ATOM     58  C   UNL     1     -12.654   3.018   6.292  1.00  0.00     0.034 A 
ATOM     59  C   UNL     1     -12.337   6.516   0.199  1.00  0.00     0.034 A 
ATOM     60  C   UNL     1     -13.911   3.163   5.601  1.00  0.00     0.049 A 
ATOM     61  C   UNL     1     -13.626   5.927   0.710  1.00  0.00     0.074 A 
ATOM     62  C   UNL     1     -15.166   2.728   5.990  1.00  0.00     0.029 A 
ATOM     63  N   UNL     1     -14.071   3.788   4.370  1.00  0.00    -0.354 N 
ATOM     64  N   UNL     1     -13.843   5.259   1.819  1.00  0.00    -0.248 NA
ATOM     65  C   UNL     1     -14.819   6.109  -0.127  1.00  0.00     0.031 C 
ATOM     66  C   UNL     1     -16.073   3.040   4.970  1.00  0.00     0.029 A 
ATOM     67  C   UNL     1     -15.397   3.727   3.973  1.00  0.00     0.049 A 
ATOM     68  H   UNL     1     -13.347   4.212   3.855  1.00  0.00     0.167 HD
ATOM     69  C   UNL     1     -15.202   4.963   1.825  1.00  0.00     0.074 A 
ATOM     70  C   UNL     1     -15.756   5.528   0.611  1.00  0.00     0.031 C 
ATOM     71  C   UNL     1     -15.929   4.292   2.755  1.00  0.00     0.034 A 
BRANCH  58  72
ATOM     72  C   UNL     1     -12.592   2.191   7.555  1.00  0.00     0.023 A 
ATOM     73  C   UNL     1     -12.178   2.746   8.779  1.00  0.00     0.031 A 
ATOM     74  C   UNL     1     -12.874   0.815   7.521  1.00  0.00     0.131 A 
ATOM     75  C   UNL     1     -11.948   1.913   9.883  1.00  0.00     0.055 A 
ATOM     76  C   UNL     1     -12.738   0.007   8.652  1.00  0.00     0.041 A 
ATOM     77  F   UNL     1     -13.257   0.223   6.378  1.00  0.00    -0.206 F 
ATOM     78  C   UNL     1     -12.249   0.551   9.837  1.00  0.00     0.022 A 
BRANCH  75  79
ATOM     79  S   UNL     1     -11.071   2.604  11.313  1.00  0.00     0.124 S 
ATOM     80  O   UNL     1      -9.834   3.079  10.697  1.00  0.00    -0.237 OA
ATOM     81  O   UNL     1     -11.990   3.636  11.778  1.00  0.00    -0.237 OA
ATOM     82  O   UNL     1     -10.914   1.458  12.206  1.00  0.00    -0.744 OA
ENDBRANCH  75  79
ENDBRANCH  58  72
BRANCH  59  83
ATOM     83  C   UNL     1     -12.263   7.143  -1.151  1.00  0.00     0.023 A 
ATOM     84  C   UNL     1     -12.898   8.364  -1.422  1.00  0.00     0.031 A 
ATOM     85  C   UNL     1     -11.555   6.519  -2.194  1.00  0.00     0.131 A 
ATOM     86  C   UNL     1     -12.840   8.910  -2.715  1.00  0.00     0.055 A 
ATOM     87  C   UNL     1     -11.467   7.085  -3.467  1.00  0.00     0.041 A 
ATOM     88  F   UNL     1     -10.918   5.356  -1.981  1.00  0.00    -0.206 F 
ATOM     89  C   UNL     1     -12.120   8.284  -3.736  1.00  0.00     0.022 A 
BRANCH  86  90
ATOM     90  S   UNL     1     -13.758  10.437  -3.058  1.00  0.00     0.124 S 
ATOM     91  O   UNL     1     -15.131  10.026  -2.785  1.00  0.00    -0.237 OA
ATOM     92  O   UNL     1     -13.165  11.368  -2.104  1.00  0.00    -0.237 OA
ATOM     93  O   UNL     1     -13.454  10.709  -4.461  1.00  0.00    -0.744 OA
ENDBRANCH  86  90
ENDBRANCH  59  83
BRANCH  71  94
ATOM     94  C   UNL     1     -17.412   4.177   2.517  1.00  0.00     0.023 A 
ATOM     95  C   UNL     1     -17.939   3.345   1.515  1.00  0.00     0.031 A 
ATOM     96  C   UNL     1     -18.309   4.897   3.326  1.00  0.00     0.131 A 
ATOM     97  C   UNL     1     -19.328   3.278   1.328  1.00  0.00     0.055 A 
ATOM     98  C   UNL     1     -19.690   4.790   3.165  1.00  0.00     0.041 A 
ATOM     99  F   UNL     1     -17.854   5.706   4.297  1.00  0.00    -0.206 F 
ATOM    100  C   UNL     1     -20.207   3.982   2.156  1.00  0.00     0.022 A 
BRANCH  97 101
ATOM    101  S   UNL     1     -19.978   2.290  -0.048  1.00  0.00     0.124 S 
ATOM    102  O   UNL     1     -19.407   2.972  -1.206  1.00  0.00    -0.237 OA
ATOM    103  O   UNL     1     -19.443   0.963   0.238  1.00  0.00    -0.237 OA
ATOM    104  O   UNL     1     -21.427   2.416   0.093  1.00  0.00    -0.744 OA
ENDBRANCH  97 101
ENDBRANCH  71  94
ENDBRANCH  45  46
ENDBRANCH  37  40
ENDBRANCH  35  36
ENDBRANCH  34  35
ENDBRANCH   1  34
TORSDOF 22
