REMARK SMILES CC(=O)N[C@H](CSCC(=O)Nc1ccc2c(c1)N1CC[NH+]=C1S2)C(=O)NCCCCNC(=O)c1ccc(-c2c3nc(c(-c4cc(S(=O)(=O)[O-])ccc4F)c4ccc([nH]4)c(-c4cc(S(=O)(=O)[O-])ccc4F)c4nc(c(-c5cc(S(=O)(=O)[O-])ccc5F)c5ccc2[nH]5)C=C4)C=C3)cc1
REMARK SMILES IDX 27 1 26 2 24 3 25 4 5 6 4 7 1 8 2 9 3 10 6 12 7 13 8 14 9 15
REMARK SMILES IDX 10 16 11 17 12 19 13 20 17 21 14 22 16 23 15 24 18 25 23 26
REMARK SMILES IDX 19 27 22 28 20 29 21 30 28 32 29 33 30 34 31 35 32 36 33 38
REMARK SMILES IDX 34 39 35 40 96 41 36 42 95 43 37 44 38 45 39 46 89 47 40 48
REMARK SMILES IDX 94 49 88 50 90 51 41 52 93 53 87 54 86 55 42 57 74 58 54 59
REMARK SMILES IDX 73 60 55 61 58 62 72 63 91 64 56 65 57 66 71 68 92 69 59 70
REMARK SMILES IDX 43 71 44 72 52 73 45 74 51 75 53 76 50 77 46 78 47 79 48 80
REMARK SMILES IDX 49 81 75 82 76 83 84 84 77 85 83 86 85 87 82 88 78 89 79 90
REMARK SMILES IDX 80 91 81 92 60 93 61 94 69 95 62 96 68 97 70 98 67 99 63 100
REMARK SMILES IDX 64 101 65 102 66 103
REMARK H PARENT 26 5 4 11 11 18 21 31 31 37 90 56 58 67
REMARK Flexibility Score: inf
ROOT
ATOM      1  C   UNL     1       1.003  -2.586  -5.002  1.00  0.00     0.116 C 
ENDROOT
BRANCH   1   2
ATOM      2  N   UNL     1       0.977  -1.139  -5.144  1.00  0.00    -0.354 N 
ATOM      3  C   UNL     1       1.410  -0.140  -4.316  1.00  0.00     0.243 C 
ATOM      4  O   UNL     1       1.296   1.024  -4.711  1.00  0.00    -0.273 OA
ATOM      5  H   UNL     1       0.576  -0.822  -5.985  1.00  0.00     0.163 HD
BRANCH   3   6
ATOM      6  C   UNL     1       2.010  -0.443  -2.926  1.00  0.00     0.181 C 
BRANCH   6   7
ATOM      7  N   UNL     1       3.211  -1.269  -3.119  1.00  0.00    -0.344 N 
ATOM      8  C   UNL     1       4.069  -1.194  -0.802  1.00  0.00     0.114 C 
ATOM      9  C   UNL     1       4.174  -1.634  -2.233  1.00  0.00     0.217 C 
ATOM     10  O   UNL     1       5.096  -2.352  -2.618  1.00  0.00    -0.275 OA
ATOM     11  H   UNL     1       3.337  -1.611  -4.034  1.00  0.00     0.164 HD
ENDBRANCH   6   7
BRANCH   6  12
ATOM     12  C   UNL     1       0.973  -1.086  -2.000  1.00  0.00     0.105 C 
BRANCH  12  13
ATOM     13  S   UNL     1      -0.531  -0.076  -1.758  1.00  0.00    -0.149 SA
BRANCH  13  14
ATOM     14  C   UNL     1      -0.308   0.604  -0.092  1.00  0.00     0.169 C 
BRANCH  14  15
ATOM     15  C   UNL     1       0.503  -0.230   0.883  1.00  0.00     0.234 C 
ATOM     16  O   UNL     1       1.706  -0.002   1.052  1.00  0.00    -0.274 OA
ATOM     17  N   UNL     1      -0.088  -1.166   1.688  1.00  0.00    -0.325 N 
ATOM     18  H   UNL     1       0.483  -1.530   2.402  1.00  0.00     0.169 HD
BRANCH  17  19
ATOM     19  C   UNL     1      -1.389  -1.679   1.641  1.00  0.00     0.045 A 
ATOM     20  C   UNL     1      -1.951  -2.188   0.459  1.00  0.00     0.027 A 
ATOM     21  C   UNL     1      -2.111  -1.709   2.836  1.00  0.00     0.079 A 
ATOM     22  C   UNL     1      -3.271  -2.643   0.423  1.00  0.00     0.022 A 
ATOM     23  C   UNL     1      -3.434  -2.112   2.801  1.00  0.00     0.144 A 
ATOM     24  C   UNL     1      -4.001  -2.576   1.591  1.00  0.00     0.067 A 
ATOM     25  N   UNL     1      -4.344  -2.066   3.820  1.00  0.00    -0.216 N 
ATOM     26  S   UNL     1      -5.736  -2.984   1.833  1.00  0.00     0.002 SA
ATOM     27  C   UNL     1      -4.290  -1.688   5.193  1.00  0.00     0.289 C 
ATOM     28  C   UNL     1      -5.613  -2.421   3.483  1.00  0.00     0.316 C 
ATOM     29  C   UNL     1      -5.806  -1.643   5.512  1.00  0.00     0.280 C 
ATOM     30  N   UNL     1      -6.553  -2.290   4.371  1.00  0.00    -0.264 N 
ATOM     31  H   UNL     1      -7.502  -2.546   4.314  1.00  0.00     0.305 HD
ENDBRANCH  17  19
ENDBRANCH  14  15
ENDBRANCH  13  14
ENDBRANCH  12  13
ENDBRANCH   6  12
ENDBRANCH   3   6
ENDBRANCH   1   2
BRANCH   1  32
ATOM     32  C   UNL     1      -0.376  -3.195  -4.745  1.00  0.00     0.023 C 
BRANCH  32  33
ATOM     33  C   UNL     1      -1.407  -2.982  -5.849  1.00  0.00     0.023 C 
BRANCH  33  34
ATOM     34  C   UNL     1      -0.956  -3.366  -7.250  1.00  0.00     0.116 C 
BRANCH  34  35
ATOM     35  N   UNL     1      -0.525  -4.751  -7.371  1.00  0.00    -0.352 N 
ATOM     36  C   UNL     1      -0.761  -5.630  -8.407  1.00  0.00     0.251 C 
ATOM     37  H   UNL     1       0.001  -5.105  -6.618  1.00  0.00     0.163 HD
ATOM     38  O   UNL     1      -0.393  -6.794  -8.327  1.00  0.00    -0.269 OA
BRANCH  36  39
ATOM     39  C   UNL     1      -1.519  -5.152  -9.584  1.00  0.00     0.039 A 
ATOM     40  C   UNL     1      -1.169  -3.951 -10.205  1.00  0.00     0.014 A 
ATOM     41  C   UNL     1      -2.651  -5.860  -9.995  1.00  0.00     0.014 A 
ATOM     42  C   UNL     1      -2.052  -3.366 -11.104  1.00  0.00     0.010 A 
ATOM     43  C   UNL     1      -3.492  -5.308 -10.964  1.00  0.00     0.010 A 
ATOM     44  C   UNL     1      -3.231  -4.030 -11.482  1.00  0.00    -0.014 A 
BRANCH  44  45
ATOM     45  C   UNL     1      -4.178  -3.364 -12.414  1.00  0.00     0.031 A 
ATOM     46  C   UNL     1      -5.556  -2.966 -11.960  1.00  0.00     0.074 A 
ATOM     47  C   UNL     1      -3.766  -3.071 -13.662  1.00  0.00     0.049 A 
ATOM     48  N   UNL     1      -6.501  -2.363 -12.635  1.00  0.00    -0.248 NA
ATOM     49  C   UNL     1      -5.926  -3.284 -10.571  1.00  0.00     0.031 C 
ATOM     50  C   UNL     1      -2.445  -3.395 -14.200  1.00  0.00     0.029 A 
ATOM     51  N   UNL     1      -4.395  -2.419 -14.692  1.00  0.00    -0.354 N 
ATOM     52  C   UNL     1      -7.579  -2.243 -11.764  1.00  0.00     0.074 A 
ATOM     53  C   UNL     1      -7.184  -2.864 -10.519  1.00  0.00     0.031 C 
ATOM     54  C   UNL     1      -2.341  -2.895 -15.438  1.00  0.00     0.029 A 
ATOM     55  C   UNL     1      -3.612  -2.283 -15.815  1.00  0.00     0.049 A 
ATOM     56  H   UNL     1      -5.318  -2.081 -14.633  1.00  0.00     0.167 HD
ATOM     57  C   UNL     1      -8.780  -1.656 -11.982  1.00  0.00     0.034 A 
ATOM     58  C   UNL     1      -3.887  -1.743 -17.020  1.00  0.00     0.034 A 
ATOM     59  C   UNL     1      -9.148  -1.018 -13.221  1.00  0.00     0.049 A 
ATOM     60  C   UNL     1      -5.245  -1.139 -17.251  1.00  0.00     0.074 A 
ATOM     61  C   UNL     1     -10.328  -0.362 -13.524  1.00  0.00     0.029 A 
ATOM     62  N   UNL     1      -8.351  -0.951 -14.354  1.00  0.00    -0.354 N 
ATOM     63  N   UNL     1      -6.240  -1.004 -16.405  1.00  0.00    -0.248 NA
ATOM     64  C   UNL     1      -5.529  -0.622 -18.597  1.00  0.00     0.031 C 
ATOM     65  C   UNL     1     -10.266   0.053 -14.855  1.00  0.00     0.029 A 
ATOM     66  C   UNL     1      -9.025  -0.291 -15.368  1.00  0.00     0.049 A 
ATOM     67  H   UNL     1      -7.440  -1.318 -14.427  1.00  0.00     0.167 HD
ATOM     68  C   UNL     1      -7.263  -0.382 -17.113  1.00  0.00     0.074 A 
ATOM     69  C   UNL     1      -6.756  -0.139 -18.448  1.00  0.00     0.031 C 
ATOM     70  C   UNL     1      -8.511  -0.053 -16.696  1.00  0.00     0.034 A 
BRANCH  57  71
ATOM     71  C   UNL     1      -9.796  -1.649 -10.868  1.00  0.00     0.023 A 
ATOM     72  C   UNL     1     -11.011  -2.343 -11.018  1.00  0.00     0.031 A 
ATOM     73  C   UNL     1      -9.620  -0.854  -9.722  1.00  0.00     0.131 A 
ATOM     74  C   UNL     1     -12.016  -2.205 -10.052  1.00  0.00     0.055 A 
ATOM     75  C   UNL     1     -10.612  -0.746  -8.745  1.00  0.00     0.041 A 
ATOM     76  F   UNL     1      -8.478  -0.174  -9.533  1.00  0.00    -0.206 F 
ATOM     77  C   UNL     1     -11.821  -1.414  -8.915  1.00  0.00     0.022 A 
BRANCH  74  78
ATOM     78  S   UNL     1     -13.634  -2.999 -10.258  1.00  0.00     0.124 S 
ATOM     79  O   UNL     1     -13.704  -3.846  -9.069  1.00  0.00    -0.237 OA
ATOM     80  O   UNL     1     -14.539  -1.853 -10.261  1.00  0.00    -0.237 OA
ATOM     81  O   UNL     1     -13.516  -3.714 -11.523  1.00  0.00    -0.744 OA
ENDBRANCH  74  78
ENDBRANCH  57  71
BRANCH  58  82
ATOM     82  C   UNL     1      -2.823  -1.735 -18.065  1.00  0.00     0.023 A 
ATOM     83  C   UNL     1      -2.271  -2.939 -18.541  1.00  0.00     0.031 A 
ATOM     84  C   UNL     1      -2.254  -0.528 -18.502  1.00  0.00     0.131 A 
ATOM     85  C   UNL     1      -1.131  -2.910 -19.354  1.00  0.00     0.055 A 
ATOM     86  C   UNL     1      -1.163  -0.503 -19.373  1.00  0.00     0.041 A 
ATOM     87  F   UNL     1      -2.740   0.645 -18.067  1.00  0.00    -0.206 F 
ATOM     88  C   UNL     1      -0.583  -1.699 -19.786  1.00  0.00     0.022 A 
BRANCH  85  89
ATOM     89  S   UNL     1      -0.232  -4.438 -19.743  1.00  0.00     0.124 S 
ATOM     90  O   UNL     1      -0.349  -4.497 -21.196  1.00  0.00    -0.237 OA
ATOM     91  O   UNL     1       1.103  -4.138 -19.229  1.00  0.00    -0.237 OA
ATOM     92  O   UNL     1      -0.962  -5.464 -19.007  1.00  0.00    -0.744 OA
ENDBRANCH  85  89
ENDBRANCH  58  82
BRANCH  70  93
ATOM     93  C   UNL     1      -9.450   0.594 -17.683  1.00  0.00     0.023 A 
ATOM     94  C   UNL     1      -9.905   1.909 -17.471  1.00  0.00     0.031 A 
ATOM     95  C   UNL     1     -10.011  -0.145 -18.739  1.00  0.00     0.131 A 
ATOM     96  C   UNL     1     -10.924   2.430 -18.277  1.00  0.00     0.055 A 
ATOM     97  C   UNL     1     -10.995   0.395 -19.567  1.00  0.00     0.041 A 
ATOM     98  F   UNL     1      -9.613  -1.405 -18.975  1.00  0.00    -0.206 F 
ATOM     99  C   UNL     1     -11.467   1.683 -19.328  1.00  0.00     0.022 A 
BRANCH  96 100
ATOM    100  S   UNL     1     -11.640   4.063 -17.943  1.00  0.00     0.124 S 
ATOM    101  O   UNL     1     -11.381   4.769 -19.196  1.00  0.00    -0.237 OA
ATOM    102  O   UNL     1     -13.041   3.738 -17.689  1.00  0.00    -0.237 OA
ATOM    103  O   UNL     1     -10.889   4.548 -16.790  1.00  0.00    -0.744 OA
ENDBRANCH  96 100
ENDBRANCH  70  93
ENDBRANCH  44  45
ENDBRANCH  36  39
ENDBRANCH  34  35
ENDBRANCH  33  34
ENDBRANCH  32  33
ENDBRANCH   1  32
TORSDOF 20
