REMARK SMILES CC(=O)N[C@H](C(=O)NC1(CC(=O)NCCCCNC(=O)c2ccc(-c3c4nc(c(-c5cc(S(=O)(=O)[O-])ccc5F)c5ccc([nH]5)c(-c5cc(S(=O)(=O)[O-])ccc5F)c5nc(c(-c6cc(S(=O)(=O)[O-])ccc6F)c6ccc3[nH]6)C=C5)C=C4)cc2)CCC1)C(C)C
REMARK SMILES IDX 15 1 14 2 13 3 11 4 12 5 10 7 9 8 84 9 86 10 85 11 8 12 6 13
REMARK SMILES IDX 7 14 5 16 4 17 1 18 2 19 3 20 87 22 88 23 89 24 16 25 17 26
REMARK SMILES IDX 18 27 19 28 20 30 21 31 22 32 83 33 23 34 82 35 24 36 25 37
REMARK SMILES IDX 26 38 76 39 27 40 81 41 75 42 77 43 28 44 80 45 74 46 73 47
REMARK SMILES IDX 29 49 61 50 41 51 60 52 42 53 45 54 59 55 78 56 43 57 44 58
REMARK SMILES IDX 58 60 79 61 46 62 30 63 31 64 39 65 32 66 38 67 40 68 37 69
REMARK SMILES IDX 33 70 34 71 35 72 36 73 62 74 63 75 71 76 64 77 70 78 72 79
REMARK SMILES IDX 69 80 65 81 66 82 67 83 68 84 47 85 48 86 56 87 49 88 55 89
REMARK SMILES IDX 57 90 54 91 50 92 51 93 52 94 53 95
REMARK H PARENT 13 6 8 15 4 21 18 29 77 48 45 59
REMARK Flexibility Score: inf
ROOT
ATOM      1  C   UNL     1       1.275   0.935  -3.271  1.00  0.00     0.023 C 
ENDROOT
BRANCH   1   2
ATOM      2  C   UNL     1       2.395   1.978  -3.203  1.00  0.00     0.116 C 
BRANCH   2   3
ATOM      3  N   UNL     1       2.065   2.989  -2.224  1.00  0.00    -0.356 N 
ATOM      4  C   UNL     1       2.336   3.029  -0.893  1.00  0.00     0.222 C 
ATOM      5  O   UNL     1       1.752   3.879  -0.219  1.00  0.00    -0.275 OA
ATOM      6  H   UNL     1       1.569   3.764  -2.573  1.00  0.00     0.163 HD
BRANCH   4   7
ATOM      7  C   UNL     1       3.330   2.071  -0.250  1.00  0.00     0.128 C 
BRANCH   7   8
ATOM      8  C   UNL     1       2.747   0.802   0.421  1.00  0.00     0.049 C 
ATOM      9  C   UNL     1       3.709  -0.207   1.162  1.00  0.00     0.029 C 
ATOM     10  C   UNL     1       2.575  -0.393  -0.575  1.00  0.00     0.029 C 
ATOM     11  C   UNL     1       3.973  -0.880  -0.179  1.00  0.00     0.005 C 
BRANCH   8  12
ATOM     12  N   UNL     1       1.487   1.169   1.135  1.00  0.00    -0.348 N 
ATOM     13  C   UNL     1       1.266   1.604   2.420  1.00  0.00     0.243 C 
ATOM     14  O   UNL     1       0.305   2.355   2.620  1.00  0.00    -0.273 OA
ATOM     15  H   UNL     1       0.672   1.084   0.589  1.00  0.00     0.164 HD
BRANCH  13  16
ATOM     16  C   UNL     1       2.099   1.075   3.599  1.00  0.00     0.173 C 
BRANCH  16  17
ATOM     17  N   UNL     1       2.643   2.186   4.394  1.00  0.00    -0.344 N 
ATOM     18  C   UNL     1       4.881   2.291   3.360  1.00  0.00     0.114 C 
ATOM     19  C   UNL     1       3.881   2.753   4.376  1.00  0.00     0.217 C 
ATOM     20  O   UNL     1       4.171   3.613   5.206  1.00  0.00    -0.275 OA
ATOM     21  H   UNL     1       2.014   2.582   5.040  1.00  0.00     0.164 HD
ENDBRANCH  16  17
BRANCH  16  22
ATOM     22  C   UNL     1       1.210   0.175   4.516  1.00  0.00     0.015 C 
ATOM     23  C   UNL     1       0.071  -0.569   3.802  1.00  0.00     0.010 C 
ATOM     24  C   UNL     1       2.080  -0.854   5.245  1.00  0.00     0.010 C 
ENDBRANCH  16  22
ENDBRANCH  13  16
ENDBRANCH   8  12
ENDBRANCH   7   8
ENDBRANCH   4   7
ENDBRANCH   2   3
ENDBRANCH   1   2
BRANCH   1  25
ATOM     25  C   UNL     1       0.413   0.988  -4.512  1.00  0.00     0.023 C 
BRANCH  25  26
ATOM     26  C   UNL     1       1.194   0.769  -5.797  1.00  0.00     0.116 C 
BRANCH  26  27
ATOM     27  N   UNL     1       2.130  -0.357  -5.773  1.00  0.00    -0.352 N 
ATOM     28  C   UNL     1       2.454  -1.209  -6.809  1.00  0.00     0.251 C 
ATOM     29  H   UNL     1       2.582  -0.527  -4.915  1.00  0.00     0.163 HD
ATOM     30  O   UNL     1       3.212  -2.150  -6.641  1.00  0.00    -0.269 OA
BRANCH  28  31
ATOM     31  C   UNL     1       1.804  -0.956  -8.107  1.00  0.00     0.039 A 
ATOM     32  C   UNL     1       1.020  -1.954  -8.684  1.00  0.00     0.014 A 
ATOM     33  C   UNL     1       1.818   0.342  -8.617  1.00  0.00     0.014 A 
ATOM     34  C   UNL     1       0.162  -1.615  -9.730  1.00  0.00     0.010 A 
ATOM     35  C   UNL     1       0.866   0.701  -9.554  1.00  0.00     0.010 A 
ATOM     36  C   UNL     1       0.039  -0.275 -10.133  1.00  0.00    -0.014 A 
BRANCH  36  37
ATOM     37  C   UNL     1      -0.902   0.145 -11.200  1.00  0.00     0.031 A 
ATOM     38  C   UNL     1      -0.350   0.848 -12.411  1.00  0.00     0.074 A 
ATOM     39  C   UNL     1      -2.231  -0.009 -11.038  1.00  0.00     0.049 A 
ATOM     40  N   UNL     1      -0.982   1.455 -13.380  1.00  0.00    -0.248 NA
ATOM     41  C   UNL     1       1.117   0.940 -12.502  1.00  0.00     0.031 C 
ATOM     42  C   UNL     1      -2.885  -0.613  -9.873  1.00  0.00     0.029 A 
ATOM     43  N   UNL     1      -3.275   0.341 -11.855  1.00  0.00    -0.354 N 
ATOM     44  C   UNL     1       0.009   2.037 -14.164  1.00  0.00     0.074 A 
ATOM     45  C   UNL     1       1.270   1.790 -13.503  1.00  0.00     0.031 C 
ATOM     46  C   UNL     1      -4.214  -0.626 -10.071  1.00  0.00     0.029 A 
ATOM     47  C   UNL     1      -4.511   0.007 -11.352  1.00  0.00     0.049 A 
ATOM     48  H   UNL     1      -3.152   0.790 -12.723  1.00  0.00     0.167 HD
ATOM     49  C   UNL     1      -0.117   2.681 -15.349  1.00  0.00     0.034 A 
ATOM     50  C   UNL     1      -5.741   0.194 -11.870  1.00  0.00     0.034 A 
ATOM     51  C   UNL     1      -1.379   2.856 -16.018  1.00  0.00     0.049 A 
ATOM     52  C   UNL     1      -5.857   0.865 -13.217  1.00  0.00     0.074 A 
ATOM     53  C   UNL     1      -1.633   3.426 -17.252  1.00  0.00     0.029 A 
ATOM     54  N   UNL     1      -2.605   2.445 -15.508  1.00  0.00    -0.354 N 
ATOM     55  N   UNL     1      -4.908   1.370 -13.972  1.00  0.00    -0.248 NA
ATOM     56  C   UNL     1      -7.205   0.976 -13.787  1.00  0.00     0.031 C 
ATOM     57  C   UNL     1      -3.015   3.399 -17.468  1.00  0.00     0.029 A 
ATOM     58  C   UNL     1      -3.618   2.756 -16.398  1.00  0.00     0.049 A 
ATOM     59  H   UNL     1      -2.734   1.999 -14.640  1.00  0.00     0.167 HD
ATOM     60  C   UNL     1      -5.543   1.827 -15.123  1.00  0.00     0.074 A 
ATOM     61  C   UNL     1      -6.952   1.526 -14.966  1.00  0.00     0.031 C 
ATOM     62  C   UNL     1      -5.014   2.437 -16.215  1.00  0.00     0.034 A 
BRANCH  49  63
ATOM     63  C   UNL     1       1.144   3.233 -15.972  1.00  0.00     0.023 A 
ATOM     64  C   UNL     1       2.219   2.397 -16.323  1.00  0.00     0.031 A 
ATOM     65  C   UNL     1       1.304   4.618 -16.152  1.00  0.00     0.131 A 
ATOM     66  C   UNL     1       3.438   2.956 -16.732  1.00  0.00     0.055 A 
ATOM     67  C   UNL     1       2.489   5.162 -16.655  1.00  0.00     0.041 A 
ATOM     68  F   UNL     1       0.323   5.470 -15.816  1.00  0.00    -0.206 F 
ATOM     69  C   UNL     1       3.572   4.332 -16.928  1.00  0.00     0.022 A 
BRANCH  66  70
ATOM     70  S   UNL     1       4.891   1.875 -16.832  1.00  0.00     0.124 S 
ATOM     71  O   UNL     1       5.002   1.405 -15.453  1.00  0.00    -0.237 OA
ATOM     72  O   UNL     1       4.478   0.879 -17.814  1.00  0.00    -0.237 OA
ATOM     73  O   UNL     1       5.959   2.774 -17.265  1.00  0.00    -0.744 OA
ENDBRANCH  66  70
ENDBRANCH  49  63
BRANCH  50  74
ATOM     74  C   UNL     1      -6.955  -0.270 -11.140  1.00  0.00     0.023 A 
ATOM     75  C   UNL     1      -7.754  -1.303 -11.656  1.00  0.00     0.031 A 
ATOM     76  C   UNL     1      -7.358   0.335  -9.937  1.00  0.00     0.131 A 
ATOM     77  C   UNL     1      -8.941  -1.667 -11.001  1.00  0.00     0.055 A 
ATOM     78  C   UNL     1      -8.514  -0.063  -9.262  1.00  0.00     0.041 A 
ATOM     79  F   UNL     1      -6.624   1.319  -9.393  1.00  0.00    -0.206 F 
ATOM     80  C   UNL     1      -9.321  -1.061  -9.802  1.00  0.00     0.022 A 
BRANCH  77  81
ATOM     81  S   UNL     1     -10.024  -2.894 -11.783  1.00  0.00     0.124 S 
ATOM     82  O   UNL     1     -10.292  -2.274 -13.075  1.00  0.00    -0.237 OA
ATOM     83  O   UNL     1      -9.171  -4.079 -11.804  1.00  0.00    -0.237 OA
ATOM     84  O   UNL     1     -11.166  -2.968 -10.875  1.00  0.00    -0.744 OA
ENDBRANCH  77  81
ENDBRANCH  50  74
BRANCH  62  85
ATOM     85  C   UNL     1      -5.961   2.760 -17.341  1.00  0.00     0.023 A 
ATOM     86  C   UNL     1      -6.955   3.744 -17.211  1.00  0.00     0.031 A 
ATOM     87  C   UNL     1      -5.862   2.068 -18.561  1.00  0.00     0.131 A 
ATOM     88  C   UNL     1      -7.848   3.974 -18.268  1.00  0.00     0.055 A 
ATOM     89  C   UNL     1      -6.717   2.341 -19.629  1.00  0.00     0.041 A 
ATOM     90  F   UNL     1      -4.928   1.119 -18.735  1.00  0.00    -0.206 F 
ATOM     91  C   UNL     1      -7.725   3.290 -19.481  1.00  0.00     0.022 A 
BRANCH  88  92
ATOM     92  S   UNL     1      -9.227   5.121 -18.005  1.00  0.00     0.124 S 
ATOM     93  O   UNL     1      -9.912   4.516 -16.867  1.00  0.00    -0.237 OA
ATOM     94  O   UNL     1      -8.538   6.380 -17.739  1.00  0.00    -0.237 OA
ATOM     95  O   UNL     1      -9.959   5.071 -19.269  1.00  0.00    -0.744 OA
ENDBRANCH  88  92
ENDBRANCH  62  85
ENDBRANCH  36  37
ENDBRANCH  28  31
ENDBRANCH  26  27
ENDBRANCH  25  26
ENDBRANCH   1  25
TORSDOF 19
