REMARK SMILES CC[C@H]1CCCCN1S(=O)(=O)c1ccc2oc(C(=O)NCCCCNC(=O)c3ccc(-c4c5nc(c(-c6cc(S(=O)(=O)[O-])ccc6F)c6ccc([nH]6)c(-c6cc(S(=O)(=O)[O-])ccc6F)c6nc(c(-c7cc(S(=O)(=O)[O-])ccc7F)c7ccc4[nH]7)C=C6)C=C5)cc3)c(C)c2c1
REMARK SMILES IDX 22 1 21 2 20 3 18 4 19 5 17 7 12 8 13 9 94 10 14 11 93 12
REMARK SMILES IDX 15 13 91 14 16 15 92 16 9 17 10 18 11 19 8 20 3 21 4 22 5 23
REMARK SMILES IDX 7 24 6 25 2 26 1 27 23 28 24 29 25 30 26 31 27 33 28 34
REMARK SMILES IDX 29 35 90 36 30 37 89 38 31 39 32 40 33 41 83 42 34 43 88 44
REMARK SMILES IDX 82 45 84 46 35 47 87 48 81 49 80 50 36 52 68 53 48 54 67 55
REMARK SMILES IDX 49 56 52 57 66 58 85 59 50 60 51 61 65 63 86 64 53 65 37 66
REMARK SMILES IDX 38 67 46 68 39 69 45 70 47 71 44 72 40 73 41 74 42 75 43 76
REMARK SMILES IDX 69 77 70 78 78 79 71 80 77 81 79 82 76 83 72 84 73 85 74 86
REMARK SMILES IDX 75 87 54 88 55 89 63 90 56 91 62 92 64 93 61 94 57 95 58 96
REMARK SMILES IDX 59 97 60 98
REMARK H PARENT 20 6 25 32 84 51 52 62
REMARK Flexibility Score: inf
ROOT
ATOM      1  C   UNL     1       2.599   8.414   7.460  1.00  0.00     0.023 C 
ENDROOT
BRANCH   1   2
ATOM      2  C   UNL     1       1.466   7.565   6.907  1.00  0.00     0.116 C 
BRANCH   2   3
ATOM      3  N   UNL     1       0.271   8.261   6.488  1.00  0.00    -0.349 N 
ATOM      4  C   UNL     1      -0.636   7.917   5.498  1.00  0.00     0.287 C 
ATOM      5  O   UNL     1      -1.580   8.693   5.335  1.00  0.00    -0.266 OA
ATOM      6  H   UNL     1       0.074   9.095   6.973  1.00  0.00     0.163 HD
BRANCH   4   7
ATOM      7  C   UNL     1      -0.437   6.734   4.666  1.00  0.00     0.195 A 
ATOM      8  C   UNL     1       0.365   3.234   1.833  1.00  0.00     0.083 A 
ATOM      9  C   UNL     1      -0.592   3.917   1.072  1.00  0.00     0.025 A 
ATOM     10  C   UNL     1       0.864   3.790   3.011  1.00  0.00     0.034 A 
ATOM     11  C   UNL     1      -1.091   5.167   1.500  1.00  0.00     0.049 A 
ATOM     12  C   UNL     1       0.227   4.913   3.538  1.00  0.00     0.025 A 
ATOM     13  C   UNL     1      -0.665   5.613   2.754  1.00  0.00     0.135 A 
ATOM     14  C   UNL     1       0.178   5.495   4.830  1.00  0.00     0.008 A 
ATOM     15  O   UNL     1      -1.026   6.752   3.407  1.00  0.00    -0.451 OA
ATOM     16  C   UNL     1       0.650   4.783   6.047  1.00  0.00     0.049 C 
BRANCH   8  17
ATOM     17  S   UNL     1       1.060   1.675   1.334  1.00  0.00     0.243 S 
ATOM     18  O   UNL     1       2.497   1.847   1.391  1.00  0.00    -0.207 OA
ATOM     19  O   UNL     1       0.414   1.278   0.099  1.00  0.00    -0.207 OA
BRANCH  17  20
ATOM     20  N   UNL     1       0.597   0.516   2.545  1.00  0.00    -0.195 NA
ATOM     21  C   UNL     1       1.027  -0.897   2.207  1.00  0.00     0.073 C 
ATOM     22  C   UNL     1       0.310  -1.880   3.150  1.00  0.00     0.020 C 
ATOM     23  C   UNL     1       0.573  -1.576   4.621  1.00  0.00     0.003 C 
ATOM     24  C   UNL     1       0.850   0.848   3.976  1.00  0.00     0.103 C 
ATOM     25  C   UNL     1       0.185  -0.143   4.923  1.00  0.00     0.017 C 
BRANCH  21  26
ATOM     26  C   UNL     1       2.560  -1.096   2.259  1.00  0.00     0.017 C 
ATOM     27  C   UNL     1       3.109  -1.593   0.928  1.00  0.00     0.005 C 
ENDBRANCH  21  26
ENDBRANCH  17  20
ENDBRANCH   8  17
ENDBRANCH   4   7
ENDBRANCH   2   3
ENDBRANCH   1   2
BRANCH   1  28
ATOM     28  C   UNL     1       2.344   9.124   8.784  1.00  0.00     0.023 C 
BRANCH  28  29
ATOM     29  C   UNL     1       1.734   8.297   9.911  1.00  0.00     0.116 C 
BRANCH  29  30
ATOM     30  N   UNL     1       2.493   7.107  10.270  1.00  0.00    -0.352 N 
ATOM     31  C   UNL     1       2.960   6.689  11.499  1.00  0.00     0.251 C 
ATOM     32  H   UNL     1       2.704   6.506   9.519  1.00  0.00     0.163 HD
ATOM     33  O   UNL     1       3.622   5.657  11.569  1.00  0.00    -0.269 OA
BRANCH  31  34
ATOM     34  C   UNL     1       2.718   7.505  12.712  1.00  0.00     0.039 A 
ATOM     35  C   UNL     1       3.783   7.749  13.584  1.00  0.00     0.014 A 
ATOM     36  C   UNL     1       1.466   8.064  12.974  1.00  0.00     0.014 A 
ATOM     37  C   UNL     1       3.617   8.635  14.652  1.00  0.00     0.010 A 
ATOM     38  C   UNL     1       1.330   9.021  13.976  1.00  0.00     0.010 A 
ATOM     39  C   UNL     1       2.405   9.324  14.826  1.00  0.00    -0.014 A 
BRANCH  39  40
ATOM     40  C   UNL     1       2.255  10.367  15.879  1.00  0.00     0.031 A 
ATOM     41  C   UNL     1       1.224  10.212  16.966  1.00  0.00     0.074 A 
ATOM     42  C   UNL     1       2.999  11.491  15.815  1.00  0.00     0.049 A 
ATOM     43  N   UNL     1       0.924  11.026  17.946  1.00  0.00    -0.248 NA
ATOM     44  C   UNL     1       0.391   9.002  16.918  1.00  0.00     0.031 C 
ATOM     45  C   UNL     1       3.973  11.802  14.765  1.00  0.00     0.029 A 
ATOM     46  N   UNL     1       3.052  12.584  16.645  1.00  0.00    -0.354 N 
ATOM     47  C   UNL     1      -0.142  10.437  18.618  1.00  0.00     0.074 A 
ATOM     48  C   UNL     1      -0.481   9.235  17.886  1.00  0.00     0.031 C 
ATOM     49  C   UNL     1       4.549  12.985  15.033  1.00  0.00     0.029 A 
ATOM     50  C   UNL     1       3.965  13.536  16.252  1.00  0.00     0.049 A 
ATOM     51  H   UNL     1       2.489  12.678  17.447  1.00  0.00     0.167 HD
ATOM     52  C   UNL     1      -0.761  10.841  19.756  1.00  0.00     0.034 A 
ATOM     53  C   UNL     1       4.299  14.717  16.809  1.00  0.00     0.034 A 
ATOM     54  C   UNL     1      -0.394  12.030  20.487  1.00  0.00     0.049 A 
ATOM     55  C   UNL     1       3.628  15.130  18.094  1.00  0.00     0.074 A 
ATOM     56  C   UNL     1      -0.899  12.495  21.689  1.00  0.00     0.029 A 
ATOM     57  N   UNL     1       0.567  12.948  20.081  1.00  0.00    -0.354 N 
ATOM     58  N   UNL     1       2.679  14.518  18.764  1.00  0.00    -0.248 NA
ATOM     59  C   UNL     1       4.091  16.380  18.709  1.00  0.00     0.031 C 
ATOM     60  C   UNL     1      -0.290  13.721  21.978  1.00  0.00     0.029 A 
ATOM     61  C   UNL     1       0.652  13.987  20.996  1.00  0.00     0.049 A 
ATOM     62  H   UNL     1       1.110  12.872  19.263  1.00  0.00     0.167 HD
ATOM     63  C   UNL     1       2.455  15.294  19.898  1.00  0.00     0.074 A 
ATOM     64  C   UNL     1       3.377  16.409  19.826  1.00  0.00     0.031 C 
ATOM     65  C   UNL     1       1.570  15.099  20.909  1.00  0.00     0.034 A 
BRANCH  52  66
ATOM     66  C   UNL     1      -1.909   9.995  20.260  1.00  0.00     0.023 A 
ATOM     67  C   UNL     1      -1.728   8.650  20.630  1.00  0.00     0.031 A 
ATOM     68  C   UNL     1      -3.209  10.525  20.333  1.00  0.00     0.131 A 
ATOM     69  C   UNL     1      -2.837   7.858  20.964  1.00  0.00     0.055 A 
ATOM     70  C   UNL     1      -4.296   9.755  20.755  1.00  0.00     0.041 A 
ATOM     71  F   UNL     1      -3.451  11.796  19.977  1.00  0.00    -0.206 F 
ATOM     72  C   UNL     1      -4.117   8.408  21.055  1.00  0.00     0.022 A 
BRANCH  69  73
ATOM     73  S   UNL     1      -2.603   6.065  21.114  1.00  0.00     0.124 S 
ATOM     74  O   UNL     1      -2.075   5.725  19.795  1.00  0.00    -0.237 OA
ATOM     75  O   UNL     1      -1.664   5.961  22.224  1.00  0.00    -0.237 OA
ATOM     76  O   UNL     1      -3.950   5.566  21.385  1.00  0.00    -0.744 OA
ENDBRANCH  69  73
ENDBRANCH  52  66
BRANCH  53  77
ATOM     77  C   UNL     1       5.327  15.587  16.169  1.00  0.00     0.023 A 
ATOM     78  C   UNL     1       6.563  15.828  16.791  1.00  0.00     0.031 A 
ATOM     79  C   UNL     1       5.078  16.211  14.934  1.00  0.00     0.131 A 
ATOM     80  C   UNL     1       7.487  16.703  16.198  1.00  0.00     0.055 A 
ATOM     81  C   UNL     1       6.019  17.043  14.325  1.00  0.00     0.041 A 
ATOM     82  F   UNL     1       3.917  16.005  14.292  1.00  0.00    -0.206 F 
ATOM     83  C   UNL     1       7.228  17.302  14.963  1.00  0.00     0.022 A 
BRANCH  80  84
ATOM     84  S   UNL     1       9.010  17.101  17.099  1.00  0.00     0.124 S 
ATOM     85  O   UNL     1       8.486  17.669  18.335  1.00  0.00    -0.237 OA
ATOM     86  O   UNL     1       9.645  15.792  17.211  1.00  0.00    -0.237 OA
ATOM     87  O   UNL     1       9.690  18.046  16.215  1.00  0.00    -0.744 OA
ENDBRANCH  80  84
ENDBRANCH  53  77
BRANCH  65  88
ATOM     88  C   UNL     1       1.598  16.092  22.045  1.00  0.00     0.023 A 
ATOM     89  C   UNL     1       1.224  17.436  21.867  1.00  0.00     0.031 A 
ATOM     90  C   UNL     1       2.023  15.688  23.324  1.00  0.00     0.131 A 
ATOM     91  C   UNL     1       1.339  18.340  22.934  1.00  0.00     0.055 A 
ATOM     92  C   UNL     1       2.076  16.578  24.397  1.00  0.00     0.041 A 
ATOM     93  F   UNL     1       2.393  14.417  23.551  1.00  0.00    -0.206 F 
ATOM     94  C   UNL     1       1.747  17.916  24.202  1.00  0.00     0.022 A 
BRANCH  91  95
ATOM     95  S   UNL     1       1.044  20.102  22.618  1.00  0.00     0.124 S 
ATOM     96  O   UNL     1       2.003  20.385  21.555  1.00  0.00    -0.237 OA
ATOM     97  O   UNL     1      -0.362  20.117  22.229  1.00  0.00    -0.237 OA
ATOM     98  O   UNL     1       1.338  20.735  23.903  1.00  0.00    -0.744 OA
ENDBRANCH  91  95
ENDBRANCH  65  88
ENDBRANCH  39  40
ENDBRANCH  31  34
ENDBRANCH  29  30
ENDBRANCH  28  29
ENDBRANCH   1  28
TORSDOF 17
