REMARK SMILES C[C@](NC(=O)[C@](C)([NH3+])C(F)(F)F)(C(=O)NCCCCNC(=O)c1ccc(-c2c3nc(c(-c4cc(S(=O)(=O)[O-])ccc4F)c4ccc([nH]4)c(-c4cc(S(=O)(=O)[O-])ccc4F)c4nc(c(-c5cc(S(=O)(=O)[O-])ccc5F)c5ccc2[nH]5)C=C4)C=C3)cc1)c1ccccc1
REMARK SMILES IDX 17 1 16 2 15 3 13 4 14 5 2 7 1 8 86 9 87 10 91 11 88 12
REMARK SMILES IDX 90 13 89 14 3 15 4 16 5 18 6 19 7 20 8 21 9 25 10 26 11 27
REMARK SMILES IDX 12 28 18 29 19 30 20 31 21 32 22 34 23 35 24 36 85 37 25 38
REMARK SMILES IDX 84 39 26 40 27 41 28 42 78 43 29 44 83 45 77 46 79 47 30 48
REMARK SMILES IDX 82 49 76 50 75 51 31 53 63 54 43 55 62 56 44 57 47 58 61 59
REMARK SMILES IDX 80 60 45 61 46 62 60 64 81 65 48 66 32 67 33 68 41 69 34 70
REMARK SMILES IDX 40 71 42 72 39 73 35 74 36 75 37 76 38 77 64 78 65 79 73 80
REMARK SMILES IDX 66 81 72 82 74 83 71 84 67 85 68 86 69 87 70 88 49 89 50 90
REMARK SMILES IDX 58 91 51 92 57 93 59 94 56 95 52 96 53 97 54 98 55 99
REMARK H PARENT 15 6 3 17 8 22 8 23 8 24 20 33 79 52 47 63
REMARK Flexibility Score: inf
ROOT
ATOM      1  C   UNL     1       4.789   5.349  -1.813  1.00  0.00     0.023 C 
ENDROOT
BRANCH   1   2
ATOM      2  C   UNL     1       4.309   3.922  -2.068  1.00  0.00     0.116 C 
BRANCH   2   3
ATOM      3  N   UNL     1       5.085   2.947  -1.315  1.00  0.00    -0.354 N 
ATOM      4  C   UNL     1       4.779   1.849  -0.565  1.00  0.00     0.250 C 
ATOM      5  O   UNL     1       5.755   1.151  -0.263  1.00  0.00    -0.272 OA
ATOM      6  H   UNL     1       6.053   3.120  -1.357  1.00  0.00     0.163 HD
BRANCH   4   7
ATOM      7  C   UNL     1       3.299   1.451  -0.165  1.00  0.00     0.142 C 
ATOM      8  C   UNL     1       2.523   1.174  -1.477  1.00  0.00     0.051 C 
BRANCH   7   9
ATOM      9  C   UNL     1       3.348   0.213   0.760  1.00  0.00    -0.013 A 
ATOM     10  C   UNL     1       3.886   0.310   2.053  1.00  0.00     0.007 A 
ATOM     11  C   UNL     1       2.882  -1.060   0.368  1.00  0.00     0.007 A 
ATOM     12  C   UNL     1       3.769  -0.735   2.975  1.00  0.00     0.000 A 
ATOM     13  C   UNL     1       2.800  -2.121   1.275  1.00  0.00     0.000 A 
ATOM     14  C   UNL     1       3.198  -1.943   2.593  1.00  0.00     0.000 A 
ENDBRANCH   7   9
BRANCH   7  15
ATOM     15  N   UNL     1       2.692   2.678   0.480  1.00  0.00    -0.332 N 
ATOM     16  C   UNL     1       1.549   3.020   1.134  1.00  0.00     0.291 C 
ATOM     17  H   UNL     1       3.298   3.450   0.404  1.00  0.00     0.165 HD
ATOM     18  O   UNL     1       1.096   4.136   0.830  1.00  0.00    -0.267 OA
BRANCH  16  19
ATOM     19  C   UNL     1       0.883   2.235   2.295  1.00  0.00     0.267 C 
ATOM     20  C   UNL     1       0.519   0.798   1.935  1.00  0.00     0.100 C 
BRANCH  19  21
ATOM     21  N   UNL     1      -0.473   2.875   2.598  1.00  0.00    -0.337 N 
ATOM     22  H   UNL     1      -0.924   2.369   3.361  1.00  0.00     0.345 HD
ATOM     23  H   UNL     1      -1.062   2.833   1.767  1.00  0.00     0.345 HD
ATOM     24  H   UNL     1      -0.336   3.848   2.870  1.00  0.00     0.345 HD
ENDBRANCH  19  21
BRANCH  19  25
ATOM     25  C   UNL     1       1.847   2.438   3.507  1.00  0.00     0.453 C 
ATOM     26  F   UNL     1       1.850   1.393   4.364  1.00  0.00    -0.164 F 
ATOM     27  F   UNL     1       3.128   2.696   3.171  1.00  0.00    -0.164 F 
ATOM     28  F   UNL     1       1.457   3.527   4.234  1.00  0.00    -0.164 F 
ENDBRANCH  19  25
ENDBRANCH  16  19
ENDBRANCH   7  15
ENDBRANCH   4   7
ENDBRANCH   2   3
ENDBRANCH   1   2
BRANCH   1  29
ATOM     29  C   UNL     1       6.266   5.602  -2.125  1.00  0.00     0.023 C 
BRANCH  29  30
ATOM     30  C   UNL     1       6.721   5.168  -3.514  1.00  0.00     0.116 C 
BRANCH  30  31
ATOM     31  N   UNL     1       6.014   5.867  -4.575  1.00  0.00    -0.352 N 
ATOM     32  C   UNL     1       6.532   6.565  -5.638  1.00  0.00     0.251 C 
ATOM     33  H   UNL     1       5.032   5.837  -4.523  1.00  0.00     0.163 HD
ATOM     34  O   UNL     1       5.787   7.247  -6.341  1.00  0.00    -0.269 OA
BRANCH  32  35
ATOM     35  C   UNL     1       7.985   6.517  -5.909  1.00  0.00     0.039 A 
ATOM     36  C   UNL     1       8.669   7.710  -6.148  1.00  0.00     0.014 A 
ATOM     37  C   UNL     1       8.674   5.301  -5.897  1.00  0.00     0.014 A 
ATOM     38  C   UNL     1      10.056   7.690  -6.309  1.00  0.00     0.010 A 
ATOM     39  C   UNL     1      10.064   5.292  -5.978  1.00  0.00     0.010 A 
ATOM     40  C   UNL     1      10.771   6.486  -6.185  1.00  0.00    -0.014 A 
BRANCH  40  41
ATOM     41  C   UNL     1      12.256   6.461  -6.271  1.00  0.00     0.031 A 
ATOM     42  C   UNL     1      12.936   5.692  -7.371  1.00  0.00     0.074 A 
ATOM     43  C   UNL     1      12.992   7.087  -5.330  1.00  0.00     0.049 A 
ATOM     44  N   UNL     1      14.213   5.493  -7.576  1.00  0.00    -0.248 NA
ATOM     45  C   UNL     1      12.062   5.035  -8.354  1.00  0.00     0.031 C 
ATOM     46  C   UNL     1      12.448   7.835  -4.193  1.00  0.00     0.029 A 
ATOM     47  N   UNL     1      14.351   7.191  -5.172  1.00  0.00    -0.354 N 
ATOM     48  C   UNL     1      14.296   4.687  -8.706  1.00  0.00     0.074 A 
ATOM     49  C   UNL     1      12.937   4.376  -9.097  1.00  0.00     0.031 C 
ATOM     50  C   UNL     1      13.462   8.341  -3.474  1.00  0.00     0.029 A 
ATOM     51  C   UNL     1      14.727   7.912  -4.061  1.00  0.00     0.049 A 
ATOM     52  H   UNL     1      14.998   6.788  -5.796  1.00  0.00     0.167 HD
ATOM     53  C   UNL     1      15.401   4.268  -9.372  1.00  0.00     0.034 A 
ATOM     54  C   UNL     1      15.950   8.183  -3.562  1.00  0.00     0.034 A 
ATOM     55  C   UNL     1      16.749   4.588  -8.968  1.00  0.00     0.049 A 
ATOM     56  C   UNL     1      17.165   7.667  -4.293  1.00  0.00     0.074 A 
ATOM     57  C   UNL     1      17.938   4.249  -9.591  1.00  0.00     0.029 A 
ATOM     58  N   UNL     1      17.090   5.312  -7.832  1.00  0.00    -0.354 N 
ATOM     59  N   UNL     1      17.225   6.944  -5.388  1.00  0.00    -0.248 NA
ATOM     60  C   UNL     1      18.476   8.012  -3.728  1.00  0.00     0.031 C 
ATOM     61  C   UNL     1      18.995   4.698  -8.793  1.00  0.00     0.029 A 
ATOM     62  C   UNL     1      18.470   5.399  -7.719  1.00  0.00     0.049 A 
ATOM     63  H   UNL     1      16.447   5.705  -7.200  1.00  0.00     0.167 HD
ATOM     64  C   UNL     1      18.581   6.779  -5.659  1.00  0.00     0.074 A 
ATOM     65  C   UNL     1      19.301   7.491  -4.623  1.00  0.00     0.031 C 
ATOM     66  C   UNL     1      19.178   6.104  -6.675  1.00  0.00     0.034 A 
BRANCH  53  67
ATOM     67  C   UNL     1      15.191   3.398 -10.590  1.00  0.00     0.023 A 
ATOM     68  C   UNL     1      14.489   3.863 -11.717  1.00  0.00     0.031 A 
ATOM     69  C   UNL     1      15.677   2.078 -10.619  1.00  0.00     0.131 A 
ATOM     70  C   UNL     1      14.225   2.994 -12.787  1.00  0.00     0.055 A 
ATOM     71  C   UNL     1      15.488   1.247 -11.725  1.00  0.00     0.041 A 
ATOM     72  F   UNL     1      16.334   1.568  -9.565  1.00  0.00    -0.206 F 
ATOM     73  C   UNL     1      14.744   1.699 -12.812  1.00  0.00     0.022 A 
BRANCH  70  74
ATOM     74  S   UNL     1      13.063   3.534 -14.070  1.00  0.00     0.124 S 
ATOM     75  O   UNL     1      11.860   3.801 -13.285  1.00  0.00    -0.237 OA
ATOM     76  O   UNL     1      13.732   4.701 -14.633  1.00  0.00    -0.237 OA
ATOM     77  O   UNL     1      12.972   2.377 -14.959  1.00  0.00    -0.744 OA
ENDBRANCH  70  74
ENDBRANCH  53  67
BRANCH  54  78
ATOM     78  C   UNL     1      16.096   8.961  -2.296  1.00  0.00     0.023 A 
ATOM     79  C   UNL     1      16.752  10.203  -2.277  1.00  0.00     0.031 A 
ATOM     80  C   UNL     1      15.623   8.449  -1.074  1.00  0.00     0.131 A 
ATOM     81  C   UNL     1      16.963  10.864  -1.057  1.00  0.00     0.055 A 
ATOM     82  C   UNL     1      15.781   9.140   0.128  1.00  0.00     0.041 A 
ATOM     83  F   UNL     1      14.988   7.267  -1.033  1.00  0.00    -0.206 F 
ATOM     84  C   UNL     1      16.468  10.350   0.143  1.00  0.00     0.022 A 
BRANCH  81  85
ATOM     85  S   UNL     1      17.987  12.362  -1.047  1.00  0.00     0.124 S 
ATOM     86  O   UNL     1      19.235  11.871  -1.621  1.00  0.00    -0.237 OA
ATOM     87  O   UNL     1      17.207  13.267  -1.884  1.00  0.00    -0.237 OA
ATOM     88  O   UNL     1      18.049  12.722   0.368  1.00  0.00    -0.744 OA
ENDBRANCH  81  85
ENDBRANCH  54  78
BRANCH  66  89
ATOM     89  C   UNL     1      20.687   6.148  -6.741  1.00  0.00     0.023 A 
ATOM     90  C   UNL     1      21.493   5.564  -5.749  1.00  0.00     0.031 A 
ATOM     91  C   UNL     1      21.327   6.795  -7.815  1.00  0.00     0.131 A 
ATOM     92  C   UNL     1      22.889   5.689  -5.819  1.00  0.00     0.055 A 
ATOM     93  C   UNL     1      22.717   6.855  -7.915  1.00  0.00     0.041 A 
ATOM     94  F   UNL     1      20.609   7.376  -8.789  1.00  0.00    -0.206 F 
ATOM     95  C   UNL     1      23.507   6.313  -6.906  1.00  0.00     0.022 A 
BRANCH  92  96
ATOM     96  S   UNL     1      23.886   5.115  -4.416  1.00  0.00     0.124 S 
ATOM     97  O   UNL     1      23.338   5.899  -3.314  1.00  0.00    -0.237 OA
ATOM     98  O   UNL     1      23.595   3.686  -4.389  1.00  0.00    -0.237 OA
ATOM     99  O   UNL     1      25.253   5.461  -4.803  1.00  0.00    -0.744 OA
ENDBRANCH  92  96
ENDBRANCH  66  89
ENDBRANCH  40  41
ENDBRANCH  32  35
ENDBRANCH  30  31
ENDBRANCH  29  30
ENDBRANCH   1  29
TORSDOF 19
