REMARK SMILES CCC(CC)N(CC(C)C)C(=O)N1CC[C@@H](C(=O)NCCCCNC(=O)c2ccc(-c3c4nc(c(-c5cc(S(=O)(=O)[O-])ccc5F)c5ccc([nH]5)c(-c5cc(S(=O)(=O)[O-])ccc5F)c5nc(c(-c6cc(S(=O)(=O)[O-])ccc6F)c6ccc3[nH]6)C=C5)C=C4)cc2)[C@@H]1C
REMARK SMILES IDX 21 1 20 2 19 3 17 4 18 5 16 7 13 8 14 9 90 10 15 11 91 12
REMARK SMILES IDX 11 13 12 14 6 15 3 16 2 17 1 18 4 19 5 20 7 21 8 22 9 23
REMARK SMILES IDX 10 24 22 25 23 26 24 27 25 28 26 30 27 31 28 32 89 33 29 34
REMARK SMILES IDX 88 35 30 36 31 37 32 38 82 39 33 40 87 41 81 42 83 43 34 44
REMARK SMILES IDX 86 45 80 46 79 47 35 49 67 50 47 51 66 52 48 53 51 54 65 55
REMARK SMILES IDX 84 56 49 57 50 58 64 60 85 61 52 62 36 63 37 64 45 65 38 66
REMARK SMILES IDX 44 67 46 68 43 69 39 70 40 71 41 72 42 73 68 74 69 75 77 76
REMARK SMILES IDX 70 77 76 78 78 79 75 80 71 81 72 82 73 83 74 84 53 85 54 86
REMARK SMILES IDX 62 87 55 88 61 89 63 90 60 91 56 92 57 93 58 94 59 95
REMARK H PARENT 19 6 24 29 83 48 51 59
REMARK Flexibility Score: inf
ROOT
ATOM      1  C   UNL     1       1.948  -1.324   6.915  1.00  0.00     0.023 C 
ENDROOT
BRANCH   1   2
ATOM      2  C   UNL     1       0.574  -1.824   7.342  1.00  0.00     0.116 C 
BRANCH   2   3
ATOM      3  N   UNL     1       0.146  -1.192   8.575  1.00  0.00    -0.356 N 
ATOM      4  C   UNL     1      -0.890  -0.358   8.848  1.00  0.00     0.225 C 
ATOM      5  O   UNL     1      -0.964   0.081  10.001  1.00  0.00    -0.275 OA
ATOM      6  H   UNL     1       0.708  -1.407   9.355  1.00  0.00     0.163 HD
BRANCH   4   7
ATOM      7  C   UNL     1      -1.930   0.073   7.819  1.00  0.00     0.102 C 
ATOM      8  N   UNL     1      -1.520   0.294   5.476  1.00  0.00    -0.321 N 
ATOM      9  C   UNL     1      -2.618  -0.650   5.615  1.00  0.00     0.122 C 
ATOM     10  C   UNL     1      -1.370   1.025   6.743  1.00  0.00     0.096 C 
ATOM     11  C   UNL     1      -2.633  -1.064   7.078  1.00  0.00     0.037 C 
ATOM     12  C   UNL     1      -2.188   2.323   6.707  1.00  0.00     0.032 C 
BRANCH   8  13
ATOM     13  C   UNL     1      -1.145   0.639   4.190  1.00  0.00     0.320 C 
ATOM     14  O   UNL     1      -1.959   0.430   3.284  1.00  0.00    -0.248 OA
BRANCH  13  15
ATOM     15  N   UNL     1       0.142   1.098   3.914  1.00  0.00    -0.321 N 
BRANCH  15  16
ATOM     16  C   UNL     1       0.574   1.257   2.490  1.00  0.00     0.086 C 
BRANCH  16  17
ATOM     17  C   UNL     1       0.311  -0.002   1.622  1.00  0.00     0.022 C 
ATOM     18  C   UNL     1       1.011   0.019   0.269  1.00  0.00     0.006 C 
ENDBRANCH  16  17
BRANCH  16  19
ATOM     19  C   UNL     1       0.157   2.599   1.863  1.00  0.00     0.022 C 
ATOM     20  C   UNL     1      -1.324   2.795   1.604  1.00  0.00     0.006 C 
ENDBRANCH  16  19
ENDBRANCH  15  16
BRANCH  15  21
ATOM     21  C   UNL     1       1.242   1.113   4.870  1.00  0.00     0.124 C 
BRANCH  21  22
ATOM     22  C   UNL     1       1.912   2.468   5.173  1.00  0.00     0.002 C 
ATOM     23  C   UNL     1       0.939   3.575   5.564  1.00  0.00     0.009 C 
ATOM     24  C   UNL     1       2.930   2.287   6.309  1.00  0.00     0.009 C 
ENDBRANCH  21  22
ENDBRANCH  15  21
ENDBRANCH  13  15
ENDBRANCH   8  13
ENDBRANCH   4   7
ENDBRANCH   2   3
ENDBRANCH   1   2
BRANCH   1  25
ATOM     25  C   UNL     1       3.148  -1.955   7.589  1.00  0.00     0.023 C 
BRANCH  25  26
ATOM     26  C   UNL     1       3.263  -3.452   7.393  1.00  0.00     0.116 C 
BRANCH  26  27
ATOM     27  N   UNL     1       3.291  -3.863   5.995  1.00  0.00    -0.352 N 
ATOM     28  C   UNL     1       4.186  -4.691   5.348  1.00  0.00     0.251 C 
ATOM     29  H   UNL     1       2.570  -3.498   5.432  1.00  0.00     0.163 HD
ATOM     30  O   UNL     1       4.125  -4.835   4.137  1.00  0.00    -0.269 OA
BRANCH  28  31
ATOM     31  C   UNL     1       5.246  -5.353   6.141  1.00  0.00     0.039 A 
ATOM     32  C   UNL     1       6.559  -5.345   5.669  1.00  0.00     0.014 A 
ATOM     33  C   UNL     1       4.951  -5.896   7.391  1.00  0.00     0.014 A 
ATOM     34  C   UNL     1       7.587  -5.797   6.499  1.00  0.00     0.010 A 
ATOM     35  C   UNL     1       5.983  -6.208   8.263  1.00  0.00     0.010 A 
ATOM     36  C   UNL     1       7.314  -6.179   7.823  1.00  0.00    -0.014 A 
BRANCH  36  37
ATOM     37  C   UNL     1       8.393  -6.585   8.761  1.00  0.00     0.031 A 
ATOM     38  C   UNL     1       8.351  -7.952   9.394  1.00  0.00     0.074 A 
ATOM     39  C   UNL     1       9.357  -5.705   9.098  1.00  0.00     0.049 A 
ATOM     40  N   UNL     1       9.134  -8.470  10.303  1.00  0.00    -0.248 NA
ATOM     41  C   UNL     1       7.246  -8.836   8.985  1.00  0.00     0.031 C 
ATOM     42  C   UNL     1       9.462  -4.329   8.605  1.00  0.00     0.029 A 
ATOM     43  N   UNL     1      10.434  -5.834   9.939  1.00  0.00    -0.354 N 
ATOM     44  C   UNL     1       8.603  -9.723  10.590  1.00  0.00     0.074 A 
ATOM     45  C   UNL     1       7.382  -9.847   9.826  1.00  0.00     0.031 C 
ATOM     46  C   UNL     1      10.566  -3.759   9.115  1.00  0.00     0.029 A 
ATOM     47  C   UNL     1      11.222  -4.707  10.009  1.00  0.00     0.049 A 
ATOM     48  H   UNL     1      10.626  -6.656  10.445  1.00  0.00     0.167 HD
ATOM     49  C   UNL     1       9.106 -10.698  11.386  1.00  0.00     0.034 A 
ATOM     50  C   UNL     1      12.344  -4.468  10.715  1.00  0.00     0.034 A 
ATOM     51  C   UNL     1      10.345 -10.567  12.111  1.00  0.00     0.049 A 
ATOM     52  C   UNL     1      12.895  -5.571  11.585  1.00  0.00     0.074 A 
ATOM     53  C   UNL     1      10.990 -11.506  12.895  1.00  0.00     0.029 A 
ATOM     54  N   UNL     1      11.129  -9.419  12.138  1.00  0.00    -0.354 N 
ATOM     55  N   UNL     1      12.413  -6.775  11.797  1.00  0.00    -0.248 NA
ATOM     56  C   UNL     1      14.147  -5.288  12.296  1.00  0.00     0.031 C 
ATOM     57  C   UNL     1      12.128 -10.907  13.447  1.00  0.00     0.029 A 
ATOM     58  C   UNL     1      12.237  -9.619  12.946  1.00  0.00     0.049 A 
ATOM     59  H   UNL     1      10.927  -8.586  11.654  1.00  0.00     0.167 HD
ATOM     60  C   UNL     1      13.322  -7.402  12.645  1.00  0.00     0.074 A 
ATOM     61  C   UNL     1      14.388  -6.450  12.884  1.00  0.00     0.031 C 
ATOM     62  C   UNL     1      13.282  -8.650  13.179  1.00  0.00     0.034 A 
BRANCH  49  63
ATOM     63  C   UNL     1       8.306 -11.974  11.512  1.00  0.00     0.023 A 
ATOM     64  C   UNL     1       8.026 -12.784  10.396  1.00  0.00     0.031 A 
ATOM     65  C   UNL     1       7.776 -12.365  12.754  1.00  0.00     0.131 A 
ATOM     66  C   UNL     1       7.168 -13.886  10.525  1.00  0.00     0.055 A 
ATOM     67  C   UNL     1       6.998 -13.517  12.893  1.00  0.00     0.041 A 
ATOM     68  F   UNL     1       7.989 -11.624  13.853  1.00  0.00    -0.206 F 
ATOM     69  C   UNL     1       6.674 -14.275  11.772  1.00  0.00     0.022 A 
BRANCH  66  70
ATOM     70  S   UNL     1       6.579 -14.704   9.017  1.00  0.00     0.124 S 
ATOM     71  O   UNL     1       5.905 -13.604   8.331  1.00  0.00    -0.237 OA
ATOM     72  O   UNL     1       7.817 -15.174   8.408  1.00  0.00    -0.237 OA
ATOM     73  O   UNL     1       5.692 -15.752   9.519  1.00  0.00    -0.744 OA
ENDBRANCH  66  70
ENDBRANCH  49  63
BRANCH  50  74
ATOM     74  C   UNL     1      13.030  -3.146  10.630  1.00  0.00     0.023 A 
ATOM     75  C   UNL     1      14.325  -3.036  10.095  1.00  0.00     0.031 A 
ATOM     76  C   UNL     1      12.420  -1.977  11.118  1.00  0.00     0.131 A 
ATOM     77  C   UNL     1      14.986  -1.798  10.107  1.00  0.00     0.055 A 
ATOM     78  C   UNL     1      13.060  -0.737  11.078  1.00  0.00     0.041 A 
ATOM     79  F   UNL     1      11.181  -2.022  11.633  1.00  0.00    -0.206 F 
ATOM     80  C   UNL     1      14.357  -0.645  10.582  1.00  0.00     0.022 A 
BRANCH  77  81
ATOM     81  S   UNL     1      16.717  -1.732   9.569  1.00  0.00     0.124 S 
ATOM     82  O   UNL     1      17.346  -2.688  10.473  1.00  0.00    -0.237 OA
ATOM     83  O   UNL     1      16.615  -2.140   8.172  1.00  0.00    -0.237 OA
ATOM     84  O   UNL     1      17.086  -0.334   9.782  1.00  0.00    -0.744 OA
ENDBRANCH  77  81
ENDBRANCH  50  74
BRANCH  62  85
ATOM     85  C   UNL     1      14.452  -9.060  14.039  1.00  0.00     0.023 A 
ATOM     86  C   UNL     1      14.718  -8.434  15.270  1.00  0.00     0.031 A 
ATOM     87  C   UNL     1      15.322 -10.078  13.611  1.00  0.00     0.131 A 
ATOM     88  C   UNL     1      15.863  -8.786  15.998  1.00  0.00     0.055 A 
ATOM     89  C   UNL     1      16.423 -10.471  14.373  1.00  0.00     0.041 A 
ATOM     90  F   UNL     1      15.116 -10.708  12.444  1.00  0.00    -0.206 F 
ATOM     91  C   UNL     1      16.708  -9.813  15.566  1.00  0.00     0.022 A 
BRANCH  88  92
ATOM     92  S   UNL     1      16.295  -7.808  17.462  1.00  0.00     0.124 S 
ATOM     93  O   UNL     1      16.399  -6.462  16.907  1.00  0.00    -0.237 OA
ATOM     94  O   UNL     1      15.157  -8.048  18.344  1.00  0.00    -0.237 OA
ATOM     95  O   UNL     1      17.558  -8.396  17.907  1.00  0.00    -0.744 OA
ENDBRANCH  88  92
ENDBRANCH  62  85
ENDBRANCH  36  37
ENDBRANCH  28  31
ENDBRANCH  26  27
ENDBRANCH  25  26
ENDBRANCH   1  25
TORSDOF 21
