REMARK SMILES C[N@@H+]1CCO[C@H](CNC(=O)N2CC[C@@](C)(C(=O)NCCCCNC(=O)c3ccc(-c4c5nc(c(-c6cc(S(=O)(=O)[O-])ccc6F)c6ccc([nH]6)c(-c6cc(S(=O)(=O)[O-])ccc6F)c6nc(c(-c7cc(S(=O)(=O)[O-])ccc7F)c7ccc4[nH]7)C=C6)C=C5)cc3)C2)C1
REMARK SMILES IDX 20 1 19 2 18 3 16 4 17 5 14 7 11 8 12 9 89 10 13 11 15 12
REMARK SMILES IDX 9 13 8 14 10 16 7 17 6 18 1 19 2 20 3 21 90 22 4 24 5 25
REMARK SMILES IDX 21 26 22 27 23 28 24 29 25 31 26 32 27 33 88 34 28 35 87 36
REMARK SMILES IDX 29 37 30 38 31 39 81 40 32 41 86 42 80 43 82 44 33 45 85 46
REMARK SMILES IDX 79 47 78 48 34 50 66 51 46 52 65 53 47 54 50 55 64 56 83 57
REMARK SMILES IDX 48 58 49 59 63 61 84 62 51 63 35 64 36 65 44 66 37 67 43 68
REMARK SMILES IDX 45 69 42 70 38 71 39 72 40 73 41 74 67 75 68 76 76 77 69 78
REMARK SMILES IDX 75 79 77 80 74 81 70 82 71 83 72 84 73 85 52 86 53 87 61 88
REMARK SMILES IDX 54 89 60 90 62 91 59 92 55 93 56 94 57 95 58 96
REMARK H PARENT 18 6 8 15 2 23 23 30 82 49 50 60
REMARK Flexibility Score: inf
ROOT
ATOM      1  C   UNL     1      -0.154   2.766   9.394  1.00  0.00     0.023 C 
ENDROOT
BRANCH   1   2
ATOM      2  C   UNL     1      -0.618   2.134   8.082  1.00  0.00     0.116 C 
BRANCH   2   3
ATOM      3  N   UNL     1       0.491   1.945   7.166  1.00  0.00    -0.356 N 
ATOM      4  C   UNL     1       1.327   0.918   6.889  1.00  0.00     0.227 C 
ATOM      5  O   UNL     1       2.284   1.215   6.160  1.00  0.00    -0.274 OA
ATOM      6  H   UNL     1       0.677   2.745   6.623  1.00  0.00     0.163 HD
BRANCH   4   7
ATOM      7  C   UNL     1       1.113  -0.554   7.291  1.00  0.00     0.066 C 
ATOM      8  N   UNL     1       1.630  -2.309   5.726  1.00  0.00    -0.324 N 
ATOM      9  C   UNL     1       2.893  -1.929   6.324  1.00  0.00     0.122 C 
ATOM     10  C   UNL     1       0.623  -1.304   6.028  1.00  0.00     0.138 C 
ATOM     11  C   UNL     1       2.504  -1.184   7.589  1.00  0.00     0.040 C 
ATOM     12  C   UNL     1       0.197  -0.859   8.475  1.00  0.00     0.024 C 
BRANCH   8  13
ATOM     13  C   UNL     1       1.448  -3.547   5.189  1.00  0.00     0.317 C 
ATOM     14  N   UNL     1       0.380  -3.797   4.393  1.00  0.00    -0.335 N 
ATOM     15  H   UNL     1       0.018  -4.711   4.449  1.00  0.00     0.165 HD
ATOM     16  O   UNL     1       2.227  -4.479   5.395  1.00  0.00    -0.249 OA
BRANCH  14  17
ATOM     17  C   UNL     1      -0.311  -2.907   3.463  1.00  0.00     0.155 C 
BRANCH  17  18
ATOM     18  C   UNL     1       0.449  -2.798   2.128  1.00  0.00     0.192 C 
ATOM     19  C   UNL     1       0.782  -0.052  -0.460  1.00  0.00     0.332 C 
ATOM     20  N   UNL     1       0.943  -1.350   0.186  1.00  0.00    -0.333 N 
ATOM     21  C   UNL     1       0.502  -2.449  -0.691  1.00  0.00     0.290 C 
ATOM     22  C   UNL     1       0.201  -1.428   1.459  1.00  0.00     0.296 C 
ATOM     23  H   UNL     1       1.940  -1.449   0.378  1.00  0.00     0.348 HD
ATOM     24  C   UNL     1       0.680  -3.811   0.002  1.00  0.00     0.222 C 
ATOM     25  O   UNL     1      -0.007  -3.863   1.262  1.00  0.00    -0.365 OA
ENDBRANCH  17  18
ENDBRANCH  14  17
ENDBRANCH   8  13
ENDBRANCH   4   7
ENDBRANCH   2   3
ENDBRANCH   1   2
BRANCH   1  26
ATOM     26  C   UNL     1       0.230   4.247   9.283  1.00  0.00     0.023 C 
BRANCH  26  27
ATOM     27  C   UNL     1      -0.859   5.171   8.743  1.00  0.00     0.116 C 
BRANCH  27  28
ATOM     28  N   UNL     1      -2.100   5.098   9.498  1.00  0.00    -0.352 N 
ATOM     29  C   UNL     1      -2.954   6.114   9.864  1.00  0.00     0.251 C 
ATOM     30  H   UNL     1      -2.367   4.195   9.787  1.00  0.00     0.163 HD
ATOM     31  O   UNL     1      -3.898   5.876  10.604  1.00  0.00    -0.269 OA
BRANCH  29  32
ATOM     32  C   UNL     1      -2.696   7.492   9.389  1.00  0.00     0.039 A 
ATOM     33  C   UNL     1      -2.733   8.539  10.312  1.00  0.00     0.014 A 
ATOM     34  C   UNL     1      -2.395   7.745   8.048  1.00  0.00     0.014 A 
ATOM     35  C   UNL     1      -2.393   9.832   9.905  1.00  0.00     0.010 A 
ATOM     36  C   UNL     1      -1.990   9.020   7.660  1.00  0.00     0.010 A 
ATOM     37  C   UNL     1      -1.978  10.075   8.586  1.00  0.00    -0.014 A 
BRANCH  37  38
ATOM     38  C   UNL     1      -1.519  11.423   8.157  1.00  0.00     0.031 A 
ATOM     39  C   UNL     1      -2.281  12.181   7.105  1.00  0.00     0.074 A 
ATOM     40  C   UNL     1      -0.378  11.932   8.665  1.00  0.00     0.049 A 
ATOM     41  N   UNL     1      -1.996  13.325   6.537  1.00  0.00    -0.248 NA
ATOM     42  C   UNL     1      -3.512  11.551   6.603  1.00  0.00     0.031 C 
ATOM     43  C   UNL     1       0.471  11.274   9.661  1.00  0.00     0.029 A 
ATOM     44  N   UNL     1       0.272  13.113   8.407  1.00  0.00    -0.354 N 
ATOM     45  C   UNL     1      -3.001  13.546   5.602  1.00  0.00     0.074 A 
ATOM     46  C   UNL     1      -3.867  12.386   5.639  1.00  0.00     0.031 C 
ATOM     47  C   UNL     1       1.514  12.070   9.946  1.00  0.00     0.029 A 
ATOM     48  C   UNL     1       1.437  13.272   9.122  1.00  0.00     0.049 A 
ATOM     49  H   UNL     1      -0.064  13.784   7.770  1.00  0.00     0.167 HD
ATOM     50  C   UNL     1      -3.196  14.625   4.803  1.00  0.00     0.034 A 
ATOM     51  C   UNL     1       2.347  14.266   9.106  1.00  0.00     0.034 A 
ATOM     52  C   UNL     1      -2.330  15.779   4.790  1.00  0.00     0.049 A 
ATOM     53  C   UNL     1       2.122  15.445   8.194  1.00  0.00     0.074 A 
ATOM     54  C   UNL     1      -2.465  16.951   4.065  1.00  0.00     0.029 A 
ATOM     55  N   UNL     1      -1.160  15.906   5.529  1.00  0.00    -0.354 N 
ATOM     56  N   UNL     1       1.137  15.662   7.352  1.00  0.00    -0.248 NA
ATOM     57  C   UNL     1       3.125  16.517   8.237  1.00  0.00     0.031 C 
ATOM     58  C   UNL     1      -1.347  17.754   4.313  1.00  0.00     0.029 A 
ATOM     59  C   UNL     1      -0.550  17.120   5.253  1.00  0.00     0.049 A 
ATOM     60  H   UNL     1      -0.815  15.231   6.158  1.00  0.00     0.167 HD
ATOM     61  C   UNL     1       1.388  16.912   6.791  1.00  0.00     0.074 A 
ATOM     62  C   UNL     1       2.607  17.403   7.400  1.00  0.00     0.031 C 
ATOM     63  C   UNL     1       0.672  17.594   5.861  1.00  0.00     0.034 A 
BRANCH  50  64
ATOM     64  C   UNL     1      -4.378  14.589   3.863  1.00  0.00     0.023 A 
ATOM     65  C   UNL     1      -5.699  14.514   4.340  1.00  0.00     0.031 A 
ATOM     66  C   UNL     1      -4.183  14.602   2.471  1.00  0.00     0.131 A 
ATOM     67  C   UNL     1      -6.764  14.372   3.437  1.00  0.00     0.055 A 
ATOM     68  C   UNL     1      -5.254  14.547   1.576  1.00  0.00     0.041 A 
ATOM     69  F   UNL     1      -2.945  14.651   1.954  1.00  0.00    -0.206 F 
ATOM     70  C   UNL     1      -6.553  14.415   2.057  1.00  0.00     0.022 A 
BRANCH  67  71
ATOM     71  S   UNL     1      -8.408  13.978   4.093  1.00  0.00     0.124 S 
ATOM     72  O   UNL     1      -8.148  12.729   4.806  1.00  0.00    -0.237 OA
ATOM     73  O   UNL     1      -8.702  15.138   4.925  1.00  0.00    -0.237 OA
ATOM     74  O   UNL     1      -9.232  13.842   2.895  1.00  0.00    -0.744 OA
ENDBRANCH  67  71
ENDBRANCH  50  64
BRANCH  51  75
ATOM     75  C   UNL     1       3.560  14.196   9.971  1.00  0.00     0.023 A 
ATOM     76  C   UNL     1       3.768  15.129  11.000  1.00  0.00     0.031 A 
ATOM     77  C   UNL     1       4.552  13.223   9.754  1.00  0.00     0.131 A 
ATOM     78  C   UNL     1       4.960  15.100  11.741  1.00  0.00     0.055 A 
ATOM     79  C   UNL     1       5.712  13.165  10.529  1.00  0.00     0.041 A 
ATOM     80  F   UNL     1       4.401  12.304   8.787  1.00  0.00    -0.206 F 
ATOM     81  C   UNL     1       5.927  14.117  11.521  1.00  0.00     0.022 A 
BRANCH  78  82
ATOM     82  S   UNL     1       5.266  16.424  12.942  1.00  0.00     0.124 S 
ATOM     83  O   UNL     1       5.193  17.612  12.099  1.00  0.00    -0.237 OA
ATOM     84  O   UNL     1       4.169  16.237  13.885  1.00  0.00    -0.237 OA
ATOM     85  O   UNL     1       6.595  16.108  13.464  1.00  0.00    -0.744 OA
ENDBRANCH  78  82
ENDBRANCH  51  75
BRANCH  63  86
ATOM     86  C   UNL     1       1.170  18.969   5.485  1.00  0.00     0.023 A 
ATOM     87  C   UNL     1       2.383  19.157   4.800  1.00  0.00     0.031 A 
ATOM     88  C   UNL     1       0.422  20.108   5.831  1.00  0.00     0.131 A 
ATOM     89  C   UNL     1       2.839  20.456   4.531  1.00  0.00     0.055 A 
ATOM     90  C   UNL     1       0.851  21.396   5.506  1.00  0.00     0.041 A 
ATOM     91  F   UNL     1      -0.743  19.988   6.488  1.00  0.00    -0.206 F 
ATOM     92  C   UNL     1       2.072  21.576   4.864  1.00  0.00     0.022 A 
BRANCH  89  93
ATOM     93  S   UNL     1       4.494  20.669   3.819  1.00  0.00     0.124 S 
ATOM     94  O   UNL     1       5.339  20.022   4.817  1.00  0.00    -0.237 OA
ATOM     95  O   UNL     1       4.374  19.978   2.539  1.00  0.00    -0.237 OA
ATOM     96  O   UNL     1       4.644  22.121   3.727  1.00  0.00    -0.744 OA
ENDBRANCH  89  93
ENDBRANCH  63  86
ENDBRANCH  37  38
ENDBRANCH  29  32
ENDBRANCH  27  28
ENDBRANCH  26  27
ENDBRANCH   1  26
TORSDOF 17
