REMARK SMILES Cc1ccc(NC(=O)c2ccccc2NC(=O)[C@H]2CCCC[C@H]2C(=O)NCCCCNC(=O)c2ccc(-c3c4nc(c(-c5cc(S(=O)(=O)[O-])ccc5F)c5ccc([nH]5)c(-c5cc(S(=O)(=O)[O-])ccc5F)c5nc(c(-c6cc(S(=O)(=O)[O-])ccc6F)c6ccc3[nH]6)C=C5)C=C4)cc2)cc1
REMARK SMILES IDX 28 1 27 2 26 3 24 4 25 5 23 7 18 8 19 9 20 10 22 11 21 12
REMARK SMILES IDX 16 13 15 14 17 16 14 17 9 18 10 19 11 20 13 21 12 22 7 23
REMARK SMILES IDX 6 24 8 26 5 27 1 28 2 29 3 30 98 31 4 32 97 33 29 34 30 35
REMARK SMILES IDX 31 36 32 37 33 39 34 40 35 41 96 42 36 43 95 44 37 45 38 46
REMARK SMILES IDX 39 47 89 48 40 49 94 50 88 51 90 52 41 53 93 54 87 55 86 56
REMARK SMILES IDX 42 58 74 59 54 60 73 61 55 62 58 63 72 64 91 65 56 66 57 67
REMARK SMILES IDX 71 69 92 70 59 71 43 72 44 73 52 74 45 75 51 76 53 77 50 78
REMARK SMILES IDX 46 79 47 80 48 81 49 82 75 83 76 84 84 85 77 86 83 87 85 88
REMARK SMILES IDX 82 89 78 90 79 91 80 92 81 93 60 94 61 95 69 96 62 97 68 98
REMARK SMILES IDX 70 99 67 100 63 101 64 102 65 103 66 104
REMARK H PARENT 26 6 15 15 6 25 31 38 90 57 58 68
REMARK Flexibility Score: inf
ROOT
ATOM      1  C   UNL     1       1.887  -0.176   6.092  1.00  0.00     0.023 C 
ENDROOT
BRANCH   1   2
ATOM      2  C   UNL     1       0.764  -0.835   6.898  1.00  0.00     0.116 C 
BRANCH   2   3
ATOM      3  N   UNL     1      -0.539  -0.309   6.502  1.00  0.00    -0.356 N 
ATOM      4  C   UNL     1      -1.495  -0.731   5.639  1.00  0.00     0.223 C 
ATOM      5  O   UNL     1      -2.403   0.081   5.404  1.00  0.00    -0.275 OA
ATOM      6  H   UNL     1      -0.774   0.531   6.959  1.00  0.00     0.163 HD
BRANCH   4   7
ATOM      7  C   UNL     1      -1.524  -2.079   4.911  1.00  0.00     0.091 C 
ATOM      8  C   UNL     1      -0.834  -2.054   3.528  1.00  0.00     0.091 C 
ATOM      9  C   UNL     1      -1.046  -3.383   2.774  1.00  0.00     0.014 C 
ATOM     10  C   UNL     1      -0.803  -4.631   3.634  1.00  0.00     0.001 C 
ATOM     11  C   UNL     1      -1.297  -3.339   5.747  1.00  0.00     0.014 C 
ATOM     12  C   UNL     1      -1.601  -4.597   4.934  1.00  0.00     0.001 C 
BRANCH   8  13
ATOM     13  C   UNL     1       0.652  -1.816   3.622  1.00  0.00     0.228 C 
ATOM     14  N   UNL     1       1.324  -0.803   3.021  1.00  0.00    -0.325 N 
ATOM     15  H   UNL     1       2.249  -0.763   3.355  1.00  0.00     0.169 HD
ATOM     16  O   UNL     1       1.338  -2.559   4.330  1.00  0.00    -0.274 OA
BRANCH  14  17
ATOM     17  C   UNL     1       1.107   0.205   2.071  1.00  0.00     0.054 A 
ATOM     18  C   UNL     1       2.051   1.258   1.911  1.00  0.00     0.063 A 
ATOM     19  C   UNL     1       1.772   2.298   0.995  1.00  0.00     0.016 A 
ATOM     20  C   UNL     1       0.615   2.297   0.225  1.00  0.00     0.001 A 
ATOM     21  C   UNL     1      -0.017   0.195   1.236  1.00  0.00     0.027 A 
ATOM     22  C   UNL     1      -0.272   1.237   0.337  1.00  0.00     0.002 A 
BRANCH  18  23
ATOM     23  C   UNL     1       3.270   1.535   2.736  1.00  0.00     0.257 C 
ATOM     24  N   UNL     1       4.203   0.620   3.160  1.00  0.00    -0.322 N 
ATOM     25  H   UNL     1       4.860   1.006   3.784  1.00  0.00     0.170 HD
ATOM     26  O   UNL     1       3.440   2.703   3.108  1.00  0.00    -0.269 OA
BRANCH  24  27
ATOM     27  C   UNL     1       4.429  -0.738   2.906  1.00  0.00     0.041 A 
ATOM     28  C   UNL     1       4.009  -4.993   3.011  1.00  0.00     0.044 C 
ATOM     29  C   UNL     1       4.309  -3.527   2.898  1.00  0.00    -0.051 A 
ATOM     30  C   UNL     1       3.906  -2.798   1.772  1.00  0.00     0.005 A 
ATOM     31  C   UNL     1       4.907  -2.855   3.965  1.00  0.00     0.005 A 
ATOM     32  C   UNL     1       3.981  -1.402   1.767  1.00  0.00     0.026 A 
ATOM     33  C   UNL     1       4.996  -1.466   3.956  1.00  0.00     0.026 A 
ENDBRANCH  24  27
ENDBRANCH  18  23
ENDBRANCH  14  17
ENDBRANCH   8  13
ENDBRANCH   4   7
ENDBRANCH   2   3
ENDBRANCH   1   2
BRANCH   1  34
ATOM     34  C   UNL     1       2.426   1.148   6.597  1.00  0.00     0.023 C 
BRANCH  34  35
ATOM     35  C   UNL     1       3.312   1.015   7.815  1.00  0.00     0.116 C 
BRANCH  35  36
ATOM     36  N   UNL     1       4.721   0.737   7.548  1.00  0.00    -0.352 N 
ATOM     37  C   UNL     1       5.759   0.589   8.463  1.00  0.00     0.251 C 
ATOM     38  H   UNL     1       4.968   0.641   6.599  1.00  0.00     0.163 HD
ATOM     39  O   UNL     1       6.910   0.427   8.092  1.00  0.00    -0.269 OA
BRANCH  37  40
ATOM     40  C   UNL     1       5.415   0.510   9.908  1.00  0.00     0.039 A 
ATOM     41  C   UNL     1       5.788  -0.645  10.601  1.00  0.00     0.014 A 
ATOM     42  C   UNL     1       4.438   1.351  10.419  1.00  0.00     0.014 A 
ATOM     43  C   UNL     1       4.974  -1.101  11.634  1.00  0.00     0.010 A 
ATOM     44  C   UNL     1       3.529   0.804  11.299  1.00  0.00     0.010 A 
ATOM     45  C   UNL     1       3.764  -0.450  11.873  1.00  0.00    -0.014 A 
BRANCH  45  46
ATOM     46  C   UNL     1       2.639  -1.073  12.573  1.00  0.00     0.031 A 
ATOM     47  C   UNL     1       2.072  -0.451  13.794  1.00  0.00     0.074 A 
ATOM     48  C   UNL     1       2.060  -2.192  12.077  1.00  0.00     0.049 A 
ATOM     49  N   UNL     1       1.408  -1.092  14.696  1.00  0.00    -0.248 NA
ATOM     50  C   UNL     1       2.251   0.958  14.127  1.00  0.00     0.031 C 
ATOM     51  C   UNL     1       0.780  -2.774  12.478  1.00  0.00     0.029 A 
ATOM     52  N   UNL     1       2.630  -3.159  11.249  1.00  0.00    -0.354 N 
ATOM     53  C   UNL     1       0.852  -0.172  15.556  1.00  0.00     0.074 A 
ATOM     54  C   UNL     1       1.446   1.087  15.183  1.00  0.00     0.031 C 
ATOM     55  C   UNL     1       0.754  -4.066  12.117  1.00  0.00     0.029 A 
ATOM     56  C   UNL     1       2.065  -4.399  11.591  1.00  0.00     0.049 A 
ATOM     57  H   UNL     1       3.305  -3.001  10.551  1.00  0.00     0.167 HD
ATOM     58  C   UNL     1      -0.138  -0.561  16.410  1.00  0.00     0.034 A 
ATOM     59  C   UNL     1       2.838  -5.435  12.026  1.00  0.00     0.034 A 
ATOM     60  C   UNL     1      -0.389  -1.999  16.316  1.00  0.00     0.049 A 
ATOM     61  C   UNL     1       2.526  -5.884  13.436  1.00  0.00     0.074 A 
ATOM     62  C   UNL     1      -1.366  -2.745  15.679  1.00  0.00     0.029 A 
ATOM     63  N   UNL     1       0.596  -2.897  16.711  1.00  0.00    -0.354 N 
ATOM     64  N   UNL     1       1.792  -5.210  14.278  1.00  0.00    -0.248 NA
ATOM     65  C   UNL     1       3.046  -7.118  14.017  1.00  0.00     0.031 C 
ATOM     66  C   UNL     1      -0.936  -4.097  15.650  1.00  0.00     0.029 A 
ATOM     67  C   UNL     1       0.287  -4.177  16.293  1.00  0.00     0.049 A 
ATOM     68  H   UNL     1       1.404  -2.654  17.220  1.00  0.00     0.167 HD
ATOM     69  C   UNL     1       1.786  -5.845  15.496  1.00  0.00     0.074 A 
ATOM     70  C   UNL     1       2.549  -7.058  15.264  1.00  0.00     0.031 C 
ATOM     71  C   UNL     1       1.176  -5.294  16.591  1.00  0.00     0.034 A 
BRANCH  58  72
ATOM     72  C   UNL     1      -1.079   0.391  17.122  1.00  0.00     0.023 A 
ATOM     73  C   UNL     1      -2.372  -0.060  17.467  1.00  0.00     0.031 A 
ATOM     74  C   UNL     1      -0.812   1.734  17.448  1.00  0.00     0.131 A 
ATOM     75  C   UNL     1      -3.347   0.813  17.985  1.00  0.00     0.055 A 
ATOM     76  C   UNL     1      -1.798   2.621  17.905  1.00  0.00     0.041 A 
ATOM     77  F   UNL     1       0.425   2.242  17.403  1.00  0.00    -0.206 F 
ATOM     78  C   UNL     1      -3.080   2.165  18.163  1.00  0.00     0.022 A 
BRANCH  75  79
ATOM     79  S   UNL     1      -4.976   0.151  18.428  1.00  0.00     0.124 S 
ATOM     80  O   UNL     1      -5.447  -0.389  17.157  1.00  0.00    -0.237 OA
ATOM     81  O   UNL     1      -4.642  -0.822  19.462  1.00  0.00    -0.237 OA
ATOM     82  O   UNL     1      -5.701   1.329  18.904  1.00  0.00    -0.744 OA
ENDBRANCH  75  79
ENDBRANCH  58  72
BRANCH  59  83
ATOM     83  C   UNL     1       4.180  -5.481  11.388  1.00  0.00     0.023 A 
ATOM     84  C   UNL     1       4.233  -5.742  10.005  1.00  0.00     0.031 A 
ATOM     85  C   UNL     1       5.305  -4.902  11.993  1.00  0.00     0.131 A 
ATOM     86  C   UNL     1       5.327  -5.301   9.246  1.00  0.00     0.055 A 
ATOM     87  C   UNL     1       6.412  -4.500  11.235  1.00  0.00     0.041 A 
ATOM     88  F   UNL     1       5.293  -4.590  13.297  1.00  0.00    -0.206 F 
ATOM     89  C   UNL     1       6.411  -4.664   9.850  1.00  0.00     0.022 A 
BRANCH  86  90
ATOM     90  S   UNL     1       5.196  -5.389   7.439  1.00  0.00     0.124 S 
ATOM     91  O   UNL     1       5.169  -6.827   7.200  1.00  0.00    -0.237 OA
ATOM     92  O   UNL     1       3.946  -4.676   7.194  1.00  0.00    -0.237 OA
ATOM     93  O   UNL     1       6.395  -4.700   6.968  1.00  0.00    -0.744 OA
ENDBRANCH  86  90
ENDBRANCH  59  83
BRANCH  71  94
ATOM     94  C   UNL     1       1.294  -5.786  18.023  1.00  0.00     0.023 A 
ATOM     95  C   UNL     1       2.261  -6.705  18.454  1.00  0.00     0.031 A 
ATOM     96  C   UNL     1       0.452  -5.273  19.043  1.00  0.00     0.131 A 
ATOM     97  C   UNL     1       2.314  -7.144  19.791  1.00  0.00     0.055 A 
ATOM     98  C   UNL     1       0.558  -5.648  20.387  1.00  0.00     0.041 A 
ATOM     99  F   UNL     1      -0.508  -4.373  18.783  1.00  0.00    -0.206 F 
ATOM    100  C   UNL     1       1.482  -6.606  20.767  1.00  0.00     0.022 A 
BRANCH  97 101
ATOM    101  S   UNL     1       3.452  -8.493  20.206  1.00  0.00     0.124 S 
ATOM    102  O   UNL     1       2.963  -9.572  19.352  1.00  0.00    -0.237 OA
ATOM    103  O   UNL     1       4.748  -7.933  19.839  1.00  0.00    -0.237 OA
ATOM    104  O   UNL     1       3.243  -8.694  21.638  1.00  0.00    -0.744 OA
ENDBRANCH  97 101
ENDBRANCH  71  94
ENDBRANCH  45  46
ENDBRANCH  37  40
ENDBRANCH  35  36
ENDBRANCH  34  35
ENDBRANCH   1  34
TORSDOF 18
