REMARK SMILES O=C(NCCCCNC(=O)c1ccc(-c2c3nc(c(-c4cc(S(=O)(=O)[O-])ccc4F)c4ccc([nH]4)c(-c4cc(S(=O)(=O)[O-])ccc4F)c4nc(c(-c5cc(S(=O)(=O)[O-])ccc5F)c5ccc2[nH]5)C=C4)C=C3)cc1)C1=Cc2cc(Cl)cc(Cl)c2O[C@@H]1C(F)(F)F
REMARK SMILES IDX 6 1 5 2 4 3 3 4 1 5 2 6 74 8 75 9 85 10 76 11 84 12 77 13
REMARK SMILES IDX 83 14 78 15 81 16 79 17 80 18 82 19 86 20 87 21 88 22 89 23
REMARK SMILES IDX 7 24 8 25 9 26 10 28 11 29 12 30 73 31 13 32 72 33 14 34
REMARK SMILES IDX 15 35 16 36 66 37 17 38 71 39 65 40 67 41 18 42 70 43 64 44
REMARK SMILES IDX 63 45 19 47 51 48 31 49 50 50 32 51 35 52 49 53 68 54 33 55
REMARK SMILES IDX 34 56 48 58 69 59 36 60 20 61 21 62 29 63 22 64 28 65 30 66
REMARK SMILES IDX 27 67 23 68 24 69 25 70 26 71 52 72 53 73 61 74 54 75 60 76
REMARK SMILES IDX 62 77 59 78 55 79 56 80 57 81 58 82 37 83 38 84 46 85 39 86
REMARK SMILES IDX 45 87 47 88 44 89 40 90 41 91 42 92 43 93
REMARK H PARENT 3 7 8 27 67 46 35 57
REMARK Flexibility Score: inf
ROOT
ATOM      1  C   UNL     1       3.976  -1.152   4.325  1.00  0.00     0.023 C 
ENDROOT
BRANCH   1   2
ATOM      2  C   UNL     1       4.200  -0.076   3.261  1.00  0.00     0.023 C 
BRANCH   2   3
ATOM      3  C   UNL     1       3.659  -0.423   1.872  1.00  0.00     0.116 C 
BRANCH   3   4
ATOM      4  N   UNL     1       2.524   0.405   1.459  1.00  0.00    -0.352 N 
ATOM      5  O   UNL     1       1.112   1.420   0.005  1.00  0.00    -0.270 OA
ATOM      6  C   UNL     1       2.221   0.954   0.234  1.00  0.00     0.251 C 
ATOM      7  H   UNL     1       1.873   0.599   2.171  1.00  0.00     0.163 HD
BRANCH   6   8
ATOM      8  C   UNL     1       3.225   0.847  -0.845  1.00  0.00     0.067 C 
ATOM      9  C   UNL     1       4.419   1.447  -0.747  1.00  0.00     0.025 C 
ATOM     10  C   UNL     1       2.976  -0.187  -1.899  1.00  0.00     0.314 C 
ATOM     11  C   UNL     1       5.513   0.472  -0.937  1.00  0.00     0.020 A 
ATOM     12  O   UNL     1       4.004  -1.201  -1.896  1.00  0.00    -0.474 OA
ATOM     13  C   UNL     1       6.725   0.724  -0.279  1.00  0.00     0.032 A 
ATOM     14  C   UNL     1       5.230  -0.839  -1.384  1.00  0.00     0.146 A 
ATOM     15  C   UNL     1       7.614  -0.324  -0.030  1.00  0.00     0.043 A 
ATOM     16  C   UNL     1       6.151  -1.871  -1.151  1.00  0.00     0.085 A 
ATOM     17  Cl  UNL     1       9.025  -0.026   0.908  1.00  0.00    -0.084 Cl
ATOM     18  C   UNL     1       7.333  -1.619  -0.457  1.00  0.00     0.045 A 
ATOM     19  Cl  UNL     1       5.792  -3.502  -1.592  1.00  0.00    -0.080 Cl
BRANCH  10  20
ATOM     20  C   UNL     1       2.850   0.463  -3.291  1.00  0.00     0.429 C 
ATOM     21  F   UNL     1       2.516  -0.448  -4.235  1.00  0.00    -0.167 F 
ATOM     22  F   UNL     1       1.895   1.423  -3.317  1.00  0.00    -0.167 F 
ATOM     23  F   UNL     1       4.006   1.046  -3.696  1.00  0.00    -0.167 F 
ENDBRANCH  10  20
ENDBRANCH   6   8
ENDBRANCH   3   4
ENDBRANCH   2   3
ENDBRANCH   1   2
BRANCH   1  24
ATOM     24  C   UNL     1       4.543  -2.538   4.023  1.00  0.00     0.116 C 
BRANCH  24  25
ATOM     25  N   UNL     1       5.979  -2.574   3.798  1.00  0.00    -0.352 N 
ATOM     26  C   UNL     1       6.880  -3.538   4.201  1.00  0.00     0.251 C 
ATOM     27  H   UNL     1       6.356  -1.815   3.296  1.00  0.00     0.163 HD
ATOM     28  O   UNL     1       8.077  -3.398   3.960  1.00  0.00    -0.269 OA
BRANCH  26  29
ATOM     29  C   UNL     1       6.399  -4.707   4.972  1.00  0.00     0.039 A 
ATOM     30  C   UNL     1       7.016  -5.019   6.186  1.00  0.00     0.014 A 
ATOM     31  C   UNL     1       5.299  -5.449   4.534  1.00  0.00     0.014 A 
ATOM     32  C   UNL     1       6.476  -6.018   7.001  1.00  0.00     0.010 A 
ATOM     33  C   UNL     1       4.718  -6.389   5.381  1.00  0.00     0.010 A 
ATOM     34  C   UNL     1       5.296  -6.683   6.627  1.00  0.00    -0.014 A 
BRANCH  34  35
ATOM     35  C   UNL     1       4.669  -7.703   7.511  1.00  0.00     0.031 A 
ATOM     36  C   UNL     1       4.562  -9.131   7.044  1.00  0.00     0.074 A 
ATOM     37  C   UNL     1       4.149  -7.341   8.701  1.00  0.00     0.049 A 
ATOM     38  N   UNL     1       3.982 -10.152   7.621  1.00  0.00    -0.248 NA
ATOM     39  C   UNL     1       5.160  -9.441   5.736  1.00  0.00     0.031 C 
ATOM     40  C   UNL     1       4.142  -5.980   9.245  1.00  0.00     0.029 A 
ATOM     41  N   UNL     1       3.517  -8.083   9.669  1.00  0.00    -0.354 N 
ATOM     42  C   UNL     1       4.139 -11.221   6.745  1.00  0.00     0.074 A 
ATOM     43  C   UNL     1       4.801 -10.703   5.566  1.00  0.00     0.031 C 
ATOM     44  C   UNL     1       3.556  -5.991  10.454  1.00  0.00     0.029 A 
ATOM     45  C   UNL     1       3.114  -7.348  10.761  1.00  0.00     0.049 A 
ATOM     46  H   UNL     1       3.366  -9.053   9.589  1.00  0.00     0.167 HD
ATOM     47  C   UNL     1       3.795 -12.522   6.917  1.00  0.00     0.034 A 
ATOM     48  C   UNL     1       2.462  -7.725  11.880  1.00  0.00     0.034 A 
ATOM     49  C   UNL     1       3.147 -13.031   8.101  1.00  0.00     0.049 A 
ATOM     50  C   UNL     1       2.107  -9.182  12.057  1.00  0.00     0.074 A 
ATOM     51  C   UNL     1       2.748 -14.326   8.381  1.00  0.00     0.029 A 
ATOM     52  N   UNL     1       2.812 -12.265   9.210  1.00  0.00    -0.354 N 
ATOM     53  N   UNL     1       2.288 -10.184  11.227  1.00  0.00    -0.248 NA
ATOM     54  C   UNL     1       1.487  -9.563  13.333  1.00  0.00     0.031 C 
ATOM     55  C   UNL     1       2.140 -14.337   9.642  1.00  0.00     0.029 A 
ATOM     56  C   UNL     1       2.217 -13.062  10.177  1.00  0.00     0.049 A 
ATOM     57  H   UNL     1       2.974 -11.298   9.298  1.00  0.00     0.167 HD
ATOM     58  C   UNL     1       1.843 -11.319  11.902  1.00  0.00     0.074 A 
ATOM     59  C   UNL     1       1.404 -10.878  13.209  1.00  0.00     0.031 C 
ATOM     60  C   UNL     1       1.800 -12.609  11.481  1.00  0.00     0.034 A 
BRANCH  47  61
ATOM     61  C   UNL     1       4.116 -13.473   5.790  1.00  0.00     0.023 A 
ATOM     62  C   UNL     1       5.445 -13.721   5.401  1.00  0.00     0.031 A 
ATOM     63  C   UNL     1       3.091 -14.110   5.070  1.00  0.00     0.131 A 
ATOM     64  C   UNL     1       5.711 -14.515   4.277  1.00  0.00     0.055 A 
ATOM     65  C   UNL     1       3.366 -14.968   4.002  1.00  0.00     0.041 A 
ATOM     66  F   UNL     1       1.803 -13.897   5.380  1.00  0.00    -0.206 F 
ATOM     67  C   UNL     1       4.682 -15.162   3.590  1.00  0.00     0.022 A 
BRANCH  64  68
ATOM     68  S   UNL     1       7.409 -14.577   3.643  1.00  0.00     0.124 S 
ATOM     69  O   UNL     1       7.635 -13.181   3.276  1.00  0.00    -0.237 OA
ATOM     70  O   UNL     1       8.159 -15.064   4.795  1.00  0.00    -0.237 OA
ATOM     71  O   UNL     1       7.321 -15.505   2.518  1.00  0.00    -0.744 OA
ENDBRANCH  64  68
ENDBRANCH  47  61
BRANCH  48  72
ATOM     72  C   UNL     1       2.100  -6.727  12.930  1.00  0.00     0.023 A 
ATOM     73  C   UNL     1       2.637  -6.811  14.225  1.00  0.00     0.031 A 
ATOM     74  C   UNL     1       1.152  -5.721  12.675  1.00  0.00     0.131 A 
ATOM     75  C   UNL     1       2.171  -5.954  15.235  1.00  0.00     0.055 A 
ATOM     76  C   UNL     1       0.735  -4.832  13.668  1.00  0.00     0.041 A 
ATOM     77  F   UNL     1       0.613  -5.588  11.453  1.00  0.00    -0.206 F 
ATOM     78  C   UNL     1       1.231  -4.958  14.963  1.00  0.00     0.022 A 
BRANCH  75  79
ATOM     79  S   UNL     1       2.723  -6.240  16.939  1.00  0.00     0.124 S 
ATOM     80  O   UNL     1       2.375  -7.643  17.133  1.00  0.00    -0.237 OA
ATOM     81  O   UNL     1       4.147  -5.939  16.848  1.00  0.00    -0.237 OA
ATOM     82  O   UNL     1       1.933  -5.287  17.716  1.00  0.00    -0.744 OA
ENDBRANCH  75  79
ENDBRANCH  48  72
BRANCH  60  83
ATOM     83  C   UNL     1       1.331 -13.639  12.479  1.00  0.00     0.023 A 
ATOM     84  C   UNL     1       0.011 -13.660  12.961  1.00  0.00     0.031 A 
ATOM     85  C   UNL     1       2.234 -14.595  12.978  1.00  0.00     0.131 A 
ATOM     86  C   UNL     1      -0.351 -14.572  13.964  1.00  0.00     0.055 A 
ATOM     87  C   UNL     1       1.851 -15.539  13.931  1.00  0.00     0.041 A 
ATOM     88  F   UNL     1       3.506 -14.620  12.551  1.00  0.00    -0.206 F 
ATOM     89  C   UNL     1       0.557 -15.521  14.442  1.00  0.00     0.022 A 
BRANCH  86  90
ATOM     90  S   UNL     1      -1.995 -14.429  14.718  1.00  0.00     0.124 S 
ATOM     91  O   UNL     1      -2.008 -13.039  15.161  1.00  0.00    -0.237 OA
ATOM     92  O   UNL     1      -2.877 -14.749  13.600  1.00  0.00    -0.237 OA
ATOM     93  O   UNL     1      -1.969 -15.422  15.790  1.00  0.00    -0.744 OA
ENDBRANCH  86  90
ENDBRANCH  60  83
ENDBRANCH  34  35
ENDBRANCH  26  29
ENDBRANCH  24  25
ENDBRANCH   1  24
TORSDOF 15
