REMARK SMILES CCc1ccc(C(=O)NCCCCNC(=O)c2ccc(-c3c4nc(c(-c5cc(S(=O)(=O)[O-])ccc5F)c5ccc([nH]5)c(-c5cc(S(=O)(=O)[O-])ccc5F)c5nc(c(-c6cc(S(=O)(=O)[O-])ccc6F)c6ccc3[nH]6)C=C5)C=C4)cc2)cc1S(=O)(=O)C(CC)CC
REMARK SMILES IDX 11 1 10 2 9 3 7 4 8 5 6 7 3 8 4 9 81 10 5 11 80 12 2 13 1 14
REMARK SMILES IDX 82 15 83 16 84 17 85 18 86 19 87 20 88 21 89 22 12 23 13 24
REMARK SMILES IDX 14 25 15 26 16 28 17 29 18 30 79 31 19 32 78 33 20 34 21 35
REMARK SMILES IDX 22 36 72 37 23 38 77 39 71 40 73 41 24 42 76 43 70 44 69 45
REMARK SMILES IDX 25 47 57 48 37 49 56 50 38 51 41 52 55 53 74 54 39 55 40 56
REMARK SMILES IDX 54 58 75 59 42 60 26 61 27 62 35 63 28 64 34 65 36 66 33 67
REMARK SMILES IDX 29 68 30 69 31 70 32 71 58 72 59 73 67 74 60 75 66 76 68 77
REMARK SMILES IDX 65 78 61 79 62 80 63 81 64 82 43 83 44 84 52 85 45 86 51 87
REMARK SMILES IDX 53 88 50 89 46 90 47 91 48 92 49 93
REMARK H PARENT 9 6 14 27 73 46 41 57
REMARK Flexibility Score: inf
ROOT
ATOM      1  C   UNL     1       0.018   6.820   1.932  1.00  0.00     0.023 C 
ENDROOT
BRANCH   1   2
ATOM      2  C   UNL     1       1.476   6.392   2.137  1.00  0.00     0.116 C 
BRANCH   2   3
ATOM      3  N   UNL     1       1.728   6.015   3.519  1.00  0.00    -0.352 N 
ATOM      4  C   UNL     1       1.756   4.808   4.173  1.00  0.00     0.251 C 
ATOM      5  O   UNL     1       2.070   4.814   5.365  1.00  0.00    -0.269 OA
ATOM      6  H   UNL     1       1.918   6.783   4.106  1.00  0.00     0.163 HD
BRANCH   4   7
ATOM      7  C   UNL     1       1.438   3.497   3.533  1.00  0.00     0.041 A 
ATOM      8  C   UNL     1       0.651   0.944   2.508  1.00  0.00    -0.030 A 
ATOM      9  C   UNL     1       1.424   1.075   3.687  1.00  0.00     0.006 A 
ATOM     10  C   UNL     1       0.418   2.106   1.768  1.00  0.00     0.071 A 
ATOM     11  C   UNL     1       1.827   2.325   4.178  1.00  0.00     0.014 A 
ATOM     12  C   UNL     1       0.722   3.357   2.355  1.00  0.00     0.034 A 
BRANCH   8  13
ATOM     13  C   UNL     1      -0.029  -0.387   2.324  1.00  0.00     0.033 C 
ATOM     14  C   UNL     1       0.801  -1.505   1.713  1.00  0.00     0.009 C 
ENDBRANCH   8  13
BRANCH  10  15
ATOM     15  S   UNL     1      -0.236   2.341   0.121  1.00  0.00     0.181 S 
ATOM     16  O   UNL     1      -1.631   2.680   0.331  1.00  0.00    -0.223 OA
ATOM     17  O   UNL     1       0.628   3.366  -0.457  1.00  0.00    -0.223 OA
BRANCH  15  18
ATOM     18  C   UNL     1      -0.122   1.005  -1.026  1.00  0.00     0.113 C 
BRANCH  18  19
ATOM     19  C   UNL     1       1.290   0.506  -1.429  1.00  0.00     0.017 C 
ATOM     20  C   UNL     1       2.489   0.747  -0.524  1.00  0.00     0.005 C 
ENDBRANCH  18  19
BRANCH  18  21
ATOM     21  C   UNL     1      -1.169  -0.121  -0.952  1.00  0.00     0.017 C 
ATOM     22  C   UNL     1      -2.627   0.325  -0.967  1.00  0.00     0.005 C 
ENDBRANCH  18  21
ENDBRANCH  15  18
ENDBRANCH  10  15
ENDBRANCH   4   7
ENDBRANCH   2   3
ENDBRANCH   1   2
BRANCH   1  23
ATOM     23  C   UNL     1      -0.293   8.243   2.407  1.00  0.00     0.023 C 
BRANCH  23  24
ATOM     24  C   UNL     1       0.460   9.344   1.667  1.00  0.00     0.116 C 
BRANCH  24  25
ATOM     25  N   UNL     1       0.190   9.360   0.239  1.00  0.00    -0.352 N 
ATOM     26  C   UNL     1       0.213  10.428  -0.623  1.00  0.00     0.251 C 
ATOM     27  H   UNL     1      -0.040   8.491  -0.162  1.00  0.00     0.163 HD
ATOM     28  O   UNL     1      -0.173  10.284  -1.780  1.00  0.00    -0.269 OA
BRANCH  26  29
ATOM     29  C   UNL     1       0.661  11.755  -0.144  1.00  0.00     0.039 A 
ATOM     30  C   UNL     1      -0.077  12.884  -0.510  1.00  0.00     0.014 A 
ATOM     31  C   UNL     1       1.804  11.893   0.648  1.00  0.00     0.014 A 
ATOM     32  C   UNL     1       0.309  14.145  -0.049  1.00  0.00     0.010 A 
ATOM     33  C   UNL     1       2.145  13.140   1.167  1.00  0.00     0.010 A 
ATOM     34  C   UNL     1       1.412  14.281   0.809  1.00  0.00    -0.014 A 
BRANCH  34  35
ATOM     35  C   UNL     1       1.843  15.617   1.295  1.00  0.00     0.031 A 
ATOM     36  C   UNL     1       3.177  16.172   0.871  1.00  0.00     0.074 A 
ATOM     37  C   UNL     1       1.057  16.310   2.142  1.00  0.00     0.049 A 
ATOM     38  N   UNL     1       3.757  17.293   1.215  1.00  0.00    -0.248 NA
ATOM     39  C   UNL     1       3.978  15.336  -0.037  1.00  0.00     0.031 C 
ATOM     40  C   UNL     1      -0.237  15.856   2.656  1.00  0.00     0.029 A 
ATOM     41  N   UNL     1       1.231  17.540   2.723  1.00  0.00    -0.354 N 
ATOM     42  C   UNL     1       4.995  17.290   0.579  1.00  0.00     0.074 A 
ATOM     43  C   UNL     1       5.106  16.024  -0.114  1.00  0.00     0.031 C 
ATOM     44  C   UNL     1      -0.751  16.807   3.454  1.00  0.00     0.029 A 
ATOM     45  C   UNL     1       0.190  17.920   3.538  1.00  0.00     0.049 A 
ATOM     46  H   UNL     1       2.027  18.100   2.571  1.00  0.00     0.167 HD
ATOM     47  C   UNL     1       5.939  18.264   0.551  1.00  0.00     0.034 A 
ATOM     48  C   UNL     1       0.016  19.038   4.271  1.00  0.00     0.034 A 
ATOM     49  C   UNL     1       5.802  19.527   1.234  1.00  0.00     0.049 A 
ATOM     50  C   UNL     1       1.078  20.108   4.226  1.00  0.00     0.074 A 
ATOM     51  C   UNL     1       6.672  20.604   1.241  1.00  0.00     0.029 A 
ATOM     52  N   UNL     1       4.725  19.884   2.035  1.00  0.00    -0.354 N 
ATOM     53  N   UNL     1       2.222  20.112   3.579  1.00  0.00    -0.248 NA
ATOM     54  C   UNL     1       0.816  21.333   4.992  1.00  0.00     0.031 C 
ATOM     55  C   UNL     1       6.151  21.585   2.092  1.00  0.00     0.029 A 
ATOM     56  C   UNL     1       4.918  21.154   2.557  1.00  0.00     0.049 A 
ATOM     57  H   UNL     1       3.938  19.318   2.208  1.00  0.00     0.167 HD
ATOM     58  C   UNL     1       2.796  21.355   3.833  1.00  0.00     0.074 A 
ATOM     59  C   UNL     1       1.867  22.075   4.679  1.00  0.00     0.031 C 
ATOM     60  C   UNL     1       3.982  21.858   3.402  1.00  0.00     0.034 A 
BRANCH  47  61
ATOM     61  C   UNL     1       7.204  17.981  -0.226  1.00  0.00     0.023 A 
ATOM     62  C   UNL     1       7.181  17.741  -1.612  1.00  0.00     0.031 A 
ATOM     63  C   UNL     1       8.444  17.908   0.431  1.00  0.00     0.131 A 
ATOM     64  C   UNL     1       8.355  17.358  -2.278  1.00  0.00     0.055 A 
ATOM     65  C   UNL     1       9.625  17.612  -0.254  1.00  0.00     0.041 A 
ATOM     66  F   UNL     1       8.529  18.106   1.756  1.00  0.00    -0.206 F 
ATOM     67  C   UNL     1       9.582  17.317  -1.613  1.00  0.00     0.022 A 
BRANCH  64  68
ATOM     68  S   UNL     1       8.226  16.763  -3.987  1.00  0.00     0.124 S 
ATOM     69  O   UNL     1       7.324  15.623  -3.834  1.00  0.00    -0.237 OA
ATOM     70  O   UNL     1       7.681  17.921  -4.684  1.00  0.00    -0.237 OA
ATOM     71  O   UNL     1       9.603  16.416  -4.333  1.00  0.00    -0.744 OA
ENDBRANCH  64  68
ENDBRANCH  47  61
BRANCH  48  72
ATOM     72  C   UNL     1      -1.208  19.215   5.104  1.00  0.00     0.023 A 
ATOM     73  C   UNL     1      -2.135  20.231   4.822  1.00  0.00     0.031 A 
ATOM     74  C   UNL     1      -1.447  18.397   6.223  1.00  0.00     0.131 A 
ATOM     75  C   UNL     1      -3.229  20.438   5.677  1.00  0.00     0.055 A 
ATOM     76  C   UNL     1      -2.565  18.573   7.040  1.00  0.00     0.041 A 
ATOM     77  F   UNL     1      -0.596  17.406   6.533  1.00  0.00    -0.206 F 
ATOM     78  C   UNL     1      -3.457  19.608   6.777  1.00  0.00     0.022 A 
BRANCH  75  79
ATOM     79  S   UNL     1      -4.306  21.867   5.380  1.00  0.00     0.124 S 
ATOM     80  O   UNL     1      -3.357  22.973   5.444  1.00  0.00    -0.237 OA
ATOM     81  O   UNL     1      -4.852  21.565   4.061  1.00  0.00    -0.237 OA
ATOM     82  O   UNL     1      -5.266  21.804   6.479  1.00  0.00    -0.744 OA
ENDBRANCH  75  79
ENDBRANCH  48  72
BRANCH  60  83
ATOM     83  C   UNL     1       4.306  23.279   3.795  1.00  0.00     0.023 A 
ATOM     84  C   UNL     1       4.543  23.646   5.131  1.00  0.00     0.031 A 
ATOM     85  C   UNL     1       4.360  24.285   2.813  1.00  0.00     0.131 A 
ATOM     86  C   UNL     1       4.763  24.992   5.457  1.00  0.00     0.055 A 
ATOM     87  C   UNL     1       4.642  25.613   3.136  1.00  0.00     0.041 A 
ATOM     88  F   UNL     1       4.141  23.992   1.522  1.00  0.00    -0.206 F 
ATOM     89  C   UNL     1       4.830  25.976   4.466  1.00  0.00     0.022 A 
BRANCH  86  90
ATOM     90  S   UNL     1       4.862  25.460   7.207  1.00  0.00     0.124 S 
ATOM     91  O   UNL     1       3.586  24.977   7.724  1.00  0.00    -0.237 OA
ATOM     92  O   UNL     1       6.047  24.736   7.657  1.00  0.00    -0.237 OA
ATOM     93  O   UNL     1       5.004  26.914   7.166  1.00  0.00    -0.744 OA
ENDBRANCH  86  90
ENDBRANCH  60  83
ENDBRANCH  34  35
ENDBRANCH  26  29
ENDBRANCH  24  25
ENDBRANCH  23  24
ENDBRANCH   1  23
TORSDOF 19
