REMARK SMILES C[NH+](C)CC[NH2+][C@@H](C(=O)NCCCCNC(=O)c1ccc(-c2c3nc(c(-c4cc(S(=O)(=O)[O-])ccc4F)c4ccc([nH]4)c(-c4cc(S(=O)(=O)[O-])ccc4F)c4nc(c(-c5cc(S(=O)(=O)[O-])ccc5F)c5ccc2[nH]5)C=C4)C=C3)cc1)c1cccc(C2CC2)c1
REMARK SMILES IDX 12 1 11 2 10 3 8 4 9 5 7 7 6 8 5 11 4 12 2 13 1 14 3 15
REMARK SMILES IDX 81 17 82 18 89 19 83 20 85 21 84 22 86 23 87 24 88 25 13 26
REMARK SMILES IDX 14 27 15 28 16 29 17 31 18 32 19 33 80 34 20 35 79 36 21 37
REMARK SMILES IDX 22 38 23 39 73 40 24 41 78 42 72 43 74 44 25 45 77 46 71 47
REMARK SMILES IDX 70 48 26 50 58 51 38 52 57 53 39 54 42 55 56 56 75 57 40 58
REMARK SMILES IDX 41 59 55 61 76 62 43 63 27 64 28 65 36 66 29 67 35 68 37 69
REMARK SMILES IDX 34 70 30 71 31 72 32 73 33 74 59 75 60 76 68 77 61 78 67 79
REMARK SMILES IDX 69 80 66 81 62 82 63 83 64 84 65 85 44 86 45 87 53 88 46 89
REMARK SMILES IDX 52 90 54 91 51 92 47 93 48 94 49 95 50 96
REMARK H PARENT 10 6 6 9 6 10 2 16 15 30 74 49 42 60
REMARK Flexibility Score: inf
ROOT
ATOM      1  C   UNL     1      -1.471   4.070  -0.476  1.00  0.00     0.023 C 
ENDROOT
BRANCH   1   2
ATOM      2  C   UNL     1      -1.206   4.370   1.010  1.00  0.00     0.116 C 
BRANCH   2   3
ATOM      3  N   UNL     1      -1.623   3.257   1.847  1.00  0.00    -0.351 N 
ATOM      4  C   UNL     1      -0.906   2.251   2.435  1.00  0.00     0.283 C 
ATOM      5  O   UNL     1      -1.557   1.243   2.736  1.00  0.00    -0.268 OA
ATOM      6  H   UNL     1      -2.591   3.221   2.021  1.00  0.00     0.163 HD
BRANCH   4   7
ATOM      7  C   UNL     1       0.642   2.365   2.713  1.00  0.00     0.304 C 
BRANCH   7   8
ATOM      8  N   UNL     1       1.462   1.688   1.663  1.00  0.00    -0.328 N 
ATOM      9  H   UNL     1       2.441   1.733   1.943  1.00  0.00     0.347 HD
ATOM     10  H   UNL     1       1.115   0.732   1.591  1.00  0.00     0.347 HD
BRANCH   8  11
ATOM     11  C   UNL     1       1.339   2.276   0.341  1.00  0.00     0.323 C 
BRANCH  11  12
ATOM     12  C   UNL     1       1.767   1.403  -0.860  1.00  0.00     0.323 C 
BRANCH  12  13
ATOM     13  N   UNL     1       1.028   0.162  -1.153  1.00  0.00    -0.335 N 
ATOM     14  C   UNL     1       1.342  -0.952  -0.272  1.00  0.00     0.332 C 
ATOM     15  C   UNL     1      -0.416   0.332  -1.296  1.00  0.00     0.332 C 
ATOM     16  H   UNL     1       1.382  -0.089  -2.076  1.00  0.00     0.347 HD
ENDBRANCH  12  13
ENDBRANCH  11  12
ENDBRANCH   8  11
ENDBRANCH   7   8
BRANCH   7  17
ATOM     17  C   UNL     1       0.967   1.690   4.060  1.00  0.00     0.019 A 
ATOM     18  C   UNL     1       0.871   0.291   4.191  1.00  0.00     0.010 A 
ATOM     19  C   UNL     1       1.322   2.440   5.197  1.00  0.00     0.014 A 
ATOM     20  C   UNL     1       1.132  -0.339   5.399  1.00  0.00     0.001 A 
ATOM     21  C   UNL     1       1.574   1.828   6.446  1.00  0.00    -0.044 A 
ATOM     22  C   UNL     1       1.476   0.425   6.509  1.00  0.00     0.004 A 
BRANCH  21  23
ATOM     23  C   UNL     1       1.913   2.578   7.718  1.00  0.00     0.019 C 
ATOM     24  C   UNL     1       2.117   4.066   7.807  1.00  0.00     0.009 C 
ATOM     25  C   UNL     1       0.849   3.459   8.331  1.00  0.00     0.009 C 
ENDBRANCH  21  23
ENDBRANCH   7  17
ENDBRANCH   4   7
ENDBRANCH   2   3
ENDBRANCH   1   2
BRANCH   1  26
ATOM     26  C   UNL     1      -2.932   4.064  -0.896  1.00  0.00     0.023 C 
BRANCH  26  27
ATOM     27  C   UNL     1      -3.547   5.443  -0.977  1.00  0.00     0.116 C 
BRANCH  27  28
ATOM     28  N   UNL     1      -2.868   6.300  -1.941  1.00  0.00    -0.352 N 
ATOM     29  C   UNL     1      -3.408   7.055  -2.957  1.00  0.00     0.251 C 
ATOM     30  H   UNL     1      -1.889   6.345  -1.852  1.00  0.00     0.163 HD
ATOM     31  O   UNL     1      -2.682   7.590  -3.779  1.00  0.00    -0.269 OA
BRANCH  29  32
ATOM     32  C   UNL     1      -4.878   7.167  -3.046  1.00  0.00     0.039 A 
ATOM     33  C   UNL     1      -5.503   6.986  -4.280  1.00  0.00     0.014 A 
ATOM     34  C   UNL     1      -5.631   7.376  -1.889  1.00  0.00     0.014 A 
ATOM     35  C   UNL     1      -6.896   6.943  -4.338  1.00  0.00     0.010 A 
ATOM     36  C   UNL     1      -7.006   7.215  -1.931  1.00  0.00     0.010 A 
ATOM     37  C   UNL     1      -7.655   7.016  -3.158  1.00  0.00    -0.014 A 
BRANCH  37  38
ATOM     38  C   UNL     1      -9.136   6.935  -3.175  1.00  0.00     0.031 A 
ATOM     39  C   UNL     1      -9.939   8.101  -2.665  1.00  0.00     0.074 A 
ATOM     40  C   UNL     1      -9.742   5.797  -3.564  1.00  0.00     0.049 A 
ATOM     41  N   UNL     1     -11.229   8.202  -2.481  1.00  0.00    -0.248 NA
ATOM     42  C   UNL     1      -9.180   9.296  -2.261  1.00  0.00     0.031 C 
ATOM     43  C   UNL     1      -9.059   4.584  -4.022  1.00  0.00     0.029 A 
ATOM     44  N   UNL     1     -11.072   5.470  -3.629  1.00  0.00    -0.354 N 
ATOM     45  C   UNL     1     -11.429   9.456  -1.912  1.00  0.00     0.074 A 
ATOM     46  C   UNL     1     -10.123  10.043  -1.712  1.00  0.00     0.031 C 
ATOM     47  C   UNL     1      -9.976   3.660  -4.353  1.00  0.00     0.029 A 
ATOM     48  C   UNL     1     -11.307   4.195  -4.089  1.00  0.00     0.049 A 
ATOM     49  H   UNL     1     -11.792   6.090  -3.370  1.00  0.00     0.167 HD
ATOM     50  C   UNL     1     -12.599  10.073  -1.614  1.00  0.00     0.034 A 
ATOM     51  C   UNL     1     -12.468   3.535  -4.271  1.00  0.00     0.034 A 
ATOM     52  C   UNL     1     -13.889   9.482  -1.861  1.00  0.00     0.049 A 
ATOM     53  C   UNL     1     -13.758   4.247  -3.948  1.00  0.00     0.074 A 
ATOM     54  C   UNL     1     -15.143  10.035  -1.672  1.00  0.00     0.029 A 
ATOM     55  N   UNL     1     -14.091   8.198  -2.355  1.00  0.00    -0.354 N 
ATOM     56  N   UNL     1     -13.936   5.455  -3.464  1.00  0.00    -0.248 NA
ATOM     57  C   UNL     1     -15.001   3.511  -4.206  1.00  0.00     0.031 C 
ATOM     58  C   UNL     1     -16.100   9.068  -1.995  1.00  0.00     0.029 A 
ATOM     59  C   UNL     1     -15.447   7.934  -2.453  1.00  0.00     0.049 A 
ATOM     60  H   UNL     1     -13.374   7.569  -2.599  1.00  0.00     0.167 HD
ATOM     61  C   UNL     1     -15.314   5.634  -3.391  1.00  0.00     0.074 A 
ATOM     62  C   UNL     1     -15.917   4.415  -3.893  1.00  0.00     0.031 C 
ATOM     63  C   UNL     1     -16.022   6.707  -2.953  1.00  0.00     0.034 A 
BRANCH  50  64
ATOM     64  C   UNL     1     -12.519  11.441  -0.978  1.00  0.00     0.023 A 
ATOM     65  C   UNL     1     -11.918  12.529  -1.636  1.00  0.00     0.031 A 
ATOM     66  C   UNL     1     -13.005  11.650   0.324  1.00  0.00     0.131 A 
ATOM     67  C   UNL     1     -11.737  13.745  -0.961  1.00  0.00     0.055 A 
ATOM     68  C   UNL     1     -12.903  12.890   0.959  1.00  0.00     0.041 A 
ATOM     69  F   UNL     1     -13.569  10.645   1.014  1.00  0.00    -0.206 F 
ATOM     70  C   UNL     1     -12.249  13.942   0.323  1.00  0.00     0.022 A 
BRANCH  67  71
ATOM     71  S   UNL     1     -10.683  15.009  -1.724  1.00  0.00     0.124 S 
ATOM     72  O   UNL     1      -9.412  14.297  -1.844  1.00  0.00    -0.237 OA
ATOM     73  O   UNL     1     -11.380  15.289  -2.974  1.00  0.00    -0.237 OA
ATOM     74  O   UNL     1     -10.690  16.096  -0.747  1.00  0.00    -0.744 OA
ENDBRANCH  67  71
ENDBRANCH  50  64
BRANCH  51  75
ATOM     75  C   UNL     1     -12.474   2.138  -4.790  1.00  0.00     0.023 A 
ATOM     76  C   UNL     1     -13.034   1.838  -6.042  1.00  0.00     0.031 A 
ATOM     77  C   UNL     1     -11.955   1.076  -4.029  1.00  0.00     0.131 A 
ATOM     78  C   UNL     1     -13.105   0.505  -6.477  1.00  0.00     0.055 A 
ATOM     79  C   UNL     1     -11.983  -0.243  -4.487  1.00  0.00     0.041 A 
ATOM     80  F   UNL     1     -11.400   1.308  -2.829  1.00  0.00    -0.206 F 
ATOM     81  C   UNL     1     -12.573  -0.536  -5.713  1.00  0.00     0.022 A 
BRANCH  78  82
ATOM     82  S   UNL     1     -13.980   0.144  -8.024  1.00  0.00     0.124 S 
ATOM     83  O   UNL     1     -15.304   0.691  -7.753  1.00  0.00    -0.237 OA
ATOM     84  O   UNL     1     -13.174   0.867  -9.003  1.00  0.00    -0.237 OA
ATOM     85  O   UNL     1     -13.913  -1.313  -8.120  1.00  0.00    -0.744 OA
ENDBRANCH  78  82
ENDBRANCH  51  75
BRANCH  63  86
ATOM     86  C   UNL     1     -17.523   6.617  -3.047  1.00  0.00     0.023 A 
ATOM     87  C   UNL     1     -18.261   5.726  -2.251  1.00  0.00     0.031 A 
ATOM     88  C   UNL     1     -18.222   7.434  -3.954  1.00  0.00     0.131 A 
ATOM     89  C   UNL     1     -19.651   5.631  -2.416  1.00  0.00     0.055 A 
ATOM     90  C   UNL     1     -19.611   7.378  -4.072  1.00  0.00     0.041 A 
ATOM     91  F   UNL     1     -17.564   8.303  -4.738  1.00  0.00    -0.206 F 
ATOM     92  C   UNL     1     -20.332   6.463  -3.309  1.00  0.00     0.022 A 
BRANCH  89  93
ATOM     93  S   UNL     1     -20.548   4.342  -1.510  1.00  0.00     0.124 S 
ATOM     94  O   UNL     1     -19.892   3.127  -1.982  1.00  0.00    -0.237 OA
ATOM     95  O   UNL     1     -20.294   4.704  -0.119  1.00  0.00    -0.237 OA
ATOM     96  O   UNL     1     -21.931   4.512  -1.951  1.00  0.00    -0.744 OA
ENDBRANCH  89  93
ENDBRANCH  63  86
ENDBRANCH  37  38
ENDBRANCH  29  32
ENDBRANCH  27  28
ENDBRANCH  26  27
ENDBRANCH   1  26
TORSDOF 20
