REMARK SMILES Cc1cccc(C[C@H](CC(=O)NCCCCNC(=O)c2ccc(-c3c4nc(c(-c5cc(S(=O)(=O)[O-])ccc5F)c5ccc([nH]5)c(-c5cc(S(=O)(=O)[O-])ccc5F)c5nc(c(-c6cc(S(=O)(=O)[O-])ccc6F)c6ccc3[nH]6)C=C5)C=C4)cc2)NC(=O)OC(C)(C)C)c1
REMARK SMILES IDX 14 1 13 2 12 3 10 4 11 5 9 7 8 8 7 9 6 10 1 11 2 12 3 13
REMARK SMILES IDX 91 14 4 15 5 16 83 17 84 18 85 20 86 21 87 22 88 23 89 24
REMARK SMILES IDX 90 25 15 26 16 27 17 28 18 29 19 31 20 32 21 33 82 34 22 35
REMARK SMILES IDX 81 36 23 37 24 38 25 39 75 40 26 41 80 42 74 43 76 44 27 45
REMARK SMILES IDX 79 46 73 47 72 48 28 50 60 51 40 52 59 53 41 54 44 55 58 56
REMARK SMILES IDX 77 57 42 58 43 59 57 61 78 62 45 63 29 64 30 65 38 66 31 67
REMARK SMILES IDX 37 68 39 69 36 70 32 71 33 72 34 73 35 74 61 75 62 76 70 77
REMARK SMILES IDX 63 78 69 79 71 80 68 81 64 82 65 83 66 84 67 85 46 86 47 87
REMARK SMILES IDX 55 88 48 89 54 90 56 91 53 92 49 93 50 94 51 95 52 96
REMARK H PARENT 12 6 83 19 17 30 76 49 44 60
REMARK Flexibility Score: inf
ROOT
ATOM      1  C   UNL     1      -5.545   3.740   0.489  1.00  0.00     0.023 C 
ENDROOT
BRANCH   1   2
ATOM      2  C   UNL     1      -4.346   3.761   1.461  1.00  0.00     0.116 C 
BRANCH   2   3
ATOM      3  N   UNL     1      -3.747   2.446   1.653  1.00  0.00    -0.356 N 
ATOM      4  C   UNL     1      -2.677   1.850   1.061  1.00  0.00     0.222 C 
ATOM      5  O   UNL     1      -2.380   0.707   1.423  1.00  0.00    -0.275 OA
ATOM      6  H   UNL     1      -4.195   1.891   2.332  1.00  0.00     0.163 HD
BRANCH   4   7
ATOM      7  C   UNL     1      -1.862   2.538  -0.022  1.00  0.00     0.125 C 
BRANCH   7   8
ATOM      8  C   UNL     1      -2.532   2.683  -1.406  1.00  0.00     0.099 C 
BRANCH   8   9
ATOM      9  C   UNL     1      -3.566   1.543  -1.677  1.00  0.00     0.061 C 
BRANCH   9  10
ATOM     10  C   UNL     1      -4.336   1.531  -2.982  1.00  0.00    -0.046 A 
ATOM     11  C   UNL     1      -5.486  -1.033  -5.574  1.00  0.00     0.044 C 
ATOM     12  C   UNL     1      -5.260   0.266  -4.862  1.00  0.00    -0.051 A 
ATOM     13  C   UNL     1      -5.798   1.443  -5.388  1.00  0.00     0.003 A 
ATOM     14  C   UNL     1      -4.515   0.321  -3.673  1.00  0.00     0.007 A 
ATOM     15  C   UNL     1      -5.681   2.635  -4.685  1.00  0.00     0.001 A 
ATOM     16  C   UNL     1      -4.996   2.662  -3.472  1.00  0.00     0.004 A 
ENDBRANCH   9  10
ENDBRANCH   8   9
BRANCH   8  17
ATOM     17  N   UNL     1      -3.049   4.043  -1.520  1.00  0.00    -0.318 N 
ATOM     18  C   UNL     1      -2.890   4.990  -2.466  1.00  0.00     0.407 C 
ATOM     19  H   UNL     1      -3.620   4.319  -0.767  1.00  0.00     0.167 HD
ATOM     20  O   UNL     1      -3.506   6.046  -2.356  1.00  0.00    -0.225 OA
BRANCH  18  21
ATOM     21  O   UNL     1      -2.087   4.652  -3.492  1.00  0.00    -0.444 OA
BRANCH  21  22
ATOM     22  C   UNL     1      -1.970   5.609  -4.574  1.00  0.00     0.106 C 
ATOM     23  C   UNL     1      -3.314   5.808  -5.295  1.00  0.00     0.056 C 
ATOM     24  C   UNL     1      -1.375   6.944  -4.096  1.00  0.00     0.056 C 
ATOM     25  C   UNL     1      -0.987   4.966  -5.559  1.00  0.00     0.056 C 
ENDBRANCH  21  22
ENDBRANCH  18  21
ENDBRANCH   8  17
ENDBRANCH   7   8
ENDBRANCH   4   7
ENDBRANCH   2   3
ENDBRANCH   1   2
BRANCH   1  26
ATOM     26  C   UNL     1      -6.737   2.899   0.928  1.00  0.00     0.023 C 
BRANCH  26  27
ATOM     27  C   UNL     1      -7.503   3.545   2.057  1.00  0.00     0.116 C 
BRANCH  27  28
ATOM     28  N   UNL     1      -8.510   4.518   1.664  1.00  0.00    -0.352 N 
ATOM     29  C   UNL     1      -9.449   5.166   2.453  1.00  0.00     0.251 C 
ATOM     30  H   UNL     1      -8.527   4.748   0.706  1.00  0.00     0.163 HD
ATOM     31  O   UNL     1     -10.390   5.770   1.944  1.00  0.00    -0.269 OA
BRANCH  29  32
ATOM     32  C   UNL     1      -9.206   5.312   3.916  1.00  0.00     0.039 A 
ATOM     33  C   UNL     1      -9.397   6.603   4.436  1.00  0.00     0.014 A 
ATOM     34  C   UNL     1      -8.390   4.415   4.583  1.00  0.00     0.014 A 
ATOM     35  C   UNL     1      -8.500   7.091   5.372  1.00  0.00     0.010 A 
ATOM     36  C   UNL     1      -7.373   4.941   5.328  1.00  0.00     0.010 A 
ATOM     37  C   UNL     1      -7.412   6.290   5.676  1.00  0.00    -0.014 A 
BRANCH  37  38
ATOM     38  C   UNL     1      -6.270   6.702   6.449  1.00  0.00     0.031 A 
ATOM     39  C   UNL     1      -6.314   6.351   7.875  1.00  0.00     0.074 A 
ATOM     40  C   UNL     1      -5.189   7.160   5.781  1.00  0.00     0.049 A 
ATOM     41  N   UNL     1      -5.643   6.947   8.785  1.00  0.00    -0.248 NA
ATOM     42  C   UNL     1      -7.193   5.306   8.414  1.00  0.00     0.031 C 
ATOM     43  C   UNL     1      -3.820   7.318   6.251  1.00  0.00     0.029 A 
ATOM     44  N   UNL     1      -5.194   7.788   4.535  1.00  0.00    -0.354 N 
ATOM     45  C   UNL     1      -5.694   6.145   9.904  1.00  0.00     0.074 A 
ATOM     46  C   UNL     1      -6.772   5.223   9.678  1.00  0.00     0.031 C 
ATOM     47  C   UNL     1      -3.198   8.230   5.479  1.00  0.00     0.029 A 
ATOM     48  C   UNL     1      -4.197   8.783   4.579  1.00  0.00     0.049 A 
ATOM     49  H   UNL     1      -5.780   7.577   3.773  1.00  0.00     0.167 HD
ATOM     50  C   UNL     1      -4.677   6.236  10.798  1.00  0.00     0.034 A 
ATOM     51  C   UNL     1      -4.569  10.099   4.530  1.00  0.00     0.034 A 
ATOM     52  C   UNL     1      -3.724   7.245  10.351  1.00  0.00     0.049 A 
ATOM     53  C   UNL     1      -4.295  10.801   5.844  1.00  0.00     0.074 A 
ATOM     54  C   UNL     1      -2.534   7.164   9.648  1.00  0.00     0.029 A 
ATOM     55  N   UNL     1      -4.151   8.559  10.261  1.00  0.00    -0.354 N 
ATOM     56  N   UNL     1      -4.194  10.190   6.996  1.00  0.00    -0.248 NA
ATOM     57  C   UNL     1      -4.022  12.229   5.947  1.00  0.00     0.031 C 
ATOM     58  C   UNL     1      -2.279   8.444   9.085  1.00  0.00     0.029 A 
ATOM     59  C   UNL     1      -3.305   9.294   9.463  1.00  0.00     0.049 A 
ATOM     60  H   UNL     1      -4.952   8.918  10.707  1.00  0.00     0.167 HD
ATOM     61  C   UNL     1      -3.805  11.084   7.964  1.00  0.00     0.074 A 
ATOM     62  C   UNL     1      -3.718  12.348   7.252  1.00  0.00     0.031 C 
ATOM     63  C   UNL     1      -3.561  10.708   9.260  1.00  0.00     0.034 A 
BRANCH  50  64
ATOM     64  C   UNL     1      -4.367   5.245  11.881  1.00  0.00     0.023 A 
ATOM     65  C   UNL     1      -3.021   5.108  12.271  1.00  0.00     0.031 A 
ATOM     66  C   UNL     1      -5.288   4.432  12.564  1.00  0.00     0.131 A 
ATOM     67  C   UNL     1      -2.622   4.185  13.246  1.00  0.00     0.055 A 
ATOM     68  C   UNL     1      -4.889   3.488  13.524  1.00  0.00     0.041 A 
ATOM     69  F   UNL     1      -6.609   4.543  12.369  1.00  0.00    -0.206 F 
ATOM     70  C   UNL     1      -3.549   3.360  13.870  1.00  0.00     0.022 A 
BRANCH  67  71
ATOM     71  S   UNL     1      -0.866   4.111  13.681  1.00  0.00     0.124 S 
ATOM     72  O   UNL     1      -0.258   3.693  12.421  1.00  0.00    -0.237 OA
ATOM     73  O   UNL     1      -0.592   5.479  14.105  1.00  0.00    -0.237 OA
ATOM     74  O   UNL     1      -0.825   3.113  14.748  1.00  0.00    -0.744 OA
ENDBRANCH  67  71
ENDBRANCH  50  64
BRANCH  51  75
ATOM     75  C   UNL     1      -5.730  10.302   3.600  1.00  0.00     0.023 A 
ATOM     76  C   UNL     1      -5.507   9.925   2.255  1.00  0.00     0.031 A 
ATOM     77  C   UNL     1      -7.052  10.290   4.065  1.00  0.00     0.131 A 
ATOM     78  C   UNL     1      -6.531   9.307   1.516  1.00  0.00     0.055 A 
ATOM     79  C   UNL     1      -8.092   9.765   3.279  1.00  0.00     0.041 A 
ATOM     80  F   UNL     1      -7.335  10.623   5.333  1.00  0.00    -0.206 F 
ATOM     81  C   UNL     1      -7.822   9.207   2.028  1.00  0.00     0.022 A 
BRANCH  78  82
ATOM     82  S   UNL     1      -6.054   8.355   0.037  1.00  0.00     0.124 S 
ATOM     83  O   UNL     1      -5.846   9.418  -0.941  1.00  0.00    -0.237 OA
ATOM     84  O   UNL     1      -4.860   7.653   0.506  1.00  0.00    -0.237 OA
ATOM     85  O   UNL     1      -7.201   7.482  -0.205  1.00  0.00    -0.744 OA
ENDBRANCH  78  82
ENDBRANCH  51  75
BRANCH  63  86
ATOM     86  C   UNL     1      -3.463  11.623  10.468  1.00  0.00     0.023 A 
ATOM     87  C   UNL     1      -3.728  12.991  10.404  1.00  0.00     0.031 A 
ATOM     88  C   UNL     1      -3.178  11.127  11.771  1.00  0.00     0.131 A 
ATOM     89  C   UNL     1      -3.614  13.812  11.538  1.00  0.00     0.055 A 
ATOM     90  C   UNL     1      -3.177  11.925  12.917  1.00  0.00     0.041 A 
ATOM     91  F   UNL     1      -2.898   9.838  12.009  1.00  0.00    -0.206 F 
ATOM     92  C   UNL     1      -3.372  13.288  12.803  1.00  0.00     0.022 A 
BRANCH  89  93
ATOM     93  S   UNL     1      -3.692  15.599  11.281  1.00  0.00     0.124 S 
ATOM     94  O   UNL     1      -2.553  15.820  10.393  1.00  0.00    -0.237 OA
ATOM     95  O   UNL     1      -5.008  15.770  10.675  1.00  0.00    -0.237 OA
ATOM     96  O   UNL     1      -3.547  16.146  12.627  1.00  0.00    -0.744 OA
ENDBRANCH  89  93
ENDBRANCH  63  86
ENDBRANCH  37  38
ENDBRANCH  29  32
ENDBRANCH  27  28
ENDBRANCH  26  27
ENDBRANCH   1  26
TORSDOF 20
