REMARK SMILES C[C@H]1CN(c2ccc(C(=O)NCCCCNC(=O)c3ccc(-c4c5nc(c(-c6cc(S(=O)(=O)[O-])ccc6F)c6ccc([nH]6)c(-c6cc(S(=O)(=O)[O-])ccc6F)c6nc(c(-c7cc(S(=O)(=O)[O-])ccc7F)c7ccc4[nH]7)C=C6)C=C5)cc3)cc2[N+](=O)[O-])C[C@@H]1C
REMARK SMILES IDX 14 1 13 2 12 3 11 4 9 5 10 6 8 8 5 9 6 10 83 11 7 12 82 13
REMARK SMILES IDX 4 14 1 15 2 16 3 17 88 18 87 19 89 20 84 21 85 22 86 23
REMARK SMILES IDX 15 24 16 25 17 26 18 28 19 29 20 30 81 31 21 32 80 33 22 34
REMARK SMILES IDX 23 35 24 36 74 37 25 38 79 39 73 40 75 41 26 42 78 43 72 44
REMARK SMILES IDX 71 45 27 47 59 48 39 49 58 50 40 51 43 52 57 53 76 54 41 55
REMARK SMILES IDX 42 56 56 58 77 59 44 60 28 61 29 62 37 63 30 64 36 65 38 66
REMARK SMILES IDX 35 67 31 68 32 69 33 70 34 71 60 72 61 73 69 74 62 75 68 76
REMARK SMILES IDX 70 77 67 78 63 79 64 80 65 81 66 82 45 83 46 84 54 85 47 86
REMARK SMILES IDX 53 87 55 88 52 89 48 90 49 91 50 92 51 93
REMARK H PARENT 11 7 16 27 75 46 43 57
REMARK Flexibility Score: inf
ROOT
ATOM      1  C   UNL     1      -0.304   5.376  10.277  1.00  0.00     0.023 C 
ENDROOT
BRANCH   1   2
ATOM      2  C   UNL     1      -0.102   4.736   8.903  1.00  0.00     0.023 C 
BRANCH   2   3
ATOM      3  C   UNL     1       1.284   4.991   8.303  1.00  0.00     0.116 C 
BRANCH   3   4
ATOM      4  N   UNL     1       2.247   4.058   8.856  1.00  0.00    -0.352 N 
ATOM      5  C   UNL     1       2.704   2.844   8.417  1.00  0.00     0.251 C 
ATOM      6  O   UNL     1       3.536   2.257   9.109  1.00  0.00    -0.269 OA
ATOM      7  H   UNL     1       2.647   4.353   9.706  1.00  0.00     0.163 HD
BRANCH   5   8
ATOM      8  C   UNL     1       2.281   2.227   7.128  1.00  0.00     0.046 A 
ATOM      9  C   UNL     1       1.666   0.985   4.619  1.00  0.00     0.116 A 
ATOM     10  C   UNL     1       2.843   0.689   5.325  1.00  0.00     0.034 A 
ATOM     11  C   UNL     1       0.812   1.914   5.221  1.00  0.00     0.293 A 
ATOM     12  C   UNL     1       3.158   1.307   6.542  1.00  0.00     0.016 A 
ATOM     13  C   UNL     1       1.079   2.483   6.478  1.00  0.00     0.101 A 
BRANCH   9  14
ATOM     14  N   UNL     1       1.426   0.315   3.451  1.00  0.00    -0.365 N 
ATOM     15  C   UNL     1      -0.838  -0.238   1.237  1.00  0.00     0.010 C 
ATOM     16  C   UNL     1       0.692  -0.247   1.279  1.00  0.00     0.010 C 
ATOM     17  C   UNL     1       1.237   0.913   2.134  1.00  0.00     0.120 C 
ATOM     18  C   UNL     1       1.229  -1.505   1.988  1.00  0.00     0.010 C 
ATOM     19  C   UNL     1       1.165  -1.120   3.469  1.00  0.00     0.120 C 
ATOM     20  C   UNL     1       2.668  -1.825   1.575  1.00  0.00     0.010 C 
ENDBRANCH   9  14
BRANCH  11  21
ATOM     21  N   UNL     1      -0.417   2.348   4.582  1.00  0.00     0.065 N 
ATOM     22  O   UNL     1      -0.548   3.570   4.412  1.00  0.00    -0.258 OA
ATOM     23  O   UNL     1      -1.269   1.494   4.306  1.00  0.00    -0.258 OA
ENDBRANCH  11  21
ENDBRANCH   5   8
ENDBRANCH   3   4
ENDBRANCH   2   3
ENDBRANCH   1   2
BRANCH   1  24
ATOM     24  C   UNL     1      -0.211   6.896  10.279  1.00  0.00     0.116 C 
BRANCH  24  25
ATOM     25  N   UNL     1      -1.161   7.521   9.374  1.00  0.00    -0.352 N 
ATOM     26  C   UNL     1      -1.806   8.726   9.511  1.00  0.00     0.251 C 
ATOM     27  H   UNL     1      -1.368   7.015   8.555  1.00  0.00     0.163 HD
ATOM     28  O   UNL     1      -2.691   9.035   8.724  1.00  0.00    -0.269 OA
BRANCH  26  29
ATOM     29  C   UNL     1      -1.447   9.617  10.634  1.00  0.00     0.039 A 
ATOM     30  C   UNL     1      -2.474  10.225  11.358  1.00  0.00     0.014 A 
ATOM     31  C   UNL     1      -0.112   9.848  10.976  1.00  0.00     0.014 A 
ATOM     32  C   UNL     1      -2.158  11.040  12.445  1.00  0.00     0.010 A 
ATOM     33  C   UNL     1       0.197  10.586  12.114  1.00  0.00     0.010 A 
ATOM     34  C   UNL     1      -0.822  11.211  12.847  1.00  0.00    -0.014 A 
BRANCH  34  35
ATOM     35  C   UNL     1      -0.487  12.081  14.003  1.00  0.00     0.031 A 
ATOM     36  C   UNL     1       0.337  13.326  13.793  1.00  0.00     0.074 A 
ATOM     37  C   UNL     1      -0.910  11.741  15.237  1.00  0.00     0.049 A 
ATOM     38  N   UNL     1       0.721  14.219  14.668  1.00  0.00    -0.248 NA
ATOM     39  C   UNL     1       0.816  13.588  12.426  1.00  0.00     0.031 C 
ATOM     40  C   UNL     1      -1.664  10.528  15.567  1.00  0.00     0.029 A 
ATOM     41  N   UNL     1      -0.773  12.380  16.443  1.00  0.00    -0.354 N 
ATOM     42  C   UNL     1       1.495  15.135  13.964  1.00  0.00     0.074 A 
ATOM     43  C   UNL     1       1.577  14.658  12.602  1.00  0.00     0.031 C 
ATOM     44  C   UNL     1      -1.952  10.531  16.879  1.00  0.00     0.029 A 
ATOM     45  C   UNL     1      -1.370  11.719  17.493  1.00  0.00     0.049 A 
ATOM     46  H   UNL     1      -0.292  13.233  16.548  1.00  0.00     0.167 HD
ATOM     47  C   UNL     1       2.063  16.282  14.408  1.00  0.00     0.034 A 
ATOM     48  C   UNL     1      -1.435  12.035  18.802  1.00  0.00     0.034 A 
ATOM     49  C   UNL     1       1.946  16.757  15.764  1.00  0.00     0.049 A 
ATOM     50  C   UNL     1      -0.806  13.328  19.263  1.00  0.00     0.074 A 
ATOM     51  C   UNL     1       2.417  17.941  16.304  1.00  0.00     0.029 A 
ATOM     52  N   UNL     1       1.322  16.071  16.798  1.00  0.00    -0.354 N 
ATOM     53  N   UNL     1      -0.150  14.226  18.562  1.00  0.00    -0.248 NA
ATOM     54  C   UNL     1      -0.949  13.662  20.685  1.00  0.00     0.031 C 
ATOM     55  C   UNL     1       2.150  17.934  17.676  1.00  0.00     0.029 A 
ATOM     56  C   UNL     1       1.428  16.790  17.978  1.00  0.00     0.049 A 
ATOM     57  H   UNL     1       0.870  15.201  16.705  1.00  0.00     0.167 HD
ATOM     58  C   UNL     1       0.166  15.246  19.456  1.00  0.00     0.074 A 
ATOM     59  C   UNL     1      -0.401  14.866  20.733  1.00  0.00     0.031 C 
ATOM     60  C   UNL     1       0.865  16.392  19.246  1.00  0.00     0.034 A 
BRANCH  47  61
ATOM     61  C   UNL     1       2.883  17.090  13.430  1.00  0.00     0.023 A 
ATOM     62  C   UNL     1       2.313  17.689  12.292  1.00  0.00     0.031 A 
ATOM     63  C   UNL     1       4.260  17.275  13.650  1.00  0.00     0.131 A 
ATOM     64  C   UNL     1       3.125  18.398  11.393  1.00  0.00     0.055 A 
ATOM     65  C   UNL     1       5.047  18.046  12.793  1.00  0.00     0.041 A 
ATOM     66  F   UNL     1       4.865  16.706  14.704  1.00  0.00    -0.206 F 
ATOM     67  C   UNL     1       4.482  18.605  11.651  1.00  0.00     0.022 A 
BRANCH  64  68
ATOM     68  S   UNL     1       2.407  18.952   9.822  1.00  0.00     0.124 S 
ATOM     69  O   UNL     1       2.002  17.684   9.220  1.00  0.00    -0.237 OA
ATOM     70  O   UNL     1       1.325  19.826  10.259  1.00  0.00    -0.237 OA
ATOM     71  O   UNL     1       3.521  19.623   9.153  1.00  0.00    -0.744 OA
ENDBRANCH  64  68
ENDBRANCH  47  61
BRANCH  48  72
ATOM     72  C   UNL     1      -2.099  11.121  19.780  1.00  0.00     0.023 A 
ATOM     73  C   UNL     1      -3.203  11.543  20.541  1.00  0.00     0.031 A 
ATOM     74  C   UNL     1      -1.585   9.836  20.030  1.00  0.00     0.131 A 
ATOM     75  C   UNL     1      -3.704  10.721  21.564  1.00  0.00     0.055 A 
ATOM     76  C   UNL     1      -2.133   8.995  21.000  1.00  0.00     0.041 A 
ATOM     77  F   UNL     1      -0.533   9.377  19.332  1.00  0.00    -0.206 F 
ATOM     78  C   UNL     1      -3.186   9.445  21.789  1.00  0.00     0.022 A 
BRANCH  75  79
ATOM     79  S   UNL     1      -4.958  11.401  22.687  1.00  0.00     0.124 S 
ATOM     80  O   UNL     1      -4.301  12.611  23.166  1.00  0.00    -0.237 OA
ATOM     81  O   UNL     1      -6.091  11.599  21.789  1.00  0.00    -0.237 OA
ATOM     82  O   UNL     1      -5.129  10.346  23.683  1.00  0.00    -0.744 OA
ENDBRANCH  75  79
ENDBRANCH  48  72
BRANCH  60  83
ATOM     83  C   UNL     1       1.004  17.332  20.422  1.00  0.00     0.023 A 
ATOM     84  C   UNL     1       1.682  16.955  21.594  1.00  0.00     0.031 A 
ATOM     85  C   UNL     1       0.412  18.607  20.384  1.00  0.00     0.131 A 
ATOM     86  C   UNL     1       1.672  17.803  22.711  1.00  0.00     0.055 A 
ATOM     87  C   UNL     1       0.478  19.481  21.470  1.00  0.00     0.041 A 
ATOM     88  F   UNL     1      -0.251  19.023  19.293  1.00  0.00    -0.206 F 
ATOM     89  C   UNL     1       1.092  19.072  22.650  1.00  0.00     0.022 A 
BRANCH  86  90
ATOM     90  S   UNL     1       2.299  17.165  24.289  1.00  0.00     0.124 S 
ATOM     91  O   UNL     1       1.501  15.956  24.464  1.00  0.00    -0.237 OA
ATOM     92  O   UNL     1       3.714  16.959  24.001  1.00  0.00    -0.237 OA
ATOM     93  O   UNL     1       2.008  18.242  25.233  1.00  0.00    -0.744 OA
ENDBRANCH  86  90
ENDBRANCH  60  83
ENDBRANCH  34  35
ENDBRANCH  26  29
ENDBRANCH  24  25
ENDBRANCH   1  24
TORSDOF 16
