REMARK SMILES Cc1ccc(OCC(=O)NNC(=O)[C@H]2CCCC[C@@H]2C(=O)NCCCCNC(=O)c2ccc(-c3c4nc(c(-c5cc(S(=O)(=O)[O-])ccc5F)c5ccc([nH]5)c(-c5cc(S(=O)(=O)[O-])ccc5F)c5nc(c(-c6cc(S(=O)(=O)[O-])ccc6F)c6ccc3[nH]6)C=C5)C=C4)cc2)cc1
REMARK SMILES IDX 23 1 22 2 20 3 21 4 19 6 14 7 15 8 16 9 18 10 17 11 12 12
REMARK SMILES IDX 11 13 13 15 10 16 8 17 9 18 7 20 6 21 5 22 1 23 2 24 3 25
REMARK SMILES IDX 94 26 4 27 93 28 24 29 25 30 26 31 27 32 28 33 29 35 30 36
REMARK SMILES IDX 31 37 92 38 32 39 91 40 33 41 34 42 35 43 85 44 36 45 90 46
REMARK SMILES IDX 84 47 86 48 37 49 89 50 83 51 82 52 38 54 70 55 50 56 69 57
REMARK SMILES IDX 51 58 54 59 68 60 87 61 52 62 53 63 67 65 88 66 55 67 39 68
REMARK SMILES IDX 40 69 48 70 41 71 47 72 49 73 46 74 42 75 43 76 44 77 45 78
REMARK SMILES IDX 71 79 72 80 80 81 73 82 79 83 81 84 78 85 74 86 75 87 76 88
REMARK SMILES IDX 77 89 56 90 57 91 65 92 58 93 64 94 66 95 63 96 59 97 60 98
REMARK SMILES IDX 61 99 62 100
REMARK H PARENT 22 5 11 14 10 19 27 34 86 53 54 64
REMARK Flexibility Score: inf
ROOT
ATOM      1  C   UNL     1      -6.266   4.425   5.913  1.00  0.00     0.116 C 
ENDROOT
BRANCH   1   2
ATOM      2  N   UNL     1      -6.121   3.554   4.752  1.00  0.00    -0.356 N 
ATOM      3  C   UNL     1      -5.374   2.457   4.484  1.00  0.00     0.223 C 
ATOM      4  O   UNL     1      -5.617   1.920   3.390  1.00  0.00    -0.275 OA
ATOM      5  H   UNL     1      -6.692   3.824   3.996  1.00  0.00     0.163 HD
BRANCH   3   6
ATOM      6  C   UNL     1      -4.200   1.903   5.322  1.00  0.00     0.091 C 
ATOM      7  C   UNL     1      -4.198   0.347   5.210  1.00  0.00     0.092 C 
ATOM      8  C   UNL     1      -5.273  -0.265   6.133  1.00  0.00     0.014 C 
ATOM      9  C   UNL     1      -5.177   0.203   7.585  1.00  0.00     0.001 C 
ATOM     10  C   UNL     1      -3.996   2.285   6.785  1.00  0.00     0.014 C 
ATOM     11  C   UNL     1      -5.078   1.716   7.698  1.00  0.00     0.001 C 
BRANCH   7  12
ATOM     12  C   UNL     1      -2.816  -0.254   5.492  1.00  0.00     0.242 C 
ATOM     13  N   UNL     1      -1.770   0.013   4.648  1.00  0.00    -0.267 N 
ATOM     14  H   UNL     1      -0.876  -0.286   4.931  1.00  0.00     0.191 HD
ATOM     15  O   UNL     1      -2.586  -1.004   6.443  1.00  0.00    -0.273 OA
BRANCH  13  16
ATOM     16  N   UNL     1      -1.863   0.668   3.429  1.00  0.00    -0.265 N 
ATOM     17  C   UNL     1      -0.780   1.231   2.794  1.00  0.00     0.276 C 
ATOM     18  O   UNL     1      -0.902   1.705   1.662  1.00  0.00    -0.269 OA
ATOM     19  H   UNL     1      -2.745   0.734   2.998  1.00  0.00     0.191 HD
BRANCH  17  20
ATOM     20  C   UNL     1       0.585   1.192   3.493  1.00  0.00     0.331 C 
BRANCH  20  21
ATOM     21  O   UNL     1       0.652   1.793   4.776  1.00  0.00    -0.484 OA
BRANCH  21  22
ATOM     22  C   UNL     1       0.659   3.160   4.841  1.00  0.00     0.120 A 
ATOM     23  C   UNL     1       0.646   7.428   5.498  1.00  0.00     0.044 C 
ATOM     24  C   UNL     1       0.660   5.947   5.264  1.00  0.00    -0.051 A 
ATOM     25  C   UNL     1       0.766   5.066   6.344  1.00  0.00     0.007 A 
ATOM     26  C   UNL     1       0.566   5.422   3.972  1.00  0.00     0.007 A 
ATOM     27  C   UNL     1       0.763   3.684   6.131  1.00  0.00     0.047 A 
ATOM     28  C   UNL     1       0.566   4.038   3.761  1.00  0.00     0.047 A 
ENDBRANCH  21  22
ENDBRANCH  20  21
ENDBRANCH  17  20
ENDBRANCH  13  16
ENDBRANCH   7  12
ENDBRANCH   3   6
ENDBRANCH   1   2
BRANCH   1  29
ATOM     29  C   UNL     1      -6.071   5.909   5.591  1.00  0.00     0.023 C 
BRANCH  29  30
ATOM     30  C   UNL     1      -7.201   6.566   4.802  1.00  0.00     0.023 C 
BRANCH  30  31
ATOM     31  C   UNL     1      -8.552   6.593   5.509  1.00  0.00     0.116 C 
BRANCH  31  32
ATOM     32  N   UNL     1      -8.782   7.717   6.405  1.00  0.00    -0.352 N 
ATOM     33  C   UNL     1      -9.909   7.990   7.172  1.00  0.00     0.251 C 
ATOM     34  H   UNL     1      -8.046   8.366   6.478  1.00  0.00     0.163 HD
ATOM     35  O   UNL     1     -10.010   9.022   7.815  1.00  0.00    -0.269 OA
BRANCH  33  36
ATOM     36  C   UNL     1     -10.956   6.941   7.298  1.00  0.00     0.039 A 
ATOM     37  C   UNL     1     -11.312   6.537   8.589  1.00  0.00     0.014 A 
ATOM     38  C   UNL     1     -11.388   6.213   6.192  1.00  0.00     0.014 A 
ATOM     39  C   UNL     1     -11.883   5.279   8.779  1.00  0.00     0.010 A 
ATOM     40  C   UNL     1     -11.859   4.927   6.382  1.00  0.00     0.010 A 
ATOM     41  C   UNL     1     -12.043   4.436   7.678  1.00  0.00    -0.014 A 
BRANCH  41  42
ATOM     42  C   UNL     1     -12.233   2.995   7.816  1.00  0.00     0.031 A 
ATOM     43  C   UNL     1     -13.538   2.364   7.548  1.00  0.00     0.074 A 
ATOM     44  C   UNL     1     -11.201   2.216   8.207  1.00  0.00     0.049 A 
ATOM     45  N   UNL     1     -13.983   1.330   8.182  1.00  0.00    -0.248 NA
ATOM     46  C   UNL     1     -14.466   2.875   6.548  1.00  0.00     0.031 C 
ATOM     47  C   UNL     1     -11.148   0.757   8.240  1.00  0.00     0.029 A 
ATOM     48  N   UNL     1     -10.059   2.618   8.892  1.00  0.00    -0.354 N 
ATOM     49  C   UNL     1     -15.090   0.875   7.505  1.00  0.00     0.074 A 
ATOM     50  C   UNL     1     -15.391   1.910   6.540  1.00  0.00     0.031 C 
ATOM     51  C   UNL     1     -10.195   0.379   9.107  1.00  0.00     0.029 A 
ATOM     52  C   UNL     1      -9.692   1.577   9.756  1.00  0.00     0.049 A 
ATOM     53  H   UNL     1      -9.593   3.479   8.788  1.00  0.00     0.167 HD
ATOM     54  C   UNL     1     -15.552  -0.390   7.720  1.00  0.00     0.034 A 
ATOM     55  C   UNL     1      -9.628   1.779  11.103  1.00  0.00     0.034 A 
ATOM     56  C   UNL     1     -14.736  -1.115   8.692  1.00  0.00     0.049 A 
ATOM     57  C   UNL     1     -10.586   0.910  11.894  1.00  0.00     0.074 A 
ATOM     58  C   UNL     1     -13.745  -2.074   8.551  1.00  0.00     0.029 A 
ATOM     59  N   UNL     1     -14.688  -0.696  10.017  1.00  0.00    -0.354 N 
ATOM     60  N   UNL     1     -11.584   0.246  11.378  1.00  0.00    -0.248 NA
ATOM     61  C   UNL     1     -10.508   0.756  13.342  1.00  0.00     0.031 C 
ATOM     62  C   UNL     1     -13.075  -2.203   9.794  1.00  0.00     0.029 A 
ATOM     63  C   UNL     1     -13.672  -1.342  10.697  1.00  0.00     0.049 A 
ATOM     64  H   UNL     1     -15.295  -0.031  10.416  1.00  0.00     0.167 HD
ATOM     65  C   UNL     1     -12.296  -0.375  12.378  1.00  0.00     0.074 A 
ATOM     66  C   UNL     1     -11.557  -0.049  13.585  1.00  0.00     0.031 C 
ATOM     67  C   UNL     1     -13.439  -1.084  12.114  1.00  0.00     0.034 A 
BRANCH  54  68
ATOM     68  C   UNL     1     -16.543  -1.068   6.798  1.00  0.00     0.023 A 
ATOM     69  C   UNL     1     -16.448  -2.456   6.568  1.00  0.00     0.031 A 
ATOM     70  C   UNL     1     -17.567  -0.407   6.095  1.00  0.00     0.131 A 
ATOM     71  C   UNL     1     -17.241  -3.095   5.598  1.00  0.00     0.055 A 
ATOM     72  C   UNL     1     -18.312  -1.026   5.081  1.00  0.00     0.041 A 
ATOM     73  F   UNL     1     -17.914   0.855   6.388  1.00  0.00    -0.206 F 
ATOM     74  C   UNL     1     -18.137  -2.375   4.814  1.00  0.00     0.022 A 
BRANCH  71  75
ATOM     75  S   UNL     1     -17.091  -4.890   5.379  1.00  0.00     0.124 S 
ATOM     76  O   UNL     1     -15.675  -5.049   5.065  1.00  0.00    -0.237 OA
ATOM     77  O   UNL     1     -17.526  -5.395   6.677  1.00  0.00    -0.237 OA
ATOM     78  O   UNL     1     -18.003  -5.174   4.272  1.00  0.00    -0.744 OA
ENDBRANCH  71  75
ENDBRANCH  54  68
BRANCH  55  79
ATOM     79  C   UNL     1      -9.220   3.166  11.479  1.00  0.00     0.023 A 
ATOM     80  C   UNL     1      -7.975   3.640  11.009  1.00  0.00     0.031 A 
ATOM     81  C   UNL     1     -10.143   4.109  11.948  1.00  0.00     0.131 A 
ATOM     82  C   UNL     1      -7.740   5.018  10.886  1.00  0.00     0.055 A 
ATOM     83  C   UNL     1      -9.883   5.483  11.874  1.00  0.00     0.041 A 
ATOM     84  F   UNL     1     -11.357   3.727  12.373  1.00  0.00    -0.206 F 
ATOM     85  C   UNL     1      -8.696   5.944  11.303  1.00  0.00     0.022 A 
BRANCH  82  86
ATOM     86  S   UNL     1      -6.294   5.601   9.954  1.00  0.00     0.124 S 
ATOM     87  O   UNL     1      -5.341   5.903  11.014  1.00  0.00    -0.237 OA
ATOM     88  O   UNL     1      -5.963   4.456   9.111  1.00  0.00    -0.237 OA
ATOM     89  O   UNL     1      -6.808   6.750   9.212  1.00  0.00    -0.744 OA
ENDBRANCH  82  86
ENDBRANCH  55  79
BRANCH  67  90
ATOM     90  C   UNL     1     -14.406  -1.678  13.130  1.00  0.00     0.023 A 
ATOM     91  C   UNL     1     -14.372  -1.406  14.506  1.00  0.00     0.031 A 
ATOM     92  C   UNL     1     -15.466  -2.529  12.715  1.00  0.00     0.131 A 
ATOM     93  C   UNL     1     -15.284  -2.005  15.399  1.00  0.00     0.055 A 
ATOM     94  C   UNL     1     -16.414  -3.067  13.593  1.00  0.00     0.041 A 
ATOM     95  F   UNL     1     -15.639  -2.873  11.431  1.00  0.00    -0.206 F 
ATOM     96  C   UNL     1     -16.319  -2.819  14.950  1.00  0.00     0.022 A 
BRANCH  93  97
ATOM     97  S   UNL     1     -15.052  -1.734  17.177  1.00  0.00     0.124 S 
ATOM     98  O   UNL     1     -13.745  -2.345  17.406  1.00  0.00    -0.237 OA
ATOM     99  O   UNL     1     -15.097  -0.280  17.281  1.00  0.00    -0.237 OA
ATOM    100  O   UNL     1     -16.180  -2.436  17.785  1.00  0.00    -0.744 OA
ENDBRANCH  93  97
ENDBRANCH  67  90
ENDBRANCH  41  42
ENDBRANCH  33  36
ENDBRANCH  31  32
ENDBRANCH  30  31
ENDBRANCH  29  30
ENDBRANCH   1  29
TORSDOF 19
