REMARK SMILES Cc1cc(C)nc(SCC(=O)N2CCC[C@H](C(=O)NCCCCNC(=O)c3ccc(-c4c5nc(c(-c6cc(S(=O)(=O)[O-])ccc6F)c6ccc([nH]6)c(-c6cc(S(=O)(=O)[O-])ccc6F)c6nc(c(-c7cc(S(=O)(=O)[O-])ccc7F)c7ccc4[nH]7)C=C6)C=C5)cc3)C2)n1
REMARK SMILES IDX 21 1 20 2 19 3 17 4 18 5 16 7 12 8 13 9 90 10 14 11 15 12
REMARK SMILES IDX 10 13 11 14 9 15 8 16 7 17 1 18 2 19 3 20 91 21 4 22 5 23
REMARK SMILES IDX 6 24 22 25 23 26 24 27 25 28 26 30 27 31 28 32 89 33 29 34
REMARK SMILES IDX 88 35 30 36 31 37 32 38 82 39 33 40 87 41 81 42 83 43 34 44
REMARK SMILES IDX 86 45 80 46 79 47 35 49 67 50 47 51 66 52 48 53 51 54 65 55
REMARK SMILES IDX 84 56 49 57 50 58 64 60 85 61 52 62 36 63 37 64 45 65 38 66
REMARK SMILES IDX 44 67 46 68 43 69 39 70 40 71 41 72 42 73 68 74 69 75 77 76
REMARK SMILES IDX 70 77 76 78 78 79 75 80 71 81 72 82 73 83 74 84 53 85 54 86
REMARK SMILES IDX 62 87 55 88 61 89 63 90 60 91 56 92 57 93 58 94 59 95
REMARK H PARENT 19 6 24 29 83 48 51 59
REMARK Flexibility Score: inf
ROOT
ATOM      1  C   UNL     1       4.061  -1.184  -4.357  1.00  0.00     0.023 C 
ENDROOT
BRANCH   1   2
ATOM      2  C   UNL     1       2.943  -1.427  -3.349  1.00  0.00     0.116 C 
BRANCH   2   3
ATOM      3  N   UNL     1       1.688  -0.824  -3.734  1.00  0.00    -0.356 N 
ATOM      4  C   UNL     1       0.497  -1.380  -4.069  1.00  0.00     0.224 C 
ATOM      5  O   UNL     1      -0.447  -0.596  -4.230  1.00  0.00    -0.275 OA
ATOM      6  H   UNL     1       1.699   0.160  -3.758  1.00  0.00     0.163 HD
BRANCH   4   7
ATOM      7  C   UNL     1       0.258  -2.886  -4.259  1.00  0.00     0.098 C 
ATOM      8  N   UNL     1       1.460  -4.330  -2.594  1.00  0.00    -0.341 N 
ATOM      9  C   UNL     1       2.067  -5.128  -3.664  1.00  0.00     0.119 C 
ATOM     10  C   UNL     1       0.204  -3.683  -2.951  1.00  0.00     0.133 C 
ATOM     11  C   UNL     1       2.258  -4.363  -4.971  1.00  0.00     0.022 C 
ATOM     12  C   UNL     1       1.039  -3.551  -5.393  1.00  0.00     0.017 C 
BRANCH   8  13
ATOM     13  C   UNL     1       2.183  -4.124  -1.425  1.00  0.00     0.233 C 
ATOM     14  O   UNL     1       3.424  -4.172  -1.486  1.00  0.00    -0.274 OA
BRANCH  13  15
ATOM     15  C   UNL     1       1.573  -4.078  -0.025  1.00  0.00     0.178 C 
BRANCH  15  16
ATOM     16  S   UNL     1      -0.121  -3.573   0.274  1.00  0.00    -0.076 SA
BRANCH  16  17
ATOM     17  C   UNL     1       0.010  -1.804   0.150  1.00  0.00     0.188 A 
ATOM     18  C   UNL     1       2.581   0.800   0.029  1.00  0.00     0.067 C 
ATOM     19  C   UNL     1       1.242   0.124   0.029  1.00  0.00     0.042 A 
ATOM     20  C   UNL     1       0.091   0.885  -0.035  1.00  0.00     0.047 A 
ATOM     21  N   UNL     1       1.219  -1.225   0.103  1.00  0.00    -0.228 NA
ATOM     22  C   UNL     1      -1.105   0.198  -0.006  1.00  0.00     0.042 A 
ATOM     23  C   UNL     1      -2.405   0.942  -0.062  1.00  0.00     0.067 C 
ATOM     24  N   UNL     1      -1.160  -1.145   0.091  1.00  0.00    -0.228 NA
ENDBRANCH  16  17
ENDBRANCH  15  16
ENDBRANCH  13  15
ENDBRANCH   8  13
ENDBRANCH   4   7
ENDBRANCH   2   3
ENDBRANCH   1   2
BRANCH   1  25
ATOM     25  C   UNL     1       4.977  -0.015  -4.013  1.00  0.00     0.023 C 
BRANCH  25  26
ATOM     26  C   UNL     1       5.698  -0.126  -2.672  1.00  0.00     0.116 C 
BRANCH  26  27
ATOM     27  N   UNL     1       6.515  -1.320  -2.520  1.00  0.00    -0.352 N 
ATOM     28  C   UNL     1       7.723  -1.440  -1.861  1.00  0.00     0.251 C 
ATOM     29  H   UNL     1       6.166  -2.140  -2.937  1.00  0.00     0.163 HD
ATOM     30  O   UNL     1       8.353  -2.485  -1.894  1.00  0.00    -0.269 OA
BRANCH  28  31
ATOM     31  C   UNL     1       8.260  -0.256  -1.153  1.00  0.00     0.039 A 
ATOM     32  C   UNL     1       9.567   0.158  -1.412  1.00  0.00     0.014 A 
ATOM     33  C   UNL     1       7.440   0.483  -0.295  1.00  0.00     0.014 A 
ATOM     34  C   UNL     1      10.026   1.361  -0.871  1.00  0.00     0.010 A 
ATOM     35  C   UNL     1       7.867   1.722   0.165  1.00  0.00     0.010 A 
ATOM     36  C   UNL     1       9.167   2.174  -0.112  1.00  0.00    -0.014 A 
BRANCH  36  37
ATOM     37  C   UNL     1       9.617   3.484   0.427  1.00  0.00     0.031 A 
ATOM     38  C   UNL     1       9.652   3.707   1.915  1.00  0.00     0.074 A 
ATOM     39  C   UNL     1       9.918   4.492  -0.415  1.00  0.00     0.049 A 
ATOM     40  N   UNL     1       9.937   4.793   2.587  1.00  0.00    -0.248 NA
ATOM     41  C   UNL     1       9.264   2.565   2.756  1.00  0.00     0.031 C 
ATOM     42  C   UNL     1       9.850   4.424  -1.877  1.00  0.00     0.029 A 
ATOM     43  N   UNL     1      10.334   5.774  -0.163  1.00  0.00    -0.354 N 
ATOM     44  C   UNL     1       9.742   4.470   3.926  1.00  0.00     0.074 A 
ATOM     45  C   UNL     1       9.230   3.117   3.957  1.00  0.00     0.031 C 
ATOM     46  C   UNL     1      10.238   5.603  -2.390  1.00  0.00     0.029 A 
ATOM     47  C   UNL     1      10.553   6.519  -1.298  1.00  0.00     0.049 A 
ATOM     48  H   UNL     1      10.464   6.129   0.746  1.00  0.00     0.167 HD
ATOM     49  C   UNL     1      10.000   5.217   5.029  1.00  0.00     0.034 A 
ATOM     50  C   UNL     1      10.964   7.794  -1.442  1.00  0.00     0.034 A 
ATOM     51  C   UNL     1      10.531   6.558   4.977  1.00  0.00     0.049 A 
ATOM     52  C   UNL     1      11.286   8.597  -0.209  1.00  0.00     0.074 A 
ATOM     53  C   UNL     1      10.876   7.395   6.024  1.00  0.00     0.029 A 
ATOM     54  N   UNL     1      10.796   7.260   3.807  1.00  0.00    -0.354 N 
ATOM     55  N   UNL     1      11.152   8.262   1.054  1.00  0.00    -0.248 NA
ATOM     56  C   UNL     1      11.838   9.941  -0.422  1.00  0.00     0.031 C 
ATOM     57  C   UNL     1      11.300   8.617   5.489  1.00  0.00     0.029 A 
ATOM     58  C   UNL     1      11.287   8.522   4.106  1.00  0.00     0.049 A 
ATOM     59  H   UNL     1      10.656   6.912   2.897  1.00  0.00     0.167 HD
ATOM     60  C   UNL     1      11.633   9.344   1.786  1.00  0.00     0.074 A 
ATOM     61  C   UNL     1      12.071  10.333   0.822  1.00  0.00     0.031 C 
ATOM     62  C   UNL     1      11.710   9.502   3.133  1.00  0.00     0.034 A 
BRANCH  49  63
ATOM     63  C   UNL     1       9.686   4.589   6.369  1.00  0.00     0.023 A 
ATOM     64  C   UNL     1      10.300   3.391   6.780  1.00  0.00     0.031 A 
ATOM     65  C   UNL     1       8.706   5.143   7.211  1.00  0.00     0.131 A 
ATOM     66  C   UNL     1       9.846   2.727   7.929  1.00  0.00     0.055 A 
ATOM     67  C   UNL     1       8.331   4.528   8.408  1.00  0.00     0.041 A 
ATOM     68  F   UNL     1       8.070   6.274   6.869  1.00  0.00    -0.206 F 
ATOM     69  C   UNL     1       8.884   3.300   8.761  1.00  0.00     0.022 A 
BRANCH  66  70
ATOM     70  S   UNL     1      10.388   1.018   8.205  1.00  0.00     0.124 S 
ATOM     71  O   UNL     1       9.939   0.366   6.976  1.00  0.00    -0.237 OA
ATOM     72  O   UNL     1      11.830   1.165   8.360  1.00  0.00    -0.237 OA
ATOM     73  O   UNL     1       9.665   0.620   9.411  1.00  0.00    -0.744 OA
ENDBRANCH  66  70
ENDBRANCH  49  63
BRANCH  50  74
ATOM     74  C   UNL     1      11.115   8.383  -2.802  1.00  0.00     0.023 A 
ATOM     75  C   UNL     1      12.382   8.696  -3.320  1.00  0.00     0.031 A 
ATOM     76  C   UNL     1       9.990   8.653  -3.600  1.00  0.00     0.131 A 
ATOM     77  C   UNL     1      12.492   9.297  -4.583  1.00  0.00     0.055 A 
ATOM     78  C   UNL     1      10.107   9.212  -4.874  1.00  0.00     0.041 A 
ATOM     79  F   UNL     1       8.757   8.358  -3.156  1.00  0.00    -0.206 F 
ATOM     80  C   UNL     1      11.364   9.547  -5.368  1.00  0.00     0.022 A 
BRANCH  77  81
ATOM     81  S   UNL     1      14.135   9.796  -5.170  1.00  0.00     0.124 S 
ATOM     82  O   UNL     1      14.535  10.759  -4.150  1.00  0.00    -0.237 OA
ATOM     83  O   UNL     1      14.855   8.526  -5.171  1.00  0.00    -0.237 OA
ATOM     84  O   UNL     1      13.868  10.358  -6.492  1.00  0.00    -0.744 OA
ENDBRANCH  77  81
ENDBRANCH  50  74
BRANCH  62  85
ATOM     85  C   UNL     1      12.340  10.779   3.634  1.00  0.00     0.023 A 
ATOM     86  C   UNL     1      11.732  12.032   3.439  1.00  0.00     0.031 A 
ATOM     87  C   UNL     1      13.579  10.740   4.297  1.00  0.00     0.131 A 
ATOM     88  C   UNL     1      12.394  13.200   3.848  1.00  0.00     0.055 A 
ATOM     89  C   UNL     1      14.204  11.900   4.755  1.00  0.00     0.041 A 
ATOM     90  F   UNL     1      14.204   9.571   4.509  1.00  0.00    -0.206 F 
ATOM     91  C   UNL     1      13.619  13.141   4.518  1.00  0.00     0.022 A 
BRANCH  88  92
ATOM     92  S   UNL     1      11.682  14.807   3.399  1.00  0.00     0.124 S 
ATOM     93  O   UNL     1      11.571  14.696   1.948  1.00  0.00    -0.237 OA
ATOM     94  O   UNL     1      10.423  14.806   4.137  1.00  0.00    -0.237 OA
ATOM     95  O   UNL     1      12.677  15.767   3.872  1.00  0.00    -0.744 OA
ENDBRANCH  88  92
ENDBRANCH  62  85
ENDBRANCH  36  37
ENDBRANCH  28  31
ENDBRANCH  26  27
ENDBRANCH  25  26
ENDBRANCH   1  25
TORSDOF 18
