REMARK SMILES CCNS(=O)(=O)c1ccc(CC(=O)NCCCCNC(=O)c2ccc(-c3c4nc(c(-c5cc(S(=O)(=O)[O-])ccc5F)c5ccc([nH]5)c(-c5cc(S(=O)(=O)[O-])ccc5F)c5nc(c(-c6cc(S(=O)(=O)[O-])ccc6F)c6ccc3[nH]6)C=C5)C=C4)cc2)cc1
REMARK SMILES IDX 16 1 15 2 14 3 12 4 13 5 11 7 10 8 7 9 8 10 86 11 9 12 85 13
REMARK SMILES IDX 4 14 5 15 6 16 3 17 2 19 1 20 17 21 18 22 19 23 20 24 21 26
REMARK SMILES IDX 22 27 23 28 84 29 24 30 83 31 25 32 26 33 27 34 77 35 28 36
REMARK SMILES IDX 82 37 76 38 78 39 29 40 81 41 75 42 74 43 30 45 62 46 42 47
REMARK SMILES IDX 61 48 43 49 46 50 60 51 79 52 44 53 45 54 59 56 80 57 47 58
REMARK SMILES IDX 31 59 32 60 40 61 33 62 39 63 41 64 38 65 34 66 35 67 36 68
REMARK SMILES IDX 37 69 63 70 64 71 72 72 65 73 71 74 73 75 70 76 66 77 67 78
REMARK SMILES IDX 68 79 69 80 48 81 49 82 57 83 50 84 56 85 58 86 55 87 51 88
REMARK SMILES IDX 52 89 53 90 54 91
REMARK H PARENT 14 6 3 18 19 25 78 44 46 55
REMARK Flexibility Score: inf
ROOT
ATOM      1  C   UNL     1      -3.769  -1.571  -0.432  1.00  0.00     0.023 C 
ENDROOT
BRANCH   1   2
ATOM      2  C   UNL     1      -5.101  -1.958  -1.075  1.00  0.00     0.116 C 
BRANCH   2   3
ATOM      3  N   UNL     1      -5.900  -0.789  -1.389  1.00  0.00    -0.356 N 
ATOM      4  C   UNL     1      -6.090  -0.183  -2.598  1.00  0.00     0.224 C 
ATOM      5  O   UNL     1      -6.736   0.866  -2.640  1.00  0.00    -0.275 OA
ATOM      6  H   UNL     1      -6.369  -0.377  -0.628  1.00  0.00     0.163 HD
BRANCH   4   7
ATOM      7  C   UNL     1      -5.544  -0.824  -3.865  1.00  0.00     0.135 C 
BRANCH   7   8
ATOM      8  C   UNL     1      -4.038  -0.769  -3.982  1.00  0.00    -0.039 A 
ATOM      9  C   UNL     1      -1.248  -0.683  -4.048  1.00  0.00     0.082 A 
ATOM     10  C   UNL     1      -1.977   0.508  -3.989  1.00  0.00     0.022 A 
ATOM     11  C   UNL     1      -1.897  -1.914  -4.132  1.00  0.00     0.022 A 
ATOM     12  C   UNL     1      -3.370   0.463  -3.948  1.00  0.00     0.005 A 
ATOM     13  C   UNL     1      -3.291  -1.952  -4.111  1.00  0.00     0.005 A 
BRANCH   9  14
ATOM     14  S   UNL     1       0.523  -0.614  -4.035  1.00  0.00     0.240 S 
ATOM     15  O   UNL     1       0.943   0.705  -4.448  1.00  0.00    -0.207 OA
ATOM     16  O   UNL     1       1.024  -1.804  -4.693  1.00  0.00    -0.207 OA
BRANCH  14  17
ATOM     17  N   UNL     1       0.878  -0.795  -2.401  1.00  0.00    -0.211 NA
ATOM     18  H   UNL     1       0.348  -1.600  -2.066  1.00  0.00     0.141 HD
BRANCH  17  19
ATOM     19  C   UNL     1       0.591   0.319  -1.495  1.00  0.00     0.095 C 
ATOM     20  C   UNL     1       1.100  -0.012  -0.104  1.00  0.00     0.022 C 
ENDBRANCH  17  19
ENDBRANCH  14  17
ENDBRANCH   9  14
ENDBRANCH   7   8
ENDBRANCH   4   7
ENDBRANCH   2   3
ENDBRANCH   1   2
BRANCH   1  21
ATOM     21  C   UNL     1      -3.894  -1.012   0.989  1.00  0.00     0.023 C 
BRANCH  21  22
ATOM     22  C   UNL     1      -4.597  -1.926   1.987  1.00  0.00     0.116 C 
BRANCH  22  23
ATOM     23  N   UNL     1      -3.950  -3.221   2.115  1.00  0.00    -0.352 N 
ATOM     24  C   UNL     1      -3.694  -3.957   3.246  1.00  0.00     0.251 C 
ATOM     25  H   UNL     1      -3.652  -3.629   1.270  1.00  0.00     0.163 HD
ATOM     26  O   UNL     1      -2.989  -4.959   3.162  1.00  0.00    -0.269 OA
BRANCH  24  27
ATOM     27  C   UNL     1      -4.233  -3.527   4.556  1.00  0.00     0.039 A 
ATOM     28  C   UNL     1      -3.408  -3.619   5.680  1.00  0.00     0.014 A 
ATOM     29  C   UNL     1      -5.538  -3.045   4.688  1.00  0.00     0.014 A 
ATOM     30  C   UNL     1      -3.875  -3.178   6.920  1.00  0.00     0.010 A 
ATOM     31  C   UNL     1      -5.972  -2.528   5.908  1.00  0.00     0.010 A 
ATOM     32  C   UNL     1      -5.148  -2.595   7.040  1.00  0.00    -0.014 A 
BRANCH  32  33
ATOM     33  C   UNL     1      -5.614  -2.059   8.348  1.00  0.00     0.031 A 
ATOM     34  C   UNL     1      -6.812  -2.656   9.037  1.00  0.00     0.074 A 
ATOM     35  C   UNL     1      -4.963  -1.018   8.905  1.00  0.00     0.049 A 
ATOM     36  N   UNL     1      -7.352  -2.332  10.185  1.00  0.00    -0.248 NA
ATOM     37  C   UNL     1      -7.509  -3.743   8.334  1.00  0.00     0.031 C 
ATOM     38  C   UNL     1      -3.819  -0.323   8.310  1.00  0.00     0.029 A 
ATOM     39  N   UNL     1      -5.160  -0.366  10.096  1.00  0.00    -0.354 N 
ATOM     40  C   UNL     1      -8.449  -3.172  10.341  1.00  0.00     0.074 A 
ATOM     41  C   UNL     1      -8.539  -3.968   9.136  1.00  0.00     0.031 C 
ATOM     42  C   UNL     1      -3.387   0.622   9.159  1.00  0.00     0.029 A 
ATOM     43  C   UNL     1      -4.251   0.640  10.335  1.00  0.00     0.049 A 
ATOM     44  H   UNL     1      -5.884  -0.596  10.722  1.00  0.00     0.167 HD
ATOM     45  C   UNL     1      -9.287  -3.289  11.402  1.00  0.00     0.034 A 
ATOM     46  C   UNL     1      -4.127   1.483  11.379  1.00  0.00     0.034 A 
ATOM     47  C   UNL     1      -9.184  -2.485  12.597  1.00  0.00     0.049 A 
ATOM     48  C   UNL     1      -5.090   1.354  12.532  1.00  0.00     0.074 A 
ATOM     49  C   UNL     1      -9.951  -2.549  13.748  1.00  0.00     0.029 A 
ATOM     50  N   UNL     1      -8.264  -1.462  12.794  1.00  0.00    -0.354 N 
ATOM     51  N   UNL     1      -6.087   0.513  12.689  1.00  0.00    -0.248 NA
ATOM     52  C   UNL     1      -4.899   2.278  13.656  1.00  0.00     0.031 C 
ATOM     53  C   UNL     1      -9.552  -1.515  14.601  1.00  0.00     0.029 A 
ATOM     54  C   UNL     1      -8.470  -0.865  14.030  1.00  0.00     0.049 A 
ATOM     55  H   UNL     1      -7.568  -1.198  12.150  1.00  0.00     0.167 HD
ATOM     56  C   UNL     1      -6.619   0.787  13.947  1.00  0.00     0.074 A 
ATOM     57  C   UNL     1      -5.815   1.851  14.511  1.00  0.00     0.031 C 
ATOM     58  C   UNL     1      -7.675   0.210  14.579  1.00  0.00     0.034 A 
BRANCH  45  59
ATOM     59  C   UNL     1     -10.401  -4.306  11.302  1.00  0.00     0.023 A 
ATOM     60  C   UNL     1     -10.139  -5.680  11.150  1.00  0.00     0.031 A 
ATOM     61  C   UNL     1     -11.746  -3.898  11.338  1.00  0.00     0.131 A 
ATOM     62  C   UNL     1     -11.197  -6.582  10.963  1.00  0.00     0.055 A 
ATOM     63  C   UNL     1     -12.798  -4.812  11.242  1.00  0.00     0.041 A 
ATOM     64  F   UNL     1     -12.064  -2.599  11.457  1.00  0.00    -0.206 F 
ATOM     65  C   UNL     1     -12.527  -6.161  11.037  1.00  0.00     0.022 A 
BRANCH  62  66
ATOM     66  S   UNL     1     -10.809  -8.282  10.466  1.00  0.00     0.124 S 
ATOM     67  O   UNL     1     -10.056  -8.064   9.232  1.00  0.00    -0.237 OA
ATOM     68  O   UNL     1     -10.042  -8.777  11.603  1.00  0.00    -0.237 OA
ATOM     69  O   UNL     1     -12.123  -8.895  10.284  1.00  0.00    -0.744 OA
ENDBRANCH  62  66
ENDBRANCH  45  59
BRANCH  46  70
ATOM     70  C   UNL     1      -3.058   2.525  11.391  1.00  0.00     0.023 A 
ATOM     71  C   UNL     1      -2.055   2.526  12.373  1.00  0.00     0.031 A 
ATOM     72  C   UNL     1      -3.055   3.568  10.447  1.00  0.00     0.131 A 
ATOM     73  C   UNL     1      -1.125   3.577  12.424  1.00  0.00     0.055 A 
ATOM     74  C   UNL     1      -2.090   4.576  10.463  1.00  0.00     0.041 A 
ATOM     75  F   UNL     1      -3.989   3.616   9.484  1.00  0.00    -0.206 F 
ATOM     76  C   UNL     1      -1.126   4.593  11.466  1.00  0.00     0.022 A 
BRANCH  73  77
ATOM     77  S   UNL     1       0.025   3.653  13.825  1.00  0.00     0.124 S 
ATOM     78  O   UNL     1      -0.891   3.686  14.959  1.00  0.00    -0.237 OA
ATOM     79  O   UNL     1       0.791   2.423  13.654  1.00  0.00    -0.237 OA
ATOM     80  O   UNL     1       0.769   4.887  13.586  1.00  0.00    -0.744 OA
ENDBRANCH  73  77
ENDBRANCH  46  70
BRANCH  58  81
ATOM     81  C   UNL     1      -7.984   0.696  15.976  1.00  0.00     0.023 A 
ATOM     82  C   UNL     1      -8.370   2.024  16.232  1.00  0.00     0.031 A 
ATOM     83  C   UNL     1      -7.851  -0.172  17.075  1.00  0.00     0.131 A 
ATOM     84  C   UNL     1      -8.525   2.466  17.554  1.00  0.00     0.055 A 
ATOM     85  C   UNL     1      -8.086   0.253  18.383  1.00  0.00     0.041 A 
ATOM     86  F   UNL     1      -7.481  -1.450  16.896  1.00  0.00    -0.206 F 
ATOM     87  C   UNL     1      -8.406   1.584  18.631  1.00  0.00     0.022 A 
BRANCH  84  88
ATOM     88  S   UNL     1      -8.744   4.242  17.855  1.00  0.00     0.124 S 
ATOM     89  O   UNL     1      -7.572   4.807  17.196  1.00  0.00    -0.237 OA
ATOM     90  O   UNL     1     -10.027   4.511  17.214  1.00  0.00    -0.237 OA
ATOM     91  O   UNL     1      -8.746   4.345  19.314  1.00  0.00    -0.744 OA
ENDBRANCH  84  88
ENDBRANCH  58  81
ENDBRANCH  32  33
ENDBRANCH  24  27
ENDBRANCH  22  23
ENDBRANCH  21  22
ENDBRANCH   1  21
TORSDOF 18
