REMARK SMILES C[C@H]([NH2+]CCc1ccco1)[C@@H](C)C(=O)NCCCCNC(=O)c1ccc(-c2c3nc(c(-c4cc(S(=O)(=O)[O-])ccc4F)c4ccc([nH]4)c(-c4cc(S(=O)(=O)[O-])ccc4F)c4nc(c(-c5cc(S(=O)(=O)[O-])ccc5F)c5ccc2[nH]5)C=C4)C=C3)cc1
REMARK SMILES IDX 16 1 15 2 13 3 14 4 11 6 12 7 2 8 1 9 3 10 4 13 5 14 6 15
REMARK SMILES IDX 7 16 10 17 8 18 9 19 17 20 18 21 19 22 20 23 21 24 22 26
REMARK SMILES IDX 23 27 24 28 85 29 25 30 84 31 26 32 27 33 28 34 78 35 29 36
REMARK SMILES IDX 83 37 77 38 79 39 30 40 82 41 76 42 75 43 31 45 63 46 43 47
REMARK SMILES IDX 62 48 44 49 47 50 61 51 80 52 45 53 46 54 60 56 81 57 48 58
REMARK SMILES IDX 32 59 33 60 41 61 34 62 40 63 42 64 39 65 35 66 36 67 37 68
REMARK SMILES IDX 38 69 64 70 65 71 73 72 66 73 72 74 74 75 71 76 67 77 68 78
REMARK SMILES IDX 69 79 70 80 49 81 50 82 58 83 51 84 57 85 59 86 56 87 52 88
REMARK SMILES IDX 53 89 54 90 55 91
REMARK H PARENT 15 5 3 11 3 12 20 25 79 44 47 55
REMARK Flexibility Score: inf
ROOT
ATOM      1  C   UNL     1      -0.433   2.762   2.852  1.00  0.00     0.116 C 
ENDROOT
BRANCH   1   2
ATOM      2  N   UNL     1      -1.308   3.170   1.766  1.00  0.00    -0.356 N 
ATOM      3  C   UNL     1      -1.621   2.567   0.585  1.00  0.00     0.228 C 
ATOM      4  O   UNL     1      -2.418   3.147  -0.157  1.00  0.00    -0.275 OA
ATOM      5  H   UNL     1      -1.754   4.035   1.910  1.00  0.00     0.163 HD
BRANCH   3   6
ATOM      6  C   UNL     1      -1.035   1.214   0.170  1.00  0.00     0.133 C 
ATOM      7  C   UNL     1      -1.583   0.111   1.080  1.00  0.00     0.024 C 
BRANCH   6   8
ATOM      8  C   UNL     1       0.501   1.295   0.008  1.00  0.00     0.191 C 
ATOM      9  C   UNL     1       0.890   2.253  -1.130  1.00  0.00     0.076 C 
BRANCH   8  10
ATOM     10  N   UNL     1       1.240   0.041  -0.129  1.00  0.00    -0.343 N 
ATOM     11  H   UNL     1       1.109  -0.483   0.737  1.00  0.00     0.346 HD
ATOM     12  H   UNL     1       2.195   0.332  -0.335  1.00  0.00     0.346 HD
BRANCH  10  13
ATOM     13  C   UNL     1       0.891  -0.851  -1.229  1.00  0.00     0.268 C 
BRANCH  13  14
ATOM     14  C   UNL     1       1.959  -1.948  -1.385  1.00  0.00     0.136 C 
BRANCH  14  15
ATOM     15  C   UNL     1       2.036  -2.886  -0.228  1.00  0.00     0.109 A 
ATOM     16  C   UNL     1       1.778  -4.233  -0.078  1.00  0.00     0.046 A 
ATOM     17  O   UNL     1       2.489  -2.371   0.952  1.00  0.00    -0.469 OA
ATOM     18  C   UNL     1       2.087  -4.553   1.267  1.00  0.00     0.042 A 
ATOM     19  C   UNL     1       2.513  -3.385   1.852  1.00  0.00     0.195 A 
ENDBRANCH  14  15
ENDBRANCH  13  14
ENDBRANCH  10  13
ENDBRANCH   8  10
ENDBRANCH   6   8
ENDBRANCH   3   6
ENDBRANCH   1   2
BRANCH   1  20
ATOM     20  C   UNL     1       0.846   3.596   2.920  1.00  0.00     0.023 C 
BRANCH  20  21
ATOM     21  C   UNL     1       0.655   5.041   3.375  1.00  0.00     0.023 C 
BRANCH  21  22
ATOM     22  C   UNL     1      -0.062   5.218   4.708  1.00  0.00     0.116 C 
BRANCH  22  23
ATOM     23  N   UNL     1       0.560   4.484   5.801  1.00  0.00    -0.352 N 
ATOM     24  C   UNL     1       0.780   4.887   7.097  1.00  0.00     0.251 C 
ATOM     25  H   UNL     1       0.865   3.574   5.581  1.00  0.00     0.163 HD
ATOM     26  O   UNL     1       1.421   4.167   7.858  1.00  0.00    -0.269 OA
BRANCH  24  27
ATOM     27  C   UNL     1       0.283   6.204   7.548  1.00  0.00     0.039 A 
ATOM     28  C   UNL     1       1.153   7.050   8.240  1.00  0.00     0.014 A 
ATOM     29  C   UNL     1      -1.018   6.620   7.253  1.00  0.00     0.014 A 
ATOM     30  C   UNL     1       0.742   8.344   8.566  1.00  0.00     0.010 A 
ATOM     31  C   UNL     1      -1.398   7.934   7.511  1.00  0.00     0.010 A 
ATOM     32  C   UNL     1      -0.520   8.812   8.165  1.00  0.00    -0.014 A 
BRANCH  32  33
ATOM     33  C   UNL     1      -0.927  10.221   8.402  1.00  0.00     0.031 A 
ATOM     34  C   UNL     1      -2.095  10.533   9.296  1.00  0.00     0.074 A 
ATOM     35  C   UNL     1      -0.285  11.215   7.756  1.00  0.00     0.049 A 
ATOM     36  N   UNL     1      -2.636  11.690   9.580  1.00  0.00    -0.248 NA
ATOM     37  C   UNL     1      -2.764   9.386   9.927  1.00  0.00     0.031 C 
ATOM     38  C   UNL     1       0.826  11.032   6.818  1.00  0.00     0.029 A 
ATOM     39  N   UNL     1      -0.477  12.573   7.779  1.00  0.00    -0.354 N 
ATOM     40  C   UNL     1      -3.715  11.412  10.411  1.00  0.00     0.074 A 
ATOM     41  C   UNL     1      -3.788   9.970  10.530  1.00  0.00     0.031 C 
ATOM     42  C   UNL     1       1.231  12.233   6.376  1.00  0.00     0.029 A 
ATOM     43  C   UNL     1       0.386  13.268   6.963  1.00  0.00     0.049 A 
ATOM     44  H   UNL     1      -1.168  13.010   8.328  1.00  0.00     0.167 HD
ATOM     45  C   UNL     1      -4.552  12.278  11.035  1.00  0.00     0.034 A 
ATOM     46  C   UNL     1       0.481  14.588   6.710  1.00  0.00     0.034 A 
ATOM     47  C   UNL     1      -4.457  13.713  10.912  1.00  0.00     0.049 A 
ATOM     48  C   UNL     1      -0.462  15.532   7.409  1.00  0.00     0.074 A 
ATOM     49  C   UNL     1      -5.206  14.686  11.551  1.00  0.00     0.029 A 
ATOM     50  N   UNL     1      -3.564  14.384  10.083  1.00  0.00    -0.354 N 
ATOM     51  N   UNL     1      -1.435  15.258   8.246  1.00  0.00    -0.248 NA
ATOM     52  C   UNL     1      -0.283  16.964   7.139  1.00  0.00     0.031 C 
ATOM     53  C   UNL     1      -4.814  15.937  11.060  1.00  0.00     0.029 A 
ATOM     54  C   UNL     1      -3.767  15.753  10.170  1.00  0.00     0.049 A 
ATOM     55  H   UNL     1      -2.886  13.949   9.517  1.00  0.00     0.167 HD
ATOM     56  C   UNL     1      -1.970  16.487   8.621  1.00  0.00     0.074 A 
ATOM     57  C   UNL     1      -1.196  17.502   7.934  1.00  0.00     0.031 C 
ATOM     58  C   UNL     1      -3.003  16.754   9.461  1.00  0.00     0.034 A 
BRANCH  45  59
ATOM     59  C   UNL     1      -5.655  11.687  11.883  1.00  0.00     0.023 A 
ATOM     60  C   UNL     1      -5.376  10.892  13.010  1.00  0.00     0.031 A 
ATOM     61  C   UNL     1      -7.003  11.888  11.541  1.00  0.00     0.131 A 
ATOM     62  C   UNL     1      -6.421  10.259  13.699  1.00  0.00     0.055 A 
ATOM     63  C   UNL     1      -8.044  11.325  12.284  1.00  0.00     0.041 A 
ATOM     64  F   UNL     1      -7.335  12.620  10.465  1.00  0.00    -0.206 F 
ATOM     65  C   UNL     1      -7.756  10.491  13.360  1.00  0.00     0.022 A 
BRANCH  62  66
ATOM     66  S   UNL     1      -6.004   9.007  14.943  1.00  0.00     0.124 S 
ATOM     67  O   UNL     1      -5.222   8.057  14.154  1.00  0.00    -0.237 OA
ATOM     68  O   UNL     1      -5.262   9.780  15.932  1.00  0.00    -0.237 OA
ATOM     69  O   UNL     1      -7.307   8.514  15.384  1.00  0.00    -0.744 OA
ENDBRANCH  62  66
ENDBRANCH  45  59
BRANCH  46  70
ATOM     70  C   UNL     1       1.500  15.098   5.749  1.00  0.00     0.023 A 
ATOM     71  C   UNL     1       2.562  15.908   6.180  1.00  0.00     0.031 A 
ATOM     72  C   UNL     1       1.411  14.801   4.377  1.00  0.00     0.131 A 
ATOM     73  C   UNL     1       3.469  16.429   5.245  1.00  0.00     0.055 A 
ATOM     74  C   UNL     1       2.344  15.282   3.457  1.00  0.00     0.041 A 
ATOM     75  F   UNL     1       0.420  14.023   3.913  1.00  0.00    -0.206 F 
ATOM     76  C   UNL     1       3.375  16.111   3.888  1.00  0.00     0.022 A 
BRANCH  73  77
ATOM     77  S   UNL     1       4.740  17.589   5.819  1.00  0.00     0.124 S 
ATOM     78  O   UNL     1       3.930  18.657   6.394  1.00  0.00    -0.237 OA
ATOM     79  O   UNL     1       5.489  16.771   6.767  1.00  0.00    -0.237 OA
ATOM     80  O   UNL     1       5.459  17.938   4.596  1.00  0.00    -0.744 OA
ENDBRANCH  73  77
ENDBRANCH  46  70
BRANCH  58  81
ATOM     81  C   UNL     1      -3.328  18.209   9.701  1.00  0.00     0.023 A 
ATOM     82  C   UNL     1      -3.829  19.033   8.678  1.00  0.00     0.031 A 
ATOM     83  C   UNL     1      -3.110  18.783  10.966  1.00  0.00     0.131 A 
ATOM     84  C   UNL     1      -4.038  20.399   8.921  1.00  0.00     0.055 A 
ATOM     85  C   UNL     1      -3.380  20.129  11.219  1.00  0.00     0.041 A 
ATOM     86  F   UNL     1      -2.630  18.044  11.979  1.00  0.00    -0.206 F 
ATOM     87  C   UNL     1      -3.833  20.948  10.189  1.00  0.00     0.022 A 
BRANCH  84  88
ATOM     88  S   UNL     1      -4.488  21.472   7.529  1.00  0.00     0.124 S 
ATOM     89  O   UNL     1      -3.373  21.262   6.612  1.00  0.00    -0.237 OA
ATOM     90  O   UNL     1      -5.771  20.919   7.110  1.00  0.00    -0.237 OA
ATOM     91  O   UNL     1      -4.554  22.803   8.130  1.00  0.00    -0.744 OA
ENDBRANCH  84  88
ENDBRANCH  58  81
ENDBRANCH  32  33
ENDBRANCH  24  27
ENDBRANCH  22  23
ENDBRANCH  21  22
ENDBRANCH  20  21
ENDBRANCH   1  20
TORSDOF 19
