REMARK SMILES O=C(Cc1ccccc1C(=O)NCCCCNC(=O)c1ccc(-c2c3nc(c(-c4cc(S(=O)(=O)[O-])ccc4F)c4ccc([nH]4)c(-c4cc(S(=O)(=O)[O-])ccc4F)c4nc(c(-c5cc(S(=O)(=O)[O-])ccc5F)c5ccc2[nH]5)C=C4)C=C3)cc1)Nc1ccc(S(=O)(=O)N2CCCC2)cc1
REMARK SMILES IDX 13 1 12 2 10 3 11 4 9 6 4 7 5 8 6 9 8 10 7 11 3 12 2 13 1 14
REMARK SMILES IDX 83 15 84 17 85 18 97 19 86 20 96 21 87 22 88 23 89 24 90 25
REMARK SMILES IDX 91 26 92 27 95 28 93 29 94 30 14 31 15 32 16 33 17 34 18 35
REMARK SMILES IDX 19 37 20 38 21 39 82 40 22 41 81 42 23 43 24 44 25 45 75 46
REMARK SMILES IDX 26 47 80 48 74 49 76 50 27 51 79 52 73 53 72 54 28 56 60 57
REMARK SMILES IDX 40 58 59 59 41 60 44 61 58 62 77 63 42 64 43 65 57 67 78 68
REMARK SMILES IDX 45 69 29 70 30 71 38 72 31 73 37 74 39 75 36 76 32 77 33 78
REMARK SMILES IDX 34 79 35 80 61 81 62 82 70 83 63 84 69 85 71 86 68 87 64 88
REMARK SMILES IDX 65 89 66 90 67 91 46 92 47 93 55 94 48 95 54 96 56 97 53 98
REMARK SMILES IDX 49 99 50 100 51 101 52 102
REMARK H PARENT 12 5 83 16 17 36 76 55 44 66
REMARK Flexibility Score: inf
ROOT
ATOM      1  C   UNL     1       3.840   3.373   0.451  1.00  0.00     0.116 C 
ENDROOT
BRANCH   1   2
ATOM      2  N   UNL     1       4.175   3.441   1.861  1.00  0.00    -0.352 N 
ATOM      3  C   UNL     1       4.537   2.613   2.886  1.00  0.00     0.251 C 
ATOM      4  O   UNL     1       4.789   3.229   3.933  1.00  0.00    -0.269 OA
ATOM      5  H   UNL     1       4.127   4.372   2.178  1.00  0.00     0.163 HD
BRANCH   3   6
ATOM      6  C   UNL     1       4.680   1.107   2.943  1.00  0.00     0.043 A 
ATOM      7  C   UNL     1       3.982   0.091   2.245  1.00  0.00    -0.026 A 
ATOM      8  C   UNL     1       4.106  -1.254   2.673  1.00  0.00     0.005 A 
ATOM      9  C   UNL     1       4.933  -1.619   3.730  1.00  0.00     0.000 A 
ATOM     10  C   UNL     1       5.534   0.689   3.994  1.00  0.00     0.014 A 
ATOM     11  C   UNL     1       5.665  -0.646   4.382  1.00  0.00     0.001 A 
BRANCH   7  12
ATOM     12  C   UNL     1       3.098   0.394   1.079  1.00  0.00     0.136 C 
BRANCH  12  13
ATOM     13  C   UNL     1       2.245  -0.684   0.470  1.00  0.00     0.228 C 
ATOM     14  O   UNL     1       1.028  -0.689   0.645  1.00  0.00    -0.274 OA
ATOM     15  N   UNL     1       2.935  -1.580  -0.341  1.00  0.00    -0.326 N 
ATOM     16  H   UNL     1       3.912  -1.661  -0.244  1.00  0.00     0.169 HD
BRANCH  15  17
ATOM     17  C   UNL     1       2.274  -2.372  -1.293  1.00  0.00     0.041 A 
ATOM     18  C   UNL     1       2.717  -3.662  -1.588  1.00  0.00     0.027 A 
ATOM     19  C   UNL     1       1.149  -1.865  -1.939  1.00  0.00     0.027 A 
ATOM     20  C   UNL     1       1.939  -4.487  -2.416  1.00  0.00     0.024 A 
ATOM     21  C   UNL     1       0.397  -2.670  -2.777  1.00  0.00     0.024 A 
ATOM     22  C   UNL     1       0.753  -3.996  -2.980  1.00  0.00     0.082 A 
BRANCH  22  23
ATOM     23  S   UNL     1      -0.317  -5.121  -3.856  1.00  0.00     0.243 S 
ATOM     24  O   UNL     1       0.493  -5.752  -4.872  1.00  0.00    -0.207 OA
ATOM     25  O   UNL     1      -0.986  -5.905  -2.834  1.00  0.00    -0.207 OA
BRANCH  23  26
ATOM     26  N   UNL     1      -1.491  -4.200  -4.634  1.00  0.00    -0.198 NA
ATOM     27  C   UNL     1      -1.172  -3.446  -5.853  1.00  0.00     0.102 C 
ATOM     28  C   UNL     1      -2.567  -3.536  -3.878  1.00  0.00     0.102 C 
ATOM     29  C   UNL     1      -1.666  -2.035  -5.586  1.00  0.00     0.018 C 
ATOM     30  C   UNL     1      -2.787  -2.189  -4.567  1.00  0.00     0.018 C 
ENDBRANCH  23  26
ENDBRANCH  22  23
ENDBRANCH  15  17
ENDBRANCH  12  13
ENDBRANCH   7  12
ENDBRANCH   3   6
ENDBRANCH   1   2
BRANCH   1  31
ATOM     31  C   UNL     1       2.318   3.343   0.243  1.00  0.00     0.023 C 
BRANCH  31  32
ATOM     32  C   UNL     1       1.696   4.656  -0.227  1.00  0.00     0.023 C 
BRANCH  32  33
ATOM     33  C   UNL     1       2.036   5.029  -1.661  1.00  0.00     0.116 C 
BRANCH  33  34
ATOM     34  N   UNL     1       1.490   4.109  -2.651  1.00  0.00    -0.352 N 
ATOM     35  C   UNL     1       1.097   4.402  -3.939  1.00  0.00     0.251 C 
ATOM     36  H   UNL     1       1.390   3.172  -2.366  1.00  0.00     0.163 HD
ATOM     37  O   UNL     1       0.576   3.542  -4.642  1.00  0.00    -0.269 OA
BRANCH  35  38
ATOM     38  C   UNL     1       1.263   5.788  -4.428  1.00  0.00     0.039 A 
ATOM     39  C   UNL     1       0.153   6.469  -4.932  1.00  0.00     0.014 A 
ATOM     40  C   UNL     1       2.488   6.443  -4.277  1.00  0.00     0.014 A 
ATOM     41  C   UNL     1       0.250   7.836  -5.203  1.00  0.00     0.010 A 
ATOM     42  C   UNL     1       2.558   7.818  -4.468  1.00  0.00     0.010 A 
ATOM     43  C   UNL     1       1.439   8.531  -4.927  1.00  0.00    -0.014 A 
BRANCH  43  44
ATOM     44  C   UNL     1       1.550  10.001  -5.120  1.00  0.00     0.031 A 
ATOM     45  C   UNL     1       2.543  10.546  -6.110  1.00  0.00     0.074 A 
ATOM     46  C   UNL     1       0.830  10.841  -4.349  1.00  0.00     0.049 A 
ATOM     47  N   UNL     1       2.897  11.784  -6.335  1.00  0.00    -0.248 NA
ATOM     48  C   UNL     1       3.261   9.556  -6.927  1.00  0.00     0.031 C 
ATOM     49  C   UNL     1      -0.134  10.436  -3.322  1.00  0.00     0.029 A 
ATOM     50  N   UNL     1       0.807  12.213  -4.297  1.00  0.00    -0.354 N 
ATOM     51  C   UNL     1       3.897  11.721  -7.301  1.00  0.00     0.074 A 
ATOM     52  C   UNL     1       4.134  10.318  -7.567  1.00  0.00     0.031 C 
ATOM     53  C   UNL     1      -0.665  11.533  -2.759  1.00  0.00     0.029 A 
ATOM     54  C   UNL     1      -0.051  12.719  -3.348  1.00  0.00     0.049 A 
ATOM     55  H   UNL     1       1.355  12.782  -4.884  1.00  0.00     0.167 HD
ATOM     56  C   UNL     1       4.540  12.738  -7.926  1.00  0.00     0.034 A 
ATOM     57  C   UNL     1      -0.304  13.993  -2.985  1.00  0.00     0.034 A 
ATOM     58  C   UNL     1       4.272  14.131  -7.668  1.00  0.00     0.049 A 
ATOM     59  C   UNL     1       0.424  15.109  -3.693  1.00  0.00     0.074 A 
ATOM     60  C   UNL     1       4.824  15.243  -8.279  1.00  0.00     0.029 A 
ATOM     61  N   UNL     1       3.374  14.605  -6.720  1.00  0.00    -0.354 N 
ATOM     62  N   UNL     1       1.338  15.034  -4.633  1.00  0.00    -0.248 NA
ATOM     63  C   UNL     1       0.077  16.481  -3.299  1.00  0.00     0.031 C 
ATOM     64  C   UNL     1       4.302  16.387  -7.664  1.00  0.00     0.029 A 
ATOM     65  C   UNL     1       3.372  15.991  -6.716  1.00  0.00     0.049 A 
ATOM     66  H   UNL     1       2.819  14.038  -6.136  1.00  0.00     0.167 HD
ATOM     67  C   UNL     1       1.649  16.350  -4.965  1.00  0.00     0.074 A 
ATOM     68  C   UNL     1       0.818  17.196  -4.133  1.00  0.00     0.031 C 
ATOM     69  C   UNL     1       2.536  16.818  -5.879  1.00  0.00     0.034 A 
BRANCH  56  70
ATOM     70  C   UNL     1       5.604  12.368  -8.931  1.00  0.00     0.023 A 
ATOM     71  C   UNL     1       5.297  11.641 -10.094  1.00  0.00     0.031 A 
ATOM     72  C   UNL     1       6.949  12.709  -8.704  1.00  0.00     0.131 A 
ATOM     73  C   UNL     1       6.328  11.202 -10.938  1.00  0.00     0.055 A 
ATOM     74  C   UNL     1       7.961  12.345  -9.596  1.00  0.00     0.041 A 
ATOM     75  F   UNL     1       7.307  13.385  -7.601  1.00  0.00    -0.206 F 
ATOM     76  C   UNL     1       7.655  11.572 -10.712  1.00  0.00     0.022 A 
BRANCH  73  77
ATOM     77  S   UNL     1       5.924  10.013 -12.247  1.00  0.00     0.124 S 
ATOM     78  O   UNL     1       5.393   8.894 -11.472  1.00  0.00    -0.237 OA
ATOM     79  O   UNL     1       4.956  10.747 -13.054  1.00  0.00    -0.237 OA
ATOM     80  O   UNL     1       7.211   9.760 -12.890  1.00  0.00    -0.744 OA
ENDBRANCH  73  77
ENDBRANCH  56  70
BRANCH  57  81
ATOM     81  C   UNL     1      -1.281  14.294  -1.900  1.00  0.00     0.023 A 
ATOM     82  C   UNL     1      -2.471  14.988  -2.172  1.00  0.00     0.031 A 
ATOM     83  C   UNL     1      -1.017  13.937  -0.566  1.00  0.00     0.131 A 
ATOM     84  C   UNL     1      -3.328  15.349  -1.121  1.00  0.00     0.055 A 
ATOM     85  C   UNL     1      -1.898  14.253   0.471  1.00  0.00     0.041 A 
ATOM     86  F   UNL     1       0.103  13.267  -0.251  1.00  0.00    -0.206 F 
ATOM     87  C   UNL     1      -3.056  14.976   0.197  1.00  0.00     0.022 A 
BRANCH  84  88
ATOM     88  S   UNL     1      -4.766  16.390  -1.492  1.00  0.00     0.124 S 
ATOM     89  O   UNL     1      -4.138  17.559  -2.097  1.00  0.00    -0.237 OA
ATOM     90  O   UNL     1      -5.533  15.535  -2.393  1.00  0.00    -0.237 OA
ATOM     91  O   UNL     1      -5.372  16.613  -0.182  1.00  0.00    -0.744 OA
ENDBRANCH  84  88
ENDBRANCH  57  81
BRANCH  69  92
ATOM     92  C   UNL     1       2.606  18.313  -6.064  1.00  0.00     0.023 A 
ATOM     93  C   UNL     1       3.114  19.161  -5.065  1.00  0.00     0.031 A 
ATOM     94  C   UNL     1       2.151  18.895  -7.261  1.00  0.00     0.131 A 
ATOM     95  C   UNL     1       3.110  20.550  -5.262  1.00  0.00     0.055 A 
ATOM     96  C   UNL     1       2.200  20.273  -7.472  1.00  0.00     0.041 A 
ATOM     97  F   UNL     1       1.655  18.130  -8.246  1.00  0.00    -0.206 F 
ATOM     98  C   UNL     1       2.670  21.110  -6.465  1.00  0.00     0.022 A 
BRANCH  95  99
ATOM     99  S   UNL     1       3.613  21.626  -3.891  1.00  0.00     0.124 S 
ATOM    100  O   UNL     1       2.659  21.258  -2.850  1.00  0.00    -0.237 OA
ATOM    101  O   UNL     1       4.995  21.215  -3.663  1.00  0.00    -0.237 OA
ATOM    102  O   UNL     1       3.450  22.974  -4.434  1.00  0.00    -0.744 OA
ENDBRANCH  95  99
ENDBRANCH  69  92
ENDBRANCH  43  44
ENDBRANCH  35  38
ENDBRANCH  33  34
ENDBRANCH  32  33
ENDBRANCH  31  32
ENDBRANCH   1  31
TORSDOF 19
