REMARK SMILES C[C@H](NC(=O)c1cccc(NC(=O)c2ccccc2C(=O)NCCCCNC(=O)c2ccc(-c3c4nc(c(-c5cc(S(=O)(=O)[O-])ccc5F)c5ccc([nH]5)c(-c5cc(S(=O)(=O)[O-])ccc5F)c5nc(c(-c6cc(S(=O)(=O)[O-])ccc6F)c6ccc3[nH]6)C=C5)C=C4)cc2)c1)c1ccccc1
REMARK SMILES IDX 23 1 22 2 20 3 21 4 19 6 14 7 15 8 16 9 18 10 17 11 12 12
REMARK SMILES IDX 11 13 13 15 10 16 6 17 7 18 93 19 8 20 9 21 4 22 3 23 5 25
REMARK SMILES IDX 2 26 1 27 94 28 95 29 99 30 96 31 98 32 97 33 24 34 25 35
REMARK SMILES IDX 26 36 27 37 28 38 29 40 30 41 31 42 92 43 32 44 91 45 33 46
REMARK SMILES IDX 34 47 35 48 85 49 36 50 90 51 84 52 86 53 37 54 89 55 83 56
REMARK SMILES IDX 82 57 38 59 70 60 50 61 69 62 51 63 54 64 68 65 87 66 52 67
REMARK SMILES IDX 53 68 67 70 88 71 55 72 39 73 40 74 48 75 41 76 47 77 49 78
REMARK SMILES IDX 46 79 42 80 43 81 44 82 45 83 71 84 72 85 80 86 73 87 79 88
REMARK SMILES IDX 81 89 78 90 74 91 75 92 76 93 77 94 56 95 57 96 65 97 58 98
REMARK SMILES IDX 64 99 66 100 63 101 59 102 60 103 61 104 62 105
REMARK H PARENT 22 5 11 14 3 24 27 39 86 58 54 69
REMARK Flexibility Score: inf
ROOT
ATOM      1  C   UNL     1       3.766   5.152   2.782  1.00  0.00     0.116 C 
ENDROOT
BRANCH   1   2
ATOM      2  N   UNL     1       3.453   5.082   1.370  1.00  0.00    -0.352 N 
ATOM      3  C   UNL     1       4.266   5.119   0.268  1.00  0.00     0.252 C 
ATOM      4  O   UNL     1       3.734   5.065  -0.842  1.00  0.00    -0.269 OA
ATOM      5  H   UNL     1       2.493   4.992   1.168  1.00  0.00     0.163 HD
BRANCH   3   6
ATOM      6  C   UNL     1       5.739   5.311   0.332  1.00  0.00     0.052 A 
ATOM      7  C   UNL     1       6.644   4.641   1.168  1.00  0.00     0.052 A 
ATOM      8  C   UNL     1       8.014   4.971   1.123  1.00  0.00     0.014 A 
ATOM      9  C   UNL     1       8.502   5.886   0.191  1.00  0.00     0.001 A 
ATOM     10  C   UNL     1       6.259   6.205  -0.629  1.00  0.00     0.014 A 
ATOM     11  C   UNL     1       7.626   6.485  -0.705  1.00  0.00     0.001 A 
BRANCH   7  12
ATOM     12  C   UNL     1       6.303   3.580   2.134  1.00  0.00     0.256 C 
ATOM     13  N   UNL     1       5.565   2.466   1.814  1.00  0.00    -0.322 N 
ATOM     14  H   UNL     1       5.287   1.934   2.594  1.00  0.00     0.170 HD
ATOM     15  O   UNL     1       6.663   3.747   3.301  1.00  0.00    -0.269 OA
BRANCH  13  16
ATOM     16  C   UNL     1       5.131   1.945   0.586  1.00  0.00     0.042 A 
ATOM     17  C   UNL     1       3.497   0.608  -0.588  1.00  0.00     0.041 A 
ATOM     18  C   UNL     1       4.093   0.944  -1.808  1.00  0.00     0.014 A 
ATOM     19  C   UNL     1       4.027   1.079   0.614  1.00  0.00     0.040 A 
ATOM     20  C   UNL     1       5.221   1.754  -1.830  1.00  0.00     0.003 A 
ATOM     21  C   UNL     1       5.747   2.240  -0.634  1.00  0.00     0.026 A 
BRANCH  17  22
ATOM     22  C   UNL     1       2.339  -0.295  -0.651  1.00  0.00     0.251 C 
ATOM     23  N   UNL     1       1.085   0.101  -0.280  1.00  0.00    -0.346 N 
ATOM     24  H   UNL     1       0.386  -0.547  -0.525  1.00  0.00     0.164 HD
ATOM     25  O   UNL     1       2.504  -1.405  -1.153  1.00  0.00    -0.269 OA
BRANCH  23  26
ATOM     26  C   UNL     1       0.556   1.288   0.409  1.00  0.00     0.109 C 
ATOM     27  C   UNL     1       0.921   2.569  -0.357  1.00  0.00     0.036 C 
BRANCH  26  28
ATOM     28  C   UNL     1      -0.958   1.159   0.673  1.00  0.00    -0.026 A 
ATOM     29  C   UNL     1      -1.778   2.292   0.851  1.00  0.00     0.006 A 
ATOM     30  C   UNL     1      -1.585  -0.097   0.817  1.00  0.00     0.006 A 
ATOM     31  C   UNL     1      -3.155   2.177   1.086  1.00  0.00     0.000 A 
ATOM     32  C   UNL     1      -2.965  -0.212   1.034  1.00  0.00     0.000 A 
ATOM     33  C   UNL     1      -3.750   0.925   1.163  1.00  0.00     0.000 A 
ENDBRANCH  26  28
ENDBRANCH  23  26
ENDBRANCH  17  22
ENDBRANCH  13  16
ENDBRANCH   7  12
ENDBRANCH   3   6
ENDBRANCH   1   2
BRANCH   1  34
ATOM     34  C   UNL     1       2.598   5.601   3.655  1.00  0.00     0.023 C 
BRANCH  34  35
ATOM     35  C   UNL     1       1.343   4.722   3.604  1.00  0.00     0.023 C 
BRANCH  35  36
ATOM     36  C   UNL     1       1.552   3.213   3.712  1.00  0.00     0.116 C 
BRANCH  36  37
ATOM     37  N   UNL     1       2.189   2.786   4.946  1.00  0.00    -0.352 N 
ATOM     38  C   UNL     1       1.713   1.998   5.974  1.00  0.00     0.251 C 
ATOM     39  H   UNL     1       3.110   3.111   5.069  1.00  0.00     0.163 HD
ATOM     40  O   UNL     1       2.403   1.825   6.968  1.00  0.00    -0.269 OA
BRANCH  38  41
ATOM     41  C   UNL     1       0.355   1.407   5.901  1.00  0.00     0.039 A 
ATOM     42  C   UNL     1      -0.499   1.556   6.998  1.00  0.00     0.014 A 
ATOM     43  C   UNL     1      -0.087   0.732   4.763  1.00  0.00     0.014 A 
ATOM     44  C   UNL     1      -1.828   1.129   6.909  1.00  0.00     0.010 A 
ATOM     45  C   UNL     1      -1.431   0.377   4.650  1.00  0.00     0.010 A 
ATOM     46  C   UNL     1      -2.323   0.592   5.710  1.00  0.00    -0.014 A 
BRANCH  46  47
ATOM     47  C   UNL     1      -3.771   0.289   5.532  1.00  0.00     0.031 A 
ATOM     48  C   UNL     1      -4.232  -1.116   5.256  1.00  0.00     0.074 A 
ATOM     49  C   UNL     1      -4.667   1.298   5.543  1.00  0.00     0.049 A 
ATOM     50  N   UNL     1      -5.436  -1.557   4.995  1.00  0.00    -0.248 NA
ATOM     51  C   UNL     1      -3.195  -2.158   5.247  1.00  0.00     0.031 C 
ATOM     52  C   UNL     1      -4.345   2.712   5.748  1.00  0.00     0.029 A 
ATOM     53  N   UNL     1      -6.030   1.294   5.370  1.00  0.00    -0.354 N 
ATOM     54  C   UNL     1      -5.303  -2.925   4.781  1.00  0.00     0.074 A 
ATOM     55  C   UNL     1      -3.890  -3.225   4.881  1.00  0.00     0.031 C 
ATOM     56  C   UNL     1      -5.478   3.432   5.719  1.00  0.00     0.029 A 
ATOM     57  C   UNL     1      -6.603   2.543   5.445  1.00  0.00     0.049 A 
ATOM     58  H   UNL     1      -6.549   0.473   5.208  1.00  0.00     0.167 HD
ATOM     59  C   UNL     1      -6.270  -3.849   4.549  1.00  0.00     0.034 A 
ATOM     60  C   UNL     1      -7.885   2.934   5.300  1.00  0.00     0.034 A 
ATOM     61  C   UNL     1      -7.677  -3.540   4.465  1.00  0.00     0.049 A 
ATOM     62  C   UNL     1      -8.939   1.893   5.019  1.00  0.00     0.074 A 
ATOM     63  C   UNL     1      -8.742  -4.407   4.285  1.00  0.00     0.029 A 
ATOM     64  N   UNL     1      -8.219  -2.264   4.551  1.00  0.00    -0.354 N 
ATOM     65  N   UNL     1      -8.799   0.597   4.865  1.00  0.00    -0.248 NA
ATOM     66  C   UNL     1     -10.324   2.368   4.903  1.00  0.00     0.031 C 
ATOM     67  C   UNL     1      -9.916  -3.651   4.196  1.00  0.00     0.029 A 
ATOM     68  C   UNL     1      -9.597  -2.318   4.395  1.00  0.00     0.049 A 
ATOM     69  H   UNL     1      -7.701  -1.440   4.700  1.00  0.00     0.167 HD
ATOM     70  C   UNL     1     -10.084   0.099   4.664  1.00  0.00     0.074 A 
ATOM     71  C   UNL     1     -10.984   1.232   4.730  1.00  0.00     0.031 C 
ATOM     72  C   UNL     1     -10.484  -1.180   4.449  1.00  0.00     0.034 A 
BRANCH  59  73
ATOM     73  C   UNL     1      -5.826  -5.279   4.347  1.00  0.00     0.023 A 
ATOM     74  C   UNL     1      -5.181  -6.001   5.367  1.00  0.00     0.031 A 
ATOM     75  C   UNL     1      -6.023  -5.920   3.112  1.00  0.00     0.131 A 
ATOM     76  C   UNL     1      -4.684  -7.287   5.109  1.00  0.00     0.055 A 
ATOM     77  C   UNL     1      -5.601  -7.232   2.888  1.00  0.00     0.041 A 
ATOM     78  F   UNL     1      -6.617  -5.276   2.095  1.00  0.00    -0.206 F 
ATOM     79  C   UNL     1      -4.912  -7.918   3.884  1.00  0.00     0.022 A 
BRANCH  76  80
ATOM     80  S   UNL     1      -3.609  -8.063   6.346  1.00  0.00     0.124 S 
ATOM     81  O   UNL     1      -2.523  -7.089   6.444  1.00  0.00    -0.237 OA
ATOM     82  O   UNL     1      -4.485  -8.162   7.508  1.00  0.00    -0.237 OA
ATOM     83  O   UNL     1      -3.241  -9.336   5.731  1.00  0.00    -0.744 OA
ENDBRANCH  76  80
ENDBRANCH  59  73
BRANCH  60  84
ATOM     84  C   UNL     1      -8.252   4.375   5.404  1.00  0.00     0.023 A 
ATOM     85  C   UNL     1      -9.079   4.838   6.440  1.00  0.00     0.031 A 
ATOM     86  C   UNL     1      -7.817   5.305   4.442  1.00  0.00     0.131 A 
ATOM     87  C   UNL     1      -9.485   6.181   6.465  1.00  0.00     0.055 A 
ATOM     88  C   UNL     1      -8.181   6.651   4.500  1.00  0.00     0.041 A 
ATOM     89  F   UNL     1      -7.020   4.916   3.434  1.00  0.00    -0.206 F 
ATOM     90  C   UNL     1      -9.031   7.093   5.509  1.00  0.00     0.022 A 
BRANCH  87  91
ATOM     91  S   UNL     1     -10.684   6.703   7.722  1.00  0.00     0.124 S 
ATOM     92  O   UNL     1     -11.809   5.818   7.444  1.00  0.00    -0.237 OA
ATOM     93  O   UNL     1      -9.955   6.446   8.960  1.00  0.00    -0.237 OA
ATOM     94  O   UNL     1     -10.907   8.114   7.413  1.00  0.00    -0.744 OA
ENDBRANCH  87  91
ENDBRANCH  60  84
BRANCH  72  95
ATOM     95  C   UNL     1     -11.967  -1.420   4.312  1.00  0.00     0.023 A 
ATOM     96  C   UNL     1     -12.698  -0.935   3.213  1.00  0.00     0.031 A 
ATOM     97  C   UNL     1     -12.662  -2.133   5.306  1.00  0.00     0.131 A 
ATOM     98  C   UNL     1     -14.088  -1.122   3.160  1.00  0.00     0.055 A 
ATOM     99  C   UNL     1     -14.035  -2.366   5.219  1.00  0.00     0.041 A 
ATOM    100  F   UNL     1     -12.015  -2.616   6.379  1.00  0.00    -0.206 F 
ATOM    101  C   UNL     1     -14.758  -1.849   4.148  1.00  0.00     0.022 A 
BRANCH  98 102
ATOM    102  S   UNL     1     -15.024  -0.329   1.825  1.00  0.00     0.124 S 
ATOM    103  O   UNL     1     -14.705   1.081   2.027  1.00  0.00    -0.237 OA
ATOM    104  O   UNL     1     -14.452  -0.947   0.633  1.00  0.00    -0.237 OA
ATOM    105  O   UNL     1     -16.409  -0.698   2.109  1.00  0.00    -0.744 OA
ENDBRANCH  98 102
ENDBRANCH  72  95
ENDBRANCH  46  47
ENDBRANCH  38  41
ENDBRANCH  36  37
ENDBRANCH  35  36
ENDBRANCH  34  35
ENDBRANCH   1  34
TORSDOF 19
