REMARK SMILES CCC(CC)([NH2+]Cc1ccc(Cl)cc1[N+](=O)[O-])C(=O)NCCCCNC(=O)c1ccc(-c2c3nc(c(-c4cc(S(=O)(=O)[O-])ccc4F)c4ccc([nH]4)c(-c4cc(S(=O)(=O)[O-])ccc4F)c4nc(c(-c5cc(S(=O)(=O)[O-])ccc5F)c5ccc2[nH]5)C=C4)C=C3)cc1
REMARK SMILES IDX 22 1 21 2 20 3 18 4 19 5 3 7 2 8 1 9 4 10 5 11 6 12 7 15
REMARK SMILES IDX 8 16 9 17 14 18 10 19 13 20 11 21 12 22 15 23 16 24 17 25
REMARK SMILES IDX 23 26 24 27 25 28 26 29 27 31 28 32 29 33 90 34 30 35 89 36
REMARK SMILES IDX 31 37 32 38 33 39 83 40 34 41 88 42 82 43 84 44 35 45 87 46
REMARK SMILES IDX 81 47 80 48 36 50 68 51 48 52 67 53 49 54 52 55 66 56 85 57
REMARK SMILES IDX 50 58 51 59 65 61 86 62 53 63 37 64 38 65 46 66 39 67 45 68
REMARK SMILES IDX 47 69 44 70 40 71 41 72 42 73 43 74 69 75 70 76 78 77 71 78
REMARK SMILES IDX 77 79 79 80 76 81 72 82 73 83 74 84 75 85 54 86 55 87 63 88
REMARK SMILES IDX 56 89 62 90 64 91 61 92 57 93 58 94 59 95 60 96
REMARK H PARENT 20 6 6 13 6 14 25 30 84 49 52 60
REMARK Flexibility Score: inf
ROOT
ATOM      1  C   UNL     1       3.499   5.150   2.583  1.00  0.00     0.023 C 
ENDROOT
BRANCH   1   2
ATOM      2  C   UNL     1       3.192   4.477   1.241  1.00  0.00     0.116 C 
BRANCH   2   3
ATOM      3  N   UNL     1       3.390   3.053   1.359  1.00  0.00    -0.351 N 
ATOM      4  C   UNL     1       2.497   2.042   1.544  1.00  0.00     0.281 C 
ATOM      5  O   UNL     1       2.955   1.060   2.142  1.00  0.00    -0.268 OA
ATOM      6  H   UNL     1       4.328   2.763   1.294  1.00  0.00     0.163 HD
BRANCH   4   7
ATOM      7  C   UNL     1       0.999   2.070   1.030  1.00  0.00     0.175 C 
BRANCH   7   8
ATOM      8  C   UNL     1       0.583   0.540   0.944  1.00  0.00     0.076 C 
ATOM      9  C   UNL     1       1.274  -0.296  -0.135  1.00  0.00     0.011 C 
ENDBRANCH   7   8
BRANCH   7  10
ATOM     10  C   UNL     1       0.889   2.707  -0.387  1.00  0.00     0.076 C 
ATOM     11  C   UNL     1      -0.361   2.428  -1.222  1.00  0.00     0.011 C 
ENDBRANCH   7  10
BRANCH   7  12
ATOM     12  N   UNL     1       0.051   2.556   2.085  1.00  0.00    -0.330 N 
ATOM     13  H   UNL     1       0.179   1.929   2.880  1.00  0.00     0.347 HD
ATOM     14  H   UNL     1      -0.826   2.570   1.565  1.00  0.00     0.347 HD
BRANCH  12  15
ATOM     15  C   UNL     1       0.067   3.907   2.640  1.00  0.00     0.305 C 
BRANCH  15  16
ATOM     16  C   UNL     1      -0.529   4.970   1.748  1.00  0.00     0.084 A 
ATOM     17  C   UNL     1       0.139   6.193   1.578  1.00  0.00     0.018 A 
ATOM     18  C   UNL     1      -1.725   4.798   1.034  1.00  0.00     0.279 A 
ATOM     19  C   UNL     1      -0.212   7.076   0.556  1.00  0.00     0.021 A 
ATOM     20  C   UNL     1      -2.085   5.665  -0.007  1.00  0.00     0.106 A 
ATOM     21  C   UNL     1      -1.288   6.775  -0.271  1.00  0.00     0.047 A 
ATOM     22  Cl  UNL     1      -1.648   7.795  -1.605  1.00  0.00    -0.084 Cl
BRANCH  18  23
ATOM     23  N   UNL     1      -2.667   3.744   1.405  1.00  0.00     0.063 N 
ATOM     24  O   UNL     1      -3.211   3.110   0.489  1.00  0.00    -0.258 OA
ATOM     25  O   UNL     1      -2.939   3.629   2.610  1.00  0.00    -0.258 OA
ENDBRANCH  18  23
ENDBRANCH  15  16
ENDBRANCH  12  15
ENDBRANCH   7  12
ENDBRANCH   4   7
ENDBRANCH   2   3
ENDBRANCH   1   2
BRANCH   1  26
ATOM     26  C   UNL     1       4.939   5.603   2.755  1.00  0.00     0.023 C 
BRANCH  26  27
ATOM     27  C   UNL     1       5.400   6.641   1.742  1.00  0.00     0.116 C 
BRANCH  27  28
ATOM     28  N   UNL     1       4.536   7.814   1.643  1.00  0.00    -0.352 N 
ATOM     29  C   UNL     1       4.911   9.124   1.441  1.00  0.00     0.251 C 
ATOM     30  H   UNL     1       3.569   7.648   1.732  1.00  0.00     0.163 HD
ATOM     31  O   UNL     1       4.072  10.020   1.447  1.00  0.00    -0.269 OA
BRANCH  29  32
ATOM     32  C   UNL     1       6.348   9.415   1.272  1.00  0.00     0.039 A 
ATOM     33  C   UNL     1       6.966  10.322   2.134  1.00  0.00     0.014 A 
ATOM     34  C   UNL     1       7.098   8.666   0.363  1.00  0.00     0.014 A 
ATOM     35  C   UNL     1       8.359  10.403   2.151  1.00  0.00     0.010 A 
ATOM     36  C   UNL     1       8.482   8.673   0.458  1.00  0.00     0.010 A 
ATOM     37  C   UNL     1       9.129   9.537   1.355  1.00  0.00    -0.014 A 
BRANCH  37  38
ATOM     38  C   UNL     1      10.613   9.514   1.433  1.00  0.00     0.031 A 
ATOM     39  C   UNL     1      11.424   9.817   0.202  1.00  0.00     0.074 A 
ATOM     40  C   UNL     1      11.224   9.133   2.574  1.00  0.00     0.049 A 
ATOM     41  N   UNL     1      12.715   9.733   0.018  1.00  0.00    -0.248 NA
ATOM     42  C   UNL     1      10.671  10.222  -0.996  1.00  0.00     0.031 C 
ATOM     43  C   UNL     1      10.544   8.755   3.817  1.00  0.00     0.029 A 
ATOM     44  N   UNL     1      12.556   8.989   2.873  1.00  0.00    -0.354 N 
ATOM     45  C   UNL     1      12.926  10.045  -1.321  1.00  0.00     0.074 A 
ATOM     46  C   UNL     1      11.622  10.246  -1.916  1.00  0.00     0.031 C 
ATOM     47  C   UNL     1      11.464   8.457   4.750  1.00  0.00     0.029 A 
ATOM     48  C   UNL     1      12.795   8.575   4.164  1.00  0.00     0.049 A 
ATOM     49  H   UNL     1      13.274   9.165   2.223  1.00  0.00     0.167 HD
ATOM     50  C   UNL     1      14.099  10.181  -1.987  1.00  0.00     0.034 A 
ATOM     51  C   UNL     1      13.955   8.315   4.798  1.00  0.00     0.034 A 
ATOM     52  C   UNL     1      15.389  10.016  -1.368  1.00  0.00     0.049 A 
ATOM     53  C   UNL     1      15.249   8.486   4.042  1.00  0.00     0.074 A 
ATOM     54  C   UNL     1      16.643  10.203  -1.923  1.00  0.00     0.029 A 
ATOM     55  N   UNL     1      15.592   9.626  -0.050  1.00  0.00    -0.354 N 
ATOM     56  N   UNL     1      15.434   8.839   2.790  1.00  0.00    -0.248 NA
ATOM     57  C   UNL     1      16.490   8.235   4.786  1.00  0.00     0.031 C 
ATOM     58  C   UNL     1      17.602   9.870  -0.960  1.00  0.00     0.029 A 
ATOM     59  C   UNL     1      16.950   9.543   0.218  1.00  0.00     0.049 A 
ATOM     60  H   UNL     1      14.877   9.436   0.599  1.00  0.00     0.167 HD
ATOM     61  C   UNL     1      16.813   8.885   2.609  1.00  0.00     0.074 A 
ATOM     62  C   UNL     1      17.410   8.537   3.882  1.00  0.00     0.031 C 
ATOM     63  C   UNL     1      17.525   9.190   1.494  1.00  0.00     0.034 A 
BRANCH  50  64
ATOM     64  C   UNL     1      14.026  10.511  -3.459  1.00  0.00     0.023 A 
ATOM     65  C   UNL     1      13.441  11.704  -3.920  1.00  0.00     0.031 A 
ATOM     66  C   UNL     1      14.509   9.603  -4.417  1.00  0.00     0.131 A 
ATOM     67  C   UNL     1      13.274  11.916  -5.296  1.00  0.00     0.055 A 
ATOM     68  C   UNL     1      14.420   9.861  -5.787  1.00  0.00     0.041 A 
ATOM     69  F   UNL     1      15.059   8.438  -4.040  1.00  0.00    -0.206 F 
ATOM     70  C   UNL     1      13.783  11.016  -6.234  1.00  0.00     0.022 A 
BRANCH  67  71
ATOM     71  S   UNL     1      12.244  13.308  -5.835  1.00  0.00     0.124 S 
ATOM     72  O   UNL     1      10.962  12.982  -5.214  1.00  0.00    -0.237 OA
ATOM     73  O   UNL     1      12.949  14.457  -5.279  1.00  0.00    -0.237 OA
ATOM     74  O   UNL     1      12.266  13.206  -7.293  1.00  0.00    -0.744 OA
ENDBRANCH  67  71
ENDBRANCH  50  64
BRANCH  51  75
ATOM     75  C   UNL     1      13.963   7.871   6.223  1.00  0.00     0.023 A 
ATOM     76  C   UNL     1      14.533   8.674   7.223  1.00  0.00     0.031 A 
ATOM     77  C   UNL     1      13.446   6.619   6.598  1.00  0.00     0.131 A 
ATOM     78  C   UNL     1      14.622   8.196   8.540  1.00  0.00     0.055 A 
ATOM     79  C   UNL     1      13.489   6.169   7.920  1.00  0.00     0.041 A 
ATOM     80  F   UNL     1      12.882   5.815   5.683  1.00  0.00    -0.206 F 
ATOM     81  C   UNL     1      14.093   6.954   8.898  1.00  0.00     0.022 A 
BRANCH  78  82
ATOM     82  S   UNL     1      15.518   9.190   9.765  1.00  0.00     0.124 S 
ATOM     83  O   UNL     1      16.833   9.309   9.146  1.00  0.00    -0.237 OA
ATOM     84  O   UNL     1      14.717  10.408   9.811  1.00  0.00    -0.237 OA
ATOM     85  O   UNL     1      15.468   8.367  10.972  1.00  0.00    -0.744 OA
ENDBRANCH  78  82
ENDBRANCH  51  75
BRANCH  63  86
ATOM     86  C   UNL     1      19.027   9.210   1.625  1.00  0.00     0.023 A 
ATOM     87  C   UNL     1      19.765   8.036   1.849  1.00  0.00     0.031 A 
ATOM     88  C   UNL     1      19.726  10.427   1.530  1.00  0.00     0.131 A 
ATOM     89  C   UNL     1      21.155   8.110   2.024  1.00  0.00     0.055 A 
ATOM     90  C   UNL     1      21.114  10.486   1.647  1.00  0.00     0.041 A 
ATOM     91  F   UNL     1      19.068  11.578   1.318  1.00  0.00    -0.206 F 
ATOM     92  C   UNL     1      21.836   9.325   1.908  1.00  0.00     0.022 A 
BRANCH  89  93
ATOM     93  S   UNL     1      22.054   6.606   2.491  1.00  0.00     0.124 S 
ATOM     94  O   UNL     1      21.399   6.237   3.742  1.00  0.00    -0.237 OA
ATOM     95  O   UNL     1      21.800   5.725   1.355  1.00  0.00    -0.237 OA
ATOM     96  O   UNL     1      23.437   7.060   2.625  1.00  0.00    -0.744 OA
ENDBRANCH  89  93
ENDBRANCH  63  86
ENDBRANCH  37  38
ENDBRANCH  29  32
ENDBRANCH  27  28
ENDBRANCH  26  27
ENDBRANCH   1  26
TORSDOF 20
