REMARK SMILES O=C(CC(=O)OC/C=C\c1ccccc1)NCCCCNC(=O)c1ccc(-c2c3nc(c(-c4cc(S(=O)(=O)[O-])ccc4F)c4ccc([nH]4)c(-c4cc(S(=O)(=O)[O-])ccc4F)c4nc(c(-c5cc(S(=O)(=O)[O-])ccc5F)c5ccc2[nH]5)C=C4)C=C3)cc1
REMARK SMILES IDX 17 1 16 2 1 3 2 4 3 6 4 7 5 8 6 9 7 10 8 11 9 12 10 13 11 14
REMARK SMILES IDX 15 15 12 16 14 17 13 18 18 19 19 20 20 21 21 22 22 23 23 25
REMARK SMILES IDX 24 26 25 27 86 28 26 29 85 30 27 31 28 32 29 33 79 34 30 35
REMARK SMILES IDX 84 36 78 37 80 38 31 39 83 40 77 41 76 42 32 44 64 45 44 46
REMARK SMILES IDX 63 47 45 48 48 49 62 50 81 51 46 52 47 53 61 55 82 56 49 57
REMARK SMILES IDX 33 58 34 59 42 60 35 61 41 62 43 63 40 64 36 65 37 66 38 67
REMARK SMILES IDX 39 68 65 69 66 70 74 71 67 72 73 73 75 74 72 75 68 76 69 77
REMARK SMILES IDX 70 78 71 79 50 80 51 81 59 82 52 83 58 84 60 85 57 86 53 87
REMARK SMILES IDX 54 88 55 89 56 90
REMARK H PARENT 16 5 21 24 80 43 48 54
REMARK Flexibility Score: inf
ROOT
ATOM      1  C   UNL     1       2.072  -1.858   1.432  1.00  0.00     0.116 C 
ENDROOT
BRANCH   1   2
ATOM      2  N   UNL     1       2.740  -0.840   0.645  1.00  0.00    -0.356 N 
ATOM      3  O   UNL     1       0.821   0.165  -0.123  1.00  0.00    -0.274 OA
ATOM      4  C   UNL     1       2.048   0.107  -0.080  1.00  0.00     0.231 C 
ATOM      5  H   UNL     1       3.724  -0.823   0.628  1.00  0.00     0.163 HD
BRANCH   4   6
ATOM      6  C   UNL     1       2.910   1.022  -0.900  1.00  0.00     0.222 C 
BRANCH   6   7
ATOM      7  C   UNL     1       3.781   1.967  -0.135  1.00  0.00     0.315 C 
ATOM      8  O   UNL     1       4.787   2.466  -0.628  1.00  0.00    -0.252 OA
BRANCH   7   9
ATOM      9  O   UNL     1       3.294   2.243   1.101  1.00  0.00    -0.461 OA
BRANCH   9  10
ATOM     10  C   UNL     1       4.005   3.250   1.835  1.00  0.00     0.260 C 
BRANCH  10  11
ATOM     11  C   UNL     1       5.109   2.614   2.624  1.00  0.00     0.015 C 
ATOM     12  C   UNL     1       6.415   2.934   2.609  1.00  0.00     0.007 C 
BRANCH  12  13
ATOM     13  C   UNL     1       7.031   4.002   1.812  1.00  0.00    -0.026 A 
ATOM     14  C   UNL     1       8.092   3.689   0.955  1.00  0.00     0.008 A 
ATOM     15  C   UNL     1       6.612   5.334   1.917  1.00  0.00     0.008 A 
ATOM     16  C   UNL     1       8.701   4.687   0.190  1.00  0.00     0.001 A 
ATOM     17  C   UNL     1       7.213   6.330   1.144  1.00  0.00     0.001 A 
ATOM     18  C   UNL     1       8.256   6.005   0.279  1.00  0.00     0.000 A 
ENDBRANCH  12  13
ENDBRANCH  10  11
ENDBRANCH   9  10
ENDBRANCH   7   9
ENDBRANCH   6   7
ENDBRANCH   4   6
ENDBRANCH   1   2
BRANCH   1  19
ATOM     19  C   UNL     1       2.437  -3.266   0.965  1.00  0.00     0.023 C 
BRANCH  19  20
ATOM     20  C   UNL     1       3.923  -3.621   1.080  1.00  0.00     0.023 C 
BRANCH  20  21
ATOM     21  C   UNL     1       4.522  -3.494   2.478  1.00  0.00     0.116 C 
BRANCH  21  22
ATOM     22  N   UNL     1       3.910  -4.396   3.438  1.00  0.00    -0.352 N 
ATOM     23  C   UNL     1       4.503  -5.287   4.303  1.00  0.00     0.251 C 
ATOM     24  H   UNL     1       2.927  -4.366   3.475  1.00  0.00     0.163 HD
ATOM     25  O   UNL     1       3.800  -6.078   4.927  1.00  0.00    -0.269 OA
BRANCH  23  26
ATOM     26  C   UNL     1       5.976  -5.319   4.454  1.00  0.00     0.039 A 
ATOM     27  C   UNL     1       6.623  -6.558   4.487  1.00  0.00     0.014 A 
ATOM     28  C   UNL     1       6.722  -4.142   4.563  1.00  0.00     0.014 A 
ATOM     29  C   UNL     1       8.018  -6.613   4.554  1.00  0.00     0.010 A 
ATOM     30  C   UNL     1       8.116  -4.198   4.553  1.00  0.00     0.010 A 
ATOM     31  C   UNL     1       8.781  -5.434   4.544  1.00  0.00    -0.014 A 
BRANCH  31  32
ATOM     32  C   UNL     1      10.269  -5.476   4.515  1.00  0.00     0.031 A 
ATOM     33  C   UNL     1      11.068  -4.896   5.651  1.00  0.00     0.074 A 
ATOM     34  C   UNL     1      10.903  -5.983   3.438  1.00  0.00     0.049 A 
ATOM     35  N   UNL     1      12.365  -4.766   5.771  1.00  0.00    -0.248 NA
ATOM     36  C   UNL     1      10.304  -4.366   6.790  1.00  0.00     0.031 C 
ATOM     37  C   UNL     1      10.243  -6.543   2.257  1.00  0.00     0.029 A 
ATOM     38  N   UNL     1      12.242  -6.103   3.155  1.00  0.00    -0.354 N 
ATOM     39  C   UNL     1      12.574  -4.136   6.993  1.00  0.00     0.074 A 
ATOM     40  C   UNL     1      11.264  -3.849   7.541  1.00  0.00     0.031 C 
ATOM     41  C   UNL     1      11.177  -6.966   1.390  1.00  0.00     0.029 A 
ATOM     42  C   UNL     1      12.500  -6.662   1.924  1.00  0.00     0.049 A 
ATOM     43  H   UNL     1      12.951  -5.816   3.775  1.00  0.00     0.167 HD
ATOM     44  C   UNL     1      13.746  -3.845   7.612  1.00  0.00     0.034 A 
ATOM     45  C   UNL     1      13.668  -6.888   1.287  1.00  0.00     0.034 A 
ATOM     46  C   UNL     1      15.044  -4.139   7.053  1.00  0.00     0.049 A 
ATOM     47  C   UNL     1      14.958  -6.517   1.975  1.00  0.00     0.074 A 
ATOM     48  C   UNL     1      16.292  -3.926   7.614  1.00  0.00     0.029 A 
ATOM     49  N   UNL     1      15.266  -4.699   5.801  1.00  0.00    -0.354 N 
ATOM     50  N   UNL     1      15.137  -5.961   3.151  1.00  0.00    -0.248 NA
ATOM     51  C   UNL     1      16.202  -6.815   1.255  1.00  0.00     0.031 C 
ATOM     52  C   UNL     1      17.265  -4.285   6.675  1.00  0.00     0.029 A 
ATOM     53  C   UNL     1      16.628  -4.806   5.560  1.00  0.00     0.049 A 
ATOM     54  H   UNL     1      14.559  -4.980   5.176  1.00  0.00     0.167 HD
ATOM     55  C   UNL     1      16.517  -5.874   3.323  1.00  0.00     0.074 A 
ATOM     56  C   UNL     1      17.119  -6.448   2.138  1.00  0.00     0.031 C 
ATOM     57  C   UNL     1      17.221  -5.369   4.368  1.00  0.00     0.034 A 
BRANCH  44  58
ATOM     58  C   UNL     1      13.670  -3.151   8.953  1.00  0.00     0.023 A 
ATOM     59  C   UNL     1      13.045  -3.752  10.061  1.00  0.00     0.031 A 
ATOM     60  C   UNL     1      14.204  -1.861   9.123  1.00  0.00     0.131 A 
ATOM     61  C   UNL     1      12.896  -3.035  11.258  1.00  0.00     0.055 A 
ATOM     62  C   UNL     1      14.132  -1.188  10.345  1.00  0.00     0.041 A 
ATOM     63  F   UNL     1      14.794  -1.225   8.099  1.00  0.00    -0.206 F 
ATOM     64  C   UNL     1      13.459  -1.768  11.417  1.00  0.00     0.022 A 
BRANCH  61  65
ATOM     65  S   UNL     1      11.818  -3.719  12.546  1.00  0.00     0.124 S 
ATOM     66  O   UNL     1      10.551  -3.852  11.829  1.00  0.00    -0.237 OA
ATOM     67  O   UNL     1      12.490  -4.966  12.891  1.00  0.00    -0.237 OA
ATOM     68  O   UNL     1      11.832  -2.693  13.586  1.00  0.00    -0.744 OA
ENDBRANCH  61  65
ENDBRANCH  44  58
BRANCH  45  69
ATOM     69  C   UNL     1      13.677  -7.476  -0.084  1.00  0.00     0.023 A 
ATOM     70  C   UNL     1      14.262  -8.727  -0.334  1.00  0.00     0.031 A 
ATOM     71  C   UNL     1      13.138  -6.772  -1.176  1.00  0.00     0.131 A 
ATOM     72  C   UNL     1      14.337  -9.215  -1.648  1.00  0.00     0.055 A 
ATOM     73  C   UNL     1      13.162  -7.288  -2.473  1.00  0.00     0.041 A 
ATOM     74  F   UNL     1      12.564  -5.572  -0.994  1.00  0.00    -0.206 F 
ATOM     75  C   UNL     1      13.777  -8.511  -2.717  1.00  0.00     0.022 A 
BRANCH  72  76
ATOM     76  S   UNL     1      15.261 -10.746  -1.956  1.00  0.00     0.124 S 
ATOM     77  O   UNL     1      16.582 -10.403  -1.442  1.00  0.00    -0.237 OA
ATOM     78  O   UNL     1      14.502 -11.719  -1.178  1.00  0.00    -0.237 OA
ATOM     79  O   UNL     1      15.177 -10.908  -3.406  1.00  0.00    -0.744 OA
ENDBRANCH  72  76
ENDBRANCH  45  69
BRANCH  57  80
ATOM     80  C   UNL     1      18.727  -5.462   4.294  1.00  0.00     0.023 A 
ATOM     81  C   UNL     1      19.470  -4.753   3.333  1.00  0.00     0.031 A 
ATOM     82  C   UNL     1      19.429  -6.282   5.196  1.00  0.00     0.131 A 
ATOM     83  C   UNL     1      20.861  -4.923   3.259  1.00  0.00     0.055 A 
ATOM     84  C   UNL     1      20.820  -6.395   5.160  1.00  0.00     0.041 A 
ATOM     85  F   UNL     1      18.773  -6.985   6.133  1.00  0.00    -0.206 F 
ATOM     86  C   UNL     1      21.543  -5.724   4.179  1.00  0.00     0.022 A 
BRANCH  83  87
ATOM     87  S   UNL     1      21.761  -4.160   1.880  1.00  0.00     0.124 S 
ATOM     88  O   UNL     1      21.096  -4.749   0.722  1.00  0.00    -0.237 OA
ATOM     89  O   UNL     1      21.520  -2.738   2.099  1.00  0.00    -0.237 OA
ATOM     90  O   UNL     1      23.141  -4.594   2.090  1.00  0.00    -0.744 OA
ENDBRANCH  83  87
ENDBRANCH  57  80
ENDBRANCH  31  32
ENDBRANCH  23  26
ENDBRANCH  21  22
ENDBRANCH  20  21
ENDBRANCH  19  20
ENDBRANCH   1  19
TORSDOF 19
