REMARK SMILES Cc1cc2c(c(C)c1Cl)C=C(C(=O)NCCCCNC(=O)c1ccc(-c3c4nc(c(-c5cc(S(=O)(=O)[O-])ccc5F)c5ccc([nH]5)c(-c5cc(S(=O)(=O)[O-])ccc5F)c5nc(c(-c6cc(S(=O)(=O)[O-])ccc6F)c6ccc3[nH]6)C=C5)C=C4)cc1)[C@@H](C(F)(F)F)O2
REMARK SMILES IDX 17 1 16 2 15 3 14 4 12 5 13 6 11 8 1 9 2 10 3 11 8 12 4 13
REMARK SMILES IDX 6 14 9 15 5 16 90 17 7 18 10 19 85 20 86 21 87 22 88 23
REMARK SMILES IDX 89 24 18 25 19 26 20 27 21 29 22 30 23 31 84 32 24 33 83 34
REMARK SMILES IDX 25 35 26 36 27 37 77 38 28 39 82 40 76 41 78 42 29 43 81 44
REMARK SMILES IDX 75 45 74 46 30 48 62 49 42 50 61 51 43 52 46 53 60 54 79 55
REMARK SMILES IDX 44 56 45 57 59 59 80 60 47 61 31 62 32 63 40 64 33 65 39 66
REMARK SMILES IDX 41 67 38 68 34 69 35 70 36 71 37 72 63 73 64 74 72 75 65 76
REMARK SMILES IDX 71 77 73 78 70 79 66 80 67 81 68 82 69 83 48 84 49 85 57 86
REMARK SMILES IDX 50 87 56 88 58 89 55 90 51 91 52 92 53 93 54 94
REMARK H PARENT 14 7 19 28 78 47 46 58
REMARK Flexibility Score: inf
ROOT
ATOM      1  C   UNL     1       2.303 -10.080   3.973  1.00  0.00     0.023 C 
ENDROOT
BRANCH   1   2
ATOM      2  C   UNL     1       2.121  -8.837   3.097  1.00  0.00     0.023 C 
BRANCH   2   3
ATOM      3  C   UNL     1       0.667  -8.512   2.769  1.00  0.00     0.116 C 
BRANCH   3   4
ATOM      4  N   UNL     1       0.031  -7.745   3.824  1.00  0.00    -0.352 N 
ATOM      5  C   UNL     1      -0.294  -6.451   4.045  1.00  0.00     0.251 C 
ATOM      6  O   UNL     1      -0.843  -6.223   5.129  1.00  0.00    -0.270 OA
ATOM      7  H   UNL     1      -0.235  -8.319   4.579  1.00  0.00     0.163 HD
BRANCH   5   8
ATOM      8  C   UNL     1      -0.046  -5.322   3.099  1.00  0.00     0.067 C 
ATOM      9  C   UNL     1       0.767   0.374   0.055  1.00  0.00     0.046 C 
ATOM     10  C   UNL     1       0.400  -0.727   1.014  1.00  0.00    -0.028 A 
ATOM     11  C   UNL     1       0.823  -2.020   0.682  1.00  0.00     0.052 A 
ATOM     12  C   UNL     1      -0.295  -0.531   2.224  1.00  0.00     0.047 A 
ATOM     13  C   UNL     1       0.551  -3.095   1.521  1.00  0.00     0.128 A 
ATOM     14  C   UNL     1      -0.589  -1.622   3.083  1.00  0.00    -0.021 A 
ATOM     15  Cl  UNL     1      -0.770   1.080   2.671  1.00  0.00    -0.084 Cl
ATOM     16  C   UNL     1      -0.136  -2.915   2.724  1.00  0.00     0.022 A 
ATOM     17  O   UNL     1       1.041  -4.302   1.111  1.00  0.00    -0.475 OA
ATOM     18  C   UNL     1      -1.346  -1.435   4.378  1.00  0.00     0.047 C 
ATOM     19  C   UNL     1      -0.305  -4.092   3.582  1.00  0.00     0.026 C 
ATOM     20  C   UNL     1       0.415  -5.484   1.681  1.00  0.00     0.314 C 
BRANCH  20  21
ATOM     21  C   UNL     1      -0.703  -5.972   0.743  1.00  0.00     0.429 C 
ATOM     22  F   UNL     1      -0.184  -6.371  -0.446  1.00  0.00    -0.167 F 
ATOM     23  F   UNL     1      -1.376  -7.034   1.244  1.00  0.00    -0.167 F 
ATOM     24  F   UNL     1      -1.619  -5.012   0.481  1.00  0.00    -0.167 F 
ENDBRANCH  20  21
ENDBRANCH   5   8
ENDBRANCH   3   4
ENDBRANCH   2   3
ENDBRANCH   1   2
BRANCH   1  25
ATOM     25  C   UNL     1       1.653 -11.358   3.446  1.00  0.00     0.116 C 
BRANCH  25  26
ATOM     26  N   UNL     1       1.973 -11.650   2.055  1.00  0.00    -0.352 N 
ATOM     27  C   UNL     1       2.106 -12.884   1.462  1.00  0.00     0.251 C 
ATOM     28  H   UNL     1       2.111 -10.871   1.470  1.00  0.00     0.163 HD
ATOM     29  O   UNL     1       2.441 -12.979   0.286  1.00  0.00    -0.269 OA
BRANCH  27  30
ATOM     30  C   UNL     1       1.885 -14.084   2.289  1.00  0.00     0.039 A 
ATOM     31  C   UNL     1       2.936 -14.988   2.451  1.00  0.00     0.014 A 
ATOM     32  C   UNL     1       0.684 -14.241   2.987  1.00  0.00     0.014 A 
ATOM     33  C   UNL     1       2.811 -16.014   3.386  1.00  0.00     0.010 A 
ATOM     34  C   UNL     1       0.585 -15.231   3.959  1.00  0.00     0.010 A 
ATOM     35  C   UNL     1       1.654 -16.114   4.177  1.00  0.00    -0.014 A 
BRANCH  35  36
ATOM     36  C   UNL     1       1.559 -17.132   5.250  1.00  0.00     0.031 A 
ATOM     37  C   UNL     1       0.583 -18.264   5.126  1.00  0.00     0.074 A 
ATOM     38  C   UNL     1       2.329 -17.010   6.348  1.00  0.00     0.049 A 
ATOM     39  N   UNL     1       0.334 -19.234   5.966  1.00  0.00    -0.248 NA
ATOM     40  C   UNL     1      -0.239 -18.293   3.907  1.00  0.00     0.031 C 
ATOM     41  C   UNL     1       3.287 -15.929   6.596  1.00  0.00     0.029 A 
ATOM     42  N   UNL     1       2.436 -17.808   7.458  1.00  0.00    -0.354 N 
ATOM     43  C   UNL     1      -0.672 -19.991   5.378  1.00  0.00     0.074 A 
ATOM     44  C   UNL     1      -1.030 -19.329   4.142  1.00  0.00     0.031 C 
ATOM     45  C   UNL     1       3.917 -16.159   7.760  1.00  0.00     0.029 A 
ATOM     46  C   UNL     1       3.387 -17.381   8.354  1.00  0.00     0.049 A 
ATOM     47  H   UNL     1       1.883 -18.610   7.601  1.00  0.00     0.167 HD
ATOM     48  C   UNL     1      -1.224 -21.150   5.814  1.00  0.00     0.034 A 
ATOM     49  C   UNL     1       3.792 -17.922   9.519  1.00  0.00     0.034 A 
ATOM     50  C   UNL     1      -0.851 -21.806   7.040  1.00  0.00     0.049 A 
ATOM     51  C   UNL     1       3.148 -19.193   9.998  1.00  0.00     0.074 A 
ATOM     52  C   UNL     1      -1.324 -22.997   7.561  1.00  0.00     0.029 A 
ATOM     53  N   UNL     1       0.093 -21.326   7.938  1.00  0.00    -0.354 N 
ATOM     54  N   UNL     1       2.200 -19.900   9.428  1.00  0.00    -0.248 NA
ATOM     55  C   UNL     1       3.624 -19.738  11.276  1.00  0.00     0.031 C 
ATOM     56  C   UNL     1      -0.696 -23.217   8.793  1.00  0.00     0.029 A 
ATOM     57  C   UNL     1       0.204 -22.186   9.017  1.00  0.00     0.049 A 
ATOM     58  H   UNL     1       0.608 -20.494   7.824  1.00  0.00     0.167 HD
ATOM     59  C   UNL     1       1.977 -20.982  10.272  1.00  0.00     0.074 A 
ATOM     60  C   UNL     1       2.889 -20.836  11.389  1.00  0.00     0.031 C 
ATOM     61  C   UNL     1       1.103 -22.009  10.130  1.00  0.00     0.034 A 
BRANCH  48  62
ATOM     62  C   UNL     1      -2.296 -21.759   4.951  1.00  0.00     0.023 A 
ATOM     63  C   UNL     1      -1.999 -22.261   3.671  1.00  0.00     0.031 A 
ATOM     64  C   UNL     1      -3.631 -21.799   5.386  1.00  0.00     0.131 A 
ATOM     65  C   UNL     1      -3.034 -22.711   2.841  1.00  0.00     0.055 A 
ATOM     66  C   UNL     1      -4.648 -22.317   4.581  1.00  0.00     0.041 A 
ATOM     67  F   UNL     1      -3.972 -21.315   6.590  1.00  0.00    -0.206 F 
ATOM     68  C   UNL     1      -4.354 -22.764   3.295  1.00  0.00     0.022 A 
BRANCH  65  69
ATOM     69  S   UNL     1      -2.647 -23.114   1.117  1.00  0.00     0.124 S 
ATOM     70  O   UNL     1      -2.257 -21.808   0.592  1.00  0.00    -0.237 OA
ATOM     71  O   UNL     1      -1.576 -24.094   1.251  1.00  0.00    -0.237 OA
ATOM     72  O   UNL     1      -3.909 -23.638   0.596  1.00  0.00    -0.744 OA
ENDBRANCH  65  69
ENDBRANCH  48  62
BRANCH  49  73
ATOM     73  C   UNL     1       4.874 -17.273  10.303  1.00  0.00     0.023 A 
ATOM     74  C   UNL     1       6.162 -17.829  10.341  1.00  0.00     0.031 A 
ATOM     75  C   UNL     1       4.639 -16.085  11.015  1.00  0.00     0.131 A 
ATOM     76  C   UNL     1       7.167 -17.205  11.095  1.00  0.00     0.055 A 
ATOM     77  C   UNL     1       5.649 -15.454  11.743  1.00  0.00     0.041 A 
ATOM     78  F   UNL     1       3.426 -15.510  10.993  1.00  0.00    -0.206 F 
ATOM     79  C   UNL     1       6.922 -16.017  11.789  1.00  0.00     0.022 A 
BRANCH  76  80
ATOM     80  S   UNL     1       8.810 -17.971  11.160  1.00  0.00     0.124 S 
ATOM     81  O   UNL     1       8.534 -19.202  11.893  1.00  0.00    -0.237 OA
ATOM     82  O   UNL     1       9.133 -18.124   9.745  1.00  0.00    -0.237 OA
ATOM     83  O   UNL     1       9.616 -16.984  11.875  1.00  0.00    -0.744 OA
ENDBRANCH  76  80
ENDBRANCH  49  73
BRANCH  61  84
ATOM     84  C   UNL     1       1.107 -23.062  11.201  1.00  0.00     0.023 A 
ATOM     85  C   UNL     1       0.510 -22.833  12.451  1.00  0.00     0.031 A 
ATOM     86  C   UNL     1       1.682 -24.320  10.951  1.00  0.00     0.131 A 
ATOM     87  C   UNL     1       0.523 -23.846  13.421  1.00  0.00     0.055 A 
ATOM     88  C   UNL     1       1.660 -25.335  11.907  1.00  0.00     0.041 A 
ATOM     89  F   UNL     1       2.261 -24.582   9.768  1.00  0.00    -0.206 F 
ATOM     90  C   UNL     1       1.081 -25.099  13.151  1.00  0.00     0.022 A 
BRANCH  87  91
ATOM     91  S   UNL     1      -0.193 -23.505  15.052  1.00  0.00     0.124 S 
ATOM     92  O   UNL     1       0.762 -22.551  15.606  1.00  0.00    -0.237 OA
ATOM     93  O   UNL     1      -1.508 -22.968  14.718  1.00  0.00    -0.237 OA
ATOM     94  O   UNL     1      -0.208 -24.816  15.699  1.00  0.00    -0.744 OA
ENDBRANCH  87  91
ENDBRANCH  61  84
ENDBRANCH  35  36
ENDBRANCH  27  30
ENDBRANCH  25  26
ENDBRANCH   1  25
TORSDOF 15
