REMARK SMILES NS(=O)(=O)c1ccc(-n2nc(C(=O)NCCCCCCCCCCC(=O)NCCCCNC(=O)c3ccc(-c4c5nc(c(-c6cc(S(=O)(=O)[O-])ccc6F)c6ccc([nH]6)c(-c6cc(S(=O)(=O)[O-])ccc6F)c6nc(c(-c7cc(S(=O)(=O)[O-])ccc7F)c7ccc4[nH]7)C=C6)C=C5)cc3)cc2-c2ccccc2)cc1
REMARK SMILES IDX 22 1 21 2 20 3 19 4 18 5 17 6 16 7 15 8 14 9 12 10 13 11
REMARK SMILES IDX 11 13 9 14 10 15 99 16 98 17 8 18 5 19 6 20 107 21 7 22
REMARK SMILES IDX 106 23 2 24 3 25 4 26 1 27 100 30 101 31 105 32 102 33
REMARK SMILES IDX 104 34 103 35 23 36 24 37 25 38 26 39 27 40 28 42 29 43
REMARK SMILES IDX 30 44 31 45 32 46 33 47 34 49 35 50 36 51 97 52 37 53 96 54
REMARK SMILES IDX 38 55 39 56 40 57 90 58 41 59 95 60 89 61 91 62 42 63 94 64
REMARK SMILES IDX 88 65 87 66 43 68 75 69 55 70 74 71 56 72 59 73 73 74 92 75
REMARK SMILES IDX 57 76 58 77 72 79 93 80 60 81 44 82 45 83 53 84 46 85 52 86
REMARK SMILES IDX 54 87 51 88 47 89 48 90 49 91 50 92 76 93 77 94 85 95 78 96
REMARK SMILES IDX 84 97 86 98 83 99 79 100 80 101 81 102 82 103 61 104 62 105
REMARK SMILES IDX 70 106 63 107 69 108 71 109 68 110 64 111 65 112 66 113
REMARK SMILES IDX 67 114
REMARK H PARENT 14 12 1 28 1 29 27 41 32 48 91 67 59 78
REMARK Flexibility Score: inf
ROOT
ATOM      1  C   UNL     1       1.157 -12.878 -11.363  1.00  0.00     0.001 C 
ENDROOT
BRANCH   1   2
ATOM      2  C   UNL     1       1.649 -11.426 -11.374  1.00  0.00     0.000 C 
BRANCH   2   3
ATOM      3  C   UNL     1       1.194 -10.641 -10.148  1.00  0.00     0.000 C 
BRANCH   3   4
ATOM      4  C   UNL     1       1.712 -11.203  -8.823  1.00  0.00     0.000 C 
BRANCH   4   5
ATOM      5  C   UNL     1       3.240 -11.218  -8.701  1.00  0.00     0.000 C 
BRANCH   5   6
ATOM      6  C   UNL     1       3.895  -9.830  -8.717  1.00  0.00     0.002 C 
BRANCH   6   7
ATOM      7  C   UNL     1       3.243  -8.808  -7.778  1.00  0.00     0.021 C 
BRANCH   7   8
ATOM      8  C   UNL     1       3.176  -9.303  -6.334  1.00  0.00     0.116 C 
BRANCH   8   9
ATOM      9  N   UNL     1       4.237  -8.734  -5.542  1.00  0.00    -0.351 N 
ATOM     10  C   UNL     1       4.283  -7.712  -4.629  1.00  0.00     0.271 C 
ATOM     11  O   UNL     1       5.401  -7.476  -4.161  1.00  0.00    -0.267 OA
ATOM     12  H   UNL     1       5.108  -9.170  -5.686  1.00  0.00     0.163 HD
BRANCH  10  13
ATOM     13  C   UNL     1       3.078  -6.973  -4.189  1.00  0.00     0.151 A 
ATOM     14  N   UNL     1       1.959  -5.649  -2.912  1.00  0.00    -0.232 N 
ATOM     15  N   UNL     1       3.210  -6.012  -3.252  1.00  0.00    -0.162 NA
ATOM     16  C   UNL     1       1.002  -6.249  -3.708  1.00  0.00     0.075 A 
ATOM     17  C   UNL     1       1.717  -7.052  -4.573  1.00  0.00     0.065 A 
BRANCH  14  18
ATOM     18  C   UNL     1       1.752  -4.695  -1.892  1.00  0.00     0.065 A 
ATOM     19  C   UNL     1       1.135  -2.645  -0.136  1.00  0.00     0.082 A 
ATOM     20  C   UNL     1       0.413  -3.842  -0.077  1.00  0.00     0.024 A 
ATOM     21  C   UNL     1       2.197  -2.486  -1.034  1.00  0.00     0.024 A 
ATOM     22  C   UNL     1       0.717  -4.870  -0.965  1.00  0.00     0.030 A 
ATOM     23  C   UNL     1       2.527  -3.529  -1.898  1.00  0.00     0.030 A 
BRANCH  19  24
ATOM     24  S   UNL     1       0.609  -1.315   0.899  1.00  0.00     0.238 S 
ATOM     25  O   UNL     1       1.259  -1.437   2.174  1.00  0.00    -0.207 OA
ATOM     26  O   UNL     1      -0.830  -1.176   0.762  1.00  0.00    -0.207 OA
BRANCH  24  27
ATOM     27  N   UNL     1       1.244   0.059   0.172  1.00  0.00    -0.225 NA
ATOM     28  H   UNL     1       0.983   0.882   0.715  1.00  0.00     0.137 HD
ATOM     29  H   UNL     1       0.874   0.145  -0.774  1.00  0.00     0.137 HD
ENDBRANCH  24  27
ENDBRANCH  19  24
ENDBRANCH  14  18
BRANCH  16  30
ATOM     30  C   UNL     1      -0.431  -5.967  -3.712  1.00  0.00     0.000 A 
ATOM     31  C   UNL     1      -0.906  -4.663  -3.907  1.00  0.00     0.010 A 
ATOM     32  C   UNL     1      -1.349  -7.011  -3.545  1.00  0.00     0.010 A 
ATOM     33  C   UNL     1      -2.276  -4.404  -3.905  1.00  0.00     0.001 A 
ATOM     34  C   UNL     1      -2.720  -6.750  -3.549  1.00  0.00     0.001 A 
ATOM     35  C   UNL     1      -3.183  -5.447  -3.725  1.00  0.00     0.000 A 
ENDBRANCH  16  30
ENDBRANCH  10  13
ENDBRANCH   8   9
ENDBRANCH   7   8
ENDBRANCH   6   7
ENDBRANCH   5   6
ENDBRANCH   4   5
ENDBRANCH   3   4
ENDBRANCH   2   3
ENDBRANCH   1   2
BRANCH   1  36
ATOM     36  C   UNL     1       0.308 -13.254 -12.573  1.00  0.00     0.010 C 
BRANCH  36  37
ATOM     37  C   UNL     1       0.986 -13.086 -13.932  1.00  0.00     0.100 C 
BRANCH  37  38
ATOM     38  C   UNL     1       1.764 -14.310 -14.368  1.00  0.00     0.219 C 
ATOM     39  O   UNL     1       1.194 -15.241 -14.942  1.00  0.00    -0.275 OA
ATOM     40  N   UNL     1       3.102 -14.417 -14.138  1.00  0.00    -0.356 N 
ATOM     41  H   UNL     1       3.524 -15.214 -14.532  1.00  0.00     0.163 HD
BRANCH  40  42
ATOM     42  C   UNL     1       4.011 -13.550 -13.407  1.00  0.00     0.116 C 
BRANCH  42  43
ATOM     43  C   UNL     1       4.477 -14.203 -12.098  1.00  0.00     0.023 C 
BRANCH  43  44
ATOM     44  C   UNL     1       5.599 -15.237 -12.238  1.00  0.00     0.023 C 
BRANCH  44  45
ATOM     45  C   UNL     1       6.971 -14.639 -12.520  1.00  0.00     0.116 C 
BRANCH  45  46
ATOM     46  N   UNL     1       7.479 -13.835 -11.410  1.00  0.00    -0.352 N 
ATOM     47  C   UNL     1       8.541 -12.952 -11.440  1.00  0.00     0.251 C 
ATOM     48  H   UNL     1       7.013 -13.933 -10.548  1.00  0.00     0.163 HD
ATOM     49  O   UNL     1       9.104 -12.606 -10.409  1.00  0.00    -0.269 OA
BRANCH  47  50
ATOM     50  C   UNL     1       8.984 -12.459 -12.755  1.00  0.00     0.039 A 
ATOM     51  C   UNL     1      10.299 -12.651 -13.178  1.00  0.00     0.014 A 
ATOM     52  C   UNL     1       8.019 -11.926 -13.610  1.00  0.00     0.014 A 
ATOM     53  C   UNL     1      10.615 -12.410 -14.514  1.00  0.00     0.010 A 
ATOM     54  C   UNL     1       8.316 -11.775 -14.951  1.00  0.00     0.010 A 
ATOM     55  C   UNL     1       9.612 -12.012 -15.417  1.00  0.00    -0.014 A 
BRANCH  55  56
ATOM     56  C   UNL     1       9.898 -12.002 -16.859  1.00  0.00     0.031 A 
ATOM     57  C   UNL     1      10.523 -13.241 -17.421  1.00  0.00     0.074 A 
ATOM     58  C   UNL     1       9.445 -11.070 -17.724  1.00  0.00     0.049 A 
ATOM     59  N   UNL     1      11.669 -13.361 -18.008  1.00  0.00    -0.248 NA
ATOM     60  C   UNL     1       9.815 -14.519 -17.249  1.00  0.00     0.031 C 
ATOM     61  C   UNL     1       8.556  -9.938 -17.453  1.00  0.00     0.029 A 
ATOM     62  N   UNL     1       9.598 -11.018 -19.080  1.00  0.00    -0.354 N 
ATOM     63  C   UNL     1      11.753 -14.678 -18.459  1.00  0.00     0.074 A 
ATOM     64  C   UNL     1      10.654 -15.373 -17.840  1.00  0.00     0.031 C 
ATOM     65  C   UNL     1       8.058  -9.467 -18.617  1.00  0.00     0.029 A 
ATOM     66  C   UNL     1       8.729 -10.140 -19.714  1.00  0.00     0.049 A 
ATOM     67  H   UNL     1      10.265 -11.556 -19.565  1.00  0.00     0.167 HD
ATOM     68  C   UNL     1      12.620 -15.047 -19.447  1.00  0.00     0.034 A 
ATOM     69  C   UNL     1       8.546  -9.973 -21.047  1.00  0.00     0.034 A 
ATOM     70  C   UNL     1      13.646 -14.049 -19.642  1.00  0.00     0.049 A 
ATOM     71  C   UNL     1       9.780 -10.437 -21.720  1.00  0.00     0.074 A 
ATOM     72  C   UNL     1      14.595 -13.462 -18.826  1.00  0.00     0.029 A 
ATOM     73  N   UNL     1      13.567 -13.232 -20.747  1.00  0.00    -0.354 N 
ATOM     74  N   UNL     1      10.941  -9.860 -21.568  1.00  0.00    -0.248 NA
ATOM     75  C   UNL     1       9.831 -11.799 -22.226  1.00  0.00     0.031 C 
ATOM     76  C   UNL     1      14.615 -12.091 -19.221  1.00  0.00     0.029 A 
ATOM     77  C   UNL     1      13.736 -11.945 -20.297  1.00  0.00     0.049 A 
ATOM     78  H   UNL     1      13.418 -13.514 -21.678  1.00  0.00     0.167 HD
ATOM     79  C   UNL     1      11.856 -10.898 -21.531  1.00  0.00     0.074 A 
ATOM     80  C   UNL     1      11.133 -12.050 -22.065  1.00  0.00     0.031 C 
ATOM     81  C   UNL     1      13.017 -10.797 -20.818  1.00  0.00     0.034 A 
BRANCH  68  82
ATOM     82  C   UNL     1      12.396 -16.162 -20.450  1.00  0.00     0.023 A 
ATOM     83  C   UNL     1      13.421 -16.425 -21.385  1.00  0.00     0.031 A 
ATOM     84  C   UNL     1      11.154 -16.779 -20.719  1.00  0.00     0.131 A 
ATOM     85  C   UNL     1      13.172 -17.178 -22.547  1.00  0.00     0.055 A 
ATOM     86  C   UNL     1      10.932 -17.588 -21.840  1.00  0.00     0.041 A 
ATOM     87  F   UNL     1      10.065 -16.561 -19.973  1.00  0.00    -0.206 F 
ATOM     88  C   UNL     1      11.933 -17.767 -22.779  1.00  0.00     0.022 A 
BRANCH  85  89
ATOM     89  S   UNL     1      14.438 -17.213 -23.846  1.00  0.00     0.124 S 
ATOM     90  O   UNL     1      14.705 -15.791 -24.037  1.00  0.00    -0.237 OA
ATOM     91  O   UNL     1      15.497 -17.990 -23.212  1.00  0.00    -0.237 OA
ATOM     92  O   UNL     1      13.762 -17.874 -24.961  1.00  0.00    -0.744 OA
ENDBRANCH  85  89
ENDBRANCH  68  82
BRANCH  69  93
ATOM     93  C   UNL     1       7.271  -9.677 -21.744  1.00  0.00     0.023 A 
ATOM     94  C   UNL     1       7.223  -9.126 -23.039  1.00  0.00     0.031 A 
ATOM     95  C   UNL     1       6.053 -10.159 -21.211  1.00  0.00     0.131 A 
ATOM     96  C   UNL     1       5.998  -9.071 -23.741  1.00  0.00     0.055 A 
ATOM     97  C   UNL     1       4.844 -10.094 -21.905  1.00  0.00     0.041 A 
ATOM     98  F   UNL     1       6.015 -10.788 -20.024  1.00  0.00    -0.206 F 
ATOM     99  C   UNL     1       4.813  -9.556 -23.181  1.00  0.00     0.022 A 
BRANCH  96 100
ATOM    100  S   UNL     1       5.954  -8.461 -25.456  1.00  0.00     0.124 S 
ATOM    101  O   UNL     1       6.160  -7.028 -25.279  1.00  0.00    -0.237 OA
ATOM    102  O   UNL     1       7.043  -9.202 -26.081  1.00  0.00    -0.237 OA
ATOM    103  O   UNL     1       4.617  -8.838 -25.916  1.00  0.00    -0.744 OA
ENDBRANCH  96 100
ENDBRANCH  69  93
BRANCH  81 104
ATOM    104  C   UNL     1      13.456  -9.431 -20.324  1.00  0.00     0.023 A 
ATOM    105  C   UNL     1      12.676  -8.579 -19.510  1.00  0.00     0.031 A 
ATOM    106  C   UNL     1      14.779  -9.037 -20.594  1.00  0.00     0.131 A 
ATOM    107  C   UNL     1      13.223  -7.379 -19.013  1.00  0.00     0.055 A 
ATOM    108  C   UNL     1      15.325  -7.860 -20.083  1.00  0.00     0.041 A 
ATOM    109  F   UNL     1      15.584  -9.816 -21.337  1.00  0.00    -0.206 F 
ATOM    110  C   UNL     1      14.546  -7.022 -19.294  1.00  0.00     0.022 A 
BRANCH 107 111
ATOM    111  S   UNL     1      12.216  -6.248 -18.000  1.00  0.00     0.124 S 
ATOM    112  O   UNL     1      10.961  -6.151 -18.736  1.00  0.00    -0.237 OA
ATOM    113  O   UNL     1      12.152  -6.945 -16.717  1.00  0.00    -0.237 OA
ATOM    114  O   UNL     1      13.007  -5.016 -17.980  1.00  0.00    -0.744 OA
ENDBRANCH 107 111
ENDBRANCH  81 104
ENDBRANCH  55  56
ENDBRANCH  47  50
ENDBRANCH  45  46
ENDBRANCH  44  45
ENDBRANCH  43  44
ENDBRANCH  42  43
ENDBRANCH  40  42
ENDBRANCH  37  38
ENDBRANCH  36  37
ENDBRANCH   1  36
TORSDOF 29
