REMARK SMILES Cc1ccc(-c2nc(C)c(C(=O)N3CCC(C(=O)NCCCCNC(=O)c4ccc(-c5c6nc(c(-c7cc(S(=O)(=O)[O-])ccc7F)c7ccc([nH]7)c(-c7cc(S(=O)(=O)[O-])ccc7F)c7nc(c(-c8cc(S(=O)(=O)[O-])ccc8F)c8ccc5[nH]8)C=C7)C=C6)cc4)CC3)s2)o1
REMARK SMILES IDX 22 1 21 2 20 3 19 4 17 5 18 6 16 8 11 9 12 10 13 11 14 12
REMARK SMILES IDX 91 13 15 14 90 15 10 16 6 17 7 18 92 19 8 20 9 21 5 22 1 23
REMARK SMILES IDX 2 24 3 25 93 26 4 27 23 28 24 29 25 30 26 32 27 33 28 34
REMARK SMILES IDX 89 35 29 36 88 37 30 38 31 39 32 40 82 41 33 42 87 43 81 44
REMARK SMILES IDX 83 45 34 46 86 47 80 48 79 49 35 51 67 52 47 53 66 54 48 55
REMARK SMILES IDX 51 56 65 57 84 58 49 59 50 60 64 62 85 63 52 64 36 65 37 66
REMARK SMILES IDX 45 67 38 68 44 69 46 70 43 71 39 72 40 73 41 74 42 75 68 76
REMARK SMILES IDX 69 77 77 78 70 79 76 80 78 81 75 82 71 83 72 84 73 85 74 86
REMARK SMILES IDX 53 87 54 88 62 89 55 90 61 91 63 92 60 93 56 94 57 95 58 96
REMARK SMILES IDX 59 97
REMARK H PARENT 19 7 24 31 83 50 51 61
REMARK Flexibility Score: inf
ROOT
ATOM      1  C   UNL     1     -11.751   5.138   3.173  1.00  0.00     0.023 C 
ENDROOT
BRANCH   1   2
ATOM      2  C   UNL     1     -10.291   5.079   2.726  1.00  0.00     0.023 C 
BRANCH   2   3
ATOM      3  C   UNL     1     -10.091   4.731   1.254  1.00  0.00     0.116 C 
BRANCH   3   4
ATOM      4  N   UNL     1     -10.544   5.796   0.374  1.00  0.00    -0.356 N 
ATOM      5  C   UNL     1      -9.853   6.598  -0.481  1.00  0.00     0.223 C 
ATOM      6  O   UNL     1     -10.479   7.444  -1.124  1.00  0.00    -0.275 OA
ATOM      7  H   UNL     1     -11.514   5.965   0.401  1.00  0.00     0.163 HD
BRANCH   5   8
ATOM      8  C   UNL     1      -8.349   6.460  -0.663  1.00  0.00     0.082 C 
ATOM      9  C   UNL     1      -5.313   4.119   0.783  1.00  0.00     0.265 C 
ATOM     10  O   UNL     1      -5.581   4.058   1.985  1.00  0.00    -0.268 OA
ATOM     11  N   UNL     1      -5.915   5.101  -0.002  1.00  0.00    -0.338 N 
ATOM     12  C   UNL     1      -6.128   6.423   0.561  1.00  0.00     0.120 C 
ATOM     13  C   UNL     1      -6.484   4.857  -1.319  1.00  0.00     0.120 C 
ATOM     14  C   UNL     1      -7.596   6.787   0.633  1.00  0.00     0.035 C 
ATOM     15  C   UNL     1      -7.986   5.118  -1.320  1.00  0.00     0.035 C 
BRANCH   9  16
ATOM     16  C   UNL     1      -4.283   3.296   0.165  1.00  0.00     0.115 A 
ATOM     17  C   UNL     1      -2.514   1.657  -0.157  1.00  0.00     0.159 A 
ATOM     18  N   UNL     1      -2.418   2.600  -1.065  1.00  0.00    -0.237 NA
ATOM     19  S   UNL     1      -3.862   1.783   0.888  1.00  0.00    -0.105 S 
ATOM     20  C   UNL     1      -3.407   3.552  -0.884  1.00  0.00     0.062 A 
ATOM     21  C   UNL     1      -3.329   4.738  -1.776  1.00  0.00     0.068 C 
BRANCH  17  22
ATOM     22  C   UNL     1      -1.504   0.645  -0.027  1.00  0.00     0.162 A 
ATOM     23  C   UNL     1       2.013  -0.061  -0.015  1.00  0.00     0.087 C 
ATOM     24  C   UNL     1       0.544  -0.200   0.034  1.00  0.00     0.101 A 
ATOM     25  C   UNL     1      -0.313  -1.260   0.216  1.00  0.00     0.046 A 
ATOM     26  O   UNL     1      -0.166   0.947  -0.128  1.00  0.00    -0.459 OA
ATOM     27  C   UNL     1      -1.624  -0.718   0.192  1.00  0.00     0.054 A 
ENDBRANCH  17  22
ENDBRANCH   9  16
ENDBRANCH   5   8
ENDBRANCH   3   4
ENDBRANCH   2   3
ENDBRANCH   1   2
BRANCH   1  28
ATOM     28  C   UNL     1     -12.573   3.894   2.861  1.00  0.00     0.116 C 
BRANCH  28  29
ATOM     29  N   UNL     1     -11.996   2.675   3.405  1.00  0.00    -0.352 N 
ATOM     30  C   UNL     1     -12.627   1.643   4.057  1.00  0.00     0.251 C 
ATOM     31  H   UNL     1     -11.023   2.576   3.292  1.00  0.00     0.163 HD
ATOM     32  O   UNL     1     -11.968   0.738   4.561  1.00  0.00    -0.269 OA
BRANCH  30  33
ATOM     33  C   UNL     1     -14.100   1.657   4.177  1.00  0.00     0.039 A 
ATOM     34  C   UNL     1     -14.676   1.457   5.433  1.00  0.00     0.014 A 
ATOM     35  C   UNL     1     -14.903   1.915   3.063  1.00  0.00     0.014 A 
ATOM     36  C   UNL     1     -16.058   1.589   5.586  1.00  0.00     0.010 A 
ATOM     37  C   UNL     1     -16.269   2.118   3.232  1.00  0.00     0.010 A 
ATOM     38  C   UNL     1     -16.861   1.961   4.495  1.00  0.00    -0.014 A 
BRANCH  38  39
ATOM     39  C   UNL     1     -18.321   2.192   4.653  1.00  0.00     0.031 A 
ATOM     40  C   UNL     1     -19.302   1.313   3.927  1.00  0.00     0.074 A 
ATOM     41  C   UNL     1     -18.756   3.236   5.388  1.00  0.00     0.049 A 
ATOM     42  N   UNL     1     -20.605   1.404   3.864  1.00  0.00    -0.248 NA
ATOM     43  C   UNL     1     -18.741   0.202   3.142  1.00  0.00     0.031 C 
ATOM     44  C   UNL     1     -17.897   4.184   6.104  1.00  0.00     0.029 A 
ATOM     45  N   UNL     1     -20.027   3.686   5.647  1.00  0.00    -0.354 N 
ATOM     46  C   UNL     1     -21.017   0.383   3.014  1.00  0.00     0.074 A 
ATOM     47  C   UNL     1     -19.821  -0.287   2.552  1.00  0.00     0.031 C 
ATOM     48  C   UNL     1     -18.666   5.086   6.736  1.00  0.00     0.029 A 
ATOM     49  C   UNL     1     -20.067   4.814   6.436  1.00  0.00     0.049 A 
ATOM     50  H   UNL     1     -20.835   3.243   5.301  1.00  0.00     0.167 HD
ATOM     51  C   UNL     1     -22.278   0.029   2.666  1.00  0.00     0.034 A 
ATOM     52  C   UNL     1     -21.115   5.552   6.857  1.00  0.00     0.034 A 
ATOM     53  C   UNL     1     -23.462   0.684   3.167  1.00  0.00     0.049 A 
ATOM     54  C   UNL     1     -22.508   5.133   6.451  1.00  0.00     0.074 A 
ATOM     55  C   UNL     1     -24.787   0.346   2.952  1.00  0.00     0.029 A 
ATOM     56  N   UNL     1     -23.465   1.812   3.975  1.00  0.00    -0.354 N 
ATOM     57  N   UNL     1     -22.882   4.116   5.708  1.00  0.00    -0.248 NA
ATOM     58  C   UNL     1     -23.619   5.953   6.950  1.00  0.00     0.031 C 
ATOM     59  C   UNL     1     -25.590   1.308   3.573  1.00  0.00     0.029 A 
ATOM     60  C   UNL     1     -24.769   2.204   4.238  1.00  0.00     0.049 A 
ATOM     61  H   UNL     1     -22.660   2.268   4.313  1.00  0.00     0.167 HD
ATOM     62  C   UNL     1     -24.274   4.155   5.688  1.00  0.00     0.074 A 
ATOM     63  C   UNL     1     -24.671   5.284   6.502  1.00  0.00     0.031 C 
ATOM     64  C   UNL     1     -25.147   3.330   5.056  1.00  0.00     0.034 A 
BRANCH  51  65
ATOM     65  C   UNL     1     -22.446  -1.099   1.679  1.00  0.00     0.023 A 
ATOM     66  C   UNL     1     -22.064  -2.417   1.983  1.00  0.00     0.031 A 
ATOM     67  C   UNL     1     -23.006  -0.850   0.413  1.00  0.00     0.131 A 
ATOM     68  C   UNL     1     -22.197  -3.424   1.015  1.00  0.00     0.055 A 
ATOM     69  C   UNL     1     -23.203  -1.871  -0.519  1.00  0.00     0.041 A 
ATOM     70  F   UNL     1     -23.370   0.393   0.060  1.00  0.00    -0.206 F 
ATOM     71  C   UNL     1     -22.787  -3.166  -0.224  1.00  0.00     0.022 A 
BRANCH  68  72
ATOM     72  S   UNL     1     -21.487  -5.057   1.359  1.00  0.00     0.124 S 
ATOM     73  O   UNL     1     -20.071  -4.735   1.518  1.00  0.00    -0.237 OA
ATOM     74  O   UNL     1     -22.191  -5.460   2.571  1.00  0.00    -0.237 OA
ATOM     75  O   UNL     1     -21.812  -5.831   0.163  1.00  0.00    -0.744 OA
ENDBRANCH  68  72
ENDBRANCH  51  65
BRANCH  52  76
ATOM     76  C   UNL     1     -20.910   6.769   7.697  1.00  0.00     0.023 A 
ATOM     77  C   UNL     1     -21.444   6.846   8.993  1.00  0.00     0.031 A 
ATOM     78  C   UNL     1     -20.252   7.902   7.189  1.00  0.00     0.131 A 
ATOM     79  C   UNL     1     -21.372   8.050   9.711  1.00  0.00     0.055 A 
ATOM     80  C   UNL     1     -20.128   9.079   7.931  1.00  0.00     0.041 A 
ATOM     81  F   UNL     1     -19.719   7.884   5.956  1.00  0.00    -0.206 F 
ATOM     82  C   UNL     1     -20.707   9.164   9.193  1.00  0.00     0.022 A 
BRANCH  79  83
ATOM     83  S   UNL     1     -22.273   8.178  11.281  1.00  0.00     0.124 S 
ATOM     84  O   UNL     1     -23.625   7.806  10.878  1.00  0.00    -0.237 OA
ATOM     85  O   UNL     1     -21.563   7.214  12.114  1.00  0.00    -0.237 OA
ATOM     86  O   UNL     1     -22.097   9.578  11.660  1.00  0.00    -0.744 OA
ENDBRANCH  79  83
ENDBRANCH  52  76
BRANCH  64  87
ATOM     87  C   UNL     1     -26.617   3.589   5.277  1.00  0.00     0.023 A 
ATOM     88  C   UNL     1     -27.247   4.746   4.788  1.00  0.00     0.031 A 
ATOM     89  C   UNL     1     -27.393   2.666   6.000  1.00  0.00     0.131 A 
ATOM     90  C   UNL     1     -28.601   4.978   5.077  1.00  0.00     0.055 A 
ATOM     91  C   UNL     1     -28.753   2.873   6.232  1.00  0.00     0.041 A 
ATOM     92  F   UNL     1     -26.841   1.545   6.491  1.00  0.00    -0.206 F 
ATOM     93  C   UNL     1     -29.361   4.041   5.781  1.00  0.00     0.022 A 
BRANCH  90  94
ATOM     94  S   UNL     1     -29.334   6.565   4.595  1.00  0.00     0.124 S 
ATOM     95  O   UNL     1     -28.488   7.519   5.305  1.00  0.00    -0.237 OA
ATOM     96  O   UNL     1     -29.193   6.547   3.143  1.00  0.00    -0.237 OA
ATOM     97  O   UNL     1     -30.708   6.471   5.084  1.00  0.00    -0.744 OA
ENDBRANCH  90  94
ENDBRANCH  64  87
ENDBRANCH  38  39
ENDBRANCH  30  33
ENDBRANCH  28  29
ENDBRANCH   1  28
TORSDOF 16
