REMARK SMILES O=C(Cn1cccc1C(=O)NCCCCNC(=O)c1ccc(-c2c3nc(c(-c4cc(S(=O)(=O)[O-])ccc4F)c4ccc([nH]4)c(-c4cc(S(=O)(=O)[O-])ccc4F)c4nc(c(-c5cc(S(=O)(=O)[O-])ccc5F)c5ccc2[nH]5)C=C4)C=C3)cc1)NCC1CCCC1
REMARK SMILES IDX 13 1 12 2 11 3 9 4 10 5 8 7 4 8 5 9 6 10 7 11 3 12 2 13 1 14
REMARK SMILES IDX 82 15 83 17 84 18 85 19 88 20 86 21 87 22 14 23 15 24 16 25
REMARK SMILES IDX 17 26 18 28 19 29 20 30 81 31 21 32 80 33 22 34 23 35 24 36
REMARK SMILES IDX 74 37 25 38 79 39 73 40 75 41 26 42 78 43 72 44 71 45 27 47
REMARK SMILES IDX 59 48 39 49 58 50 40 51 43 52 57 53 76 54 41 55 42 56 56 58
REMARK SMILES IDX 77 59 44 60 28 61 29 62 37 63 30 64 36 65 38 66 35 67 31 68
REMARK SMILES IDX 32 69 33 70 34 71 60 72 61 73 69 74 62 75 68 76 70 77 67 78
REMARK SMILES IDX 63 79 64 80 65 81 66 82 45 83 46 84 54 85 47 86 53 87 55 88
REMARK SMILES IDX 52 89 48 90 49 91 50 92 51 93
REMARK H PARENT 11 6 82 16 16 27 75 46 43 57
REMARK Flexibility Score: inf
ROOT
ATOM      1  C   UNL     1      -0.267  -1.472   1.510  1.00  0.00     0.023 C 
ENDROOT
BRANCH   1   2
ATOM      2  C   UNL     1       1.204  -1.737   1.794  1.00  0.00     0.116 C 
BRANCH   2   3
ATOM      3  N   UNL     1       1.623  -3.103   1.762  1.00  0.00    -0.351 N 
ATOM      4  C   UNL     1       2.697  -3.702   1.157  1.00  0.00     0.267 C 
ATOM      5  O   UNL     1       2.710  -4.930   1.320  1.00  0.00    -0.268 OA
ATOM      6  H   UNL     1       1.041  -3.719   2.261  1.00  0.00     0.163 HD
BRANCH   4   7
ATOM      7  C   UNL     1       3.740  -3.059   0.331  1.00  0.00     0.107 A 
ATOM      8  N   UNL     1       4.243  -1.768   0.120  1.00  0.00    -0.334 N 
ATOM      9  C   UNL     1       5.346  -1.837  -0.727  1.00  0.00     0.087 A 
ATOM     10  C   UNL     1       5.550  -3.131  -1.108  1.00  0.00     0.020 A 
ATOM     11  C   UNL     1       4.562  -3.883  -0.459  1.00  0.00     0.033 A 
BRANCH   8  12
ATOM     12  C   UNL     1       3.952  -0.480   0.755  1.00  0.00     0.222 C 
BRANCH  12  13
ATOM     13  C   UNL     1       3.022   0.437  -0.049  1.00  0.00     0.239 C 
ATOM     14  O   UNL     1       1.978   0.880   0.434  1.00  0.00    -0.273 OA
ATOM     15  N   UNL     1       3.435   0.810  -1.311  1.00  0.00    -0.354 N 
ATOM     16  H   UNL     1       4.305   0.494  -1.645  1.00  0.00     0.163 HD
BRANCH  15  17
ATOM     17  C   UNL     1       2.613   1.662  -2.160  1.00  0.00     0.119 C 
BRANCH  17  18
ATOM     18  C   UNL     1       3.002   3.136  -2.027  1.00  0.00     0.008 C 
ATOM     19  C   UNL     1       3.648   3.703  -3.292  1.00  0.00     0.005 C 
ATOM     20  C   UNL     1       1.811   4.080  -1.847  1.00  0.00     0.005 C 
ATOM     21  C   UNL     1       3.600   5.210  -3.071  1.00  0.00     0.000 C 
ATOM     22  C   UNL     1       2.359   5.460  -2.214  1.00  0.00     0.000 C 
ENDBRANCH  17  18
ENDBRANCH  15  17
ENDBRANCH  12  13
ENDBRANCH   8  12
ENDBRANCH   4   7
ENDBRANCH   2   3
ENDBRANCH   1   2
BRANCH   1  23
ATOM     23  C   UNL     1      -1.258  -1.744   2.641  1.00  0.00     0.023 C 
BRANCH  23  24
ATOM     24  C   UNL     1      -0.962  -1.036   3.966  1.00  0.00     0.116 C 
BRANCH  24  25
ATOM     25  N   UNL     1      -0.939   0.412   3.831  1.00  0.00    -0.352 N 
ATOM     26  C   UNL     1      -0.930   1.376   4.814  1.00  0.00     0.251 C 
ATOM     27  H   UNL     1      -0.929   0.751   2.906  1.00  0.00     0.163 HD
ATOM     28  O   UNL     1      -1.247   2.523   4.538  1.00  0.00    -0.269 OA
BRANCH  26  29
ATOM     29  C   UNL     1      -0.554   1.036   6.205  1.00  0.00     0.039 A 
ATOM     30  C   UNL     1      -1.312   1.581   7.251  1.00  0.00     0.014 A 
ATOM     31  C   UNL     1       0.574   0.256   6.482  1.00  0.00     0.014 A 
ATOM     32  C   UNL     1      -0.990   1.278   8.571  1.00  0.00     0.010 A 
ATOM     33  C   UNL     1       0.896  -0.056   7.801  1.00  0.00     0.010 A 
ATOM     34  C   UNL     1       0.093   0.429   8.842  1.00  0.00    -0.014 A 
BRANCH  34  35
ATOM     35  C   UNL     1       0.209  -0.170  10.195  1.00  0.00     0.031 A 
ATOM     36  C   UNL     1      -0.807  -1.370  10.349  1.00  0.00     0.074 A 
ATOM     37  C   UNL     1       1.141   0.400  11.026  1.00  0.00     0.049 A 
ATOM     38  N   UNL     1      -1.335  -1.944  11.394  1.00  0.00    -0.248 NA
ATOM     39  C   UNL     1      -1.367  -1.978   9.098  1.00  0.00     0.031 C 
ATOM     40  C   UNL     1       2.058   1.522  10.686  1.00  0.00     0.029 A 
ATOM     41  N   UNL     1       1.521   0.164  12.325  1.00  0.00    -0.354 N 
ATOM     42  C   UNL     1      -2.048  -3.093  10.943  1.00  0.00     0.074 A 
ATOM     43  C   UNL     1      -2.138  -2.979   9.523  1.00  0.00     0.031 C 
ATOM     44  C   UNL     1       2.787   1.917  11.762  1.00  0.00     0.029 A 
ATOM     45  C   UNL     1       2.438   1.102  12.906  1.00  0.00     0.049 A 
ATOM     46  H   UNL     1       1.181  -0.609  12.832  1.00  0.00     0.167 HD
ATOM     47  C   UNL     1      -2.376  -4.157  11.739  1.00  0.00     0.034 A 
ATOM     48  C   UNL     1       2.805   1.227  14.229  1.00  0.00     0.034 A 
ATOM     49  C   UNL     1      -1.987  -3.903  13.081  1.00  0.00     0.049 A 
ATOM     50  C   UNL     1       2.092   0.102  14.845  1.00  0.00     0.074 A 
ATOM     51  C   UNL     1      -2.556  -3.400  14.223  1.00  0.00     0.029 A 
ATOM     52  N   UNL     1      -0.698  -4.259  13.372  1.00  0.00    -0.354 N 
ATOM     53  N   UNL     1       2.439  -1.139  14.749  1.00  0.00    -0.248 NA
ATOM     54  C   UNL     1       0.763   0.385  15.378  1.00  0.00     0.031 C 
ATOM     55  C   UNL     1      -1.485  -3.270  15.145  1.00  0.00     0.029 A 
ATOM     56  C   UNL     1      -0.308  -3.500  14.434  1.00  0.00     0.049 A 
ATOM     57  H   UNL     1      -0.156  -4.935  12.905  1.00  0.00     0.167 HD
ATOM     58  C   UNL     1       1.276  -1.827  14.980  1.00  0.00     0.074 A 
ATOM     59  C   UNL     1       0.298  -0.855  15.456  1.00  0.00     0.031 C 
ATOM     60  C   UNL     1       1.054  -3.056  14.453  1.00  0.00     0.034 A 
BRANCH  47  61
ATOM     61  C   UNL     1      -2.745  -5.617  11.453  1.00  0.00     0.023 A 
ATOM     62  C   UNL     1      -3.063  -6.409  12.594  1.00  0.00     0.031 A 
ATOM     63  C   UNL     1      -2.449  -6.338  10.288  1.00  0.00     0.131 A 
ATOM     64  C   UNL     1      -2.894  -7.801  12.612  1.00  0.00     0.055 A 
ATOM     65  C   UNL     1      -2.371  -7.747  10.283  1.00  0.00     0.041 A 
ATOM     66  F   UNL     1      -2.143  -5.724   9.138  1.00  0.00    -0.206 F 
ATOM     67  C   UNL     1      -2.545  -8.481  11.456  1.00  0.00     0.022 A 
BRANCH  64  68
ATOM     68  S   UNL     1      -2.941  -8.648  14.222  1.00  0.00     0.124 S 
ATOM     69  O   UNL     1      -1.912  -7.940  14.974  1.00  0.00    -0.237 OA
ATOM     70  O   UNL     1      -4.318  -8.415  14.650  1.00  0.00    -0.237 OA
ATOM     71  O   UNL     1      -2.625 -10.035  13.886  1.00  0.00    -0.744 OA
ENDBRANCH  64  68
ENDBRANCH  47  61
BRANCH  48  72
ATOM     72  C   UNL     1       3.518   2.151  15.217  1.00  0.00     0.023 A 
ATOM     73  C   UNL     1       4.354   3.245  14.927  1.00  0.00     0.031 A 
ATOM     74  C   UNL     1       3.281   1.952  16.622  1.00  0.00     0.131 A 
ATOM     75  C   UNL     1       4.822   4.095  15.982  1.00  0.00     0.055 A 
ATOM     76  C   UNL     1       3.674   2.828  17.634  1.00  0.00     0.041 A 
ATOM     77  F   UNL     1       2.627   0.880  17.092  1.00  0.00    -0.206 F 
ATOM     78  C   UNL     1       4.436   3.923  17.314  1.00  0.00     0.022 A 
BRANCH  75  79
ATOM     79  S   UNL     1       5.957   5.486  15.663  1.00  0.00     0.124 S 
ATOM     80  O   UNL     1       7.260   4.833  15.712  1.00  0.00    -0.237 OA
ATOM     81  O   UNL     1       5.525   5.964  14.354  1.00  0.00    -0.237 OA
ATOM     82  O   UNL     1       5.685   6.405  16.769  1.00  0.00    -0.744 OA
ENDBRANCH  75  79
ENDBRANCH  48  72
BRANCH  60  83
ATOM     83  C   UNL     1       2.173  -3.571  13.546  1.00  0.00     0.023 A 
ATOM     84  C   UNL     1       3.378  -4.056  14.069  1.00  0.00     0.031 A 
ATOM     85  C   UNL     1       2.107  -3.466  12.136  1.00  0.00     0.131 A 
ATOM     86  C   UNL     1       4.438  -4.414  13.206  1.00  0.00     0.055 A 
ATOM     87  C   UNL     1       3.149  -3.831  11.278  1.00  0.00     0.041 A 
ATOM     88  F   UNL     1       1.008  -3.006  11.536  1.00  0.00    -0.206 F 
ATOM     89  C   UNL     1       4.329  -4.309  11.816  1.00  0.00     0.022 A 
BRANCH  86  90
ATOM     90  S   UNL     1       5.985  -5.038  13.914  1.00  0.00     0.124 S 
ATOM     91  O   UNL     1       6.534  -3.856  14.568  1.00  0.00    -0.237 OA
ATOM     92  O   UNL     1       5.521  -6.103  14.798  1.00  0.00    -0.237 OA
ATOM     93  O   UNL     1       6.736  -5.500  12.745  1.00  0.00    -0.744 OA
ENDBRANCH  86  90
ENDBRANCH  60  83
ENDBRANCH  34  35
ENDBRANCH  26  29
ENDBRANCH  24  25
ENDBRANCH  23  24
ENDBRANCH   1  23
TORSDOF 18
