REMARK SMILES Cc1cc([N+](=O)[O-])ccc1NC(=O)[C@@H]1[C@@H](C(=O)NCCCCNC(=O)c2ccc(-c3c4nc(c(-c5cc(S(=O)(=O)[O-])ccc5F)c5ccc([nH]5)c(-c5cc(S(=O)(=O)[O-])ccc5F)c5nc(c(-c6cc(S(=O)(=O)[O-])ccc6F)c6ccc3[nH]6)C=C5)C=C4)cc2)[C@H]2C=C[C@@H]1C2
REMARK SMILES IDX 20 1 19 2 18 3 16 4 17 5 15 7 14 8 92 9 89 10 91 11 93 12
REMARK SMILES IDX 90 13 12 14 11 15 13 17 10 18 1 19 2 20 3 21 4 22 9 23 8 24
REMARK SMILES IDX 5 25 6 26 7 27 21 28 22 29 23 30 24 31 25 33 26 34 27 35
REMARK SMILES IDX 88 36 28 37 87 38 29 39 30 40 31 41 81 42 32 43 86 44 80 45
REMARK SMILES IDX 82 46 33 47 85 48 79 49 78 50 34 52 66 53 46 54 65 55 47 56
REMARK SMILES IDX 50 57 64 58 83 59 48 60 49 61 63 63 84 64 51 65 35 66 36 67
REMARK SMILES IDX 44 68 37 69 43 70 45 71 42 72 38 73 39 74 40 75 41 76 67 77
REMARK SMILES IDX 68 78 76 79 69 80 75 81 77 82 74 83 70 84 71 85 72 86 73 87
REMARK SMILES IDX 52 88 53 89 61 90 54 91 60 92 62 93 59 94 55 95 56 96 57 97
REMARK SMILES IDX 58 98
REMARK H PARENT 18 6 11 16 23 32 82 51 50 62
REMARK Flexibility Score: inf
ROOT
ATOM      1  C   UNL     1      -2.996   9.339   0.325  1.00  0.00     0.023 C 
ENDROOT
BRANCH   1   2
ATOM      2  C   UNL     1      -3.402   7.896   0.641  1.00  0.00     0.116 C 
BRANCH   2   3
ATOM      3  N   UNL     1      -3.264   6.999  -0.498  1.00  0.00    -0.356 N 
ATOM      4  C   UNL     1      -2.655   5.787  -0.611  1.00  0.00     0.224 C 
ATOM      5  O   UNL     1      -2.691   5.249  -1.723  1.00  0.00    -0.275 OA
ATOM      6  H   UNL     1      -3.684   7.324  -1.327  1.00  0.00     0.163 HD
BRANCH   4   7
ATOM      7  C   UNL     1      -1.867   5.183   0.548  1.00  0.00     0.098 C 
ATOM      8  C   UNL     1      -1.409   3.696   0.229  1.00  0.00     0.099 C 
ATOM      9  C   UNL     1      -1.842   2.937   1.512  1.00  0.00     0.025 C 
ATOM     10  C   UNL     1      -2.652   4.984   1.872  1.00  0.00     0.025 C 
ATOM     11  C   UNL     1      -3.347   2.828   1.462  1.00  0.00    -0.027 C 
ATOM     12  C   UNL     1      -1.717   4.010   2.591  1.00  0.00     0.017 C 
ATOM     13  C   UNL     1      -3.831   4.062   1.659  1.00  0.00    -0.027 C 
BRANCH   8  14
ATOM     14  C   UNL     1       0.070   3.522  -0.067  1.00  0.00     0.228 C 
ATOM     15  N   UNL     1       0.631   2.289  -0.295  1.00  0.00    -0.326 N 
ATOM     16  H   UNL     1       1.603   2.332  -0.448  1.00  0.00     0.169 HD
ATOM     17  O   UNL     1       0.846   4.484  -0.084  1.00  0.00    -0.274 OA
BRANCH  15  18
ATOM     18  C   UNL     1       0.121   0.973  -0.359  1.00  0.00     0.044 A 
ATOM     19  C   UNL     1       2.468   0.009   0.152  1.00  0.00     0.047 C 
ATOM     20  C   UNL     1       0.983  -0.115  -0.079  1.00  0.00    -0.021 A 
ATOM     21  C   UNL     1       0.453  -1.423  -0.013  1.00  0.00     0.091 A 
ATOM     22  C   UNL     1      -0.908  -1.654  -0.233  1.00  0.00     0.269 A 
ATOM     23  C   UNL     1      -1.215   0.693  -0.675  1.00  0.00     0.033 A 
ATOM     24  C   UNL     1      -1.742  -0.601  -0.592  1.00  0.00     0.088 A 
BRANCH  22  25
ATOM     25  N   UNL     1      -1.455  -3.007  -0.088  1.00  0.00     0.062 N 
ATOM     26  O   UNL     1      -0.651  -3.938   0.067  1.00  0.00    -0.258 OA
ATOM     27  O   UNL     1      -2.686  -3.141  -0.123  1.00  0.00    -0.258 OA
ENDBRANCH  22  25
ENDBRANCH  15  18
ENDBRANCH   8  14
ENDBRANCH   4   7
ENDBRANCH   2   3
ENDBRANCH   1   2
BRANCH   1  28
ATOM     28  C   UNL     1      -3.725   9.999  -0.842  1.00  0.00     0.023 C 
BRANCH  28  29
ATOM     29  C   UNL     1      -5.229  10.161  -0.654  1.00  0.00     0.116 C 
BRANCH  29  30
ATOM     30  N   UNL     1      -5.628  11.430  -0.063  1.00  0.00    -0.352 N 
ATOM     31  C   UNL     1      -6.906  11.944   0.128  1.00  0.00     0.251 C 
ATOM     32  H   UNL     1      -4.890  12.005   0.245  1.00  0.00     0.163 HD
ATOM     33  O   UNL     1      -7.086  13.056   0.571  1.00  0.00    -0.269 OA
BRANCH  31  34
ATOM     34  C   UNL     1      -8.066  11.041  -0.102  1.00  0.00     0.039 A 
ATOM     35  C   UNL     1      -8.954  10.861   0.965  1.00  0.00     0.014 A 
ATOM     36  C   UNL     1      -8.152  10.233  -1.232  1.00  0.00     0.014 A 
ATOM     37  C   UNL     1      -9.761   9.727   0.999  1.00  0.00     0.010 A 
ATOM     38  C   UNL     1      -8.882   9.061  -1.159  1.00  0.00     0.010 A 
ATOM     39  C   UNL     1      -9.635   8.775  -0.015  1.00  0.00    -0.014 A 
BRANCH  39  40
ATOM     40  C   UNL     1     -10.104   7.401   0.139  1.00  0.00     0.031 A 
ATOM     41  C   UNL     1     -11.281   6.894  -0.593  1.00  0.00     0.074 A 
ATOM     42  C   UNL     1      -9.439   6.559   0.959  1.00  0.00     0.049 A 
ATOM     43  N   UNL     1     -12.074   5.975  -0.147  1.00  0.00    -0.248 NA
ATOM     44  C   UNL     1     -11.675   7.416  -1.894  1.00  0.00     0.031 C 
ATOM     45  C   UNL     1      -9.611   5.114   1.082  1.00  0.00     0.029 A 
ATOM     46  N   UNL     1      -8.622   6.897   2.028  1.00  0.00    -0.354 N 
ATOM     47  C   UNL     1     -12.870   5.573  -1.195  1.00  0.00     0.074 A 
ATOM     48  C   UNL     1     -12.639   6.555  -2.233  1.00  0.00     0.031 C 
ATOM     49  C   UNL     1      -9.141   4.722   2.277  1.00  0.00     0.029 A 
ATOM     50  C   UNL     1      -8.772   5.916   3.016  1.00  0.00     0.049 A 
ATOM     51  H   UNL     1      -8.040   7.689   2.083  1.00  0.00     0.167 HD
ATOM     52  C   UNL     1     -13.514   4.371  -1.144  1.00  0.00     0.034 A 
ATOM     53  C   UNL     1      -9.212   6.242   4.267  1.00  0.00     0.034 A 
ATOM     54  C   UNL     1     -13.264   3.665   0.113  1.00  0.00     0.049 A 
ATOM     55  C   UNL     1     -10.515   5.568   4.642  1.00  0.00     0.074 A 
ATOM     56  C   UNL     1     -12.412   2.622   0.442  1.00  0.00     0.029 A 
ATOM     57  N   UNL     1     -13.734   4.181   1.317  1.00  0.00    -0.354 N 
ATOM     58  N   UNL     1     -11.303   4.976   3.788  1.00  0.00    -0.248 NA
ATOM     59  C   UNL     1     -11.044   5.535   6.002  1.00  0.00     0.031 C 
ATOM     60  C   UNL     1     -12.323   2.554   1.854  1.00  0.00     0.029 A 
ATOM     61  C   UNL     1     -13.140   3.536   2.387  1.00  0.00     0.049 A 
ATOM     62  H   UNL     1     -14.396   4.905   1.396  1.00  0.00     0.167 HD
ATOM     63  C   UNL     1     -12.426   4.523   4.434  1.00  0.00     0.074 A 
ATOM     64  C   UNL     1     -12.200   4.871   5.826  1.00  0.00     0.031 C 
ATOM     65  C   UNL     1     -13.449   3.914   3.760  1.00  0.00     0.034 A 
BRANCH  52  66
ATOM     66  C   UNL     1     -14.076   3.690  -2.375  1.00  0.00     0.023 A 
ATOM     67  C   UNL     1     -14.038   2.283  -2.474  1.00  0.00     0.031 A 
ATOM     68  C   UNL     1     -14.608   4.356  -3.495  1.00  0.00     0.131 A 
ATOM     69  C   UNL     1     -14.378   1.618  -3.666  1.00  0.00     0.055 A 
ATOM     70  C   UNL     1     -14.884   3.705  -4.706  1.00  0.00     0.041 A 
ATOM     71  F   UNL     1     -14.925   5.658  -3.448  1.00  0.00    -0.206 F 
ATOM     72  C   UNL     1     -14.750   2.328  -4.803  1.00  0.00     0.022 A 
BRANCH  69  73
ATOM     73  S   UNL     1     -14.338  -0.196  -3.707  1.00  0.00     0.124 S 
ATOM     74  O   UNL     1     -12.952  -0.485  -3.352  1.00  0.00    -0.237 OA
ATOM     75  O   UNL     1     -15.346  -0.548  -2.713  1.00  0.00    -0.237 OA
ATOM     76  O   UNL     1     -14.699  -0.511  -5.089  1.00  0.00    -0.744 OA
ENDBRANCH  69  73
ENDBRANCH  52  66
BRANCH  53  77
ATOM     77  C   UNL     1      -8.781   7.601   4.706  1.00  0.00     0.023 A 
ATOM     78  C   UNL     1      -7.392   7.860   4.718  1.00  0.00     0.031 A 
ATOM     79  C   UNL     1      -9.653   8.696   4.720  1.00  0.00     0.131 A 
ATOM     80  C   UNL     1      -6.914   9.168   4.564  1.00  0.00     0.055 A 
ATOM     81  C   UNL     1      -9.169  10.009   4.643  1.00  0.00     0.041 A 
ATOM     82  F   UNL     1     -10.981   8.515   4.679  1.00  0.00    -0.206 F 
ATOM     83  C   UNL     1      -7.798  10.247   4.517  1.00  0.00     0.022 A 
BRANCH  80  84
ATOM     84  S   UNL     1      -5.161   9.423   4.147  1.00  0.00     0.124 S 
ATOM     85  O   UNL     1      -4.583   9.764   5.441  1.00  0.00    -0.237 OA
ATOM     86  O   UNL     1      -4.754   8.134   3.592  1.00  0.00    -0.237 OA
ATOM     87  O   UNL     1      -5.201  10.502   3.163  1.00  0.00    -0.744 OA
ENDBRANCH  80  84
ENDBRANCH  53  77
BRANCH  65  88
ATOM     88  C   UNL     1     -14.787   3.528   4.353  1.00  0.00     0.023 A 
ATOM     89  C   UNL     1     -15.313   4.109   5.516  1.00  0.00     0.031 A 
ATOM     90  C   UNL     1     -15.624   2.586   3.705  1.00  0.00     0.131 A 
ATOM     91  C   UNL     1     -16.552   3.695   6.040  1.00  0.00     0.055 A 
ATOM     92  C   UNL     1     -16.890   2.234   4.184  1.00  0.00     0.041 A 
ATOM     93  F   UNL     1     -15.249   1.970   2.574  1.00  0.00    -0.206 F 
ATOM     94  C   UNL     1     -17.355   2.775   5.372  1.00  0.00     0.022 A 
BRANCH  91  95
ATOM     95  S   UNL     1     -17.059   4.338   7.658  1.00  0.00     0.124 S 
ATOM     96  O   UNL     1     -15.987   3.851   8.523  1.00  0.00    -0.237 OA
ATOM     97  O   UNL     1     -17.083   5.778   7.430  1.00  0.00    -0.237 OA
ATOM     98  O   UNL     1     -18.364   3.720   7.883  1.00  0.00    -0.744 OA
ENDBRANCH  91  95
ENDBRANCH  65  88
ENDBRANCH  39  40
ENDBRANCH  31  34
ENDBRANCH  29  30
ENDBRANCH  28  29
ENDBRANCH   1  28
TORSDOF 17
