REMARK SMILES Cc1ccccc1C(=O)Nc1cc(C(=O)NCCCCNC(=O)c2ccc(-c3c4nc(c(-c5cc(S(=O)(=O)[O-])ccc5F)c5ccc([nH]5)c(-c5cc(S(=O)(=O)[O-])ccc5F)c5nc(c(-c6cc(S(=O)(=O)[O-])ccc6F)c6ccc3[nH]6)C=C5)C=C4)cc2)ccc1N1CC[NH+](CC(=O)Nc2ccc(F)cc2)CC1
REMARK SMILES IDX 18 1 17 2 16 3 14 4 15 5 13 7 11 8 12 9 89 10 88 11 87 12
REMARK SMILES IDX 10 13 8 14 9 15 7 17 1 18 2 19 3 20 4 21 6 22 5 23 90 24
REMARK SMILES IDX 91 25 106 26 92 27 105 28 93 29 94 31 95 32 96 33 97 34
REMARK SMILES IDX 98 36 99 37 104 38 100 39 103 40 101 41 102 42 19 43 20 44
REMARK SMILES IDX 21 45 22 46 23 48 24 49 25 50 86 51 26 52 85 53 27 54 28 55
REMARK SMILES IDX 29 56 79 57 30 58 84 59 78 60 80 61 31 62 83 63 77 64 76 65
REMARK SMILES IDX 32 67 64 68 44 69 63 70 45 71 48 72 62 73 81 74 46 75 47 76
REMARK SMILES IDX 61 78 82 79 49 80 33 81 34 82 42 83 35 84 41 85 43 86 40 87
REMARK SMILES IDX 36 88 37 89 38 90 39 91 65 92 66 93 74 94 67 95 73 96 75 97
REMARK SMILES IDX 72 98 68 99 69 100 70 101 71 102 50 103 51 104 59 105 52 106
REMARK SMILES IDX 58 107 60 108 57 109 53 110 54 111 55 112 56 113
REMARK H PARENT 16 6 10 16 93 30 97 35 21 47 80 66 48 77
REMARK Flexibility Score: inf
ROOT
ATOM      1  C   UNL     1       1.513  -0.054  -4.177  1.00  0.00     0.023 C 
ENDROOT
BRANCH   1   2
ATOM      2  C   UNL     1       1.379  -1.188  -3.143  1.00  0.00     0.116 C 
BRANCH   2   3
ATOM      3  N   UNL     1       2.566  -2.037  -3.065  1.00  0.00    -0.352 N 
ATOM      4  C   UNL     1       3.776  -1.925  -2.416  1.00  0.00     0.251 C 
ATOM      5  O   UNL     1       4.549  -2.883  -2.502  1.00  0.00    -0.269 OA
ATOM      6  H   UNL     1       2.484  -2.867  -3.588  1.00  0.00     0.163 HD
BRANCH   4   7
ATOM      7  C   UNL     1       4.207  -0.740  -1.611  1.00  0.00     0.042 A 
ATOM      8  C   UNL     1       3.846   1.443  -0.626  1.00  0.00     0.065 A 
ATOM      9  C   UNL     1       3.462   0.413  -1.481  1.00  0.00     0.042 A 
ATOM     10  C   UNL     1       5.072   1.432   0.090  1.00  0.00     0.061 A 
ATOM     11  C   UNL     1       5.859   0.288  -0.104  1.00  0.00     0.029 A 
ATOM     12  C   UNL     1       5.425  -0.787  -0.913  1.00  0.00     0.016 A 
BRANCH   8  13
ATOM     13  N   UNL     1       2.935   2.501  -0.490  1.00  0.00    -0.320 N 
ATOM     14  C   UNL     1       1.681   2.422   0.105  1.00  0.00     0.255 C 
ATOM     15  O   UNL     1       1.202   3.454   0.581  1.00  0.00    -0.269 OA
ATOM     16  H   UNL     1       3.207   3.377  -0.848  1.00  0.00     0.170 HD
BRANCH  14  17
ATOM     17  C   UNL     1       0.913   1.153   0.215  1.00  0.00     0.043 A 
ATOM     18  C   UNL     1       2.477  -0.200   1.778  1.00  0.00     0.045 C 
ATOM     19  C   UNL     1       1.266  -0.025   0.913  1.00  0.00    -0.038 A 
ATOM     20  C   UNL     1       0.423  -1.152   0.809  1.00  0.00     0.004 A 
ATOM     21  C   UNL     1      -0.766  -1.094   0.090  1.00  0.00     0.000 A 
ATOM     22  C   UNL     1      -0.309   1.209  -0.460  1.00  0.00     0.014 A 
ATOM     23  C   UNL     1      -1.132   0.093  -0.528  1.00  0.00     0.001 A 
ENDBRANCH  14  17
ENDBRANCH   8  13
BRANCH  10  24
ATOM     24  N   UNL     1       5.435   2.437   0.978  1.00  0.00    -0.359 N 
ATOM     25  C   UNL     1       6.780   2.623   1.572  1.00  0.00     0.178 C 
ATOM     26  C   UNL     1       4.417   3.050   1.826  1.00  0.00     0.178 C 
ATOM     27  C   UNL     1       6.976   4.073   2.199  1.00  0.00     0.284 C 
ATOM     28  C   UNL     1       4.664   4.555   1.801  1.00  0.00     0.284 C 
ATOM     29  N   UNL     1       5.806   4.870   2.655  1.00  0.00    -0.324 N 
ATOM     30  H   UNL     1       6.102   5.840   2.551  1.00  0.00     0.348 HD
BRANCH  29  31
ATOM     31  C   UNL     1       5.459   4.873   4.098  1.00  0.00     0.364 C 
BRANCH  31  32
ATOM     32  C   UNL     1       5.299   3.527   4.805  1.00  0.00     0.279 C 
ATOM     33  O   UNL     1       6.308   2.837   5.023  1.00  0.00    -0.268 OA
ATOM     34  N   UNL     1       4.120   3.024   5.285  1.00  0.00    -0.321 N 
ATOM     35  H   UNL     1       4.283   2.299   5.931  1.00  0.00     0.170 HD
BRANCH  34  36
ATOM     36  C   UNL     1       2.734   3.249   5.115  1.00  0.00     0.041 A 
ATOM     37  C   UNL     1       1.878   2.432   5.879  1.00  0.00     0.029 A 
ATOM     38  C   UNL     1       2.142   4.115   4.202  1.00  0.00     0.029 A 
ATOM     39  C   UNL     1       0.487   2.457   5.704  1.00  0.00     0.041 A 
ATOM     40  C   UNL     1       0.753   4.105   3.981  1.00  0.00     0.041 A 
ATOM     41  C   UNL     1      -0.063   3.280   4.736  1.00  0.00     0.123 A 
ATOM     42  F   UNL     1      -1.387   3.286   4.543  1.00  0.00    -0.207 F 
ENDBRANCH  34  36
ENDBRANCH  31  32
ENDBRANCH  29  31
ENDBRANCH  10  24
ENDBRANCH   4   7
ENDBRANCH   2   3
ENDBRANCH   1   2
BRANCH   1  43
ATOM     43  C   UNL     1       1.305  -0.505  -5.620  1.00  0.00     0.023 C 
BRANCH  43  44
ATOM     44  C   UNL     1      -0.146  -0.862  -5.913  1.00  0.00     0.116 C 
BRANCH  44  45
ATOM     45  N   UNL     1      -0.881   0.096  -6.724  1.00  0.00    -0.352 N 
ATOM     46  C   UNL     1      -2.219   0.074  -7.093  1.00  0.00     0.251 C 
ATOM     47  H   UNL     1      -0.359   0.863  -7.055  1.00  0.00     0.163 HD
ATOM     48  O   UNL     1      -2.664   0.891  -7.883  1.00  0.00    -0.269 OA
BRANCH  46  49
ATOM     49  C   UNL     1      -3.143  -0.885  -6.428  1.00  0.00     0.039 A 
ATOM     50  C   UNL     1      -4.365  -0.391  -5.949  1.00  0.00     0.014 A 
ATOM     51  C   UNL     1      -2.735  -2.171  -6.092  1.00  0.00     0.014 A 
ATOM     52  C   UNL     1      -5.040  -1.083  -4.946  1.00  0.00     0.010 A 
ATOM     53  C   UNL     1      -3.322  -2.791  -5.011  1.00  0.00     0.010 A 
ATOM     54  C   UNL     1      -4.438  -2.215  -4.400  1.00  0.00    -0.014 A 
BRANCH  54  55
ATOM     55  C   UNL     1      -4.810  -2.803  -3.121  1.00  0.00     0.031 A 
ATOM     56  C   UNL     1      -5.472  -4.115  -3.072  1.00  0.00     0.074 A 
ATOM     57  C   UNL     1      -4.419  -2.194  -1.982  1.00  0.00     0.049 A 
ATOM     58  N   UNL     1      -6.090  -4.579  -2.042  1.00  0.00    -0.248 NA
ATOM     59  C   UNL     1      -5.562  -4.988  -4.235  1.00  0.00     0.031 C 
ATOM     60  C   UNL     1      -4.390  -2.741  -0.629  1.00  0.00     0.029 A 
ATOM     61  N   UNL     1      -4.175  -0.840  -1.799  1.00  0.00    -0.354 N 
ATOM     62  C   UNL     1      -6.368  -5.904  -2.284  1.00  0.00     0.074 A 
ATOM     63  C   UNL     1      -6.154  -6.059  -3.700  1.00  0.00     0.031 C 
ATOM     64  C   UNL     1      -4.455  -1.722   0.244  1.00  0.00     0.029 A 
ATOM     65  C   UNL     1      -4.670  -0.512  -0.532  1.00  0.00     0.049 A 
ATOM     66  H   UNL     1      -3.738  -0.229  -2.436  1.00  0.00     0.167 HD
ATOM     67  C   UNL     1      -6.592  -6.725  -1.217  1.00  0.00     0.034 A 
ATOM     68  C   UNL     1      -5.652   0.410  -0.324  1.00  0.00     0.034 A 
ATOM     69  C   UNL     1      -6.768  -5.935   0.013  1.00  0.00     0.049 A 
ATOM     70  C   UNL     1      -6.836  -0.226   0.381  1.00  0.00     0.074 A 
ATOM     71  C   UNL     1      -5.970  -5.707   1.123  1.00  0.00     0.029 A 
ATOM     72  N   UNL     1      -7.800  -4.996   0.081  1.00  0.00    -0.354 N 
ATOM     73  N   UNL     1      -7.063  -1.514   0.394  1.00  0.00    -0.248 NA
ATOM     74  C   UNL     1      -7.832   0.521   1.138  1.00  0.00     0.031 C 
ATOM     75  C   UNL     1      -6.476  -4.560   1.799  1.00  0.00     0.029 A 
ATOM     76  C   UNL     1      -7.609  -4.121   1.133  1.00  0.00     0.049 A 
ATOM     77  H   UNL     1      -8.563  -4.962  -0.540  1.00  0.00     0.167 HD
ATOM     78  C   UNL     1      -8.155  -1.785   1.177  1.00  0.00     0.074 A 
ATOM     79  C   UNL     1      -8.610  -0.471   1.607  1.00  0.00     0.031 C 
ATOM     80  C   UNL     1      -8.579  -3.065   1.419  1.00  0.00     0.034 A 
BRANCH  67  81
ATOM     81  C   UNL     1      -6.378  -8.237  -1.218  1.00  0.00     0.023 A 
ATOM     82  C   UNL     1      -6.273  -8.913   0.020  1.00  0.00     0.031 A 
ATOM     83  C   UNL     1      -6.168  -9.059  -2.348  1.00  0.00     0.131 A 
ATOM     84  C   UNL     1      -5.915 -10.278   0.095  1.00  0.00     0.055 A 
ATOM     85  C   UNL     1      -5.809 -10.412  -2.274  1.00  0.00     0.041 A 
ATOM     86  F   UNL     1      -6.306  -8.624  -3.600  1.00  0.00    -0.206 F 
ATOM     87  C   UNL     1      -5.668 -11.028  -1.048  1.00  0.00     0.022 A 
BRANCH  84  88
ATOM     88  S   UNL     1      -5.743 -11.072   1.717  1.00  0.00     0.124 S 
ATOM     89  O   UNL     1      -4.648 -10.316   2.315  1.00  0.00    -0.237 OA
ATOM     90  O   UNL     1      -7.065 -10.874   2.301  1.00  0.00    -0.237 OA
ATOM     91  O   UNL     1      -5.421 -12.460   1.383  1.00  0.00    -0.744 OA
ENDBRANCH  84  88
ENDBRANCH  67  81
BRANCH  68  92
ATOM     92  C   UNL     1      -5.698   1.483  -1.364  1.00  0.00     0.023 A 
ATOM     93  C   UNL     1      -4.527   2.257  -1.550  1.00  0.00     0.031 A 
ATOM     94  C   UNL     1      -6.636   1.463  -2.405  1.00  0.00     0.131 A 
ATOM     95  C   UNL     1      -4.244   2.820  -2.804  1.00  0.00     0.055 A 
ATOM     96  C   UNL     1      -6.378   2.094  -3.632  1.00  0.00     0.041 A 
ATOM     97  F   UNL     1      -7.745   0.717  -2.311  1.00  0.00    -0.206 F 
ATOM     98  C   UNL     1      -5.162   2.742  -3.850  1.00  0.00     0.022 A 
BRANCH  95  99
ATOM     99  S   UNL     1      -2.584   3.492  -3.116  1.00  0.00     0.124 S 
ATOM    100  O   UNL     1      -2.326   4.269  -1.910  1.00  0.00    -0.237 OA
ATOM    101  O   UNL     1      -1.796   2.271  -3.268  1.00  0.00    -0.237 OA
ATOM    102  O   UNL     1      -2.755   4.276  -4.336  1.00  0.00    -0.744 OA
ENDBRANCH  95  99
ENDBRANCH  68  92
BRANCH  80 103
ATOM    103  C   UNL     1      -9.906  -3.450   2.044  1.00  0.00     0.023 A 
ATOM    104  C   UNL     1     -10.990  -2.567   2.159  1.00  0.00     0.031 A 
ATOM    105  C   UNL     1     -10.160  -4.782   2.459  1.00  0.00     0.131 A 
ATOM    106  C   UNL     1     -12.209  -2.978   2.732  1.00  0.00     0.055 A 
ATOM    107  C   UNL     1     -11.398  -5.210   2.947  1.00  0.00     0.041 A 
ATOM    108  F   UNL     1      -9.220  -5.737   2.394  1.00  0.00    -0.206 F 
ATOM    109  C   UNL     1     -12.431  -4.301   3.102  1.00  0.00     0.022 A 
BRANCH 106 110
ATOM    110  S   UNL     1     -13.480  -1.724   3.032  1.00  0.00     0.124 S 
ATOM    111  O   UNL     1     -12.827  -0.868   4.019  1.00  0.00    -0.237 OA
ATOM    112  O   UNL     1     -13.663  -1.137   1.708  1.00  0.00    -0.237 OA
ATOM    113  O   UNL     1     -14.616  -2.495   3.532  1.00  0.00    -0.744 OA
ENDBRANCH 106 110
ENDBRANCH  80 103
ENDBRANCH  54  55
ENDBRANCH  46  49
ENDBRANCH  44  45
ENDBRANCH  43  44
ENDBRANCH   1  43
TORSDOF 20
