REMARK SMILES COc1ccc([C@H]2[NH2+][C@@H](C(=O)NCCCCNC(=O)c3ccc(-c4c5nc(c(-c6cc(S(=O)(=O)[O-])ccc6F)c6ccc([nH]6)c(-c6cc(S(=O)(=O)[O-])ccc6F)c6nc(c(-c7cc(S(=O)(=O)[O-])ccc7F)c7ccc4[nH]7)C=C6)C=C5)cc3)CC3=c4ccccc4=N[C@H]32)cc1Cn1cc([N+](=O)[O-])cn1
REMARK SMILES IDX 14 1 13 2 12 3 10 4 11 5 9 7 7 8 8 9 92 10 84 13 91 14 83 15
REMARK SMILES IDX 85 16 90 17 86 18 89 19 87 20 88 21 6 22 3 23 4 24 94 25
REMARK SMILES IDX 5 26 93 27 2 28 1 29 95 30 96 31 97 32 103 33 98 34 102 35
REMARK SMILES IDX 99 36 100 37 101 38 15 39 16 40 17 41 18 42 19 44 20 45
REMARK SMILES IDX 21 46 82 47 22 48 81 49 23 50 24 51 25 52 75 53 26 54 80 55
REMARK SMILES IDX 74 56 76 57 27 58 79 59 73 60 72 61 28 63 60 64 40 65 59 66
REMARK SMILES IDX 41 67 44 68 58 69 77 70 42 71 43 72 57 74 78 75 45 76 29 77
REMARK SMILES IDX 30 78 38 79 31 80 37 81 39 82 36 83 32 84 33 85 34 86 35 87
REMARK SMILES IDX 61 88 62 89 70 90 63 91 69 92 71 93 68 94 64 95 65 96 66 97
REMARK SMILES IDX 67 98 46 99 47 100 55 101 48 102 54 103 56 104 53 105 49 106
REMARK SMILES IDX 50 107 51 108 52 109
REMARK H PARENT 12 6 8 11 8 12 17 43 76 62 44 73
REMARK Flexibility Score: inf
ROOT
ATOM      1  C   UNL     1       4.203   2.621   7.680  1.00  0.00     0.023 C 
ENDROOT
BRANCH   1   2
ATOM      2  C   UNL     1       4.249   1.467   8.948  1.00  0.00     0.116 C 
BRANCH   2   3
ATOM      3  N   UNL     1       4.011  -0.046   9.102  1.00  0.00    -0.351 N 
ATOM      4  C   UNL     1       3.201  -1.147   9.075  1.00  0.00     0.278 C 
ATOM      5  O   UNL     1       3.741  -2.154   9.576  1.00  0.00    -0.268 OA
ATOM      6  H   UNL     1       4.896  -0.405   9.343  1.00  0.00     0.163 HD
BRANCH   4   7
ATOM      7  C   UNL     1       1.751  -1.367   8.527  1.00  0.00     0.277 C 
ATOM      8  C   UNL     1       2.266   0.066   6.619  1.00  0.00     0.243 C 
ATOM      9  N   UNL     1       1.526  -1.145   7.069  1.00  0.00    -0.327 N 
ATOM     10  C   UNL     1       1.244   1.196   7.579  1.00  0.00     0.196 C 
ATOM     11  H   UNL     1       1.858  -1.957   6.548  1.00  0.00     0.347 HD
ATOM     12  H   UNL     1       0.529  -1.010   6.900  1.00  0.00     0.347 HD
ATOM     13  C   UNL     1       0.945   0.805   9.024  1.00  0.00    -0.024 C 
ATOM     14  N   UNL     1       1.528   2.671   7.724  1.00  0.00    -0.270 NA
ATOM     15  C   UNL     1       0.712  -0.613   9.321  1.00  0.00     0.109 C 
ATOM     16  C   UNL     1       1.196   1.770   9.898  1.00  0.00     0.002 A 
ATOM     17  C   UNL     1       1.553   2.886   9.017  1.00  0.00     0.066 A 
ATOM     18  C   UNL     1       1.506   1.737  11.299  1.00  0.00     0.010 A 
ATOM     19  C   UNL     1       2.119   4.078   9.732  1.00  0.00     0.028 A 
ATOM     20  C   UNL     1       2.215   2.756  11.815  1.00  0.00     0.001 A 
ATOM     21  C   UNL     1       2.508   3.939  11.019  1.00  0.00     0.002 A 
BRANCH   8  22
ATOM     22  C   UNL     1       3.832  -0.512   6.421  1.00  0.00     0.012 A 
ATOM     23  C   UNL     1       6.476  -1.644   6.935  1.00  0.00     0.123 A 
ATOM     24  C   UNL     1       5.413  -2.386   6.359  1.00  0.00     0.047 A 
ATOM     25  C   UNL     1       6.324  -0.274   7.128  1.00  0.00     0.016 A 
ATOM     26  C   UNL     1       4.119  -1.849   6.127  1.00  0.00     0.014 A 
ATOM     27  C   UNL     1       5.043   0.181   6.682  1.00  0.00     0.019 A 
BRANCH  23  28
ATOM     28  O   UNL     1       7.585  -2.410   7.153  1.00  0.00    -0.496 OA
ATOM     29  C   UNL     1       8.385  -2.195   8.308  1.00  0.00     0.278 C 
ENDBRANCH  23  28
BRANCH  25  30
ATOM     30  C   UNL     1       7.320   0.545   8.040  1.00  0.00     0.183 C 
BRANCH  30  31
ATOM     31  N   UNL     1       7.580   2.029   8.117  1.00  0.00    -0.261 N 
ATOM     32  C   UNL     1       7.091   3.013   8.979  1.00  0.00     0.194 A 
ATOM     33  N   UNL     1       8.718   2.503   7.538  1.00  0.00    -0.174 NA
ATOM     34  C   UNL     1       7.597   4.215   8.510  1.00  0.00     0.307 A 
ATOM     35  C   UNL     1       8.697   3.826   7.752  1.00  0.00     0.220 A 
BRANCH  34  36
ATOM     36  N   UNL     1       7.048   5.530   8.679  1.00  0.00     0.066 N 
ATOM     37  O   UNL     1       7.709   6.480   8.245  1.00  0.00    -0.258 OA
ATOM     38  O   UNL     1       5.912   5.604   9.172  1.00  0.00    -0.258 OA
ENDBRANCH  34  36
ENDBRANCH  30  31
ENDBRANCH  25  30
ENDBRANCH   8  22
ENDBRANCH   4   7
ENDBRANCH   2   3
ENDBRANCH   1   2
BRANCH   1  39
ATOM     39  C   UNL     1       5.177   3.271   6.542  1.00  0.00     0.023 C 
BRANCH  39  40
ATOM     40  C   UNL     1       5.221   2.783   5.056  1.00  0.00     0.116 C 
BRANCH  40  41
ATOM     41  N   UNL     1       5.717   3.820   4.164  1.00  0.00    -0.352 N 
ATOM     42  C   UNL     1       6.976   4.282   3.865  1.00  0.00     0.251 C 
ATOM     43  H   UNL     1       5.003   4.288   3.673  1.00  0.00     0.163 HD
ATOM     44  O   UNL     1       7.042   5.379   3.304  1.00  0.00    -0.269 OA
BRANCH  42  45
ATOM     45  C   UNL     1       8.250   3.573   4.179  1.00  0.00     0.039 A 
ATOM     46  C   UNL     1       9.362   4.372   4.496  1.00  0.00     0.014 A 
ATOM     47  C   UNL     1       8.449   2.201   4.006  1.00  0.00     0.014 A 
ATOM     48  C   UNL     1      10.641   3.814   4.655  1.00  0.00     0.010 A 
ATOM     49  C   UNL     1       9.730   1.637   4.195  1.00  0.00     0.010 A 
ATOM     50  C   UNL     1      10.847   2.437   4.505  1.00  0.00    -0.014 A 
BRANCH  50  51
ATOM     51  C   UNL     1      12.234   1.868   4.579  1.00  0.00     0.031 A 
ATOM     52  C   UNL     1      12.886   1.300   3.340  1.00  0.00     0.074 A 
ATOM     53  C   UNL     1      12.935   1.883   5.734  1.00  0.00     0.049 A 
ATOM     54  N   UNL     1      14.063   0.742   3.195  1.00  0.00    -0.248 NA
ATOM     55  C   UNL     1      12.095   1.352   2.102  1.00  0.00     0.031 C 
ATOM     56  C   UNL     1      12.441   2.402   7.008  1.00  0.00     0.029 A 
ATOM     57  N   UNL     1      14.212   1.459   6.028  1.00  0.00    -0.354 N 
ATOM     58  C   UNL     1      14.148   0.363   1.857  1.00  0.00     0.074 A 
ATOM     59  C   UNL     1      12.877   0.704   1.252  1.00  0.00     0.031 C 
ATOM     60  C   UNL     1      13.407   2.295   7.936  1.00  0.00     0.029 A 
ATOM     61  C   UNL     1      14.578   1.655   7.342  1.00  0.00     0.049 A 
ATOM     62  H   UNL     1      14.809   1.052   5.359  1.00  0.00     0.167 HD
ATOM     63  C   UNL     1      15.189  -0.194   1.186  1.00  0.00     0.034 A 
ATOM     64  C   UNL     1      15.716   1.345   8.001  1.00  0.00     0.034 A 
ATOM     65  C   UNL     1      16.462  -0.514   1.789  1.00  0.00     0.049 A 
ATOM     66  C   UNL     1      16.843   0.678   7.247  1.00  0.00     0.074 A 
ATOM     67  C   UNL     1      17.591  -1.049   1.191  1.00  0.00     0.029 A 
ATOM     68  N   UNL     1      16.777  -0.329   3.129  1.00  0.00    -0.354 N 
ATOM     69  N   UNL     1      16.906   0.345   5.978  1.00  0.00    -0.248 NA
ATOM     70  C   UNL     1      18.055   0.350   8.012  1.00  0.00     0.031 C 
ATOM     71  C   UNL     1      18.562  -1.248   2.178  1.00  0.00     0.029 A 
ATOM     72  C   UNL     1      18.070  -0.766   3.380  1.00  0.00     0.049 A 
ATOM     73  H   UNL     1      16.172   0.056   3.803  1.00  0.00     0.167 HD
ATOM     74  C   UNL     1      18.175  -0.199   5.791  1.00  0.00     0.074 A 
ATOM     75  C   UNL     1      18.849  -0.137   7.070  1.00  0.00     0.031 C 
ATOM     76  C   UNL     1      18.733  -0.703   4.661  1.00  0.00     0.034 A 
BRANCH  63  77
ATOM     77  C   UNL     1      14.982  -0.518  -0.278  1.00  0.00     0.023 A 
ATOM     78  C   UNL     1      14.718   0.486  -1.226  1.00  0.00     0.031 A 
ATOM     79  C   UNL     1      15.022  -1.850  -0.729  1.00  0.00     0.131 A 
ATOM     80  C   UNL     1      14.418   0.139  -2.552  1.00  0.00     0.055 A 
ATOM     81  C   UNL     1      14.810  -2.181  -2.070  1.00  0.00     0.041 A 
ATOM     82  F   UNL     1      15.255  -2.857   0.128  1.00  0.00    -0.206 F 
ATOM     83  C   UNL     1      14.488  -1.186  -2.987  1.00  0.00     0.022 A 
BRANCH  80  84
ATOM     84  S   UNL     1      13.786   1.429  -3.659  1.00  0.00     0.124 S 
ATOM     85  O   UNL     1      12.585   1.863  -2.951  1.00  0.00    -0.237 OA
ATOM     86  O   UNL     1      14.887   2.381  -3.699  1.00  0.00    -0.237 OA
ATOM     87  O   UNL     1      13.535   0.711  -4.912  1.00  0.00    -0.744 OA
ENDBRANCH  80  84
ENDBRANCH  63  77
BRANCH  64  88
ATOM     88  C   UNL     1      15.857   1.632   9.461  1.00  0.00     0.023 A 
ATOM     89  C   UNL     1      16.847   2.508   9.938  1.00  0.00     0.031 A 
ATOM     90  C   UNL     1      15.050   0.979  10.411  1.00  0.00     0.131 A 
ATOM     91  C   UNL     1      17.038   2.669  11.320  1.00  0.00     0.055 A 
ATOM     92  C   UNL     1      15.204   1.188  11.783  1.00  0.00     0.041 A 
ATOM     93  F   UNL     1      14.091   0.126  10.016  1.00  0.00    -0.206 F 
ATOM     94  C   UNL     1      16.213   2.026  12.245  1.00  0.00     0.022 A 
BRANCH  91  95
ATOM     95  S   UNL     1      18.451   3.652  11.897  1.00  0.00     0.124 S 
ATOM     96  O   UNL     1      19.570   2.959  11.270  1.00  0.00    -0.237 OA
ATOM     97  O   UNL     1      18.135   4.974  11.369  1.00  0.00    -0.237 OA
ATOM     98  O   UNL     1      18.377   3.530  13.352  1.00  0.00    -0.744 OA
ENDBRANCH  91  95
ENDBRANCH  64  88
BRANCH  76  99
ATOM     99  C   UNL     1      20.163  -1.181   4.749  1.00  0.00     0.023 A 
ATOM    100  C   UNL     1      20.522  -2.312   5.503  1.00  0.00     0.031 A 
ATOM    101  C   UNL     1      21.181  -0.493   4.064  1.00  0.00     0.131 A 
ATOM    102  C   UNL     1      21.870  -2.694   5.593  1.00  0.00     0.055 A 
ATOM    103  C   UNL     1      22.512  -0.911   4.110  1.00  0.00     0.041 A 
ATOM    104  F   UNL     1      20.896   0.596   3.331  1.00  0.00    -0.206 F 
ATOM    105  C   UNL     1      22.864  -2.011   4.887  1.00  0.00     0.022 A 
BRANCH 102 106
ATOM    106  S   UNL     1      22.321  -4.051   6.708  1.00  0.00     0.124 S 
ATOM    107  O   UNL     1      21.864  -3.548   8.000  1.00  0.00    -0.237 OA
ATOM    108  O   UNL     1      21.566  -5.173   6.158  1.00  0.00    -0.237 OA
ATOM    109  O   UNL     1      23.772  -4.151   6.560  1.00  0.00    -0.744 OA
ENDBRANCH 102 106
ENDBRANCH  76  99
ENDBRANCH  50  51
ENDBRANCH  42  45
ENDBRANCH  40  41
ENDBRANCH  39  40
ENDBRANCH   1  39
TORSDOF 19
