REMARK SMILES C[C@H]1[C@H](C(=O)NCCCCNC(=O)c2ccc(-c3c4nc(c(-c5cc(S(=O)(=O)[O-])ccc5F)c5ccc([nH]5)c(-c5cc(S(=O)(=O)[O-])ccc5F)c5nc(c(-c6cc(S(=O)(=O)[O-])ccc6F)c6ccc3[nH]6)C=C5)C=C4)cc2)CC[N@@H+]1Cc1cscn1
REMARK SMILES IDX 9 1 8 2 7 3 6 4 4 5 5 6 3 8 1 9 2 10 79 11 77 12 78 13 80 15
REMARK SMILES IDX 81 16 82 17 85 18 83 19 84 20 10 21 11 22 12 23 13 25 14 26
REMARK SMILES IDX 15 27 76 28 16 29 75 30 17 31 18 32 19 33 69 34 20 35 74 36
REMARK SMILES IDX 68 37 70 38 21 39 73 40 67 41 66 42 22 44 54 45 34 46 53 47
REMARK SMILES IDX 35 48 38 49 52 50 71 51 36 52 37 53 51 55 72 56 39 57 23 58
REMARK SMILES IDX 24 59 32 60 25 61 31 62 33 63 30 64 26 65 27 66 28 67 29 68
REMARK SMILES IDX 55 69 56 70 64 71 57 72 63 73 65 74 62 75 58 76 59 77 60 78
REMARK SMILES IDX 61 79 40 80 41 81 49 82 42 83 48 84 50 85 47 86 43 87 44 88
REMARK SMILES IDX 45 89 46 90
REMARK H PARENT 6 7 79 14 11 24 70 43 38 54
REMARK Flexibility Score: inf
ROOT
ATOM      1  C   UNL     1       0.672   1.111   5.498  1.00  0.00     0.023 C 
ENDROOT
BRANCH   1   2
ATOM      2  C   UNL     1       0.558   0.624   4.053  1.00  0.00     0.023 C 
BRANCH   2   3
ATOM      3  C   UNL     1      -0.455   1.383   3.191  1.00  0.00     0.116 C 
BRANCH   3   4
ATOM      4  N   UNL     1       0.168   2.416   2.393  1.00  0.00    -0.356 N 
ATOM      5  C   UNL     1       0.457   2.443   1.067  1.00  0.00     0.229 C 
ATOM      6  O   UNL     1       0.961   3.482   0.625  1.00  0.00    -0.275 OA
ATOM      7  H   UNL     1       0.421   3.228   2.890  1.00  0.00     0.163 HD
BRANCH   5   8
ATOM      8  C   UNL     1       0.158   1.295   0.109  1.00  0.00     0.142 C 
ATOM      9  C   UNL     1       1.994  -0.401  -0.216  1.00  0.00     0.076 C 
ATOM     10  C   UNL     1       0.666  -0.104   0.491  1.00  0.00     0.194 C 
ATOM     11  N   UNL     1      -0.350  -1.056  -0.003  1.00  0.00    -0.327 N 
ATOM     12  C   UNL     1      -1.310   1.089  -0.232  1.00  0.00     0.081 C 
ATOM     13  C   UNL     1      -1.294  -0.310  -0.827  1.00  0.00     0.263 C 
ATOM     14  H   UNL     1       0.094  -1.751  -0.604  1.00  0.00     0.348 HD
BRANCH  11  15
ATOM     15  C   UNL     1      -0.884  -2.015   0.980  1.00  0.00     0.320 C 
BRANCH  15  16
ATOM     16  C   UNL     1      -2.108  -1.611   1.772  1.00  0.00     0.105 A 
ATOM     17  C   UNL     1      -3.415  -1.558   1.312  1.00  0.00     0.096 A 
ATOM     18  N   UNL     1      -1.996  -1.388   3.147  1.00  0.00    -0.244 NA
ATOM     19  S   UNL     1      -4.495  -1.124   2.566  1.00  0.00    -0.130 S 
ATOM     20  C   UNL     1      -3.183  -1.139   3.663  1.00  0.00     0.176 A 
ENDBRANCH  15  16
ENDBRANCH  11  15
ENDBRANCH   5   8
ENDBRANCH   3   4
ENDBRANCH   2   3
ENDBRANCH   1   2
BRANCH   1  21
ATOM     21  C   UNL     1      -0.611   1.045   6.323  1.00  0.00     0.116 C 
BRANCH  21  22
ATOM     22  N   UNL     1      -1.212  -0.277   6.401  1.00  0.00    -0.352 N 
ATOM     23  C   UNL     1      -2.059  -0.765   7.376  1.00  0.00     0.251 C 
ATOM     24  H   UNL     1      -0.988  -0.899   5.671  1.00  0.00     0.163 HD
ATOM     25  O   UNL     1      -2.487  -1.910   7.312  1.00  0.00    -0.269 OA
BRANCH  23  26
ATOM     26  C   UNL     1      -2.413   0.106   8.520  1.00  0.00     0.039 A 
ATOM     27  C   UNL     1      -2.170  -0.354   9.816  1.00  0.00     0.014 A 
ATOM     28  C   UNL     1      -2.901   1.398   8.309  1.00  0.00     0.014 A 
ATOM     29  C   UNL     1      -2.311   0.522  10.895  1.00  0.00     0.010 A 
ATOM     30  C   UNL     1      -2.979   2.287   9.377  1.00  0.00     0.010 A 
ATOM     31  C   UNL     1      -2.656   1.866  10.676  1.00  0.00    -0.014 A 
BRANCH  31  32
ATOM     32  C   UNL     1      -2.614   2.861  11.780  1.00  0.00     0.031 A 
ATOM     33  C   UNL     1      -3.867   3.555  12.232  1.00  0.00     0.074 A 
ATOM     34  C   UNL     1      -1.422   3.203  12.309  1.00  0.00     0.049 A 
ATOM     35  N   UNL     1      -4.012   4.504  13.121  1.00  0.00    -0.248 NA
ATOM     36  C   UNL     1      -5.117   3.147  11.575  1.00  0.00     0.031 C 
ATOM     37  C   UNL     1      -0.128   2.643  11.908  1.00  0.00     0.029 A 
ATOM     38  N   UNL     1      -1.099   4.112  13.285  1.00  0.00    -0.354 N 
ATOM     39  C   UNL     1      -5.366   4.817  13.125  1.00  0.00     0.074 A 
ATOM     40  C   UNL     1      -5.987   3.993  12.107  1.00  0.00     0.031 C 
ATOM     41  C   UNL     1       0.843   3.206  12.645  1.00  0.00     0.029 A 
ATOM     42  C   UNL     1       0.251   4.193  13.541  1.00  0.00     0.049 A 
ATOM     43  H   UNL     1      -1.770   4.656  13.757  1.00  0.00     0.167 HD
ATOM     44  C   UNL     1      -6.033   5.694  13.918  1.00  0.00     0.034 A 
ATOM     45  C   UNL     1       0.936   4.980  14.394  1.00  0.00     0.034 A 
ATOM     46  C   UNL     1      -5.399   6.504  14.931  1.00  0.00     0.049 A 
ATOM     47  C   UNL     1       0.176   5.949  15.261  1.00  0.00     0.074 A 
ATOM     48  C   UNL     1      -5.986   7.380  15.828  1.00  0.00     0.029 A 
ATOM     49  N   UNL     1      -4.032   6.545  15.177  1.00  0.00    -0.354 N 
ATOM     50  N   UNL     1      -1.114   6.188  15.296  1.00  0.00    -0.248 NA
ATOM     51  C   UNL     1       0.964   6.744  16.212  1.00  0.00     0.031 C 
ATOM     52  C   UNL     1      -4.972   7.992  16.574  1.00  0.00     0.029 A 
ATOM     53  C   UNL     1      -3.756   7.450  16.191  1.00  0.00     0.049 A 
ATOM     54  H   UNL     1      -3.358   6.009  14.701  1.00  0.00     0.167 HD
ATOM     55  C   UNL     1      -1.295   7.143  16.292  1.00  0.00     0.074 A 
ATOM     56  C   UNL     1       0.016   7.425  16.840  1.00  0.00     0.031 C 
ATOM     57  C   UNL     1      -2.441   7.731  16.718  1.00  0.00     0.034 A 
BRANCH  44  58
ATOM     58  C   UNL     1      -7.520   5.831  13.696  1.00  0.00     0.023 A 
ATOM     59  C   UNL     1      -8.397   4.752  13.904  1.00  0.00     0.031 A 
ATOM     60  C   UNL     1      -8.065   7.042  13.236  1.00  0.00     0.131 A 
ATOM     61  C   UNL     1      -9.755   4.878  13.575  1.00  0.00     0.055 A 
ATOM     62  C   UNL     1      -9.432   7.187  12.989  1.00  0.00     0.041 A 
ATOM     63  F   UNL     1      -7.276   8.102  13.001  1.00  0.00    -0.206 F 
ATOM     64  C   UNL     1     -10.284   6.096  13.142  1.00  0.00     0.022 A 
BRANCH  61  65
ATOM     65  S   UNL     1     -10.788   3.388  13.581  1.00  0.00     0.124 S 
ATOM     66  O   UNL     1     -10.095   2.546  12.607  1.00  0.00    -0.237 OA
ATOM     67  O   UNL     1     -10.709   2.954  14.971  1.00  0.00    -0.237 OA
ATOM     68  O   UNL     1     -12.097   3.876  13.152  1.00  0.00    -0.744 OA
ENDBRANCH  61  65
ENDBRANCH  44  58
BRANCH  45  69
ATOM     69  C   UNL     1       2.421   4.892  14.473  1.00  0.00     0.023 A 
ATOM     70  C   UNL     1       3.056   4.417  15.631  1.00  0.00     0.031 A 
ATOM     71  C   UNL     1       3.229   5.316  13.403  1.00  0.00     0.131 A 
ATOM     72  C   UNL     1       4.457   4.417  15.711  1.00  0.00     0.055 A 
ATOM     73  C   UNL     1       4.623   5.271  13.470  1.00  0.00     0.041 A 
ATOM     74  F   UNL     1       2.671   5.770  12.269  1.00  0.00    -0.206 F 
ATOM     75  C   UNL     1       5.244   4.831  14.634  1.00  0.00     0.022 A 
BRANCH  72  76
ATOM     76  S   UNL     1       5.236   3.936  17.276  1.00  0.00     0.124 S 
ATOM     77  O   UNL     1       4.654   4.896  18.207  1.00  0.00    -0.237 OA
ATOM     78  O   UNL     1       4.794   2.553  17.421  1.00  0.00    -0.237 OA
ATOM     79  O   UNL     1       6.663   4.107  17.012  1.00  0.00    -0.744 OA
ENDBRANCH  72  76
ENDBRANCH  45  69
BRANCH  57  80
ATOM     80  C   UNL     1      -2.321   8.706  17.862  1.00  0.00     0.023 A 
ATOM     81  C   UNL     1      -1.678   9.947  17.711  1.00  0.00     0.031 A 
ATOM     82  C   UNL     1      -2.842   8.378  19.126  1.00  0.00     0.131 A 
ATOM     83  C   UNL     1      -1.526  10.794  18.819  1.00  0.00     0.055 A 
ATOM     84  C   UNL     1      -2.735   9.247  20.212  1.00  0.00     0.041 A 
ATOM     85  F   UNL     1      -3.463   7.204  19.325  1.00  0.00    -0.206 F 
ATOM     86  C   UNL     1      -2.063  10.458  20.065  1.00  0.00     0.022 A 
BRANCH  83  87
ATOM     87  S   UNL     1      -0.544  12.307  18.632  1.00  0.00     0.124 S 
ATOM     88  O   UNL     1       0.753  11.778  18.222  1.00  0.00    -0.237 OA
ATOM     89  O   UNL     1      -1.287  13.037  17.610  1.00  0.00    -0.237 OA
ATOM     90  O   UNL     1      -0.577  12.905  19.966  1.00  0.00    -0.744 OA
ENDBRANCH  83  87
ENDBRANCH  57  80
ENDBRANCH  31  32
ENDBRANCH  23  26
ENDBRANCH  21  22
ENDBRANCH   1  21
TORSDOF 16
