REMARK SMILES CCOC(=O)c1c(NC(=O)/C=C/C(=O)NCCCCNC(=O)c2ccc(-c3c4nc(c(-c5cc(S(=O)(=O)[O-])ccc5F)c5ccc([nH]5)c(-c5cc(S(=O)(=O)[O-])ccc5F)c5nc(c(-c6cc(S(=O)(=O)[O-])ccc6F)c6ccc3[nH]6)C=C5)C=C4)cc2)sc(C)c1-c1ccc(C)c(C)c1
REMARK SMILES IDX 16 1 15 2 13 3 14 4 12 6 11 7 9 8 8 9 10 11 7 12 6 13 89 14
REMARK SMILES IDX 86 15 87 16 88 17 4 18 5 19 3 20 2 21 1 22 90 23 91 24 97 25
REMARK SMILES IDX 92 26 95 27 93 28 96 29 94 30 17 31 18 32 19 33 20 34 21 35
REMARK SMILES IDX 22 37 23 38 24 39 85 40 25 41 84 42 26 43 27 44 28 45 78 46
REMARK SMILES IDX 29 47 83 48 77 49 79 50 30 51 82 52 76 53 75 54 31 56 63 57
REMARK SMILES IDX 43 58 62 59 44 60 47 61 61 62 80 63 45 64 46 65 60 67 81 68
REMARK SMILES IDX 48 69 32 70 33 71 41 72 34 73 40 74 42 75 39 76 35 77 36 78
REMARK SMILES IDX 37 79 38 80 64 81 65 82 73 83 66 84 72 85 74 86 71 87 67 88
REMARK SMILES IDX 68 89 69 90 70 91 49 92 50 93 58 94 51 95 57 96 59 97 56 98
REMARK SMILES IDX 52 99 53 100 54 101 55 102
REMARK H PARENT 15 5 8 10 20 36 79 55 47 66
REMARK Flexibility Score: inf
ROOT
ATOM      1  C   UNL     1       8.289  -7.564  -1.924  1.00  0.00     0.116 C 
ENDROOT
BRANCH   1   2
ATOM      2  N   UNL     1       7.400  -7.554  -3.067  1.00  0.00    -0.353 N 
ATOM      3  C   UNL     1       6.115  -7.110  -3.096  1.00  0.00     0.244 C 
ATOM      4  O   UNL     1       5.347  -7.445  -3.991  1.00  0.00    -0.270 OA
ATOM      5  H   UNL     1       7.764  -7.905  -3.912  1.00  0.00     0.163 HD
BRANCH   3   6
ATOM      6  C   UNL     1       5.660  -6.203  -2.025  1.00  0.00     0.077 C 
ATOM      7  C   UNL     1       6.302  -5.032  -1.896  1.00  0.00     0.077 C 
BRANCH   7   8
ATOM      8  C   UNL     1       5.749  -3.951  -1.075  1.00  0.00     0.249 C 
ATOM      9  N   UNL     1       4.732  -3.162  -1.533  1.00  0.00    -0.313 N 
ATOM     10  H   UNL     1       4.493  -2.427  -0.923  1.00  0.00     0.171 HD
ATOM     11  O   UNL     1       6.239  -3.745   0.035  1.00  0.00    -0.270 OA
BRANCH   9  12
ATOM     12  C   UNL     1       3.972  -3.198  -2.694  1.00  0.00     0.111 A 
ATOM     13  C   UNL     1       2.820  -2.469  -2.947  1.00  0.00     0.102 A 
ATOM     14  C   UNL     1       2.152  -2.961  -4.140  1.00  0.00     0.012 A 
ATOM     15  S   UNL     1       4.401  -4.125  -4.039  1.00  0.00    -0.122 S 
ATOM     16  C   UNL     1       2.875  -3.965  -4.763  1.00  0.00     0.012 A 
ATOM     17  C   UNL     1       2.563  -4.840  -5.934  1.00  0.00     0.057 C 
BRANCH  13  18
ATOM     18  C   UNL     1       2.390  -1.386  -2.070  1.00  0.00     0.341 C 
ATOM     19  O   UNL     1       3.191  -0.679  -1.468  1.00  0.00    -0.246 OA
BRANCH  18  20
ATOM     20  O   UNL     1       1.039  -1.254  -1.985  1.00  0.00    -0.462 OA
BRANCH  20  21
ATOM     21  C   UNL     1       0.558  -0.066  -1.341  1.00  0.00     0.230 C 
ATOM     22  C   UNL     1       0.753  -0.082   0.165  1.00  0.00     0.049 C 
ENDBRANCH  20  21
ENDBRANCH  18  20
ENDBRANCH  13  18
BRANCH  14  23
ATOM     23  C   UNL     1       0.918  -2.458  -4.718  1.00  0.00    -0.016 A 
ATOM     24  C   UNL     1       0.887  -1.161  -5.228  1.00  0.00     0.009 A 
ATOM     25  C   UNL     1      -0.231  -3.254  -4.767  1.00  0.00     0.012 A 
ATOM     26  C   UNL     1      -0.290  -0.658  -5.773  1.00  0.00     0.004 A 
ATOM     27  C   UNL     1      -1.421  -2.764  -5.332  1.00  0.00    -0.048 A 
ATOM     28  C   UNL     1      -1.451  -1.447  -5.835  1.00  0.00    -0.048 A 
ATOM     29  C   UNL     1      -2.622  -3.666  -5.385  1.00  0.00     0.044 C 
ATOM     30  C   UNL     1      -2.683  -0.817  -6.421  1.00  0.00     0.044 C 
ENDBRANCH  14  23
ENDBRANCH   9  12
ENDBRANCH   7   8
ENDBRANCH   3   6
ENDBRANCH   1   2
BRANCH   1  31
ATOM     31  C   UNL     1       8.001  -8.773  -1.039  1.00  0.00     0.023 C 
BRANCH  31  32
ATOM     32  C   UNL     1       8.399 -10.105  -1.673  1.00  0.00     0.023 C 
BRANCH  32  33
ATOM     33  C   UNL     1       9.834 -10.162  -2.184  1.00  0.00     0.116 C 
BRANCH  33  34
ATOM     34  N   UNL     1      10.806  -9.696  -1.203  1.00  0.00    -0.352 N 
ATOM     35  C   UNL     1      12.035 -10.226  -0.897  1.00  0.00     0.251 C 
ATOM     36  H   UNL     1      10.548  -8.895  -0.692  1.00  0.00     0.163 HD
ATOM     37  O   UNL     1      12.699  -9.774   0.029  1.00  0.00    -0.269 OA
BRANCH  35  38
ATOM     38  C   UNL     1      12.508 -11.379  -1.680  1.00  0.00     0.039 A 
ATOM     39  C   UNL     1      12.807 -12.567  -1.012  1.00  0.00     0.014 A 
ATOM     40  C   UNL     1      12.536 -11.308  -3.076  1.00  0.00     0.014 A 
ATOM     41  C   UNL     1      13.053 -13.720  -1.754  1.00  0.00     0.010 A 
ATOM     42  C   UNL     1      12.716 -12.473  -3.810  1.00  0.00     0.010 A 
ATOM     43  C   UNL     1      12.958 -13.692  -3.156  1.00  0.00    -0.014 A 
BRANCH  43  44
ATOM     44  C   UNL     1      13.072 -14.933  -3.960  1.00  0.00     0.031 A 
ATOM     45  C   UNL     1      14.205 -15.089  -4.932  1.00  0.00     0.074 A 
ATOM     46  C   UNL     1      12.107 -15.870  -3.872  1.00  0.00     0.049 A 
ATOM     47  N   UNL     1      14.420 -16.039  -5.804  1.00  0.00    -0.248 NA
ATOM     48  C   UNL     1      15.213 -14.018  -4.943  1.00  0.00     0.031 C 
ATOM     49  C   UNL     1      10.938 -15.800  -2.990  1.00  0.00     0.029 A 
ATOM     50  N   UNL     1      11.943 -17.054  -4.544  1.00  0.00    -0.354 N 
ATOM     51  C   UNL     1      15.580 -15.675  -6.479  1.00  0.00     0.074 A 
ATOM     52  C   UNL     1      15.988 -14.390  -5.951  1.00  0.00     0.031 C 
ATOM     53  C   UNL     1      10.189 -16.900  -3.166  1.00  0.00     0.029 A 
ATOM     54  C   UNL     1      10.791 -17.727  -4.206  1.00  0.00     0.049 A 
ATOM     55  H   UNL     1      12.588 -17.392  -5.206  1.00  0.00     0.167 HD
ATOM     56  C   UNL     1      16.250 -16.362  -7.436  1.00  0.00     0.034 A 
ATOM     57  C   UNL     1      10.269 -18.869  -4.696  1.00  0.00     0.034 A 
ATOM     58  C   UNL     1      15.829 -17.645  -7.941  1.00  0.00     0.049 A 
ATOM     59  C   UNL     1      11.015 -19.596  -5.786  1.00  0.00     0.074 A 
ATOM     60  C   UNL     1      16.465 -18.460  -8.860  1.00  0.00     0.029 A 
ATOM     61  N   UNL     1      14.656 -18.297  -7.579  1.00  0.00    -0.354 N 
ATOM     62  N   UNL     1      12.143 -19.269  -6.374  1.00  0.00    -0.248 NA
ATOM     63  C   UNL     1      10.421 -20.846  -6.275  1.00  0.00     0.031 C 
ATOM     64  C   UNL     1      15.645 -19.567  -9.107  1.00  0.00     0.029 A 
ATOM     65  C   UNL     1      14.532 -19.483  -8.286  1.00  0.00     0.049 A 
ATOM     66  H   UNL     1      14.008 -17.965  -6.916  1.00  0.00     0.167 HD
ATOM     67  C   UNL     1      12.404 -20.287  -7.287  1.00  0.00     0.074 A 
ATOM     68  C   UNL     1      11.327 -21.247  -7.155  1.00  0.00     0.031 C 
ATOM     69  C   UNL     1      13.439 -20.419  -8.155  1.00  0.00     0.034 A 
BRANCH  56  70
ATOM     70  C   UNL     1      17.488 -15.719  -8.013  1.00  0.00     0.023 A 
ATOM     71  C   UNL     1      18.618 -15.450  -7.221  1.00  0.00     0.031 A 
ATOM     72  C   UNL     1      17.531 -15.349  -9.368  1.00  0.00     0.131 A 
ATOM     73  C   UNL     1      19.712 -14.764  -7.771  1.00  0.00     0.055 A 
ATOM     74  C   UNL     1      18.655 -14.738  -9.929  1.00  0.00     0.041 A 
ATOM     75  F   UNL     1      16.475 -15.560 -10.169  1.00  0.00    -0.206 F 
ATOM     76  C   UNL     1      19.748 -14.429  -9.126  1.00  0.00     0.022 A 
BRANCH  73  77
ATOM     77  S   UNL     1      21.024 -14.193  -6.657  1.00  0.00     0.124 S 
ATOM     78  O   UNL     1      20.280 -13.332  -5.741  1.00  0.00    -0.237 OA
ATOM     79  O   UNL     1      21.525 -15.442  -6.094  1.00  0.00    -0.237 OA
ATOM     80  O   UNL     1      21.949 -13.493  -7.546  1.00  0.00    -0.744 OA
ENDBRANCH  73  77
ENDBRANCH  56  70
BRANCH  57  81
ATOM     81  C   UNL     1       8.965 -19.386  -4.189  1.00  0.00     0.023 A 
ATOM     82  C   UNL     1       8.886 -20.617  -3.520  1.00  0.00     0.031 A 
ATOM     83  C   UNL     1       7.769 -18.679  -4.410  1.00  0.00     0.131 A 
ATOM     84  C   UNL     1       7.635 -21.128  -3.138  1.00  0.00     0.055 A 
ATOM     85  C   UNL     1       6.534 -19.164  -3.980  1.00  0.00     0.041 A 
ATOM     86  F   UNL     1       7.788 -17.494  -5.042  1.00  0.00    -0.206 F 
ATOM     87  C   UNL     1       6.460 -20.403  -3.351  1.00  0.00     0.022 A 
BRANCH  84  88
ATOM     88  S   UNL     1       7.557 -22.798  -2.435  1.00  0.00     0.124 S 
ATOM     89  O   UNL     1       8.163 -23.595  -3.496  1.00  0.00    -0.237 OA
ATOM     90  O   UNL     1       8.342 -22.650  -1.215  1.00  0.00    -0.237 OA
ATOM     91  O   UNL     1       6.126 -23.015  -2.231  1.00  0.00    -0.744 OA
ENDBRANCH  84  88
ENDBRANCH  57  81
BRANCH  69  92
ATOM     92  C   UNL     1      13.462 -21.665  -9.005  1.00  0.00     0.023 A 
ATOM     93  C   UNL     1      12.498 -21.894 -10.002  1.00  0.00     0.031 A 
ATOM     94  C   UNL     1      14.455 -22.640  -8.806  1.00  0.00     0.131 A 
ATOM     95  C   UNL     1      12.515 -23.095 -10.727  1.00  0.00     0.055 A 
ATOM     96  C   UNL     1      14.504 -23.805  -9.573  1.00  0.00     0.041 A 
ATOM     97  F   UNL     1      15.398 -22.474  -7.865  1.00  0.00    -0.206 F 
ATOM     98  C   UNL     1      13.523 -24.043 -10.532  1.00  0.00     0.022 A 
BRANCH  95  99
ATOM     99  S   UNL     1      11.152 -23.440 -11.873  1.00  0.00     0.124 S 
ATOM    100  O   UNL     1       9.996 -23.415 -10.983  1.00  0.00    -0.237 OA
ATOM    101  O   UNL     1      11.252 -22.335 -12.820  1.00  0.00    -0.237 OA
ATOM    102  O   UNL     1      11.487 -24.755 -12.418  1.00  0.00    -0.744 OA
ENDBRANCH  95  99
ENDBRANCH  69  92
ENDBRANCH  43  44
ENDBRANCH  35  38
ENDBRANCH  33  34
ENDBRANCH  32  33
ENDBRANCH  31  32
ENDBRANCH   1  31
TORSDOF 20
