REMARK SMILES C#CCNC(=O)C[N@@H+](CC(=O)NCCCCNC(=O)c1ccc(-c2c3nc(c(-c4cc(S(=O)(=O)[O-])ccc4F)c4ccc([nH]4)c(-c4cc(S(=O)(=O)[O-])ccc4F)c4nc(c(-c5cc(S(=O)(=O)[O-])ccc5F)c5ccc2[nH]5)C=C4)C=C3)cc1)C(C)(C)C
REMARK SMILES IDX 13 1 12 2 10 3 11 4 9 6 8 7 7 9 5 10 4 11 6 13 3 14 2 15
REMARK SMILES IDX 1 16 83 17 84 18 85 19 86 20 14 21 15 22 16 23 17 24 18 25
REMARK SMILES IDX 19 27 20 28 21 29 82 30 22 31 81 32 23 33 24 34 25 35 75 36
REMARK SMILES IDX 26 37 80 38 74 39 76 40 27 41 79 42 73 43 72 44 28 46 60 47
REMARK SMILES IDX 40 48 59 49 41 50 44 51 58 52 77 53 42 54 43 55 57 57 78 58
REMARK SMILES IDX 45 59 29 60 30 61 38 62 31 63 37 64 39 65 36 66 32 67 33 68
REMARK SMILES IDX 34 69 35 70 61 71 62 72 70 73 63 74 69 75 71 76 68 77 64 78
REMARK SMILES IDX 65 79 66 80 67 81 46 82 47 83 55 84 48 85 54 86 56 87 53 88
REMARK SMILES IDX 49 89 50 90 51 91 52 92
REMARK H PARENT 12 5 8 8 4 12 17 26 76 45 44 56
REMARK Flexibility Score: inf
ROOT
ATOM      1  C   UNL     1      -5.719  -3.583  -0.973  1.00  0.00     0.116 C 
ENDROOT
BRANCH   1   2
ATOM      2  N   UNL     1      -4.822  -4.703  -1.181  1.00  0.00    -0.351 N 
ATOM      3  C   UNL     1      -3.507  -4.869  -0.853  1.00  0.00     0.275 C 
ATOM      4  O   UNL     1      -3.048  -6.012  -0.951  1.00  0.00    -0.269 OA
ATOM      5  H   UNL     1      -5.230  -5.474  -1.638  1.00  0.00     0.163 HD
BRANCH   3   6
ATOM      6  C   UNL     1      -2.638  -3.721  -0.316  1.00  0.00     0.364 C 
BRANCH   6   7
ATOM      7  N   UNL     1      -1.988  -2.813  -1.313  1.00  0.00    -0.315 N 
ATOM      8  H   UNL     1      -1.338  -2.244  -0.771  1.00  0.00     0.349 HD
BRANCH   7   9
ATOM      9  C   UNL     1      -2.975  -1.902  -1.917  1.00  0.00     0.364 C 
BRANCH   9  10
ATOM     10  C   UNL     1      -2.557  -0.476  -2.237  1.00  0.00     0.275 C 
ATOM     11  N   UNL     1      -2.209   0.375  -1.239  1.00  0.00    -0.340 N 
ATOM     12  H   UNL     1      -2.231   1.335  -1.456  1.00  0.00     0.164 HD
ATOM     13  O   UNL     1      -2.679  -0.013  -3.374  1.00  0.00    -0.268 OA
BRANCH  11  14
ATOM     14  C   UNL     1      -1.812   0.032   0.094  1.00  0.00     0.206 C 
BRANCH  14  15
ATOM     15  C   UNL     1      -0.292   0.032   0.094  1.00  0.00    -0.085 C 
ATOM     16  C   UNL     1       1.012   0.032   0.094  1.00  0.00     0.006 C 
ENDBRANCH  14  15
ENDBRANCH  11  14
ENDBRANCH   9  10
ENDBRANCH   7   9
BRANCH   7  17
ATOM     17  C   UNL     1      -1.032  -3.441  -2.276  1.00  0.00     0.090 C 
ATOM     18  C   UNL     1      -1.660  -4.402  -3.314  1.00  0.00     0.078 C 
ATOM     19  C   UNL     1      -0.294  -2.344  -3.082  1.00  0.00     0.078 C 
ATOM     20  C   UNL     1       0.066  -4.215  -1.510  1.00  0.00     0.078 C 
ENDBRANCH   7  17
ENDBRANCH   6   7
ENDBRANCH   3   6
ENDBRANCH   1   2
BRANCH   1  21
ATOM     21  C   UNL     1      -5.957  -2.787  -2.255  1.00  0.00     0.023 C 
BRANCH  21  22
ATOM     22  C   UNL     1      -7.049  -3.289  -3.173  1.00  0.00     0.023 C 
BRANCH  22  23
ATOM     23  C   UNL     1      -8.437  -3.186  -2.593  1.00  0.00     0.116 C 
BRANCH  23  24
ATOM     24  N   UNL     1      -8.834  -1.824  -2.252  1.00  0.00    -0.352 N 
ATOM     25  C   UNL     1     -10.022  -1.187  -2.561  1.00  0.00     0.251 C 
ATOM     26  H   UNL     1      -8.178  -1.296  -1.742  1.00  0.00     0.163 HD
ATOM     27  O   UNL     1     -10.203  -0.017  -2.283  1.00  0.00    -0.269 OA
BRANCH  25  28
ATOM     28  C   UNL     1     -11.036  -1.977  -3.289  1.00  0.00     0.039 A 
ATOM     29  C   UNL     1     -11.485  -1.530  -4.533  1.00  0.00     0.014 A 
ATOM     30  C   UNL     1     -11.365  -3.248  -2.818  1.00  0.00     0.014 A 
ATOM     31  C   UNL     1     -12.194  -2.410  -5.355  1.00  0.00     0.010 A 
ATOM     32  C   UNL     1     -11.945  -4.154  -3.690  1.00  0.00     0.010 A 
ATOM     33  C   UNL     1     -12.379  -3.744  -4.962  1.00  0.00    -0.014 A 
BRANCH  33  34
ATOM     34  C   UNL     1     -13.085  -4.741  -5.809  1.00  0.00     0.031 A 
ATOM     35  C   UNL     1     -14.289  -5.435  -5.230  1.00  0.00     0.074 A 
ATOM     36  C   UNL     1     -12.595  -5.106  -7.010  1.00  0.00     0.049 A 
ATOM     37  N   UNL     1     -14.911  -6.507  -5.641  1.00  0.00    -0.248 NA
ATOM     38  C   UNL     1     -14.812  -4.882  -3.969  1.00  0.00     0.031 C 
ATOM     39  C   UNL     1     -11.412  -4.538  -7.661  1.00  0.00     0.029 A 
ATOM     40  N   UNL     1     -13.027  -6.064  -7.893  1.00  0.00    -0.354 N 
ATOM     41  C   UNL     1     -15.851  -6.792  -4.656  1.00  0.00     0.074 A 
ATOM     42  C   UNL     1     -15.660  -5.825  -3.598  1.00  0.00     0.031 C 
ATOM     43  C   UNL     1     -11.230  -5.141  -8.848  1.00  0.00     0.029 A 
ATOM     44  C   UNL     1     -12.247  -6.173  -9.022  1.00  0.00     0.049 A 
ATOM     45  H   UNL     1     -13.823  -6.622  -7.734  1.00  0.00     0.167 HD
ATOM     46  C   UNL     1     -16.806  -7.753  -4.648  1.00  0.00     0.034 A 
ATOM     47  C   UNL     1     -12.338  -7.022 -10.066  1.00  0.00     0.034 A 
ATOM     48  C   UNL     1     -17.023  -8.655  -5.749  1.00  0.00     0.049 A 
ATOM     49  C   UNL     1     -13.443  -8.050 -10.067  1.00  0.00     0.074 A 
ATOM     50  C   UNL     1     -17.999  -9.624  -5.894  1.00  0.00     0.029 A 
ATOM     51  N   UNL     1     -16.258  -8.681  -6.909  1.00  0.00    -0.354 N 
ATOM     52  N   UNL     1     -14.337  -8.301  -9.137  1.00  0.00    -0.248 NA
ATOM     53  C   UNL     1     -13.557  -8.903 -11.258  1.00  0.00     0.031 C 
ATOM     54  C   UNL     1     -17.800 -10.262  -7.124  1.00  0.00     0.029 A 
ATOM     55  C   UNL     1     -16.738  -9.650  -7.772  1.00  0.00     0.049 A 
ATOM     56  H   UNL     1     -15.488  -8.095  -7.090  1.00  0.00     0.167 HD
ATOM     57  C   UNL     1     -15.143  -9.312  -9.650  1.00  0.00     0.074 A 
ATOM     58  C   UNL     1     -14.630  -9.626 -10.968  1.00  0.00     0.031 C 
ATOM     59  C   UNL     1     -16.216  -9.924  -9.089  1.00  0.00     0.034 A 
BRANCH  46  60
ATOM     60  C   UNL     1     -17.662  -7.868  -3.410  1.00  0.00     0.023 A 
ATOM     61  C   UNL     1     -18.468  -6.804  -2.969  1.00  0.00     0.031 A 
ATOM     62  C   UNL     1     -17.616  -9.028  -2.618  1.00  0.00     0.131 A 
ATOM     63  C   UNL     1     -19.105  -6.877  -1.721  1.00  0.00     0.055 A 
ATOM     64  C   UNL     1     -18.334  -9.133  -1.424  1.00  0.00     0.041 A 
ATOM     65  F   UNL     1     -16.849 -10.071  -2.974  1.00  0.00    -0.206 F 
ATOM     66  C   UNL     1     -19.067  -8.045  -0.958  1.00  0.00     0.022 A 
BRANCH  63  67
ATOM     67  S   UNL     1     -19.828  -5.362  -1.035  1.00  0.00     0.124 S 
ATOM     68  O   UNL     1     -18.656  -4.495  -0.942  1.00  0.00    -0.237 OA
ATOM     69  O   UNL     1     -20.814  -4.996  -2.045  1.00  0.00    -0.237 OA
ATOM     70  O   UNL     1     -20.377  -5.795   0.248  1.00  0.00    -0.744 OA
ENDBRANCH  63  67
ENDBRANCH  46  60
BRANCH  47  71
ATOM     71  C   UNL     1     -11.369  -6.943 -11.196  1.00  0.00     0.023 A 
ATOM     72  C   UNL     1     -11.790  -6.556 -12.479  1.00  0.00     0.031 A 
ATOM     73  C   UNL     1     -10.017  -7.287 -11.023  1.00  0.00     0.131 A 
ATOM     74  C   UNL     1     -10.881  -6.566 -13.549  1.00  0.00     0.055 A 
ATOM     75  C   UNL     1      -9.105  -7.251 -12.081  1.00  0.00     0.041 A 
ATOM     76  F   UNL     1      -9.559  -7.655  -9.816  1.00  0.00    -0.206 F 
ATOM     77  C   UNL     1      -9.539  -6.901 -13.356  1.00  0.00     0.022 A 
BRANCH  74  78
ATOM     78  S   UNL     1     -11.499  -6.208 -15.216  1.00  0.00     0.124 S 
ATOM     79  O   UNL     1     -12.519  -7.237 -15.383  1.00  0.00    -0.237 OA
ATOM     80  O   UNL     1     -11.985  -4.840 -15.071  1.00  0.00    -0.237 OA
ATOM     81  O   UNL     1     -10.315  -6.361 -16.058  1.00  0.00    -0.744 OA
ENDBRANCH  74  78
ENDBRANCH  47  71
BRANCH  59  82
ATOM     82  C   UNL     1     -16.952 -10.932  -9.930  1.00  0.00     0.023 A 
ATOM     83  C   UNL     1     -16.409 -12.194 -10.221  1.00  0.00     0.031 A 
ATOM     84  C   UNL     1     -18.234 -10.627 -10.419  1.00  0.00     0.131 A 
ATOM     85  C   UNL     1     -17.135 -13.096 -11.013  1.00  0.00     0.055 A 
ATOM     86  C   UNL     1     -18.971 -11.545 -11.167  1.00  0.00     0.041 A 
ATOM     87  F   UNL     1     -18.796  -9.434 -10.164  1.00  0.00    -0.206 F 
ATOM     88  C   UNL     1     -18.418 -12.785 -11.474  1.00  0.00     0.022 A 
BRANCH  85  89
ATOM     89  S   UNL     1     -16.362 -14.669 -11.475  1.00  0.00     0.124 S 
ATOM     90  O   UNL     1     -15.201 -14.224 -12.240  1.00  0.00    -0.237 OA
ATOM     91  O   UNL     1     -16.077 -15.271 -10.177  1.00  0.00    -0.237 OA
ATOM     92  O   UNL     1     -17.397 -15.345 -12.255  1.00  0.00    -0.744 OA
ENDBRANCH  85  89
ENDBRANCH  59  82
ENDBRANCH  33  34
ENDBRANCH  25  28
ENDBRANCH  23  24
ENDBRANCH  22  23
ENDBRANCH  21  22
ENDBRANCH   1  21
TORSDOF 20
