REMARK SMILES CCCc1cc2c(cc1Cl)C=C(C(=O)NCCCCNC(=O)c1ccc(-c3c4nc(c(-c5cc(S(=O)(=O)[O-])ccc5F)c5ccc([nH]5)c(-c5cc(S(=O)(=O)[O-])ccc5F)c5nc(c(-c6cc(S(=O)(=O)[O-])ccc6F)c6ccc3[nH]6)C=C5)C=C4)cc1)[C@@H](C(F)(F)F)O2
REMARK SMILES IDX 18 1 17 2 16 3 15 4 13 5 14 6 12 8 4 9 5 10 9 11 6 12 8 13
REMARK SMILES IDX 10 14 7 15 91 16 11 17 86 18 3 19 2 20 1 21 87 22 88 23
REMARK SMILES IDX 89 24 90 25 19 26 20 27 21 28 22 30 23 31 24 32 85 33 25 34
REMARK SMILES IDX 84 35 26 36 27 37 28 38 78 39 29 40 83 41 77 42 79 43 30 44
REMARK SMILES IDX 82 45 76 46 75 47 31 49 63 50 43 51 62 52 44 53 47 54 61 55
REMARK SMILES IDX 80 56 45 57 46 58 60 60 81 61 48 62 32 63 33 64 41 65 34 66
REMARK SMILES IDX 40 67 42 68 39 69 35 70 36 71 37 72 38 73 64 74 65 75 73 76
REMARK SMILES IDX 66 77 72 78 74 79 71 80 67 81 68 82 69 83 70 84 49 85 50 86
REMARK SMILES IDX 58 87 51 88 57 89 59 90 56 91 52 92 53 93 54 94 55 95
REMARK H PARENT 15 7 20 29 79 48 47 59
REMARK Flexibility Score: inf
ROOT
ATOM      1  C   UNL     1      -7.032   7.763   2.447  1.00  0.00     0.023 C 
ENDROOT
BRANCH   1   2
ATOM      2  C   UNL     1      -6.121   6.564   2.171  1.00  0.00     0.023 C 
BRANCH   2   3
ATOM      3  C   UNL     1      -5.174   6.753   0.989  1.00  0.00     0.116 C 
BRANCH   3   4
ATOM      4  N   UNL     1      -3.947   7.429   1.372  1.00  0.00    -0.352 N 
ATOM      5  C   UNL     1      -2.691   7.066   1.721  1.00  0.00     0.251 C 
ATOM      6  O   UNL     1      -1.924   7.998   1.985  1.00  0.00    -0.270 OA
ATOM      7  H   UNL     1      -4.059   8.407   1.381  1.00  0.00     0.163 HD
BRANCH   5   8
ATOM      8  C   UNL     1      -2.191   5.662   1.803  1.00  0.00     0.067 C 
ATOM      9  C   UNL     1       0.658   1.539   2.449  1.00  0.00    -0.026 A 
ATOM     10  C   UNL     1      -0.717   1.776   2.286  1.00  0.00     0.052 A 
ATOM     11  C   UNL     1       1.504   2.653   2.604  1.00  0.00     0.045 A 
ATOM     12  C   UNL     1      -1.213   3.075   2.202  1.00  0.00     0.128 A 
ATOM     13  C   UNL     1       0.993   3.958   2.554  1.00  0.00     0.032 A 
ATOM     14  Cl  UNL     1       3.206   2.491   2.863  1.00  0.00    -0.084 Cl
ATOM     15  C   UNL     1      -0.369   4.173   2.338  1.00  0.00     0.019 A 
ATOM     16  O   UNL     1      -2.559   3.210   2.005  1.00  0.00    -0.475 OA
ATOM     17  C   UNL     1      -0.937   5.514   2.273  1.00  0.00     0.025 C 
ATOM     18  C   UNL     1      -2.966   4.452   1.360  1.00  0.00     0.314 C 
BRANCH   9  19
ATOM     19  C   UNL     1       1.154   0.108   2.471  1.00  0.00     0.037 C 
BRANCH  19  20
ATOM     20  C   UNL     1       0.694  -0.757   1.287  1.00  0.00     0.001 C 
ATOM     21  C   UNL     1       1.158  -0.227  -0.063  1.00  0.00     0.004 C 
ENDBRANCH  19  20
ENDBRANCH   9  19
BRANCH  18  22
ATOM     22  C   UNL     1      -2.951   4.265  -0.171  1.00  0.00     0.429 C 
ATOM     23  F   UNL     1      -3.890   3.361  -0.546  1.00  0.00    -0.167 F 
ATOM     24  F   UNL     1      -3.229   5.410  -0.837  1.00  0.00    -0.167 F 
ATOM     25  F   UNL     1      -1.760   3.822  -0.633  1.00  0.00    -0.167 F 
ENDBRANCH  18  22
ENDBRANCH   5   8
ENDBRANCH   3   4
ENDBRANCH   2   3
ENDBRANCH   1   2
BRANCH   1  26
ATOM     26  C   UNL     1      -7.896   8.214   1.271  1.00  0.00     0.116 C 
BRANCH  26  27
ATOM     27  N   UNL     1      -8.694   7.154   0.669  1.00  0.00    -0.352 N 
ATOM     28  C   UNL     1      -9.858   7.292  -0.057  1.00  0.00     0.251 C 
ATOM     29  H   UNL     1      -8.365   6.234   0.795  1.00  0.00     0.163 HD
ATOM     30  O   UNL     1     -10.472   6.307  -0.450  1.00  0.00    -0.269 OA
BRANCH  28  31
ATOM     31  C   UNL     1     -10.375   8.656  -0.290  1.00  0.00     0.039 A 
ATOM     32  C   UNL     1      -9.540   9.629  -0.841  1.00  0.00     0.014 A 
ATOM     33  C   UNL     1     -11.651   8.987   0.170  1.00  0.00     0.014 A 
ATOM     34  C   UNL     1      -9.911  10.964  -0.763  1.00  0.00     0.010 A 
ATOM     35  C   UNL     1     -12.053  10.325   0.172  1.00  0.00     0.010 A 
ATOM     36  C   UNL     1     -11.162  11.329  -0.236  1.00  0.00    -0.014 A 
BRANCH  36  37
ATOM     37  C   UNL     1     -11.500  12.770  -0.108  1.00  0.00     0.031 A 
ATOM     38  C   UNL     1     -11.660  13.409   1.245  1.00  0.00     0.074 A 
ATOM     39  C   UNL     1     -11.587  13.518  -1.225  1.00  0.00     0.049 A 
ATOM     40  N   UNL     1     -11.887  14.663   1.538  1.00  0.00    -0.248 NA
ATOM     41  C   UNL     1     -11.552  12.531   2.421  1.00  0.00     0.031 C 
ATOM     42  C   UNL     1     -11.438  13.000  -2.584  1.00  0.00     0.029 A 
ATOM     43  N   UNL     1     -11.783  14.864  -1.398  1.00  0.00    -0.354 N 
ATOM     44  C   UNL     1     -11.967  14.724   2.925  1.00  0.00     0.074 A 
ATOM     45  C   UNL     1     -11.793  13.375   3.416  1.00  0.00     0.031 C 
ATOM     46  C   UNL     1     -11.480  14.022  -3.448  1.00  0.00     0.029 A 
ATOM     47  C   UNL     1     -11.729  15.260  -2.714  1.00  0.00     0.049 A 
ATOM     48  H   UNL     1     -11.946  15.487  -0.653  1.00  0.00     0.167 HD
ATOM     49  C   UNL     1     -12.154  15.810   3.714  1.00  0.00     0.034 A 
ATOM     50  C   UNL     1     -11.867  16.480  -3.272  1.00  0.00     0.034 A 
ATOM     51  C   UNL     1     -12.304  17.151   3.211  1.00  0.00     0.049 A 
ATOM     52  C   UNL     1     -12.092  17.667  -2.375  1.00  0.00     0.074 A 
ATOM     53  C   UNL     1     -12.478  18.320   3.933  1.00  0.00     0.029 A 
ATOM     54  N   UNL     1     -12.291  17.509   1.871  1.00  0.00    -0.354 N 
ATOM     55  N   UNL     1     -12.135  17.710  -1.063  1.00  0.00    -0.248 NA
ATOM     56  C   UNL     1     -12.291  18.969  -3.024  1.00  0.00     0.031 C 
ATOM     57  C   UNL     1     -12.617  19.375   3.029  1.00  0.00     0.029 A 
ATOM     58  C   UNL     1     -12.475  18.876   1.743  1.00  0.00     0.049 A 
ATOM     59  H   UNL     1     -12.169  16.883   1.121  1.00  0.00     0.167 HD
ATOM     60  C   UNL     1     -12.360  19.042  -0.731  1.00  0.00     0.074 A 
ATOM     61  C   UNL     1     -12.411  19.777  -1.978  1.00  0.00     0.031 C 
ATOM     62  C   UNL     1     -12.520  19.600   0.495  1.00  0.00     0.034 A 
BRANCH  49  63
ATOM     63  C   UNL     1     -12.199  15.615   5.209  1.00  0.00     0.023 A 
ATOM     64  C   UNL     1     -13.384  15.879   5.920  1.00  0.00     0.031 A 
ATOM     65  C   UNL     1     -11.043  15.285   5.939  1.00  0.00     0.131 A 
ATOM     66  C   UNL     1     -13.381  15.834   7.321  1.00  0.00     0.055 A 
ATOM     67  C   UNL     1     -11.053  15.211   7.333  1.00  0.00     0.041 A 
ATOM     68  F   UNL     1      -9.889  15.021   5.305  1.00  0.00    -0.206 F 
ATOM     69  C   UNL     1     -12.223  15.497   8.030  1.00  0.00     0.022 A 
BRANCH  66  70
ATOM     70  S   UNL     1     -14.861  16.260   8.279  1.00  0.00     0.124 S 
ATOM     71  O   UNL     1     -15.115  15.016   9.004  1.00  0.00    -0.237 OA
ATOM     72  O   UNL     1     -14.386  17.373   9.097  1.00  0.00    -0.237 OA
ATOM     73  O   UNL     1     -15.851  16.600   7.264  1.00  0.00    -0.744 OA
ENDBRANCH  66  70
ENDBRANCH  49  63
BRANCH  50  74
ATOM     74  C   UNL     1     -11.737  16.614  -4.752  1.00  0.00     0.023 A 
ATOM     75  C   UNL     1     -12.618  15.939  -5.617  1.00  0.00     0.031 A 
ATOM     76  C   UNL     1     -10.650  17.300  -5.317  1.00  0.00     0.131 A 
ATOM     77  C   UNL     1     -12.347  15.892  -6.990  1.00  0.00     0.055 A 
ATOM     78  C   UNL     1     -10.426  17.313  -6.695  1.00  0.00     0.041 A 
ATOM     79  F   UNL     1      -9.777  17.948  -4.532  1.00  0.00    -0.206 F 
ATOM     80  C   UNL     1     -11.264  16.587  -7.536  1.00  0.00     0.022 A 
BRANCH  77  81
ATOM     81  S   UNL     1     -13.292  14.794  -8.083  1.00  0.00     0.124 S 
ATOM     82  O   UNL     1     -13.915  15.742  -9.000  1.00  0.00    -0.237 OA
ATOM     83  O   UNL     1     -12.237  13.960  -8.655  1.00  0.00    -0.237 OA
ATOM     84  O   UNL     1     -14.201  14.103  -7.174  1.00  0.00    -0.744 OA
ENDBRANCH  77  81
ENDBRANCH  50  74
BRANCH  62  85
ATOM     85  C   UNL     1     -12.784  21.082   0.577  1.00  0.00     0.023 A 
ATOM     86  C   UNL     1     -11.848  21.935   1.194  1.00  0.00     0.031 A 
ATOM     87  C   UNL     1     -14.018  21.622   0.178  1.00  0.00     0.131 A 
ATOM     88  C   UNL     1     -12.178  23.276   1.425  1.00  0.00     0.055 A 
ATOM     89  C   UNL     1     -14.326  22.968   0.376  1.00  0.00     0.041 A 
ATOM     90  F   UNL     1     -14.944  20.845  -0.406  1.00  0.00    -0.206 F 
ATOM     91  C   UNL     1     -13.409  23.798   1.014  1.00  0.00     0.022 A 
BRANCH  88  92
ATOM     92  S   UNL     1     -11.057  24.371   2.339  1.00  0.00     0.124 S 
ATOM     93  O   UNL     1     -10.766  25.401   1.345  1.00  0.00    -0.237 OA
ATOM     94  O   UNL     1     -11.892  24.802   3.458  1.00  0.00    -0.237 OA
ATOM     95  O   UNL     1      -9.933  23.511   2.692  1.00  0.00    -0.744 OA
ENDBRANCH  88  92
ENDBRANCH  62  85
ENDBRANCH  36  37
ENDBRANCH  28  31
ENDBRANCH  26  27
ENDBRANCH   1  26
TORSDOF 17
