REMARK SMILES O=C(C[C@H]1C[N@@H+](CCSc2ccccc2F)CCO1)NCCCCNC(=O)c1ccc(-c2c3nc(c(-c4cc(S(=O)(=O)[O-])ccc4F)c4ccc([nH]4)c(-c4cc(S(=O)(=O)[O-])ccc4F)c4nc(c(-c5cc(S(=O)(=O)[O-])ccc5F)c5ccc2[nH]5)C=C4)C=C3)cc1
REMARK SMILES IDX 21 1 20 2 1 3 2 4 3 6 4 7 5 8 19 9 6 10 18 11 17 12 7 14
REMARK SMILES IDX 8 15 9 16 10 17 11 18 15 19 12 20 14 21 16 22 13 23 22 24
REMARK SMILES IDX 23 25 24 26 25 27 26 28 27 30 28 31 29 32 90 33 30 34 89 35
REMARK SMILES IDX 31 36 32 37 33 38 83 39 34 40 88 41 82 42 84 43 35 44 87 45
REMARK SMILES IDX 81 46 80 47 36 49 68 50 48 51 67 52 49 53 52 54 66 55 85 56
REMARK SMILES IDX 50 57 51 58 65 60 86 61 53 62 37 63 38 64 46 65 39 66 45 67
REMARK SMILES IDX 47 68 44 69 40 70 41 71 42 72 43 73 69 74 70 75 78 76 71 77
REMARK SMILES IDX 77 78 79 79 76 80 72 81 73 82 74 83 75 84 54 85 55 86 63 87
REMARK SMILES IDX 56 88 62 89 64 90 61 91 57 92 58 93 59 94 60 95
REMARK H PARENT 20 5 6 13 25 29 84 48 52 59
REMARK Flexibility Score: inf
ROOT
ATOM      1  C   UNL     1       6.970   4.860   1.710  1.00  0.00     0.116 C 
ENDROOT
BRANCH   1   2
ATOM      2  N   UNL     1       6.346   3.991   0.726  1.00  0.00    -0.356 N 
ATOM      3  O   UNL     1       7.702   2.179   1.123  1.00  0.00    -0.275 OA
ATOM      4  C   UNL     1       6.752   2.688   0.534  1.00  0.00     0.222 C 
ATOM      5  H   UNL     1       5.610   4.346   0.177  1.00  0.00     0.163 HD
BRANCH   4   6
ATOM      6  C   UNL     1       5.947   1.910  -0.476  1.00  0.00     0.138 C 
BRANCH   6   7
ATOM      7  C   UNL     1       4.802   1.072   0.091  1.00  0.00     0.182 C 
ATOM      8  C   UNL     1       5.180   0.017   1.172  1.00  0.00     0.295 C 
ATOM      9  O   UNL     1       3.637   1.867   0.366  1.00  0.00    -0.366 OA
ATOM     10  N   UNL     1       4.838   0.306   2.567  1.00  0.00    -0.330 N 
ATOM     11  C   UNL     1       3.448   2.181   1.745  1.00  0.00     0.222 C 
ATOM     12  C   UNL     1       3.531   0.932   2.624  1.00  0.00     0.291 C 
ATOM     13  H   UNL     1       4.758  -0.591   3.047  1.00  0.00     0.348 HD
BRANCH  10  14
ATOM     14  C   UNL     1       5.894   0.824   3.447  1.00  0.00     0.273 C 
BRANCH  14  15
ATOM     15  C   UNL     1       5.939   2.284   3.986  1.00  0.00     0.136 C 
BRANCH  15  16
ATOM     16  S   UNL     1       4.977   2.715   5.510  1.00  0.00    -0.117 SA
BRANCH  16  17
ATOM     17  C   UNL     1       3.460   3.468   4.915  1.00  0.00     0.043 A 
ATOM     18  C   UNL     1       2.270   2.746   5.096  1.00  0.00     0.018 A 
ATOM     19  C   UNL     1       3.362   4.744   4.347  1.00  0.00     0.136 A 
ATOM     20  C   UNL     1       1.049   3.217   4.606  1.00  0.00     0.001 A 
ATOM     21  C   UNL     1       2.132   5.246   3.901  1.00  0.00     0.040 A 
ATOM     22  F   UNL     1       4.447   5.521   4.218  1.00  0.00    -0.206 F 
ATOM     23  C   UNL     1       0.978   4.469   4.004  1.00  0.00     0.003 A 
ENDBRANCH  16  17
ENDBRANCH  15  16
ENDBRANCH  14  15
ENDBRANCH  10  14
ENDBRANCH   6   7
ENDBRANCH   4   6
ENDBRANCH   1   2
BRANCH   1  24
ATOM     24  C   UNL     1       7.490   6.176   1.141  1.00  0.00     0.023 C 
BRANCH  24  25
ATOM     25  C   UNL     1       6.417   7.128   0.612  1.00  0.00     0.023 C 
BRANCH  25  26
ATOM     26  C   UNL     1       5.353   7.561   1.618  1.00  0.00     0.116 C 
BRANCH  26  27
ATOM     27  N   UNL     1       5.867   8.416   2.678  1.00  0.00    -0.352 N 
ATOM     28  C   UNL     1       5.450   9.671   3.063  1.00  0.00     0.251 C 
ATOM     29  H   UNL     1       6.620   8.045   3.191  1.00  0.00     0.163 HD
ATOM     30  O   UNL     1       6.087  10.296   3.909  1.00  0.00    -0.269 OA
BRANCH  28  31
ATOM     31  C   UNL     1       4.258  10.282   2.432  1.00  0.00     0.039 A 
ATOM     32  C   UNL     1       4.345  11.587   1.941  1.00  0.00     0.014 A 
ATOM     33  C   UNL     1       3.066   9.563   2.298  1.00  0.00     0.014 A 
ATOM     34  C   UNL     1       3.270  12.135   1.236  1.00  0.00     0.010 A 
ATOM     35  C   UNL     1       2.023  10.084   1.533  1.00  0.00     0.010 A 
ATOM     36  C   UNL     1       2.118  11.370   0.980  1.00  0.00    -0.014 A 
BRANCH  36  37
ATOM     37  C   UNL     1       1.024  11.896   0.118  1.00  0.00     0.031 A 
ATOM     38  C   UNL     1      -0.352  12.124   0.683  1.00  0.00     0.074 A 
ATOM     39  C   UNL     1       1.260  12.133  -1.190  1.00  0.00     0.049 A 
ATOM     40  N   UNL     1      -1.438  12.524   0.072  1.00  0.00    -0.248 NA
ATOM     41  C   UNL     1      -0.537  11.851   2.117  1.00  0.00     0.031 C 
ATOM     42  C   UNL     1       2.543  11.930  -1.866  1.00  0.00     0.029 A 
ATOM     43  N   UNL     1       0.435  12.600  -2.185  1.00  0.00    -0.354 N 
ATOM     44  C   UNL     1      -2.433  12.550   1.042  1.00  0.00     0.074 A 
ATOM     45  C   UNL     1      -1.835  12.073   2.270  1.00  0.00     0.031 C 
ATOM     46  C   UNL     1       2.431  12.309  -3.149  1.00  0.00     0.029 A 
ATOM     47  C   UNL     1       1.058  12.733  -3.405  1.00  0.00     0.049 A 
ATOM     48  H   UNL     1      -0.513  12.820  -2.038  1.00  0.00     0.167 HD
ATOM     49  C   UNL     1      -3.720  12.958   0.925  1.00  0.00     0.034 A 
ATOM     50  C   UNL     1       0.582  13.141  -4.600  1.00  0.00     0.034 A 
ATOM     51  C   UNL     1      -4.303  13.451  -0.297  1.00  0.00     0.049 A 
ATOM     52  C   UNL     1      -0.865  13.544  -4.715  1.00  0.00     0.074 A 
ATOM     53  C   UNL     1      -5.587  13.927  -0.502  1.00  0.00     0.029 A 
ATOM     54  N   UNL     1      -3.651  13.531  -1.519  1.00  0.00    -0.354 N 
ATOM     55  N   UNL     1      -1.788  13.568  -3.783  1.00  0.00    -0.248 NA
ATOM     56  C   UNL     1      -1.335  13.973  -6.040  1.00  0.00     0.031 C 
ATOM     57  C   UNL     1      -5.731  14.230  -1.859  1.00  0.00     0.029 A 
ATOM     58  C   UNL     1      -4.515  14.016  -2.487  1.00  0.00     0.049 A 
ATOM     59  H   UNL     1      -2.712  13.279  -1.675  1.00  0.00     0.167 HD
ATOM     60  C   UNL     1      -2.942  14.036  -4.404  1.00  0.00     0.074 A 
ATOM     61  C   UNL     1      -2.600  14.285  -5.788  1.00  0.00     0.031 C 
ATOM     62  C   UNL     1      -4.170  14.248  -3.869  1.00  0.00     0.034 A 
BRANCH  49  63
ATOM     63  C   UNL     1      -4.596  12.882   2.149  1.00  0.00     0.023 A 
ATOM     64  C   UNL     1      -4.379  13.715   3.259  1.00  0.00     0.031 A 
ATOM     65  C   UNL     1      -5.687  11.996   2.187  1.00  0.00     0.131 A 
ATOM     66  C   UNL     1      -5.220  13.618   4.378  1.00  0.00     0.055 A 
ATOM     67  C   UNL     1      -6.558  11.950   3.276  1.00  0.00     0.041 A 
ATOM     68  F   UNL     1      -5.928  11.167   1.159  1.00  0.00    -0.206 F 
ATOM     69  C   UNL     1      -6.323  12.760   4.383  1.00  0.00     0.022 A 
BRANCH  66  70
ATOM     70  S   UNL     1      -4.810  14.579   5.859  1.00  0.00     0.124 S 
ATOM     71  O   UNL     1      -3.530  13.990   6.246  1.00  0.00    -0.237 OA
ATOM     72  O   UNL     1      -4.756  15.944   5.348  1.00  0.00    -0.237 OA
ATOM     73  O   UNL     1      -5.919  14.297   6.768  1.00  0.00    -0.744 OA
ENDBRANCH  66  70
ENDBRANCH  49  63
BRANCH  50  74
ATOM     74  C   UNL     1       1.482  13.178  -5.786  1.00  0.00     0.023 A 
ATOM     75  C   UNL     1       1.864  14.398  -6.367  1.00  0.00     0.031 A 
ATOM     76  C   UNL     1       1.980  11.991  -6.353  1.00  0.00     0.131 A 
ATOM     77  C   UNL     1       2.705  14.403  -7.492  1.00  0.00     0.055 A 
ATOM     78  C   UNL     1       2.848  12.003  -7.446  1.00  0.00     0.041 A 
ATOM     79  F   UNL     1       1.649  10.800  -5.829  1.00  0.00    -0.206 F 
ATOM     80  C   UNL     1       3.211  13.214  -8.025  1.00  0.00     0.022 A 
BRANCH  77  81
ATOM     81  S   UNL     1       3.111  15.989  -8.271  1.00  0.00     0.124 S 
ATOM     82  O   UNL     1       1.804  16.431  -8.743  1.00  0.00    -0.237 OA
ATOM     83  O   UNL     1       3.681  16.740  -7.157  1.00  0.00    -0.237 OA
ATOM     84  O   UNL     1       4.062  15.619  -9.318  1.00  0.00    -0.744 OA
ENDBRANCH  77  81
ENDBRANCH  50  74
BRANCH  62  85
ATOM     85  C   UNL     1      -5.241  14.805  -4.772  1.00  0.00     0.023 A 
ATOM     86  C   UNL     1      -5.826  14.029  -5.785  1.00  0.00     0.031 A 
ATOM     87  C   UNL     1      -5.723  16.111  -4.570  1.00  0.00     0.131 A 
ATOM     88  C   UNL     1      -6.848  14.575  -6.577  1.00  0.00     0.055 A 
ATOM     89  C   UNL     1      -6.771  16.631  -5.329  1.00  0.00     0.041 A 
ATOM     90  F   UNL     1      -5.198  16.892  -3.612  1.00  0.00    -0.206 F 
ATOM     91  C   UNL     1      -7.338  15.863  -6.342  1.00  0.00     0.022 A 
BRANCH  88  92
ATOM     92  S   UNL     1      -7.517  13.586  -7.943  1.00  0.00     0.124 S 
ATOM     93  O   UNL     1      -6.355  13.455  -8.817  1.00  0.00    -0.237 OA
ATOM     94  O   UNL     1      -7.948  12.366  -7.269  1.00  0.00    -0.237 OA
ATOM     95  O   UNL     1      -8.599  14.416  -8.469  1.00  0.00    -0.744 OA
ENDBRANCH  88  92
ENDBRANCH  62  85
ENDBRANCH  36  37
ENDBRANCH  28  31
ENDBRANCH  26  27
ENDBRANCH  25  26
ENDBRANCH  24  25
ENDBRANCH   1  24
TORSDOF 19
