REMARK SMILES Cc1ccc(C)c(-n2nc(C)c(/C=C(/C#N)C(=O)NCCCCNC(=O)c3ccc(-c4c5nc(c(-c6cc(S(=O)(=O)[O-])ccc6F)c6ccc([nH]6)c(-c6cc(S(=O)(=O)[O-])ccc6F)c6nc(c(-c7cc(S(=O)(=O)[O-])ccc7F)c7ccc4[nH]7)C=C6)C=C5)cc3)c2Cl)c1
REMARK SMILES IDX 22 1 21 2 20 3 19 4 17 5 18 6 14 8 13 9 12 10 8 11 9 12
REMARK SMILES IDX 90 13 10 14 91 15 11 16 7 17 1 18 2 19 3 20 92 21 4 22 5 23
REMARK SMILES IDX 6 24 15 25 16 26 23 27 24 28 25 29 26 31 27 32 28 33 89 34
REMARK SMILES IDX 29 35 88 36 30 37 31 38 32 39 82 40 33 41 87 42 81 43 83 44
REMARK SMILES IDX 34 45 86 46 80 47 79 48 35 50 67 51 47 52 66 53 48 54 51 55
REMARK SMILES IDX 65 56 84 57 49 58 50 59 64 61 85 62 52 63 36 64 37 65 45 66
REMARK SMILES IDX 38 67 44 68 46 69 43 70 39 71 40 72 41 73 42 74 68 75 69 76
REMARK SMILES IDX 77 77 70 78 76 79 78 80 75 81 71 82 72 83 73 84 74 85 53 86
REMARK SMILES IDX 54 87 62 88 55 89 61 90 63 91 60 92 56 93 57 94 58 95 59 96
REMARK H PARENT 19 7 24 30 83 49 51 60
REMARK Flexibility Score: inf
ROOT
ATOM      1  C   UNL     1      -7.659   9.349  -0.904  1.00  0.00     0.023 C 
ENDROOT
BRANCH   1   2
ATOM      2  C   UNL     1      -6.215   9.357  -1.445  1.00  0.00     0.023 C 
BRANCH   2   3
ATOM      3  C   UNL     1      -5.119   9.019  -0.415  1.00  0.00     0.116 C 
BRANCH   3   4
ATOM      4  N   UNL     1      -5.069   7.584  -0.180  1.00  0.00    -0.351 N 
ATOM      5  C   UNL     1      -4.351   6.578  -0.759  1.00  0.00     0.261 C 
ATOM      6  O   UNL     1      -4.846   5.452  -0.713  1.00  0.00    -0.268 OA
ATOM      7  H   UNL     1      -5.670   7.278   0.538  1.00  0.00     0.163 HD
BRANCH   5   8
ATOM      8  C   UNL     1      -3.024   6.816  -1.421  1.00  0.00     0.117 C 
ATOM      9  C   UNL     1      -1.997   5.953  -1.314  1.00  0.00     0.038 C 
BRANCH   9  10
ATOM     10  C   UNL     1      -1.914   4.712  -0.578  1.00  0.00     0.036 A 
ATOM     11  N   UNL     1      -1.369   2.590  -0.124  1.00  0.00    -0.221 N 
ATOM     12  N   UNL     1      -2.229   2.943   0.860  1.00  0.00    -0.171 NA
ATOM     13  C   UNL     1      -1.177   3.629  -1.008  1.00  0.00     0.140 A 
ATOM     14  C   UNL     1      -2.491   4.242   0.646  1.00  0.00     0.069 A 
ATOM     15  Cl  UNL     1      -0.287   3.400  -2.455  1.00  0.00    -0.061 Cl
ATOM     16  C   UNL     1      -3.304   4.935   1.684  1.00  0.00     0.069 C 
BRANCH  11  17
ATOM     17  C   UNL     1      -0.737   1.321  -0.080  1.00  0.00     0.069 A 
ATOM     18  C   UNL     1       2.862   0.059   0.008  1.00  0.00     0.044 C 
ATOM     19  C   UNL     1       1.362   0.083  -0.013  1.00  0.00    -0.049 A 
ATOM     20  C   UNL     1       0.637  -1.107   0.081  1.00  0.00     0.004 A 
ATOM     21  C   UNL     1       0.669   1.294  -0.105  1.00  0.00     0.032 A 
ATOM     22  C   UNL     1      -0.759  -1.085   0.112  1.00  0.00     0.006 A 
ATOM     23  C   UNL     1      -1.472   0.125   0.042  1.00  0.00    -0.025 A 
ATOM     24  C   UNL     1      -2.974   0.038   0.044  1.00  0.00     0.047 C 
ENDBRANCH  11  17
ENDBRANCH   9  10
BRANCH   8  25
ATOM     25  C   UNL     1      -3.058   7.979  -2.401  1.00  0.00     0.105 C 
ATOM     26  N   UNL     1      -3.086   8.943  -3.213  1.00  0.00    -0.192 NA
ENDBRANCH   8  25
ENDBRANCH   5   8
ENDBRANCH   3   4
ENDBRANCH   2   3
ENDBRANCH   1   2
BRANCH   1  27
ATOM     27  C   UNL     1      -8.108  10.570  -0.086  1.00  0.00     0.116 C 
BRANCH  27  28
ATOM     28  N   UNL     1      -8.021  11.851  -0.810  1.00  0.00    -0.352 N 
ATOM     29  C   UNL     1      -7.514  13.102  -0.477  1.00  0.00     0.251 C 
ATOM     30  H   UNL     1      -8.402  11.813  -1.718  1.00  0.00     0.163 HD
ATOM     31  O   UNL     1      -7.844  14.081  -1.149  1.00  0.00    -0.269 OA
BRANCH  29  32
ATOM     32  C   UNL     1      -6.564  13.274   0.644  1.00  0.00     0.039 A 
ATOM     33  C   UNL     1      -5.982  14.480   1.047  1.00  0.00     0.014 A 
ATOM     34  C   UNL     1      -6.032  12.122   1.167  1.00  0.00     0.014 A 
ATOM     35  C   UNL     1      -4.842  14.437   1.876  1.00  0.00     0.010 A 
ATOM     36  C   UNL     1      -5.310  12.143   2.313  1.00  0.00     0.010 A 
ATOM     37  C   UNL     1      -4.455  13.216   2.428  1.00  0.00    -0.014 A 
BRANCH  37  38
ATOM     38  C   UNL     1      -3.287  12.935   3.249  1.00  0.00     0.031 A 
ATOM     39  C   UNL     1      -3.529  13.052   4.706  1.00  0.00     0.074 A 
ATOM     40  C   UNL     1      -2.275  12.146   2.821  1.00  0.00     0.049 A 
ATOM     41  N   UNL     1      -3.306  14.075   5.463  1.00  0.00    -0.248 NA
ATOM     42  C   UNL     1      -4.364  12.012   5.343  1.00  0.00     0.031 C 
ATOM     43  C   UNL     1      -2.119  11.463   1.532  1.00  0.00     0.029 A 
ATOM     44  N   UNL     1      -1.210  11.688   3.534  1.00  0.00    -0.354 N 
ATOM     45  C   UNL     1      -3.746  13.683   6.722  1.00  0.00     0.074 A 
ATOM     46  C   UNL     1      -4.696  12.642   6.468  1.00  0.00     0.031 C 
ATOM     47  C   UNL     1      -1.125  10.547   1.626  1.00  0.00     0.029 A 
ATOM     48  C   UNL     1      -0.496  10.656   2.935  1.00  0.00     0.049 A 
ATOM     49  H   UNL     1      -0.962  12.062   4.410  1.00  0.00     0.167 HD
ATOM     50  C   UNL     1      -3.047  13.965   7.860  1.00  0.00     0.034 A 
ATOM     51  C   UNL     1       0.497   9.920   3.509  1.00  0.00     0.034 A 
ATOM     52  C   UNL     1      -1.932  14.848   7.551  1.00  0.00     0.049 A 
ATOM     53  C   UNL     1       0.974  10.690   4.693  1.00  0.00     0.074 A 
ATOM     54  C   UNL     1      -1.812  16.080   6.933  1.00  0.00     0.029 A 
ATOM     55  N   UNL     1      -0.665  14.294   7.506  1.00  0.00    -0.354 N 
ATOM     56  N   UNL     1       1.554  11.858   4.612  1.00  0.00    -0.248 NA
ATOM     57  C   UNL     1       0.379  10.393   5.990  1.00  0.00     0.031 C 
ATOM     58  C   UNL     1      -0.642  15.974   6.121  1.00  0.00     0.029 A 
ATOM     59  C   UNL     1      -0.056  14.728   6.354  1.00  0.00     0.049 A 
ATOM     60  H   UNL     1      -0.270  13.695   8.180  1.00  0.00     0.167 HD
ATOM     61  C   UNL     1       1.040  12.597   5.670  1.00  0.00     0.074 A 
ATOM     62  C   UNL     1       0.406  11.611   6.542  1.00  0.00     0.031 C 
ATOM     63  C   UNL     1       0.913  13.956   5.594  1.00  0.00     0.034 A 
BRANCH  50  64
ATOM     64  C   UNL     1      -3.080  13.150   9.149  1.00  0.00     0.023 A 
ATOM     65  C   UNL     1      -2.166  13.536  10.148  1.00  0.00     0.031 A 
ATOM     66  C   UNL     1      -3.747  11.928   9.398  1.00  0.00     0.131 A 
ATOM     67  C   UNL     1      -1.820  12.671  11.198  1.00  0.00     0.055 A 
ATOM     68  C   UNL     1      -3.436  11.089  10.474  1.00  0.00     0.041 A 
ATOM     69  F   UNL     1      -4.709  11.434   8.618  1.00  0.00    -0.206 F 
ATOM     70  C   UNL     1      -2.435  11.437  11.359  1.00  0.00     0.022 A 
BRANCH  67  71
ATOM     71  S   UNL     1      -0.413  13.126  12.236  1.00  0.00     0.124 S 
ATOM     72  O   UNL     1       0.607  13.404  11.230  1.00  0.00    -0.237 OA
ATOM     73  O   UNL     1      -0.940  14.277  12.960  1.00  0.00    -0.237 OA
ATOM     74  O   UNL     1      -0.189  11.928  13.041  1.00  0.00    -0.744 OA
ENDBRANCH  67  71
ENDBRANCH  50  64
BRANCH  51  75
ATOM     75  C   UNL     1       0.837   8.486   3.269  1.00  0.00     0.023 A 
ATOM     76  C   UNL     1       2.095   7.924   3.587  1.00  0.00     0.031 A 
ATOM     77  C   UNL     1      -0.185   7.575   2.921  1.00  0.00     0.131 A 
ATOM     78  C   UNL     1       2.286   6.519   3.541  1.00  0.00     0.055 A 
ATOM     79  C   UNL     1       0.014   6.193   2.880  1.00  0.00     0.041 A 
ATOM     80  F   UNL     1      -1.439   7.992   2.682  1.00  0.00    -0.206 F 
ATOM     81  C   UNL     1       1.248   5.656   3.195  1.00  0.00     0.022 A 
BRANCH  78  82
ATOM     82  S   UNL     1       3.883   5.777   4.014  1.00  0.00     0.124 S 
ATOM     83  O   UNL     1       4.771   6.258   2.962  1.00  0.00    -0.237 OA
ATOM     84  O   UNL     1       4.096   6.323   5.349  1.00  0.00    -0.237 OA
ATOM     85  O   UNL     1       3.616   4.338   3.978  1.00  0.00    -0.744 OA
ENDBRANCH  78  82
ENDBRANCH  51  75
BRANCH  63  86
ATOM     86  C   UNL     1       1.655  14.699   4.501  1.00  0.00     0.023 A 
ATOM     87  C   UNL     1       1.478  14.491   3.115  1.00  0.00     0.031 A 
ATOM     88  C   UNL     1       2.468  15.776   4.901  1.00  0.00     0.131 A 
ATOM     89  C   UNL     1       2.103  15.351   2.190  1.00  0.00     0.055 A 
ATOM     90  C   UNL     1       3.068  16.635   3.983  1.00  0.00     0.041 A 
ATOM     91  F   UNL     1       2.653  16.041   6.205  1.00  0.00    -0.206 F 
ATOM     92  C   UNL     1       2.890  16.425   2.622  1.00  0.00     0.022 A 
BRANCH  89  93
ATOM     93  S   UNL     1       1.897  15.092   0.398  1.00  0.00     0.124 S 
ATOM     94  O   UNL     1       2.201  13.677   0.224  1.00  0.00    -0.237 OA
ATOM     95  O   UNL     1       0.505  15.479   0.183  1.00  0.00    -0.237 OA
ATOM     96  O   UNL     1       2.879  16.004  -0.193  1.00  0.00    -0.744 OA
ENDBRANCH  89  93
ENDBRANCH  63  86
ENDBRANCH  37  38
ENDBRANCH  29  32
ENDBRANCH  27  28
ENDBRANCH   1  27
TORSDOF 17
