REMARK SMILES C[C@@H](C(=O)NCCCCNC(=O)c1ccc(-c2c3nc(c(-c4cc(S(=O)(=O)[O-])ccc4F)c4ccc([nH]4)c(-c4cc(S(=O)(=O)[O-])ccc4F)c4nc(c(-c5cc(S(=O)(=O)[O-])ccc5F)c5ccc2[nH]5)C=C4)C=C3)cc1)c1cc(/C=C/S(C)(=O)=O)cc(C(=O)c2ccccc2)c1
REMARK SMILES IDX 7 1 6 2 5 3 3 4 4 5 2 7 1 8 76 9 77 10 95 11 78 12 86 13
REMARK SMILES IDX 85 14 79 15 80 16 81 17 82 18 83 19 84 20 87 21 88 22 89 23
REMARK SMILES IDX 90 24 94 25 91 26 93 27 92 28 8 29 9 30 10 31 11 32 12 34
REMARK SMILES IDX 13 35 14 36 75 37 15 38 74 39 16 40 17 41 18 42 68 43 19 44
REMARK SMILES IDX 73 45 67 46 69 47 20 48 72 49 66 50 65 51 21 53 53 54 33 55
REMARK SMILES IDX 52 56 34 57 37 58 51 59 70 60 35 61 36 62 50 64 71 65 38 66
REMARK SMILES IDX 22 67 23 68 31 69 24 70 30 71 32 72 29 73 25 74 26 75 27 76
REMARK SMILES IDX 28 77 54 78 55 79 63 80 56 81 62 82 64 83 61 84 57 85 58 86
REMARK SMILES IDX 59 87 60 88 39 89 40 90 48 91 41 92 47 93 49 94 46 95 42 96
REMARK SMILES IDX 43 97 44 98 45 99
REMARK H PARENT 5 6 10 33 69 52 37 63
REMARK Flexibility Score: inf
ROOT
ATOM      1  C   UNL     1       4.239   1.267  -0.148  1.00  0.00     0.023 C 
ENDROOT
BRANCH   1   2
ATOM      2  C   UNL     1       3.412   1.473   1.124  1.00  0.00     0.116 C 
BRANCH   2   3
ATOM      3  N   UNL     1       2.401   2.491   0.919  1.00  0.00    -0.356 N 
ATOM      4  C   UNL     1       1.086   2.346   0.575  1.00  0.00     0.227 C 
ATOM      5  O   UNL     1       0.528   3.337   0.103  1.00  0.00    -0.274 OA
ATOM      6  H   UNL     1       2.704   3.419   1.045  1.00  0.00     0.163 HD
BRANCH   4   7
ATOM      7  C   UNL     1       0.396   0.988   0.791  1.00  0.00     0.105 C 
ATOM      8  C   UNL     1       0.722   0.084  -0.407  1.00  0.00     0.023 C 
BRANCH   7   9
ATOM      9  C   UNL     1      -1.114   1.018   1.069  1.00  0.00    -0.035 A 
ATOM     10  C   UNL     1      -1.831   2.191   1.347  1.00  0.00     0.012 A 
ATOM     11  C   UNL     1      -1.826  -0.190   1.112  1.00  0.00     0.016 A 
ATOM     12  C   UNL     1      -3.218   2.196   1.579  1.00  0.00    -0.024 A 
ATOM     13  C   UNL     1      -3.200  -0.229   1.379  1.00  0.00     0.023 A 
ATOM     14  C   UNL     1      -3.895   0.969   1.584  1.00  0.00     0.020 A 
BRANCH  12  15
ATOM     15  C   UNL     1      -3.971   3.441   1.844  1.00  0.00     0.020 C 
ATOM     16  C   UNL     1      -3.436   4.673   1.874  1.00  0.00     0.106 C 
BRANCH  16  17
ATOM     17  S   UNL     1      -4.408   6.053   2.277  1.00  0.00     0.168 S 
ATOM     18  C   UNL     1      -3.505   6.711   3.660  1.00  0.00     0.163 C 
ATOM     19  O   UNL     1      -4.308   7.019   1.200  1.00  0.00    -0.225 OA
ATOM     20  O   UNL     1      -5.705   5.635   2.774  1.00  0.00    -0.225 OA
ENDBRANCH  16  17
ENDBRANCH  12  15
BRANCH  13  21
ATOM     21  C   UNL     1      -3.941  -1.526   1.408  1.00  0.00     0.193 C 
ATOM     22  O   UNL     1      -5.164  -1.546   1.323  1.00  0.00    -0.289 OA
BRANCH  21  23
ATOM     23  C   UNL     1      -3.212  -2.816   1.498  1.00  0.00     0.022 A 
ATOM     24  C   UNL     1      -3.474  -3.800   0.539  1.00  0.00     0.012 A 
ATOM     25  C   UNL     1      -2.261  -3.045   2.501  1.00  0.00     0.012 A 
ATOM     26  C   UNL     1      -2.751  -4.994   0.557  1.00  0.00     0.001 A 
ATOM     27  C   UNL     1      -1.538  -4.239   2.510  1.00  0.00     0.001 A 
ATOM     28  C   UNL     1      -1.779  -5.208   1.535  1.00  0.00     0.000 A 
ENDBRANCH  21  23
ENDBRANCH  13  21
ENDBRANCH   7   9
ENDBRANCH   4   7
ENDBRANCH   2   3
ENDBRANCH   1   2
BRANCH   1  29
ATOM     29  C   UNL     1       5.013   2.502  -0.611  1.00  0.00     0.023 C 
BRANCH  29  30
ATOM     30  C   UNL     1       5.967   3.075   0.424  1.00  0.00     0.116 C 
BRANCH  30  31
ATOM     31  N   UNL     1       6.966   2.108   0.849  1.00  0.00    -0.352 N 
ATOM     32  C   UNL     1       8.326   2.273   0.958  1.00  0.00     0.251 C 
ATOM     33  H   UNL     1       6.624   1.217   1.090  1.00  0.00     0.163 HD
ATOM     34  O   UNL     1       9.046   1.300   1.157  1.00  0.00    -0.269 OA
BRANCH  32  35
ATOM     35  C   UNL     1       8.903   3.625   0.799  1.00  0.00     0.039 A 
ATOM     36  C   UNL     1      10.015   3.796  -0.026  1.00  0.00     0.014 A 
ATOM     37  C   UNL     1       8.319   4.723   1.437  1.00  0.00     0.014 A 
ATOM     38  C   UNL     1      10.506   5.081  -0.260  1.00  0.00     0.010 A 
ATOM     39  C   UNL     1       8.756   6.008   1.134  1.00  0.00     0.010 A 
ATOM     40  C   UNL     1       9.859   6.201   0.289  1.00  0.00    -0.014 A 
BRANCH  40  41
ATOM     41  C   UNL     1      10.333   7.582   0.015  1.00  0.00     0.031 A 
ATOM     42  C   UNL     1      10.819   8.442   1.150  1.00  0.00     0.074 A 
ATOM     43  C   UNL     1      10.264   8.082  -1.234  1.00  0.00     0.049 A 
ATOM     44  N   UNL     1      11.178   9.700   1.143  1.00  0.00    -0.248 NA
ATOM     45  C   UNL     1      10.876   7.809   2.477  1.00  0.00     0.031 C 
ATOM     46  C   UNL     1       9.780   7.356  -2.410  1.00  0.00     0.029 A 
ATOM     47  N   UNL     1      10.590   9.322  -1.724  1.00  0.00    -0.354 N 
ATOM     48  C   UNL     1      11.489  10.012   2.462  1.00  0.00     0.074 A 
ATOM     49  C   UNL     1      11.207   8.831   3.249  1.00  0.00     0.031 C 
ATOM     50  C   UNL     1       9.867   8.154  -3.487  1.00  0.00     0.029 A 
ATOM     51  C   UNL     1      10.358   9.464  -3.073  1.00  0.00     0.049 A 
ATOM     52  H   UNL     1      10.957  10.043  -1.162  1.00  0.00     0.167 HD
ATOM     53  C   UNL     1      11.988  11.168   2.966  1.00  0.00     0.034 A 
ATOM     54  C   UNL     1      10.506  10.534  -3.880  1.00  0.00     0.034 A 
ATOM     55  C   UNL     1      12.271  12.333   2.162  1.00  0.00     0.049 A 
ATOM     56  C   UNL     1      11.022  11.824  -3.291  1.00  0.00     0.074 A 
ATOM     57  C   UNL     1      12.822  13.539   2.558  1.00  0.00     0.029 A 
ATOM     58  N   UNL     1      12.016  12.442   0.800  1.00  0.00    -0.354 N 
ATOM     59  N   UNL     1      11.354  12.091  -2.048  1.00  0.00    -0.248 NA
ATOM     60  C   UNL     1      11.193  12.952  -4.215  1.00  0.00     0.031 C 
ATOM     61  C   UNL     1      12.825  14.402   1.457  1.00  0.00     0.029 A 
ATOM     62  C   UNL     1      12.365  13.706   0.350  1.00  0.00     0.049 A 
ATOM     63  H   UNL     1      11.643  11.726   0.237  1.00  0.00     0.167 HD
ATOM     64  C   UNL     1      11.806  13.408  -2.051  1.00  0.00     0.074 A 
ATOM     65  C   UNL     1      11.716  13.874  -3.420  1.00  0.00     0.031 C 
ATOM     66  C   UNL     1      12.263  14.162  -1.018  1.00  0.00     0.034 A 
BRANCH  53  67
ATOM     67  C   UNL     1      12.226  11.231   4.457  1.00  0.00     0.023 A 
ATOM     68  C   UNL     1      13.127  10.364   5.100  1.00  0.00     0.031 A 
ATOM     69  C   UNL     1      11.517  12.147   5.254  1.00  0.00     0.131 A 
ATOM     70  C   UNL     1      13.231  10.370   6.499  1.00  0.00     0.055 A 
ATOM     71  C   UNL     1      11.694  12.212   6.638  1.00  0.00     0.041 A 
ATOM     72  F   UNL     1      10.624  12.985   4.704  1.00  0.00    -0.206 F 
ATOM     73  C   UNL     1      12.542  11.308   7.271  1.00  0.00     0.022 A 
BRANCH  70  74
ATOM     74  S   UNL     1      14.147   9.027   7.303  1.00  0.00     0.124 S 
ATOM     75  O   UNL     1      13.433   7.850   6.814  1.00  0.00    -0.237 OA
ATOM     76  O   UNL     1      15.498   9.214   6.789  1.00  0.00    -0.237 OA
ATOM     77  O   UNL     1      13.976   9.301   8.728  1.00  0.00    -0.744 OA
ENDBRANCH  70  74
ENDBRANCH  53  67
BRANCH  54  78
ATOM     78  C   UNL     1      10.152  10.445  -5.326  1.00  0.00     0.023 A 
ATOM     79  C   UNL     1      11.128  10.609  -6.322  1.00  0.00     0.031 A 
ATOM     80  C   UNL     1       8.823  10.236  -5.736  1.00  0.00     0.131 A 
ATOM     81  C   UNL     1      10.754  10.611  -7.676  1.00  0.00     0.055 A 
ATOM     82  C   UNL     1       8.465  10.180  -7.084  1.00  0.00     0.041 A 
ATOM     83  F   UNL     1       7.850  10.070  -4.826  1.00  0.00    -0.206 F 
ATOM     84  C   UNL     1       9.432  10.382  -8.063  1.00  0.00     0.022 A 
BRANCH  81  85
ATOM     85  S   UNL     1      12.010  11.010  -8.922  1.00  0.00     0.124 S 
ATOM     86  O   UNL     1      12.442  12.335  -8.493  1.00  0.00    -0.237 OA
ATOM     87  O   UNL     1      12.973   9.930  -8.738  1.00  0.00    -0.237 OA
ATOM     88  O   UNL     1      11.265  10.971 -10.179  1.00  0.00    -0.744 OA
ENDBRANCH  81  85
ENDBRANCH  54  78
BRANCH  66  89
ATOM     89  C   UNL     1      12.752  15.554  -1.341  1.00  0.00     0.023 A 
ATOM     90  C   UNL     1      11.888  16.558  -1.810  1.00  0.00     0.031 A 
ATOM     91  C   UNL     1      14.112  15.877  -1.179  1.00  0.00     0.131 A 
ATOM     92  C   UNL     1      12.402  17.818  -2.154  1.00  0.00     0.055 A 
ATOM     93  C   UNL     1      14.605  17.152  -1.457  1.00  0.00     0.041 A 
ATOM     94  F   UNL     1      14.986  14.956  -0.739  1.00  0.00    -0.206 F 
ATOM     95  C   UNL     1      13.751  18.128  -1.961  1.00  0.00     0.022 A 
BRANCH  92  96
ATOM     96  S   UNL     1      11.303  19.020  -2.953  1.00  0.00     0.124 S 
ATOM     97  O   UNL     1      10.862  18.287  -4.135  1.00  0.00    -0.237 OA
ATOM     98  O   UNL     1      10.289  19.245  -1.927  1.00  0.00    -0.237 OA
ATOM     99  O   UNL     1      12.177  20.160  -3.220  1.00  0.00    -0.744 OA
ENDBRANCH  92  96
ENDBRANCH  66  89
ENDBRANCH  40  41
ENDBRANCH  32  35
ENDBRANCH  30  31
ENDBRANCH  29  30
ENDBRANCH   1  29
TORSDOF 19
