REMARK SMILES [NH3+][C@H]1CCC[C@H]1C(=O)NCc1ccc(C(=O)NCCCCNC(=O)c2ccc(-c3c4nc(c(-c5cc(S(=O)(=O)[O-])ccc5F)c5ccc([nH]5)c(-c5cc(S(=O)(=O)[O-])ccc5F)c5nc(c(-c6cc(S(=O)(=O)[O-])ccc6F)c6ccc3[nH]6)C=C5)C=C4)cc2)o1
REMARK SMILES IDX 19 1 18 2 17 3 15 4 16 5 14 7 11 8 12 9 88 10 13 11 10 12
REMARK SMILES IDX 9 13 7 14 8 15 6 17 2 18 3 19 4 20 5 21 1 22 20 26 21 27
REMARK SMILES IDX 22 28 23 29 24 31 25 32 26 33 87 34 27 35 86 36 28 37 29 38
REMARK SMILES IDX 30 39 80 40 31 41 85 42 79 43 81 44 32 45 84 46 78 47 77 48
REMARK SMILES IDX 33 50 65 51 45 52 64 53 46 54 49 55 63 56 82 57 47 58 48 59
REMARK SMILES IDX 62 61 83 62 50 63 34 64 35 65 43 66 36 67 42 68 44 69 41 70
REMARK SMILES IDX 37 71 38 72 39 73 40 74 66 75 67 76 75 77 68 78 74 79 76 80
REMARK SMILES IDX 73 81 69 82 70 83 71 84 72 85 51 86 52 87 60 88 53 89 59 90
REMARK SMILES IDX 61 91 58 92 54 93 55 94 56 95 57 96
REMARK H PARENT 17 6 9 16 1 23 1 24 1 25 22 30 81 49 49 60
REMARK Flexibility Score: inf
ROOT
ATOM      1  C   UNL     1      -5.787  -3.784   3.039  1.00  0.00     0.023 C 
ENDROOT
BRANCH   1   2
ATOM      2  C   UNL     1      -5.424  -3.001   1.777  1.00  0.00     0.116 C 
BRANCH   2   3
ATOM      3  N   UNL     1      -5.846  -1.620   1.871  1.00  0.00    -0.349 N 
ATOM      4  C   UNL     1      -5.184  -0.503   2.330  1.00  0.00     0.286 C 
ATOM      5  O   UNL     1      -5.799   0.561   2.218  1.00  0.00    -0.266 OA
ATOM      6  H   UNL     1      -6.761  -1.451   1.553  1.00  0.00     0.163 HD
BRANCH   4   7
ATOM      7  C   UNL     1      -3.844  -0.578   2.890  1.00  0.00     0.191 A 
ATOM      8  C   UNL     1      -1.950   0.370   3.561  1.00  0.00     0.124 A 
ATOM      9  C   UNL     1      -1.777  -0.987   3.707  1.00  0.00     0.048 A 
ATOM     10  O   UNL     1      -3.203   0.625   3.094  1.00  0.00    -0.454 OA
ATOM     11  C   UNL     1      -2.992  -1.589   3.301  1.00  0.00     0.056 A 
BRANCH   8  12
ATOM     12  C   UNL     1      -1.079   1.555   3.769  1.00  0.00     0.191 C 
BRANCH  12  13
ATOM     13  N   UNL     1       0.297   1.125   3.915  1.00  0.00    -0.348 N 
ATOM     14  C   UNL     1       1.330   1.093   3.040  1.00  0.00     0.229 C 
ATOM     15  O   UNL     1       2.320   0.435   3.389  1.00  0.00    -0.275 OA
ATOM     16  H   UNL     1       0.523   0.796   4.815  1.00  0.00     0.163 HD
BRANCH  14  17
ATOM     17  C   UNL     1       1.373   1.855   1.722  1.00  0.00     0.136 C 
ATOM     18  C   UNL     1       0.593   1.327   0.511  1.00  0.00     0.193 C 
ATOM     19  C   UNL     1       0.705   2.501  -0.471  1.00  0.00     0.066 C 
ATOM     20  C   UNL     1       0.719   3.772   0.382  1.00  0.00     0.007 C 
ATOM     21  C   UNL     1       1.092   3.352   1.802  1.00  0.00     0.020 C 
BRANCH  18  22
ATOM     22  N   UNL     1      -0.807   0.997   0.714  1.00  0.00    -0.354 N 
ATOM     23  H   UNL     1      -1.208   0.660  -0.161  1.00  0.00     0.344 HD
ATOM     24  H   UNL     1      -1.312   1.829   1.021  1.00  0.00     0.344 HD
ATOM     25  H   UNL     1      -0.885   0.270   1.426  1.00  0.00     0.344 HD
ENDBRANCH  18  22
ENDBRANCH  14  17
ENDBRANCH  12  13
ENDBRANCH   8  12
ENDBRANCH   4   7
ENDBRANCH   2   3
ENDBRANCH   1   2
BRANCH   1  26
ATOM     26  C   UNL     1      -7.236  -4.281   3.074  1.00  0.00     0.023 C 
BRANCH  26  27
ATOM     27  C   UNL     1      -7.622  -5.250   1.957  1.00  0.00     0.116 C 
BRANCH  27  28
ATOM     28  N   UNL     1      -6.764  -6.421   1.885  1.00  0.00    -0.352 N 
ATOM     29  C   UNL     1      -7.087  -7.698   1.482  1.00  0.00     0.251 C 
ATOM     30  H   UNL     1      -5.829  -6.284   2.161  1.00  0.00     0.163 HD
ATOM     31  O   UNL     1      -6.264  -8.596   1.581  1.00  0.00    -0.269 OA
BRANCH  29  32
ATOM     32  C   UNL     1      -8.450  -7.972   0.976  1.00  0.00     0.039 A 
ATOM     33  C   UNL     1      -9.162  -9.045   1.516  1.00  0.00     0.014 A 
ATOM     34  C   UNL     1      -9.032  -7.154   0.005  1.00  0.00     0.014 A 
ATOM     35  C   UNL     1     -10.490  -9.253   1.135  1.00  0.00     0.010 A 
ATOM     36  C   UNL     1     -10.374  -7.324  -0.326  1.00  0.00     0.010 A 
ATOM     37  C   UNL     1     -11.119  -8.370   0.243  1.00  0.00    -0.014 A 
BRANCH  37  38
ATOM     38  C   UNL     1     -12.557  -8.517  -0.103  1.00  0.00     0.031 A 
ATOM     39  C   UNL     1     -12.963  -8.835  -1.516  1.00  0.00     0.074 A 
ATOM     40  C   UNL     1     -13.495  -8.295   0.840  1.00  0.00     0.049 A 
ATOM     41  N   UNL     1     -14.160  -8.910  -2.036  1.00  0.00    -0.248 NA
ATOM     42  C   UNL     1     -11.873  -9.070  -2.475  1.00  0.00     0.031 C 
ATOM     43  C   UNL     1     -13.224  -7.941   2.236  1.00  0.00     0.029 A 
ATOM     44  N   UNL     1     -14.865  -8.322   0.768  1.00  0.00    -0.354 N 
ATOM     45  C   UNL     1     -13.971  -9.190  -3.385  1.00  0.00     0.074 A 
ATOM     46  C   UNL     1     -12.541  -9.212  -3.611  1.00  0.00     0.031 C 
ATOM     47  C   UNL     1     -14.389  -7.804   2.889  1.00  0.00     0.029 A 
ATOM     48  C   UNL     1     -15.490  -8.014   1.955  1.00  0.00     0.049 A 
ATOM     49  H   UNL     1     -15.356  -8.542  -0.057  1.00  0.00     0.167 HD
ATOM     50  C   UNL     1     -14.903  -9.430  -4.341  1.00  0.00     0.034 A 
ATOM     51  C   UNL     1     -16.800  -7.901   2.253  1.00  0.00     0.034 A 
ATOM     52  C   UNL     1     -16.324  -9.419  -4.096  1.00  0.00     0.049 A 
ATOM     53  C   UNL     1     -17.816  -8.155   1.167  1.00  0.00     0.074 A 
ATOM     54  C   UNL     1     -17.354  -9.692  -4.981  1.00  0.00     0.029 A 
ATOM     55  N   UNL     1     -16.919  -9.117  -2.878  1.00  0.00    -0.354 N 
ATOM     56  N   UNL     1     -17.619  -8.461  -0.095  1.00  0.00    -0.248 NA
ATOM     57  C   UNL     1     -19.231  -8.059   1.549  1.00  0.00     0.031 C 
ATOM     58  C   UNL     1     -18.569  -9.498  -4.315  1.00  0.00     0.029 A 
ATOM     59  C   UNL     1     -18.300  -9.174  -2.995  1.00  0.00     0.049 A 
ATOM     60  H   UNL     1     -16.432  -8.894  -2.052  1.00  0.00     0.167 HD
ATOM     61  C   UNL     1     -18.886  -8.628  -0.646  1.00  0.00     0.074 A 
ATOM     62  C   UNL     1     -19.837  -8.403   0.423  1.00  0.00     0.031 C 
ATOM     63  C   UNL     1     -19.234  -8.943  -1.919  1.00  0.00     0.034 A 
BRANCH  50  64
ATOM     64  C   UNL     1     -14.407  -9.704  -5.740  1.00  0.00     0.023 A 
ATOM     65  C   UNL     1     -13.626 -10.835  -6.036  1.00  0.00     0.031 A 
ATOM     66  C   UNL     1     -14.704  -8.816  -6.789  1.00  0.00     0.131 A 
ATOM     67  C   UNL     1     -13.110 -11.011  -7.328  1.00  0.00     0.055 A 
ATOM     68  C   UNL     1     -14.252  -9.040  -8.092  1.00  0.00     0.041 A 
ATOM     69  F   UNL     1     -15.428  -7.709  -6.564  1.00  0.00    -0.206 F 
ATOM     70  C   UNL     1     -13.438 -10.136  -8.364  1.00  0.00     0.022 A 
BRANCH  67  71
ATOM     71  S   UNL     1     -11.895 -12.330  -7.602  1.00  0.00     0.124 S 
ATOM     72  O   UNL     1     -10.820 -11.932  -6.695  1.00  0.00    -0.237 OA
ATOM     73  O   UNL     1     -12.637 -13.527  -7.226  1.00  0.00    -0.237 OA
ATOM     74  O   UNL     1     -11.577 -12.213  -9.023  1.00  0.00    -0.744 OA
ENDBRANCH  67  71
ENDBRANCH  50  64
BRANCH  51  75
ATOM     75  C   UNL     1     -17.238  -7.521   3.627  1.00  0.00     0.023 A 
ATOM     76  C   UNL     1     -17.988  -8.407   4.416  1.00  0.00     0.031 A 
ATOM     77  C   UNL     1     -16.963  -6.245   4.149  1.00  0.00     0.131 A 
ATOM     78  C   UNL     1     -18.488  -7.987   5.658  1.00  0.00     0.055 A 
ATOM     79  C   UNL     1     -17.415  -5.851   5.410  1.00  0.00     0.041 A 
ATOM     80  F   UNL     1     -16.244  -5.360   3.439  1.00  0.00    -0.206 F 
ATOM     81  C   UNL     1     -18.197  -6.719   6.165  1.00  0.00     0.022 A 
BRANCH  78  82
ATOM     82  S   UNL     1     -19.613  -9.089   6.558  1.00  0.00     0.124 S 
ATOM     83  O   UNL     1     -20.666  -9.308   5.572  1.00  0.00    -0.237 OA
ATOM     84  O   UNL     1     -18.752 -10.232   6.842  1.00  0.00    -0.237 OA
ATOM     85  O   UNL     1     -20.003  -8.299   7.724  1.00  0.00    -0.744 OA
ENDBRANCH  78  82
ENDBRANCH  51  75
BRANCH  63  86
ATOM     86  C   UNL     1     -20.706  -9.113  -2.204  1.00  0.00     0.023 A 
ATOM     87  C   UNL     1     -21.599  -8.029  -2.160  1.00  0.00     0.031 A 
ATOM     88  C   UNL     1     -21.221 -10.385  -2.513  1.00  0.00     0.131 A 
ATOM     89  C   UNL     1     -22.970  -8.245  -2.367  1.00  0.00     0.055 A 
ATOM     90  C   UNL     1     -22.577 -10.584  -2.775  1.00  0.00     0.041 A 
ATOM     91  F   UNL     1     -20.412 -11.455  -2.567  1.00  0.00    -0.206 F 
ATOM     92  C   UNL     1     -23.462  -9.513  -2.690  1.00  0.00     0.022 A 
BRANCH  89  93
ATOM     93  S   UNL     1     -24.117  -6.861  -2.124  1.00  0.00     0.124 S 
ATOM     94  O   UNL     1     -23.861  -6.495  -0.735  1.00  0.00    -0.237 OA
ATOM     95  O   UNL     1     -23.667  -5.903  -3.128  1.00  0.00    -0.237 OA
ATOM     96  O   UNL     1     -25.429  -7.454  -2.379  1.00  0.00    -0.744 OA
ENDBRANCH  89  93
ENDBRANCH  63  86
ENDBRANCH  37  38
ENDBRANCH  29  32
ENDBRANCH  27  28
ENDBRANCH  26  27
ENDBRANCH   1  26
TORSDOF 18
