REMARK SMILES CCCC[C@H](CC)C(=O)N1[C@H](C(=O)NCCCCNC(=O)c2ccc(-c3c4nc(c(-c5cc(S(=O)(=O)[O-])ccc5F)c5ccc([nH]5)c(-c5cc(S(=O)(=O)[O-])ccc5F)c5nc(c(-c6cc(S(=O)(=O)[O-])ccc6F)c6ccc3[nH]6)C=C5)C=C4)cc2)COC12CCCCC2
REMARK SMILES IDX 15 1 14 2 12 3 13 4 11 6 10 7 87 8 85 9 86 10 88 11 92 12
REMARK SMILES IDX 89 13 91 14 90 15 8 16 9 17 5 18 4 19 3 20 2 21 1 22 6 23
REMARK SMILES IDX 7 24 16 25 17 26 18 27 19 28 20 29 21 31 22 32 23 33 84 34
REMARK SMILES IDX 24 35 83 36 25 37 26 38 27 39 77 40 28 41 82 42 76 43 78 44
REMARK SMILES IDX 29 45 81 46 75 47 74 48 30 50 62 51 42 52 61 53 43 54 46 55
REMARK SMILES IDX 60 56 79 57 44 58 45 59 59 61 80 62 47 63 31 64 32 65 40 66
REMARK SMILES IDX 33 67 39 68 41 69 38 70 34 71 35 72 36 73 37 74 63 75 64 76
REMARK SMILES IDX 72 77 65 78 71 79 73 80 70 81 66 82 67 83 68 84 69 85 48 86
REMARK SMILES IDX 49 87 57 88 50 89 56 90 58 91 55 92 51 93 52 94 53 95 54 96
REMARK H PARENT 14 5 19 30 78 49 46 60
REMARK Flexibility Score: inf
ROOT
ATOM      1  C   UNL     1      -4.901  -0.091  -5.444  1.00  0.00     0.116 C 
ENDROOT
BRANCH   1   2
ATOM      2  N   UNL     1      -4.385  -1.400  -5.799  1.00  0.00    -0.354 N 
ATOM      3  C   UNL     1      -3.087  -1.748  -6.086  1.00  0.00     0.245 C 
ATOM      4  O   UNL     1      -2.798  -2.942  -6.183  1.00  0.00    -0.273 OA
ATOM      5  H   UNL     1      -5.046  -2.128  -5.838  1.00  0.00     0.163 HD
BRANCH   3   6
ATOM      6  C   UNL     1      -2.047  -0.626  -6.269  1.00  0.00     0.203 C 
ATOM      7  N   UNL     1      -1.037  -0.338  -5.242  1.00  0.00    -0.299 N 
ATOM      8  C   UNL     1       0.247  -0.091  -5.907  1.00  0.00     0.144 C 
ATOM      9  C   UNL     1      -1.207  -0.974  -7.481  1.00  0.00     0.198 C 
ATOM     10  O   UNL     1      -0.053  -0.140  -7.335  1.00  0.00    -0.353 OA
ATOM     11  C   UNL     1       0.812   1.313  -5.696  1.00  0.00     0.059 C 
ATOM     12  C   UNL     1       1.256  -1.234  -5.674  1.00  0.00     0.059 C 
ATOM     13  C   UNL     1       2.172   1.518  -6.351  1.00  0.00     0.005 C 
ATOM     14  C   UNL     1       2.657  -0.942  -6.220  1.00  0.00     0.005 C 
ATOM     15  C   UNL     1       3.157   0.457  -5.881  1.00  0.00     0.000 C 
BRANCH   7  16
ATOM     16  C   UNL     1      -1.439  -0.293  -3.927  1.00  0.00     0.228 C 
ATOM     17  O   UNL     1      -2.388  -1.015  -3.580  1.00  0.00    -0.274 OA
BRANCH  16  18
ATOM     18  C   UNL     1      -0.983   0.726  -2.853  1.00  0.00     0.078 C 
BRANCH  18  19
ATOM     19  C   UNL     1      -1.499   2.152  -3.167  1.00  0.00     0.013 C 
BRANCH  19  20
ATOM     20  C   UNL     1      -3.023   2.327  -3.182  1.00  0.00     0.001 C 
BRANCH  20  21
ATOM     21  C   UNL     1      -3.765   2.021  -1.879  1.00  0.00    -0.003 C 
ATOM     22  C   UNL     1      -3.344   2.913  -0.722  1.00  0.00     0.004 C 
ENDBRANCH  20  21
ENDBRANCH  19  20
ENDBRANCH  18  19
BRANCH  18  23
ATOM     23  C   UNL     1       0.427   0.796  -2.242  1.00  0.00     0.010 C 
ATOM     24  C   UNL     1       1.280  -0.450  -2.258  1.00  0.00     0.005 C 
ENDBRANCH  18  23
ENDBRANCH  16  18
ENDBRANCH   7  16
ENDBRANCH   3   6
ENDBRANCH   1   2
BRANCH   1  25
ATOM     25  C   UNL     1      -6.160   0.285  -6.213  1.00  0.00     0.023 C 
BRANCH  25  26
ATOM     26  C   UNL     1      -7.414  -0.469  -5.784  1.00  0.00     0.023 C 
BRANCH  26  27
ATOM     27  C   UNL     1      -7.780  -0.330  -4.309  1.00  0.00     0.116 C 
BRANCH  27  28
ATOM     28  N   UNL     1      -8.023   1.049  -3.905  1.00  0.00    -0.352 N 
ATOM     29  C   UNL     1      -9.105   1.581  -3.244  1.00  0.00     0.251 C 
ATOM     30  H   UNL     1      -7.313   1.690  -4.138  1.00  0.00     0.163 HD
ATOM     31  O   UNL     1      -9.201   2.798  -3.106  1.00  0.00    -0.269 OA
BRANCH  29  32
ATOM     32  C   UNL     1     -10.167   0.682  -2.741  1.00  0.00     0.039 A 
ATOM     33  C   UNL     1     -11.501   0.984  -3.023  1.00  0.00     0.014 A 
ATOM     34  C   UNL     1      -9.842  -0.481  -2.038  1.00  0.00     0.014 A 
ATOM     35  C   UNL     1     -12.502   0.072  -2.680  1.00  0.00     0.010 A 
ATOM     36  C   UNL     1     -10.830  -1.424  -1.772  1.00  0.00     0.010 A 
ATOM     37  C   UNL     1     -12.169  -1.163  -2.099  1.00  0.00    -0.014 A 
BRANCH  37  38
ATOM     38  C   UNL     1     -13.203  -2.204  -1.855  1.00  0.00     0.031 A 
ATOM     39  C   UNL     1     -13.492  -2.675  -0.457  1.00  0.00     0.074 A 
ATOM     40  C   UNL     1     -13.821  -2.784  -2.903  1.00  0.00     0.049 A 
ATOM     41  N   UNL     1     -14.300  -3.621  -0.051  1.00  0.00    -0.248 NA
ATOM     42  C   UNL     1     -12.746  -2.015   0.623  1.00  0.00     0.031 C 
ATOM     43  C   UNL     1     -13.581  -2.458  -4.311  1.00  0.00     0.029 A 
ATOM     44  N   UNL     1     -14.764  -3.780  -2.950  1.00  0.00    -0.354 N 
ATOM     45  C   UNL     1     -14.152  -3.679   1.330  1.00  0.00     0.074 A 
ATOM     46  C   UNL     1     -13.123  -2.721   1.677  1.00  0.00     0.031 C 
ATOM     47  C   UNL     1     -14.368  -3.225  -5.080  1.00  0.00     0.029 A 
ATOM     48  C   UNL     1     -15.134  -4.129  -4.228  1.00  0.00     0.049 A 
ATOM     49  H   UNL     1     -15.139  -4.205  -2.146  1.00  0.00     0.167 HD
ATOM     50  C   UNL     1     -14.829  -4.440   2.227  1.00  0.00     0.034 A 
ATOM     51  C   UNL     1     -15.981  -5.081  -4.669  1.00  0.00     0.034 A 
ATOM     52  C   UNL     1     -15.850  -5.393   1.859  1.00  0.00     0.049 A 
ATOM     53  C   UNL     1     -16.704  -5.936  -3.663  1.00  0.00     0.074 A 
ATOM     54  C   UNL     1     -16.649  -6.165   2.684  1.00  0.00     0.029 A 
ATOM     55  N   UNL     1     -16.199  -5.722   0.554  1.00  0.00    -0.354 N 
ATOM     56  N   UNL     1     -16.610  -5.928  -2.353  1.00  0.00    -0.248 NA
ATOM     57  C   UNL     1     -17.652  -6.922  -4.195  1.00  0.00     0.031 C 
ATOM     58  C   UNL     1     -17.423  -7.011   1.882  1.00  0.00     0.029 A 
ATOM     59  C   UNL     1     -17.169  -6.715   0.552  1.00  0.00     0.049 A 
ATOM     60  H   UNL     1     -15.814  -5.310  -0.253  1.00  0.00     0.167 HD
ATOM     61  C   UNL     1     -17.501  -6.898  -1.903  1.00  0.00     0.074 A 
ATOM     62  C   UNL     1     -18.136  -7.455  -3.082  1.00  0.00     0.031 C 
ATOM     63  C   UNL     1     -17.772  -7.289  -0.631  1.00  0.00     0.034 A 
BRANCH  50  64
ATOM     64  C   UNL     1     -14.453  -4.285   3.684  1.00  0.00     0.023 A 
ATOM     65  C   UNL     1     -14.568  -3.049   4.348  1.00  0.00     0.031 A 
ATOM     66  C   UNL     1     -13.917  -5.366   4.405  1.00  0.00     0.131 A 
ATOM     67  C   UNL     1     -14.056  -2.898   5.645  1.00  0.00     0.055 A 
ATOM     68  C   UNL     1     -13.498  -5.233   5.731  1.00  0.00     0.041 A 
ATOM     69  F   UNL     1     -13.765  -6.567   3.826  1.00  0.00    -0.206 F 
ATOM     70  C   UNL     1     -13.545  -3.988   6.352  1.00  0.00     0.022 A 
BRANCH  67  71
ATOM     71  S   UNL     1     -13.896  -1.220   6.319  1.00  0.00     0.124 S 
ATOM     72  O   UNL     1     -13.089  -0.565   5.292  1.00  0.00    -0.237 OA
ATOM     73  O   UNL     1     -15.284  -0.786   6.415  1.00  0.00    -0.237 OA
ATOM     74  O   UNL     1     -13.215  -1.427   7.595  1.00  0.00    -0.744 OA
ENDBRANCH  67  71
ENDBRANCH  50  64
BRANCH  51  75
ATOM     75  C   UNL     1     -16.172  -5.284  -6.133  1.00  0.00     0.023 A 
ATOM     76  C   UNL     1     -17.394  -4.984  -6.756  1.00  0.00     0.031 A 
ATOM     77  C   UNL     1     -15.127  -5.781  -6.931  1.00  0.00     0.131 A 
ATOM     78  C   UNL     1     -17.548  -5.208  -8.133  1.00  0.00     0.055 A 
ATOM     79  C   UNL     1     -15.271  -5.960  -8.308  1.00  0.00     0.041 A 
ATOM     80  F   UNL     1     -13.936  -6.075  -6.384  1.00  0.00    -0.206 F 
ATOM     81  C   UNL     1     -16.491  -5.680  -8.915  1.00  0.00     0.022 A 
BRANCH  78  82
ATOM     82  S   UNL     1     -19.171  -4.913  -8.887  1.00  0.00     0.124 S 
ATOM     83  O   UNL     1     -20.012  -5.860  -8.165  1.00  0.00    -0.237 OA
ATOM     84  O   UNL     1     -19.392  -3.501  -8.590  1.00  0.00    -0.237 OA
ATOM     85  O   UNL     1     -18.951  -5.222 -10.299  1.00  0.00    -0.744 OA
ENDBRANCH  78  82
ENDBRANCH  51  75
BRANCH  63  86
ATOM     86  C   UNL     1     -18.819  -8.363  -0.454  1.00  0.00     0.023 A 
ATOM     87  C   UNL     1     -18.612  -9.678  -0.908  1.00  0.00     0.031 A 
ATOM     88  C   UNL     1     -20.046  -8.064   0.164  1.00  0.00     0.131 A 
ATOM     89  C   UNL     1     -19.637 -10.630  -0.787  1.00  0.00     0.055 A 
ATOM     90  C   UNL     1     -21.037  -9.030   0.339  1.00  0.00     0.041 A 
ATOM     91  F   UNL     1     -20.301  -6.824   0.612  1.00  0.00    -0.206 F 
ATOM     92  C   UNL     1     -20.841 -10.319  -0.150  1.00  0.00     0.022 A 
BRANCH  89  93
ATOM     93  S   UNL     1     -19.413 -12.256  -1.558  1.00  0.00     0.124 S 
ATOM     94  O   UNL     1     -19.206 -11.902  -2.958  1.00  0.00    -0.237 OA
ATOM     95  O   UNL     1     -18.247 -12.779  -0.853  1.00  0.00    -0.237 OA
ATOM     96  O   UNL     1     -20.669 -12.947  -1.272  1.00  0.00    -0.744 OA
ENDBRANCH  89  93
ENDBRANCH  63  86
ENDBRANCH  37  38
ENDBRANCH  29  32
ENDBRANCH  27  28
ENDBRANCH  26  27
ENDBRANCH  25  26
ENDBRANCH   1  25
TORSDOF 20
