REMARK SMILES O=C(NCCCCNC(=O)c1cc(S(=O)(=O)Nc2ccc(F)c(F)c2)cc(Cl)c1Cl)c1ccc(-c2c3nc(c(-c4cc(S(=O)(=O)[O-])ccc4F)c4ccc([nH]4)c(-c4cc(S(=O)(=O)[O-])ccc4F)c4nc(c(-c5cc(S(=O)(=O)[O-])ccc5F)c5ccc2[nH]5)C=C4)C=C3)cc1
REMARK SMILES IDX 5 1 4 2 3 3 1 4 2 5 31 7 32 8 93 9 33 10 92 11 34 12 35 13
REMARK SMILES IDX 36 14 86 15 37 16 91 17 85 18 87 19 38 20 90 21 84 22 83 23
REMARK SMILES IDX 39 25 71 26 51 27 70 28 52 29 55 30 69 31 88 32 53 33 54 34
REMARK SMILES IDX 68 36 89 37 56 38 40 39 41 40 49 41 42 42 48 43 50 44 47 45
REMARK SMILES IDX 43 46 44 47 45 48 46 49 72 50 73 51 81 52 74 53 80 54 82 55
REMARK SMILES IDX 79 56 75 57 76 58 77 59 78 60 57 61 58 62 66 63 59 64 65 65
REMARK SMILES IDX 67 66 64 67 60 68 61 69 62 70 63 71 6 72 7 73 8 74 9 75
REMARK SMILES IDX 10 77 11 78 12 79 29 80 13 81 27 82 30 83 26 84 28 85 14 86
REMARK SMILES IDX 15 87 16 88 17 89 18 91 19 92 25 93 20 94 23 95 21 96 24 97
REMARK SMILES IDX 22 98
REMARK H PARENT 3 6 87 24 55 35 8 76 17 90
REMARK Flexibility Score: inf
ROOT
ATOM      1  C   UNL     1       4.937  -2.669  -0.184  1.00  0.00     0.023 C 
ENDROOT
BRANCH   1   2
ATOM      2  C   UNL     1       4.667  -1.226  -0.589  1.00  0.00     0.116 C 
BRANCH   2   3
ATOM      3  N   UNL     1       3.252  -0.912  -0.722  1.00  0.00    -0.352 N 
ATOM      4  O   UNL     1       1.296   0.115  -0.266  1.00  0.00    -0.269 OA
ATOM      5  C   UNL     1       2.512   0.068  -0.099  1.00  0.00     0.251 C 
ATOM      6  H   UNL     1       2.751  -1.484  -1.348  1.00  0.00     0.163 HD
BRANCH   5   7
ATOM      7  C   UNL     1       3.176   1.039   0.801  1.00  0.00     0.039 A 
ATOM      8  C   UNL     1       4.363   1.669   0.425  1.00  0.00     0.014 A 
ATOM      9  C   UNL     1       2.616   1.295   2.056  1.00  0.00     0.014 A 
ATOM     10  C   UNL     1       5.082   2.400   1.365  1.00  0.00     0.010 A 
ATOM     11  C   UNL     1       3.297   2.106   2.970  1.00  0.00     0.010 A 
ATOM     12  C   UNL     1       4.564   2.620   2.653  1.00  0.00    -0.014 A 
BRANCH  12  13
ATOM     13  C   UNL     1       5.377   3.378   3.643  1.00  0.00     0.031 A 
ATOM     14  C   UNL     1       5.894   2.713   4.892  1.00  0.00     0.074 A 
ATOM     15  C   UNL     1       5.698   4.660   3.381  1.00  0.00     0.049 A 
ATOM     16  N   UNL     1       6.662   3.204   5.833  1.00  0.00    -0.248 NA
ATOM     17  C   UNL     1       5.486   1.319   5.122  1.00  0.00     0.031 C 
ATOM     18  C   UNL     1       5.247   5.417   2.210  1.00  0.00     0.029 A 
ATOM     19  N   UNL     1       6.498   5.543   4.058  1.00  0.00    -0.354 N 
ATOM     20  C   UNL     1       6.808   2.192   6.778  1.00  0.00     0.074 A 
ATOM     21  C   UNL     1       6.021   1.071   6.309  1.00  0.00     0.031 C 
ATOM     22  C   UNL     1       5.824   6.628   2.221  1.00  0.00     0.029 A 
ATOM     23  C   UNL     1       6.639   6.755   3.424  1.00  0.00     0.049 A 
ATOM     24  H   UNL     1       6.931   5.331   4.917  1.00  0.00     0.167 HD
ATOM     25  C   UNL     1       7.534   2.196   7.925  1.00  0.00     0.034 A 
ATOM     26  C   UNL     1       7.344   7.850   3.770  1.00  0.00     0.034 A 
ATOM     27  C   UNL     1       8.333   3.314   8.370  1.00  0.00     0.049 A 
ATOM     28  C   UNL     1       8.151   7.825   5.038  1.00  0.00     0.074 A 
ATOM     29  C   UNL     1       9.134   3.410   9.496  1.00  0.00     0.029 A 
ATOM     30  N   UNL     1       8.431   4.534   7.712  1.00  0.00    -0.354 N 
ATOM     31  N   UNL     1       8.286   6.854   5.911  1.00  0.00    -0.248 NA
ATOM     32  C   UNL     1       8.906   9.041   5.362  1.00  0.00     0.031 C 
ATOM     33  C   UNL     1       9.673   4.702   9.546  1.00  0.00     0.029 A 
ATOM     34  C   UNL     1       9.260   5.394   8.419  1.00  0.00     0.049 A 
ATOM     35  H   UNL     1       7.979   4.756   6.867  1.00  0.00     0.167 HD
ATOM     36  C   UNL     1       9.156   7.340   6.882  1.00  0.00     0.074 A 
ATOM     37  C   UNL     1       9.529   8.680   6.473  1.00  0.00     0.031 C 
ATOM     38  C   UNL     1       9.607   6.733   8.009  1.00  0.00     0.034 A 
BRANCH  25  39
ATOM     39  C   UNL     1       7.458   0.967   8.800  1.00  0.00     0.023 A 
ATOM     40  C   UNL     1       7.955  -0.279   8.378  1.00  0.00     0.031 A 
ATOM     41  C   UNL     1       6.852   1.038  10.067  1.00  0.00     0.131 A 
ATOM     42  C   UNL     1       7.774  -1.415   9.184  1.00  0.00     0.055 A 
ATOM     43  C   UNL     1       6.742  -0.081  10.896  1.00  0.00     0.041 A 
ATOM     44  F   UNL     1       6.342   2.196  10.516  1.00  0.00    -0.206 F 
ATOM     45  C   UNL     1       7.191  -1.320  10.450  1.00  0.00     0.022 A 
BRANCH  42  46
ATOM     46  S   UNL     1       8.187  -3.042   8.496  1.00  0.00     0.124 S 
ATOM     47  O   UNL     1       7.347  -3.081   7.301  1.00  0.00    -0.237 OA
ATOM     48  O   UNL     1       9.622  -2.932   8.265  1.00  0.00    -0.237 OA
ATOM     49  O   UNL     1       7.793  -3.972   9.553  1.00  0.00    -0.744 OA
ENDBRANCH  42  46
ENDBRANCH  25  39
BRANCH  26  50
ATOM     50  C   UNL     1       7.308   9.063   2.908  1.00  0.00     0.023 A 
ATOM     51  C   UNL     1       8.453   9.501   2.225  1.00  0.00     0.031 A 
ATOM     52  C   UNL     1       6.126   9.812   2.770  1.00  0.00     0.131 A 
ATOM     53  C   UNL     1       8.401  10.676   1.460  1.00  0.00     0.055 A 
ATOM     54  C   UNL     1       6.067  10.955   1.972  1.00  0.00     0.041 A 
ATOM     55  F   UNL     1       5.002   9.428   3.397  1.00  0.00    -0.206 F 
ATOM     56  C   UNL     1       7.213  11.399   1.319  1.00  0.00     0.022 A 
BRANCH  53  57
ATOM     57  S   UNL     1       9.929  11.283   0.696  1.00  0.00     0.124 S 
ATOM     58  O   UNL     1      10.795  11.457   1.857  1.00  0.00    -0.237 OA
ATOM     59  O   UNL     1      10.273  10.187  -0.204  1.00  0.00    -0.237 OA
ATOM     60  O   UNL     1       9.512  12.519   0.037  1.00  0.00    -0.744 OA
ENDBRANCH  53  57
ENDBRANCH  26  50
BRANCH  38  61
ATOM     61  C   UNL     1      10.581   7.516   8.852  1.00  0.00     0.023 A 
ATOM     62  C   UNL     1      10.186   8.667   9.556  1.00  0.00     0.031 A 
ATOM     63  C   UNL     1      11.930   7.128   8.918  1.00  0.00     0.131 A 
ATOM     64  C   UNL     1      11.143   9.425  10.246  1.00  0.00     0.055 A 
ATOM     65  C   UNL     1      12.868   7.857   9.649  1.00  0.00     0.041 A 
ATOM     66  F   UNL     1      12.360   6.037   8.262  1.00  0.00    -0.206 F 
ATOM     67  C   UNL     1      12.479   9.021  10.307  1.00  0.00     0.022 A 
BRANCH  64  68
ATOM     68  S   UNL     1      10.637  11.005  10.982  1.00  0.00     0.124 S 
ATOM     69  O   UNL     1      10.093  11.717   9.831  1.00  0.00    -0.237 OA
ATOM     70  O   UNL     1       9.667  10.583  11.988  1.00  0.00    -0.237 OA
ATOM     71  O   UNL     1      11.884  11.550  11.515  1.00  0.00    -0.744 OA
ENDBRANCH  64  68
ENDBRANCH  38  61
ENDBRANCH  12  13
ENDBRANCH   5   7
ENDBRANCH   2   3
ENDBRANCH   1   2
BRANCH   1  72
ATOM     72  C   UNL     1       4.472  -3.738  -1.170  1.00  0.00     0.023 C 
BRANCH  72  73
ATOM     73  C   UNL     1       4.886  -3.532  -2.621  1.00  0.00     0.116 C 
BRANCH  73  74
ATOM     74  N   UNL     1       6.319  -3.361  -2.808  1.00  0.00    -0.352 N 
ATOM     75  C   UNL     1       7.152  -3.883  -3.765  1.00  0.00     0.252 C 
ATOM     76  H   UNL     1       6.758  -2.780  -2.145  1.00  0.00     0.163 HD
ATOM     77  O   UNL     1       8.331  -3.552  -3.815  1.00  0.00    -0.269 OA
BRANCH  75  78
ATOM     78  C   UNL     1       6.623  -4.819  -4.774  1.00  0.00     0.061 A 
ATOM     79  C   UNL     1       5.525  -4.411  -5.545  1.00  0.00     0.037 A 
ATOM     80  C   UNL     1       7.201  -6.083  -4.971  1.00  0.00     0.072 A 
ATOM     81  C   UNL     1       4.955  -5.287  -6.468  1.00  0.00     0.090 A 
ATOM     82  C   UNL     1       6.677  -6.910  -5.976  1.00  0.00     0.061 A 
ATOM     83  Cl  UNL     1       8.481  -6.656  -3.952  1.00  0.00    -0.082 Cl
ATOM     84  C   UNL     1       5.572  -6.505  -6.735  1.00  0.00     0.044 A 
ATOM     85  Cl  UNL     1       7.294  -8.496  -6.298  1.00  0.00    -0.083 Cl
BRANCH  81  86
ATOM     86  S   UNL     1       3.343  -4.844  -7.081  1.00  0.00     0.261 S 
ATOM     87  O   UNL     1       2.485  -4.750  -5.921  1.00  0.00    -0.201 OA
ATOM     88  O   UNL     1       3.544  -3.719  -7.968  1.00  0.00    -0.201 OA
BRANCH  86  89
ATOM     89  N   UNL     1       2.802  -6.088  -8.055  1.00  0.00    -0.280 N 
ATOM     90  H   UNL     1       2.543  -5.853  -8.975  1.00  0.00     0.180 HD
BRANCH  89  91
ATOM     91  C   UNL     1       2.679  -7.452  -7.679  1.00  0.00     0.052 A 
ATOM     92  C   UNL     1       2.536  -7.891  -6.358  1.00  0.00     0.030 A 
ATOM     93  C   UNL     1       2.789  -8.391  -8.710  1.00  0.00     0.069 A 
ATOM     94  C   UNL     1       2.602  -9.258  -6.063  1.00  0.00     0.044 A 
ATOM     95  C   UNL     1       2.847  -9.747  -8.408  1.00  0.00     0.160 A 
ATOM     96  C   UNL     1       2.773 -10.179  -7.091  1.00  0.00     0.158 A 
ATOM     97  F   UNL     1       3.011 -10.630  -9.402  1.00  0.00    -0.204 F 
ATOM     98  F   UNL     1       2.873 -11.482  -6.802  1.00  0.00    -0.204 F 
ENDBRANCH  89  91
ENDBRANCH  86  89
ENDBRANCH  81  86
ENDBRANCH  75  78
ENDBRANCH  73  74
ENDBRANCH  72  73
ENDBRANCH   1  72
TORSDOF 17
