REMARK SMILES O=C(CCCNC(=O)COc1ccc2c3c(c(=O)oc2c1)CCC3)NCCCCNC(=O)c1ccc(-c2c3nc(c(-c4cc(S(=O)(=O)[O-])ccc4F)c4ccc([nH]4)c(-c4cc(S(=O)(=O)[O-])ccc4F)c4nc(c(-c5cc(S(=O)(=O)[O-])ccc5F)c5ccc2[nH]5)C=C4)C=C3)cc1
REMARK SMILES IDX 26 1 25 2 1 3 2 4 3 6 4 7 5 8 6 9 7 10 8 12 9 13 10 14 11 15
REMARK SMILES IDX 12 16 21 17 13 18 20 19 14 20 19 21 15 22 17 23 16 24 24 25
REMARK SMILES IDX 18 26 22 27 23 28 27 29 28 30 29 31 30 32 31 33 32 35 33 36
REMARK SMILES IDX 34 37 95 38 35 39 94 40 36 41 37 42 38 43 88 44 39 45 93 46
REMARK SMILES IDX 87 47 89 48 40 49 92 50 86 51 85 52 41 54 73 55 53 56 72 57
REMARK SMILES IDX 54 58 57 59 71 60 90 61 55 62 56 63 70 65 91 66 58 67 42 68
REMARK SMILES IDX 43 69 51 70 44 71 50 72 52 73 49 74 45 75 46 76 47 77 48 78
REMARK SMILES IDX 74 79 75 80 83 81 76 82 82 83 84 84 81 85 77 86 78 87 79 88
REMARK SMILES IDX 80 89 59 90 60 91 68 92 61 93 67 94 69 95 66 96 62 97 63 98
REMARK SMILES IDX 64 99 65 100
REMARK H PARENT 25 5 6 11 30 34 89 53 57 64
REMARK Flexibility Score: inf
ROOT
ATOM      1  C   UNL     1       2.034   0.116   2.522  1.00  0.00     0.116 C 
ENDROOT
BRANCH   1   2
ATOM      2  N   UNL     1       2.698  -0.110   1.256  1.00  0.00    -0.356 N 
ATOM      3  O   UNL     1       0.951   0.514  -0.099  1.00  0.00    -0.275 OA
ATOM      4  C   UNL     1       2.109   0.136   0.039  1.00  0.00     0.220 C 
ATOM      5  H   UNL     1       3.620  -0.456   1.268  1.00  0.00     0.163 HD
BRANCH   4   6
ATOM      6  C   UNL     1       3.041  -0.075  -1.138  1.00  0.00     0.102 C 
BRANCH   6   7
ATOM      7  C   UNL     1       3.921   1.147  -1.415  1.00  0.00     0.031 C 
BRANCH   7   8
ATOM      8  C   UNL     1       4.922   1.499  -0.311  1.00  0.00     0.116 C 
BRANCH   8   9
ATOM      9  N   UNL     1       5.830   0.407  -0.011  1.00  0.00    -0.353 N 
ATOM     10  C   UNL     1       7.187   0.360  -0.132  1.00  0.00     0.257 C 
ATOM     11  H   UNL     1       5.406  -0.415   0.328  1.00  0.00     0.163 HD
ATOM     12  O   UNL     1       7.755  -0.660   0.261  1.00  0.00    -0.271 OA
BRANCH  10  13
ATOM     13  C   UNL     1       7.955   1.532  -0.743  1.00  0.00     0.329 C 
BRANCH  13  14
ATOM     14  O   UNL     1       7.440   2.094  -1.946  1.00  0.00    -0.484 OA
BRANCH  14  15
ATOM     15  C   UNL     1       7.707   1.384  -3.082  1.00  0.00     0.123 A 
ATOM     16  C   UNL     1       8.137   2.128  -4.184  1.00  0.00     0.047 A 
ATOM     17  C   UNL     1       7.493   0.016  -3.215  1.00  0.00     0.094 A 
ATOM     18  C   UNL     1       8.398   1.502  -5.410  1.00  0.00     0.016 A 
ATOM     19  C   UNL     1       7.753  -0.595  -4.437  1.00  0.00     0.142 A 
ATOM     20  C   UNL     1       8.209   0.126  -5.542  1.00  0.00     0.021 A 
ATOM     21  O   UNL     1       7.528  -1.991  -4.504  1.00  0.00    -0.422 OA
ATOM     22  C   UNL     1       8.461  -0.618  -6.758  1.00  0.00    -0.027 A 
ATOM     23  C   UNL     1       7.793  -2.724  -5.656  1.00  0.00     0.339 A 
ATOM     24  C   UNL     1       8.283  -1.940  -6.792  1.00  0.00     0.042 A 
ATOM     25  C   UNL     1       8.941  -0.088  -8.063  1.00  0.00     0.037 C 
ATOM     26  O   UNL     1       7.610  -3.930  -5.731  1.00  0.00    -0.246 OA
ATOM     27  C   UNL     1       8.627  -2.525  -8.113  1.00  0.00     0.044 C 
ATOM     28  C   UNL     1       8.686  -1.277  -8.999  1.00  0.00     0.010 C 
ENDBRANCH  14  15
ENDBRANCH  13  14
ENDBRANCH  10  13
ENDBRANCH   8   9
ENDBRANCH   7   8
ENDBRANCH   6   7
ENDBRANCH   4   6
ENDBRANCH   1   2
BRANCH   1  29
ATOM     29  C   UNL     1       2.460  -0.908   3.574  1.00  0.00     0.023 C 
BRANCH  29  30
ATOM     30  C   UNL     1       3.958  -0.924   3.908  1.00  0.00     0.023 C 
BRANCH  30  31
ATOM     31  C   UNL     1       4.528   0.388   4.440  1.00  0.00     0.116 C 
BRANCH  31  32
ATOM     32  N   UNL     1       3.950   0.764   5.720  1.00  0.00    -0.352 N 
ATOM     33  C   UNL     1       4.565   1.005   6.926  1.00  0.00     0.251 C 
ATOM     34  H   UNL     1       2.970   0.859   5.724  1.00  0.00     0.163 HD
ATOM     35  O   UNL     1       3.877   1.120   7.937  1.00  0.00    -0.269 OA
BRANCH  33  36
ATOM     36  C   UNL     1       6.042   1.099   7.017  1.00  0.00     0.039 A 
ATOM     37  C   UNL     1       6.692   0.481   8.088  1.00  0.00     0.014 A 
ATOM     38  C   UNL     1       6.786   1.806   6.068  1.00  0.00     0.014 A 
ATOM     39  C   UNL     1       8.088   0.510   8.168  1.00  0.00     0.010 A 
ATOM     40  C   UNL     1       8.180   1.770   6.108  1.00  0.00     0.010 A 
ATOM     41  C   UNL     1       8.849   1.119   7.157  1.00  0.00    -0.014 A 
BRANCH  41  42
ATOM     42  C   UNL     1      10.338   1.075   7.178  1.00  0.00     0.031 A 
ATOM     43  C   UNL     1      11.136   2.348   7.277  1.00  0.00     0.074 A 
ATOM     44  C   UNL     1      10.973  -0.107   7.051  1.00  0.00     0.049 A 
ATOM     45  N   UNL     1      12.434   2.518   7.235  1.00  0.00    -0.248 NA
ATOM     46  C   UNL     1      10.373   3.597   7.416  1.00  0.00     0.031 C 
ATOM     47  C   UNL     1      10.314  -1.409   6.915  1.00  0.00     0.029 A 
ATOM     48  N   UNL     1      12.312  -0.411   7.007  1.00  0.00    -0.354 N 
ATOM     49  C   UNL     1      12.643   3.890   7.332  1.00  0.00     0.074 A 
ATOM     50  C   UNL     1      11.334   4.507   7.371  1.00  0.00     0.031 C 
ATOM     51  C   UNL     1      11.248  -2.369   6.832  1.00  0.00     0.029 A 
ATOM     52  C   UNL     1      12.572  -1.754   6.851  1.00  0.00     0.049 A 
ATOM     53  H   UNL     1      13.020   0.269   7.081  1.00  0.00     0.167 HD
ATOM     54  C   UNL     1      13.816   4.569   7.404  1.00  0.00     0.034 A 
ATOM     55  C   UNL     1      13.739  -2.416   6.721  1.00  0.00     0.034 A 
ATOM     56  C   UNL     1      15.114   3.937   7.369  1.00  0.00     0.049 A 
ATOM     57  C   UNL     1      15.029  -1.634   6.755  1.00  0.00     0.074 A 
ATOM     58  C   UNL     1      16.361   4.527   7.486  1.00  0.00     0.029 A 
ATOM     59  N   UNL     1      15.336   2.577   7.195  1.00  0.00    -0.354 N 
ATOM     60  N   UNL     1      15.209  -0.341   6.895  1.00  0.00    -0.248 NA
ATOM     61  C   UNL     1      16.274  -2.403   6.624  1.00  0.00     0.031 C 
ATOM     62  C   UNL     1      17.334   3.540   7.300  1.00  0.00     0.029 A 
ATOM     63  C   UNL     1      16.699   2.316   7.161  1.00  0.00     0.049 A 
ATOM     64  H   UNL     1      14.630   1.896   7.108  1.00  0.00     0.167 HD
ATOM     65  C   UNL     1      16.588  -0.148   6.904  1.00  0.00     0.074 A 
ATOM     66  C   UNL     1      17.191  -1.458   6.772  1.00  0.00     0.031 C 
ATOM     67  C   UNL     1      17.293   1.007   7.019  1.00  0.00     0.034 A 
BRANCH  54  68
ATOM     68  C   UNL     1      13.745   6.076   7.497  1.00  0.00     0.023 A 
ATOM     69  C   UNL     1      13.128   6.723   8.583  1.00  0.00     0.031 A 
ATOM     70  C   UNL     1      14.288   6.879   6.478  1.00  0.00     0.131 A 
ATOM     71  C   UNL     1      12.999   8.120   8.586  1.00  0.00     0.055 A 
ATOM     72  C   UNL     1      14.235   8.274   6.532  1.00  0.00     0.041 A 
ATOM     73  F   UNL     1      14.870   6.322   5.405  1.00  0.00    -0.206 F 
ATOM     74  C   UNL     1      13.574   8.902   7.582  1.00  0.00     0.022 A 
BRANCH  71  75
ATOM     75  S   UNL     1      11.938   8.888   9.840  1.00  0.00     0.124 S 
ATOM     76  O   UNL     1      10.660   8.225   9.589  1.00  0.00    -0.237 OA
ATOM     77  O   UNL     1      12.610   8.532  11.084  1.00  0.00    -0.237 OA
ATOM     78  O   UNL     1      11.972  10.308   9.495  1.00  0.00    -0.744 OA
ENDBRANCH  71  75
ENDBRANCH  54  68
BRANCH  55  79
ATOM     79  C   UNL     1      13.754  -3.896   6.526  1.00  0.00     0.023 A 
ATOM     80  C   UNL     1      14.358  -4.744   7.468  1.00  0.00     0.031 A 
ATOM     81  C   UNL     1      13.211  -4.481   5.368  1.00  0.00     0.131 A 
ATOM     82  C   UNL     1      14.451  -6.121   7.213  1.00  0.00     0.055 A 
ATOM     83  C   UNL     1      13.250  -5.859   5.148  1.00  0.00     0.041 A 
ATOM     84  F   UNL     1      12.623  -3.718   4.434  1.00  0.00    -0.206 F 
ATOM     85  C   UNL     1      13.887  -6.687   6.068  1.00  0.00     0.022 A 
BRANCH  82  86
ATOM     86  S   UNL     1      15.411  -7.153   8.355  1.00  0.00     0.124 S 
ATOM     87  O   UNL     1      16.719  -6.509   8.307  1.00  0.00    -0.237 OA
ATOM     88  O   UNL     1      14.667  -7.000   9.601  1.00  0.00    -0.237 OA
ATOM     89  O   UNL     1      15.345  -8.482   7.751  1.00  0.00    -0.744 OA
ENDBRANCH  82  86
ENDBRANCH  55  79
BRANCH  67  90
ATOM     90  C   UNL     1      18.799   0.896   7.058  1.00  0.00     0.023 A 
ATOM     91  C   UNL     1      19.542   0.439   5.955  1.00  0.00     0.031 A 
ATOM     92  C   UNL     1      19.501   1.245   8.226  1.00  0.00     0.131 A 
ATOM     93  C   UNL     1      20.934   0.288   6.063  1.00  0.00     0.055 A 
ATOM     94  C   UNL     1      20.892   1.158   8.305  1.00  0.00     0.041 A 
ATOM     95  F   UNL     1      18.846   1.683   9.313  1.00  0.00    -0.206 F 
ATOM     96  C   UNL     1      21.615   0.664   7.223  1.00  0.00     0.022 A 
BRANCH  93  97
ATOM     97  S   UNL     1      21.833  -0.501   4.700  1.00  0.00     0.124 S 
ATOM     98  O   UNL     1      21.168  -1.797   4.608  1.00  0.00    -0.237 OA
ATOM     99  O   UNL     1      21.593   0.419   3.593  1.00  0.00    -0.237 OA
ATOM    100  O   UNL     1      23.213  -0.546   5.180  1.00  0.00    -0.744 OA
ENDBRANCH  93  97
ENDBRANCH  67  90
ENDBRANCH  41  42
ENDBRANCH  33  36
ENDBRANCH  31  32
ENDBRANCH  30  31
ENDBRANCH  29  30
ENDBRANCH   1  29
TORSDOF 20
