REMARK SMILES O=C(C[C@@H]1CN(C(=O)NC[C@H]2C[C@H]3CC[C@@H]2C3)CCO1)NCCCCNC(=O)c1ccc(-c2c3nc(c(-c4cc(S(=O)(=O)[O-])ccc4F)c4ccc([nH]4)c(-c4cc(S(=O)(=O)[O-])ccc4F)c4nc(c(-c5cc(S(=O)(=O)[O-])ccc5F)c5ccc2[nH]5)C=C4)C=C3)cc1
REMARK SMILES IDX 23 1 22 2 21 3 1 4 2 5 3 7 4 8 5 9 20 10 6 11 19 12 18 13
REMARK SMILES IDX 7 14 8 15 9 16 10 18 11 19 12 20 16 21 13 22 15 23 17 24
REMARK SMILES IDX 14 25 24 26 25 27 26 28 27 29 28 31 29 32 30 33 91 34 31 35
REMARK SMILES IDX 90 36 32 37 33 38 34 39 84 40 35 41 89 42 83 43 85 44 36 45
REMARK SMILES IDX 88 46 82 47 81 48 37 50 69 51 49 52 68 53 50 54 53 55 67 56
REMARK SMILES IDX 86 57 51 58 52 59 66 61 87 62 54 63 38 64 39 65 47 66 40 67
REMARK SMILES IDX 46 68 48 69 45 70 41 71 42 72 43 73 44 74 70 75 71 76 79 77
REMARK SMILES IDX 72 78 78 79 80 80 77 81 73 82 74 83 75 84 76 85 55 86 56 87
REMARK SMILES IDX 64 88 57 89 63 90 65 91 62 92 58 93 59 94 60 95 61 96
REMARK H PARENT 21 6 9 17 26 30 85 49 53 60
REMARK Flexibility Score: inf
ROOT
ATOM      1  C   UNL     1       2.897   0.873   1.179  1.00  0.00     0.023 C 
ENDROOT
BRANCH   1   2
ATOM      2  C   UNL     1       3.437  -0.398   0.522  1.00  0.00     0.116 C 
BRANCH   2   3
ATOM      3  N   UNL     1       4.484  -0.184  -0.469  1.00  0.00    -0.356 N 
ATOM      4  O   UNL     1       5.304  -2.325  -0.319  1.00  0.00    -0.275 OA
ATOM      5  C   UNL     1       5.352  -1.203  -0.818  1.00  0.00     0.222 C 
ATOM      6  H   UNL     1       4.574   0.698  -0.897  1.00  0.00     0.163 HD
BRANCH   5   7
ATOM      7  C   UNL     1       6.359  -0.873  -1.901  1.00  0.00     0.133 C 
BRANCH   7   8
ATOM      8  C   UNL     1       5.863  -1.268  -3.291  1.00  0.00     0.147 C 
ATOM      9  C   UNL     1       5.716  -2.803  -3.500  1.00  0.00     0.154 C 
ATOM     10  O   UNL     1       6.792  -0.737  -4.263  1.00  0.00    -0.374 OA
ATOM     11  N   UNL     1       5.270  -3.102  -4.875  1.00  0.00    -0.320 N 
ATOM     12  C   UNL     1       6.294  -0.960  -5.595  1.00  0.00     0.182 C 
ATOM     13  C   UNL     1       6.126  -2.455  -5.882  1.00  0.00     0.150 C 
BRANCH  11  14
ATOM     14  C   UNL     1       4.289  -3.924  -5.343  1.00  0.00     0.317 C 
ATOM     15  O   UNL     1       4.185  -4.172  -6.551  1.00  0.00    -0.249 OA
ATOM     16  N   UNL     1       3.349  -4.517  -4.597  1.00  0.00    -0.338 N 
ATOM     17  H   UNL     1       2.771  -5.074  -5.167  1.00  0.00     0.165 HD
BRANCH  16  18
ATOM     18  C   UNL     1       2.913  -4.600  -3.218  1.00  0.00     0.121 C 
BRANCH  18  19
ATOM     19  C   UNL     1       1.963  -3.502  -2.728  1.00  0.00     0.012 C 
ATOM     20  C   UNL     1       2.522  -2.084  -2.815  1.00  0.00     0.009 C 
ATOM     21  C   UNL     1       0.556  -3.317  -3.353  1.00  0.00    -0.006 C 
ATOM     22  C   UNL     1       1.355  -1.239  -3.320  1.00  0.00    -0.011 C 
ATOM     23  C   UNL     1       0.589  -2.919  -4.839  1.00  0.00     0.004 C 
ATOM     24  C   UNL     1       0.158  -1.967  -2.722  1.00  0.00     0.007 C 
ATOM     25  C   UNL     1       1.202  -1.514  -4.821  1.00  0.00     0.004 C 
ENDBRANCH  18  19
ENDBRANCH  16  18
ENDBRANCH  11  14
ENDBRANCH   7   8
ENDBRANCH   5   7
ENDBRANCH   2   3
ENDBRANCH   1   2
BRANCH   1  26
ATOM     26  C   UNL     1       2.216   1.890   0.256  1.00  0.00     0.023 C 
BRANCH  26  27
ATOM     27  C   UNL     1       1.024   1.389  -0.555  1.00  0.00     0.116 C 
BRANCH  27  28
ATOM     28  N   UNL     1      -0.148   1.059   0.234  1.00  0.00    -0.352 N 
ATOM     29  C   UNL     1      -1.466   1.420   0.054  1.00  0.00     0.251 C 
ATOM     30  H   UNL     1       0.024   0.490   1.019  1.00  0.00     0.163 HD
ATOM     31  O   UNL     1      -2.304   1.047   0.873  1.00  0.00    -0.269 OA
BRANCH  29  32
ATOM     32  C   UNL     1      -1.879   2.293  -1.074  1.00  0.00     0.039 A 
ATOM     33  C   UNL     1      -2.713   3.382  -0.796  1.00  0.00     0.014 A 
ATOM     34  C   UNL     1      -1.470   2.057  -2.390  1.00  0.00     0.014 A 
ATOM     35  C   UNL     1      -3.058   4.280  -1.812  1.00  0.00     0.010 A 
ATOM     36  C   UNL     1      -1.772   2.985  -3.393  1.00  0.00     0.010 A 
ATOM     37  C   UNL     1      -2.553   4.119  -3.112  1.00  0.00    -0.014 A 
BRANCH  37  38
ATOM     38  C   UNL     1      -2.798   5.150  -4.161  1.00  0.00     0.031 A 
ATOM     39  C   UNL     1      -3.618   4.832  -5.382  1.00  0.00     0.074 A 
ATOM     40  C   UNL     1      -2.238   6.372  -4.035  1.00  0.00     0.049 A 
ATOM     41  N   UNL     1      -3.893   5.589  -6.415  1.00  0.00    -0.248 NA
ATOM     42  C   UNL     1      -4.187   3.480  -5.458  1.00  0.00     0.031 C 
ATOM     43  C   UNL     1      -1.395   6.801  -2.917  1.00  0.00     0.029 A 
ATOM     44  N   UNL     1      -2.283   7.474  -4.854  1.00  0.00    -0.354 N 
ATOM     45  C   UNL     1      -4.665   4.807  -7.268  1.00  0.00     0.074 A 
ATOM     46  C   UNL     1      -4.764   3.499  -6.652  1.00  0.00     0.031 C 
ATOM     47  C   UNL     1      -1.019   8.075  -3.112  1.00  0.00     0.029 A 
ATOM     48  C   UNL     1      -1.552   8.543  -4.388  1.00  0.00     0.049 A 
ATOM     49  H   UNL     1      -2.792   7.497  -5.697  1.00  0.00     0.167 HD
ATOM     50  C   UNL     1      -5.253   5.152  -8.442  1.00  0.00     0.034 A 
ATOM     51  C   UNL     1      -1.321   9.758  -4.927  1.00  0.00     0.034 A 
ATOM     52  C   UNL     1      -5.146   6.458  -9.050  1.00  0.00     0.049 A 
ATOM     53  C   UNL     1      -1.950  10.104  -6.253  1.00  0.00     0.074 A 
ATOM     54  C   UNL     1      -5.738   6.919 -10.214  1.00  0.00     0.029 A 
ATOM     55  N   UNL     1      -4.388   7.511  -8.552  1.00  0.00    -0.354 N 
ATOM     56  N   UNL     1      -2.717   9.366  -7.022  1.00  0.00    -0.248 NA
ATOM     57  C   UNL     1      -1.692  11.452  -6.778  1.00  0.00     0.031 C 
ATOM     58  C   UNL     1      -5.285   8.220 -10.456  1.00  0.00     0.029 A 
ATOM     59  C   UNL     1      -4.472   8.605  -9.403  1.00  0.00     0.049 A 
ATOM     60  H   UNL     1      -3.867   7.485  -7.718  1.00  0.00     0.167 HD
ATOM     61  C   UNL     1      -3.056  10.173  -8.105  1.00  0.00     0.074 A 
ATOM     62  C   UNL     1      -2.424  11.456  -7.882  1.00  0.00     0.031 C 
ATOM     63  C   UNL     1      -3.827   9.879  -9.183  1.00  0.00     0.034 A 
BRANCH  50  64
ATOM     64  C   UNL     1      -6.045   4.083  -9.161  1.00  0.00     0.023 A 
ATOM     65  C   UNL     1      -7.195   3.510  -8.590  1.00  0.00     0.031 A 
ATOM     66  C   UNL     1      -5.638   3.619 -10.424  1.00  0.00     0.131 A 
ATOM     67  C   UNL     1      -7.851   2.455  -9.243  1.00  0.00     0.055 A 
ATOM     68  C   UNL     1      -6.343   2.626 -11.107  1.00  0.00     0.041 A 
ATOM     69  F   UNL     1      -4.538   4.115 -11.013  1.00  0.00    -0.206 F 
ATOM     70  C   UNL     1      -7.448   2.026 -10.510  1.00  0.00     0.022 A 
BRANCH  67  71
ATOM     71  S   UNL     1      -9.147   1.555  -8.348  1.00  0.00     0.124 S 
ATOM     72  O   UNL     1      -8.421   1.088  -7.169  1.00  0.00    -0.237 OA
ATOM     73  O   UNL     1     -10.146   2.591  -8.114  1.00  0.00    -0.237 OA
ATOM     74  O   UNL     1      -9.543   0.504  -9.283  1.00  0.00    -0.744 OA
ENDBRANCH  67  71
ENDBRANCH  50  64
BRANCH  51  75
ATOM     75  C   UNL     1      -0.437  10.737  -4.230  1.00  0.00     0.023 A 
ATOM     76  C   UNL     1      -0.940  11.958  -3.754  1.00  0.00     0.031 A 
ATOM     77  C   UNL     1       0.937  10.483  -4.073  1.00  0.00     0.131 A 
ATOM     78  C   UNL     1      -0.067  12.900  -3.186  1.00  0.00     0.055 A 
ATOM     79  C   UNL     1       1.792  11.400  -3.459  1.00  0.00     0.041 A 
ATOM     80  F   UNL     1       1.469   9.329  -4.507  1.00  0.00    -0.206 F 
ATOM     81  C   UNL     1       1.293  12.624  -3.023  1.00  0.00     0.022 A 
BRANCH  78  82
ATOM     82  S   UNL     1      -0.720  14.533  -2.741  1.00  0.00     0.124 S 
ATOM     83  O   UNL     1      -1.245  15.001  -4.019  1.00  0.00    -0.237 OA
ATOM     84  O   UNL     1      -1.710  14.194  -1.724  1.00  0.00    -0.237 OA
ATOM     85  O   UNL     1       0.456  15.246  -2.249  1.00  0.00    -0.744 OA
ENDBRANCH  78  82
ENDBRANCH  51  75
BRANCH  63  86
ATOM     86  C   UNL     1      -4.064  10.987 -10.182  1.00  0.00     0.023 A 
ATOM     87  C   UNL     1      -3.024  11.513 -10.970  1.00  0.00     0.031 A 
ATOM     88  C   UNL     1      -5.350  11.536 -10.337  1.00  0.00     0.131 A 
ATOM     89  C   UNL     1      -3.276  12.590 -11.834  1.00  0.00     0.055 A 
ATOM     90  C   UNL     1      -5.607  12.566 -11.242  1.00  0.00     0.041 A 
ATOM     91  F   UNL     1      -6.380  11.076  -9.609  1.00  0.00    -0.206 F 
ATOM     92  C   UNL     1      -4.565  13.108 -11.988  1.00  0.00     0.022 A 
BRANCH  89  93
ATOM     93  S   UNL     1      -1.879  13.368 -12.691  1.00  0.00     0.124 S 
ATOM     94  O   UNL     1      -1.034  13.785 -11.577  1.00  0.00    -0.237 OA
ATOM     95  O   UNL     1      -1.363  12.272 -13.506  1.00  0.00    -0.237 OA
ATOM     96  O   UNL     1      -2.499  14.458 -13.441  1.00  0.00    -0.744 OA
ENDBRANCH  89  93
ENDBRANCH  63  86
ENDBRANCH  37  38
ENDBRANCH  29  32
ENDBRANCH  27  28
ENDBRANCH  26  27
ENDBRANCH   1  26
TORSDOF 18
