REMARK SMILES C/C=C(\C)[C@@H]1C(C)=C[C@@H]2[C@H]([C@@H]1/C=C/C=C/C(=O)NCCCCNC(=O)c1ccc(-c3c4nc(c(-c5cc(S(=O)(=O)[O-])ccc5F)c5ccc([nH]5)c(-c5cc(S(=O)(=O)[O-])ccc5F)c5nc(c(-c6cc(S(=O)(=O)[O-])ccc6F)c6ccc3[nH]6)C=C5)C=C4)cc1)[C@@H](C)CC[C@@H]2O
REMARK SMILES IDX 20 1 19 2 18 3 16 4 17 5 15 7 14 8 13 9 12 10 11 11 5 12
REMARK SMILES IDX 6 13 7 14 8 15 10 16 9 17 89 18 93 19 90 20 91 21 92 22 3 23
REMARK SMILES IDX 1 24 2 25 4 26 94 27 21 29 22 30 23 31 24 32 25 34 26 35
REMARK SMILES IDX 27 36 88 37 28 38 87 39 29 40 30 41 31 42 81 43 32 44 86 45
REMARK SMILES IDX 80 46 82 47 33 48 85 49 79 50 78 51 34 53 66 54 46 55 65 56
REMARK SMILES IDX 47 57 50 58 64 59 83 60 48 61 49 62 63 64 84 65 51 66 35 67
REMARK SMILES IDX 36 68 44 69 37 70 43 71 45 72 42 73 38 74 39 75 40 76 41 77
REMARK SMILES IDX 67 78 68 79 76 80 69 81 75 82 77 83 74 84 70 85 71 86 72 87
REMARK SMILES IDX 73 88 52 89 53 90 61 91 54 92 60 93 62 94 59 95 55 96 56 97
REMARK SMILES IDX 57 98 58 99
REMARK H PARENT 18 6 94 28 23 33 82 52 50 63
REMARK Flexibility Score: inf
ROOT
ATOM      1  C   UNL     1      -3.527   3.038  -8.637  1.00  0.00     0.023 C 
ENDROOT
BRANCH   1   2
ATOM      2  C   UNL     1      -3.997   1.707  -8.047  1.00  0.00     0.116 C 
BRANCH   2   3
ATOM      3  N   UNL     1      -3.499   0.579  -8.822  1.00  0.00    -0.353 N 
ATOM      4  C   UNL     1      -2.549  -0.351  -8.517  1.00  0.00     0.243 C 
ATOM      5  O   UNL     1      -2.345  -1.301  -9.267  1.00  0.00    -0.270 OA
ATOM      6  H   UNL     1      -3.915   0.470  -9.708  1.00  0.00     0.163 HD
BRANCH   4   7
ATOM      7  C   UNL     1      -1.829  -0.274  -7.227  1.00  0.00     0.071 C 
ATOM      8  C   UNL     1      -1.252   0.854  -6.795  1.00  0.00     0.005 C 
BRANCH   8   9
ATOM      9  C   UNL     1      -0.671   1.004  -5.484  1.00  0.00    -0.004 C 
ATOM     10  C   UNL     1      -0.567   2.220  -4.926  1.00  0.00    -0.022 C 
BRANCH  10  11
ATOM     11  C   UNL     1      -0.018   2.498  -3.543  1.00  0.00     0.027 C 
ATOM     12  C   UNL     1      -1.106   2.578  -2.390  1.00  0.00     0.047 C 
ATOM     13  C   UNL     1      -0.888   3.733  -1.421  1.00  0.00    -0.069 C 
ATOM     14  C   UNL     1      -1.380   3.552  -0.011  1.00  0.00     0.040 C 
ATOM     15  C   UNL     1      -0.296   4.872  -1.819  1.00  0.00    -0.021 C 
ATOM     16  C   UNL     1       0.951   3.729  -3.644  1.00  0.00     0.009 C 
ATOM     17  C   UNL     1       0.217   5.031  -3.234  1.00  0.00     0.044 C 
ATOM     18  C   UNL     1       2.290   3.569  -2.848  1.00  0.00    -0.010 C 
ATOM     19  C   UNL     1       1.145   6.244  -3.440  1.00  0.00     0.121 C 
ATOM     20  C   UNL     1       3.127   2.376  -3.330  1.00  0.00     0.008 C 
ATOM     21  C   UNL     1       3.163   4.839  -2.969  1.00  0.00     0.006 C 
ATOM     22  C   UNL     1       2.425   6.127  -2.625  1.00  0.00     0.033 C 
BRANCH  12  23
ATOM     23  C   UNL     1      -2.605   2.504  -2.764  1.00  0.00    -0.070 C 
ATOM     24  C   UNL     1      -4.855   1.332  -2.436  1.00  0.00     0.035 C 
ATOM     25  C   UNL     1      -3.382   1.527  -2.245  1.00  0.00    -0.031 C 
ATOM     26  C   UNL     1      -3.181   3.616  -3.611  1.00  0.00     0.040 C 
ENDBRANCH  12  23
BRANCH  19  27
ATOM     27  O   UNL     1       0.491   7.479  -3.161  1.00  0.00    -0.393 OA
ATOM     28  H   UNL     1       0.240   7.508  -2.224  1.00  0.00     0.210 HD
ENDBRANCH  19  27
ENDBRANCH  10  11
ENDBRANCH   8   9
ENDBRANCH   4   7
ENDBRANCH   2   3
ENDBRANCH   1   2
BRANCH   1  29
ATOM     29  C   UNL     1      -4.280   3.468  -9.900  1.00  0.00     0.023 C 
BRANCH  29  30
ATOM     30  C   UNL     1      -5.771   3.729  -9.708  1.00  0.00     0.116 C 
BRANCH  30  31
ATOM     31  N   UNL     1      -6.049   4.774  -8.736  1.00  0.00    -0.352 N 
ATOM     32  C   UNL     1      -7.068   5.701  -8.739  1.00  0.00     0.251 C 
ATOM     33  H   UNL     1      -5.427   4.827  -7.976  1.00  0.00     0.163 HD
ATOM     34  O   UNL     1      -7.087   6.588  -7.896  1.00  0.00    -0.269 OA
BRANCH  32  35
ATOM     35  C   UNL     1      -8.106   5.639  -9.792  1.00  0.00     0.039 A 
ATOM     36  C   UNL     1      -8.435   6.810 -10.480  1.00  0.00     0.014 A 
ATOM     37  C   UNL     1      -8.731   4.432 -10.117  1.00  0.00     0.014 A 
ATOM     38  C   UNL     1      -9.339   6.755 -11.544  1.00  0.00     0.010 A 
ATOM     39  C   UNL     1      -9.582   4.369 -11.217  1.00  0.00     0.010 A 
ATOM     40  C   UNL     1      -9.890   5.528 -11.946  1.00  0.00    -0.014 A 
BRANCH  40  41
ATOM     41  C   UNL     1     -10.783   5.433 -13.131  1.00  0.00     0.031 A 
ATOM     42  C   UNL     1     -12.219   5.018 -12.961  1.00  0.00     0.074 A 
ATOM     43  C   UNL     1     -10.280   5.649 -14.363  1.00  0.00     0.049 A 
ATOM     44  N   UNL     1     -13.128   4.789 -13.873  1.00  0.00    -0.248 NA
ATOM     45  C   UNL     1     -12.682   4.803 -11.582  1.00  0.00     0.031 C 
ATOM     46  C   UNL     1      -8.892   6.014 -14.657  1.00  0.00     0.029 A 
ATOM     47  N   UNL     1     -10.872   5.579 -15.599  1.00  0.00    -0.354 N 
ATOM     48  C   UNL     1     -14.266   4.387 -13.182  1.00  0.00     0.074 A 
ATOM     49  C   UNL     1     -13.911   4.352 -11.779  1.00  0.00     0.031 C 
ATOM     50  C   UNL     1      -8.745   6.151 -15.985  1.00  0.00     0.029 A 
ATOM     51  C   UNL     1     -10.012   5.843 -16.640  1.00  0.00     0.049 A 
ATOM     52  H   UNL     1     -11.823   5.360 -15.729  1.00  0.00     0.167 HD
ATOM     53  C   UNL     1     -15.497   4.095 -13.672  1.00  0.00     0.034 A 
ATOM     54  C   UNL     1     -10.218   5.826 -17.973  1.00  0.00     0.034 A 
ATOM     55  C   UNL     1     -15.838   4.151 -15.073  1.00  0.00     0.049 A 
ATOM     56  C   UNL     1     -11.592   5.490 -18.493  1.00  0.00     0.074 A 
ATOM     57  C   UNL     1     -17.067   3.934 -15.671  1.00  0.00     0.029 A 
ATOM     58  N   UNL     1     -14.945   4.439 -16.098  1.00  0.00    -0.354 N 
ATOM     59  N   UNL     1     -12.672   5.162 -17.822  1.00  0.00    -0.248 NA
ATOM     60  C   UNL     1     -11.777   5.532 -19.950  1.00  0.00     0.031 C 
ATOM     61  C   UNL     1     -16.905   4.030 -17.058  1.00  0.00     0.029 A 
ATOM     62  C   UNL     1     -15.591   4.378 -17.324  1.00  0.00     0.049 A 
ATOM     63  H   UNL     1     -13.993   4.655 -15.972  1.00  0.00     0.167 HD
ATOM     64  C   UNL     1     -13.672   4.990 -18.776  1.00  0.00     0.074 A 
ATOM     65  C   UNL     1     -13.069   5.263 -20.064  1.00  0.00     0.031 C 
ATOM     66  C   UNL     1     -14.973   4.643 -18.602  1.00  0.00     0.034 A 
BRANCH  53  67
ATOM     67  C   UNL     1     -16.553   3.666 -12.681  1.00  0.00     0.023 A 
ATOM     68  C   UNL     1     -17.009   4.528 -11.668  1.00  0.00     0.031 A 
ATOM     69  C   UNL     1     -17.093   2.369 -12.733  1.00  0.00     0.131 A 
ATOM     70  C   UNL     1     -17.914   4.060 -10.704  1.00  0.00     0.055 A 
ATOM     71  C   UNL     1     -18.056   1.935 -11.818  1.00  0.00     0.041 A 
ATOM     72  F   UNL     1     -16.684   1.494 -13.665  1.00  0.00    -0.206 F 
ATOM     73  C   UNL     1     -18.460   2.777 -10.787  1.00  0.00     0.022 A 
BRANCH  70  74
ATOM     74  S   UNL     1     -18.258   5.103  -9.261  1.00  0.00     0.124 S 
ATOM     75  O   UNL     1     -16.925   5.252  -8.681  1.00  0.00    -0.237 OA
ATOM     76  O   UNL     1     -18.829   6.301  -9.866  1.00  0.00    -0.237 OA
ATOM     77  O   UNL     1     -19.187   4.299  -8.470  1.00  0.00    -0.744 OA
ENDBRANCH  70  74
ENDBRANCH  53  67
BRANCH  54  78
ATOM     78  C   UNL     1      -9.101   6.123 -18.914  1.00  0.00     0.023 A 
ATOM     79  C   UNL     1      -9.133   7.260 -19.738  1.00  0.00     0.031 A 
ATOM     80  C   UNL     1      -8.005   5.251 -19.035  1.00  0.00     0.131 A 
ATOM     81  C   UNL     1      -8.115   7.469 -20.680  1.00  0.00     0.055 A 
ATOM     82  C   UNL     1      -6.968   5.491 -19.939  1.00  0.00     0.041 A 
ATOM     83  F   UNL     1      -7.921   4.154 -18.266  1.00  0.00    -0.206 F 
ATOM     84  C   UNL     1      -7.027   6.599 -20.779  1.00  0.00     0.022 A 
BRANCH  81  85
ATOM     85  S   UNL     1      -8.277   8.855 -21.839  1.00  0.00     0.124 S 
ATOM     86  O   UNL     1      -9.553   8.559 -22.480  1.00  0.00    -0.237 OA
ATOM     87  O   UNL     1      -8.262  10.004 -20.939  1.00  0.00    -0.237 OA
ATOM     88  O   UNL     1      -7.101   8.722 -22.696  1.00  0.00    -0.744 OA
ENDBRANCH  81  85
ENDBRANCH  54  78
BRANCH  66  89
ATOM     89  C   UNL     1     -15.837   4.588 -19.837  1.00  0.00     0.023 A 
ATOM     90  C   UNL     1     -15.646   3.613 -20.832  1.00  0.00     0.031 A 
ATOM     91  C   UNL     1     -16.858   5.536 -20.026  1.00  0.00     0.131 A 
ATOM     92  C   UNL     1     -16.429   3.639 -21.995  1.00  0.00     0.055 A 
ATOM     93  C   UNL     1     -17.672   5.523 -21.160  1.00  0.00     0.041 A 
ATOM     94  F   UNL     1     -17.082   6.490 -19.109  1.00  0.00    -0.206 F 
ATOM     95  C   UNL     1     -17.451   4.579 -22.158  1.00  0.00     0.022 A 
BRANCH  92  96
ATOM     96  S   UNL     1     -16.040   2.481 -23.335  1.00  0.00     0.124 S 
ATOM     97  O   UNL     1     -14.657   2.828 -23.645  1.00  0.00    -0.237 OA
ATOM     98  O   UNL     1     -16.243   1.184 -22.697  1.00  0.00    -0.237 OA
ATOM     99  O   UNL     1     -17.011   2.818 -24.374  1.00  0.00    -0.744 OA
ENDBRANCH  92  96
ENDBRANCH  66  89
ENDBRANCH  40  41
ENDBRANCH  32  35
ENDBRANCH  30  31
ENDBRANCH  29  30
ENDBRANCH   1  29
TORSDOF 18
