REMARK SMILES Cc1ccccc1OCC(=O)N[C@@H](Cc1c[nH]c2ccccc12)C(=O)NCCCCNC(=O)c1ccc(-c2c3nc(c(-c4cc(S(=O)(=O)[O-])ccc4F)c4ccc([nH]4)c(-c4cc(S(=O)(=O)[O-])ccc4F)c4nc(c(-c5cc(S(=O)(=O)[O-])ccc5F)c5ccc2[nH]5)C=C4)C=C3)cc1
REMARK SMILES IDX 28 1 27 2 26 3 24 4 25 5 13 7 12 8 10 9 11 10 9 12 8 13 7 14
REMARK SMILES IDX 1 15 2 16 3 17 4 18 6 19 5 20 14 21 15 22 16 23 23 24 17 25
REMARK SMILES IDX 18 26 22 27 19 29 21 30 20 31 29 32 30 33 31 34 32 35 33 37
REMARK SMILES IDX 34 38 35 39 96 40 36 41 95 42 37 43 38 44 39 45 89 46 40 47
REMARK SMILES IDX 94 48 88 49 90 50 41 51 93 52 87 53 86 54 42 56 74 57 54 58
REMARK SMILES IDX 73 59 55 60 58 61 72 62 91 63 56 64 57 65 71 67 92 68 59 69
REMARK SMILES IDX 43 70 44 71 52 72 45 73 51 74 53 75 50 76 46 77 47 78 48 79
REMARK SMILES IDX 49 80 75 81 76 82 84 83 77 84 83 85 85 86 82 87 78 88 79 89
REMARK SMILES IDX 80 90 81 91 60 92 61 93 69 94 62 95 68 96 70 97 67 98 63 99
REMARK SMILES IDX 64 100 65 101 66 102
REMARK H PARENT 26 6 12 11 17 28 31 36 90 55 58 66
REMARK Flexibility Score: inf
ROOT
ATOM      1  C   UNL     1       4.577   1.951   5.402  1.00  0.00     0.023 C 
ENDROOT
BRANCH   1   2
ATOM      2  C   UNL     1       3.242   2.698   5.333  1.00  0.00     0.116 C 
BRANCH   2   3
ATOM      3  N   UNL     1       3.296   3.951   4.583  1.00  0.00    -0.354 N 
ATOM      4  C   UNL     1       2.582   4.409   3.512  1.00  0.00     0.242 C 
ATOM      5  O   UNL     1       2.629   5.628   3.296  1.00  0.00    -0.273 OA
ATOM      6  H   UNL     1       3.975   4.584   4.910  1.00  0.00     0.163 HD
BRANCH   4   7
ATOM      7  C   UNL     1       1.686   3.516   2.617  1.00  0.00     0.175 C 
BRANCH   7   8
ATOM      8  N   UNL     1       2.348   2.249   2.303  1.00  0.00    -0.341 N 
ATOM      9  C   UNL     1       3.003   1.953   1.146  1.00  0.00     0.258 C 
ATOM     10  O   UNL     1       4.027   1.268   1.191  1.00  0.00    -0.271 OA
ATOM     11  H   UNL     1       2.318   1.546   2.991  1.00  0.00     0.164 HD
BRANCH   9  12
ATOM     12  C   UNL     1       2.454   2.478  -0.184  1.00  0.00     0.329 C 
BRANCH  12  13
ATOM     13  O   UNL     1       1.087   2.287  -0.492  1.00  0.00    -0.484 OA
BRANCH  13  14
ATOM     14  C   UNL     1       0.466   1.078  -0.345  1.00  0.00     0.122 A 
ATOM     15  C   UNL     1       2.421  -0.610  -0.614  1.00  0.00     0.048 C 
ATOM     16  C   UNL     1       0.990  -0.223  -0.378  1.00  0.00    -0.009 A 
ATOM     17  C   UNL     1       0.113  -1.309  -0.146  1.00  0.00     0.007 A 
ATOM     18  C   UNL     1      -1.254  -1.125   0.051  1.00  0.00     0.001 A 
ATOM     19  C   UNL     1      -0.922   1.242  -0.173  1.00  0.00     0.047 A 
ATOM     20  C   UNL     1      -1.777   0.157   0.024  1.00  0.00     0.004 A 
ENDBRANCH  13  14
ENDBRANCH  12  13
ENDBRANCH   9  12
ENDBRANCH   7   8
BRANCH   7  21
ATOM     21  C   UNL     1       0.227   3.420   3.092  1.00  0.00     0.072 C 
BRANCH  21  22
ATOM     22  C   UNL     1       0.019   2.737   4.399  1.00  0.00    -0.020 A 
ATOM     23  C   UNL     1      -0.053   3.344   5.640  1.00  0.00     0.087 A 
ATOM     24  C   UNL     1      -0.095   1.328   4.611  1.00  0.00     0.003 A 
ATOM     25  N   UNL     1      -0.107   2.361   6.595  1.00  0.00    -0.361 N 
ATOM     26  C   UNL     1      -0.121   1.127   5.988  1.00  0.00     0.046 A 
ATOM     27  C   UNL     1      -0.103   0.198   3.766  1.00  0.00     0.010 A 
ATOM     28  H   UNL     1      -0.131   2.516   7.567  1.00  0.00     0.166 HD
ATOM     29  C   UNL     1      -0.114  -0.149   6.548  1.00  0.00     0.026 A 
ATOM     30  C   UNL     1      -0.117  -1.087   4.320  1.00  0.00     0.001 A 
ATOM     31  C   UNL     1      -0.108  -1.255   5.698  1.00  0.00     0.002 A 
ENDBRANCH  21  22
ENDBRANCH   7  21
ENDBRANCH   4   7
ENDBRANCH   2   3
ENDBRANCH   1   2
BRANCH   1  32
ATOM     32  C   UNL     1       5.707   2.682   6.127  1.00  0.00     0.023 C 
BRANCH  32  33
ATOM     33  C   UNL     1       5.424   3.030   7.583  1.00  0.00     0.116 C 
BRANCH  33  34
ATOM     34  N   UNL     1       5.834   2.044   8.568  1.00  0.00    -0.352 N 
ATOM     35  C   UNL     1       5.747   2.104   9.952  1.00  0.00     0.251 C 
ATOM     36  H   UNL     1       6.229   1.219   8.203  1.00  0.00     0.163 HD
ATOM     37  O   UNL     1       6.330   1.288  10.649  1.00  0.00    -0.269 OA
BRANCH  35  38
ATOM     38  C   UNL     1       4.839   3.096  10.593  1.00  0.00     0.039 A 
ATOM     39  C   UNL     1       4.003   2.638  11.623  1.00  0.00     0.014 A 
ATOM     40  C   UNL     1       4.651   4.372  10.073  1.00  0.00     0.014 A 
ATOM     41  C   UNL     1       2.848   3.348  11.941  1.00  0.00     0.010 A 
ATOM     42  C   UNL     1       3.452   5.016  10.294  1.00  0.00     0.010 A 
ATOM     43  C   UNL     1       2.521   4.465  11.175  1.00  0.00    -0.014 A 
BRANCH  43  44
ATOM     44  C   UNL     1       1.182   5.035  11.111  1.00  0.00     0.031 A 
ATOM     45  C   UNL     1       0.883   6.314  11.784  1.00  0.00     0.074 A 
ATOM     46  C   UNL     1       0.253   4.418  10.347  1.00  0.00     0.049 A 
ATOM     47  N   UNL     1      -0.293   6.687  12.160  1.00  0.00    -0.248 NA
ATOM     48  C   UNL     1       1.930   7.267  12.136  1.00  0.00     0.031 C 
ATOM     49  C   UNL     1      -1.039   4.945   9.915  1.00  0.00     0.029 A 
ATOM     50  N   UNL     1       0.199   3.065   9.990  1.00  0.00    -0.354 N 
ATOM     51  C   UNL     1      -0.207   8.004  12.556  1.00  0.00     0.074 A 
ATOM     52  C   UNL     1       1.207   8.300  12.577  1.00  0.00     0.031 C 
ATOM     53  C   UNL     1      -1.853   3.908   9.653  1.00  0.00     0.029 A 
ATOM     54  C   UNL     1      -1.152   2.704  10.081  1.00  0.00     0.049 A 
ATOM     55  H   UNL     1       0.953   2.488   9.729  1.00  0.00     0.167 HD
ATOM     56  C   UNL     1      -1.340   8.750  12.691  1.00  0.00     0.034 A 
ATOM     57  C   UNL     1      -1.643   1.781  10.958  1.00  0.00     0.034 A 
ATOM     58  C   UNL     1      -2.535   7.956  12.421  1.00  0.00     0.049 A 
ATOM     59  C   UNL     1      -2.774   2.330  11.791  1.00  0.00     0.074 A 
ATOM     60  C   UNL     1      -3.311   7.808  11.284  1.00  0.00     0.029 A 
ATOM     61  N   UNL     1      -2.905   6.936  13.291  1.00  0.00    -0.354 N 
ATOM     62  N   UNL     1      -2.919   3.594  12.082  1.00  0.00    -0.248 NA
ATOM     63  C   UNL     1      -3.808   1.486  12.376  1.00  0.00     0.031 C 
ATOM     64  C   UNL     1      -4.102   6.644  11.445  1.00  0.00     0.029 A 
ATOM     65  C   UNL     1      -3.837   6.108  12.695  1.00  0.00     0.049 A 
ATOM     66  H   UNL     1      -2.553   6.821  14.203  1.00  0.00     0.167 HD
ATOM     67  C   UNL     1      -4.017   3.742  12.890  1.00  0.00     0.074 A 
ATOM     68  C   UNL     1      -4.550   2.397  13.025  1.00  0.00     0.031 C 
ATOM     69  C   UNL     1      -4.386   4.957  13.396  1.00  0.00     0.034 A 
BRANCH  56  70
ATOM     70  C   UNL     1      -1.341  10.264  12.729  1.00  0.00     0.023 A 
ATOM     71  C   UNL     1      -2.411  10.968  12.139  1.00  0.00     0.031 A 
ATOM     72  C   UNL     1      -0.317  11.065  13.268  1.00  0.00     0.131 A 
ATOM     73  C   UNL     1      -2.380  12.367  11.991  1.00  0.00     0.055 A 
ATOM     74  C   UNL     1      -0.253  12.452  13.067  1.00  0.00     0.041 A 
ATOM     75  F   UNL     1       0.640  10.547  14.050  1.00  0.00    -0.206 F 
ATOM     76  C   UNL     1      -1.281  13.109  12.408  1.00  0.00     0.022 A 
BRANCH  73  77
ATOM     77  S   UNL     1      -3.807  13.205  11.246  1.00  0.00     0.124 S 
ATOM     78  O   UNL     1      -3.886  12.577   9.932  1.00  0.00    -0.237 OA
ATOM     79  O   UNL     1      -4.877  12.880  12.183  1.00  0.00    -0.237 OA
ATOM     80  O   UNL     1      -3.405  14.611  11.234  1.00  0.00    -0.744 OA
ENDBRANCH  73  77
ENDBRANCH  56  70
BRANCH  57  81
ATOM     81  C   UNL     1      -0.654   0.793  11.480  1.00  0.00     0.023 A 
ATOM     82  C   UNL     1      -0.031  -0.075  10.568  1.00  0.00     0.031 A 
ATOM     83  C   UNL     1      -0.072   0.930  12.747  1.00  0.00     0.131 A 
ATOM     84  C   UNL     1       1.225  -0.628  10.858  1.00  0.00     0.055 A 
ATOM     85  C   UNL     1       1.142   0.309  13.065  1.00  0.00     0.041 A 
ATOM     86  F   UNL     1      -0.600   1.765  13.653  1.00  0.00    -0.206 F 
ATOM     87  C   UNL     1       1.819  -0.441  12.105  1.00  0.00     0.022 A 
BRANCH  84  88
ATOM     88  S   UNL     1       2.156  -1.441   9.527  1.00  0.00     0.124 S 
ATOM     89  O   UNL     1       1.145  -2.303   8.921  1.00  0.00    -0.237 OA
ATOM     90  O   UNL     1       2.574  -0.290   8.730  1.00  0.00    -0.237 OA
ATOM     91  O   UNL     1       3.224  -2.139  10.233  1.00  0.00    -0.744 OA
ENDBRANCH  84  88
ENDBRANCH  57  81
BRANCH  69  92
ATOM     92  C   UNL     1      -5.374   5.164  14.523  1.00  0.00     0.023 A 
ATOM     93  C   UNL     1      -5.784   4.131  15.380  1.00  0.00     0.031 A 
ATOM     94  C   UNL     1      -5.875   6.450  14.837  1.00  0.00     0.131 A 
ATOM     95  C   UNL     1      -6.715   4.356  16.407  1.00  0.00     0.055 A 
ATOM     96  C   UNL     1      -6.735   6.689  15.915  1.00  0.00     0.041 A 
ATOM     97  F   UNL     1      -5.539   7.533  14.123  1.00  0.00    -0.206 F 
ATOM     98  C   UNL     1      -7.178   5.635  16.697  1.00  0.00     0.022 A 
BRANCH  95  99
ATOM     99  S   UNL     1      -7.357   2.919  17.303  1.00  0.00     0.124 S 
ATOM    100  O   UNL     1      -8.007   2.166  16.233  1.00  0.00    -0.237 OA
ATOM    101  O   UNL     1      -6.142   2.321  17.848  1.00  0.00    -0.237 OA
ATOM    102  O   UNL     1      -8.262   3.502  18.290  1.00  0.00    -0.744 OA
ENDBRANCH  95  99
ENDBRANCH  69  92
ENDBRANCH  43  44
ENDBRANCH  35  38
ENDBRANCH  33  34
ENDBRANCH  32  33
ENDBRANCH   1  32
TORSDOF 20
