REMARK SMILES CCc1ccc(C[NH+]2CCC(Oc3ccccc3OC)(C(=O)NCCCCNC(=O)c3ccc(-c4c5nc(c(-c6cc(S(=O)(=O)[O-])ccc6F)c6ccc([nH]6)c(-c6cc(S(=O)(=O)[O-])ccc6F)c6nc(c(-c7cc(S(=O)(=O)[O-])ccc7F)c7ccc4[nH]7)C=C6)C=C5)cc3)CC2)nc1
REMARK SMILES IDX 25 1 24 2 23 3 21 4 22 5 11 7 8 8 9 9 95 10 10 12 94 13 7 14
REMARK SMILES IDX 6 15 3 16 4 17 97 18 5 19 96 20 2 21 1 22 12 23 13 24 14 25
REMARK SMILES IDX 18 26 15 27 17 28 16 29 19 30 20 31 26 32 27 33 28 34 29 35
REMARK SMILES IDX 30 37 31 38 32 39 93 40 33 41 92 42 34 43 35 44 36 45 86 46
REMARK SMILES IDX 37 47 91 48 85 49 87 50 38 51 90 52 84 53 83 54 39 56 71 57
REMARK SMILES IDX 51 58 70 59 52 60 55 61 69 62 88 63 53 64 54 65 68 67 89 68
REMARK SMILES IDX 56 69 40 70 41 71 49 72 42 73 48 74 50 75 47 76 43 77 44 78
REMARK SMILES IDX 45 79 46 80 72 81 73 82 81 83 74 84 80 85 82 86 79 87 75 88
REMARK SMILES IDX 76 89 77 90 78 91 57 92 58 93 66 94 59 95 65 96 67 97 64 98
REMARK SMILES IDX 60 99 61 100 62 101 63 102
REMARK H PARENT 23 6 8 11 28 36 87 55 55 66
REMARK Flexibility Score: inf
ROOT
ATOM      1  C   UNL     1       3.505   4.690   6.520  1.00  0.00     0.023 C 
ENDROOT
BRANCH   1   2
ATOM      2  C   UNL     1       4.933   4.425   6.053  1.00  0.00     0.116 C 
BRANCH   2   3
ATOM      3  N   UNL     1       4.989   3.769   4.763  1.00  0.00    -0.353 N 
ATOM      4  C   UNL     1       5.334   4.247   3.529  1.00  0.00     0.264 C 
ATOM      5  O   UNL     1       5.554   3.376   2.679  1.00  0.00    -0.270 OA
ATOM      6  H   UNL     1       4.736   2.817   4.777  1.00  0.00     0.163 HD
BRANCH   4   7
ATOM      7  C   UNL     1       5.434   5.781   3.198  1.00  0.00     0.197 C 
ATOM      8  N   UNL     1       3.585   6.248   0.949  1.00  0.00    -0.330 N 
ATOM      9  C   UNL     1       3.076   5.970   2.295  1.00  0.00     0.267 C 
ATOM     10  C   UNL     1       4.856   5.545   0.708  1.00  0.00     0.267 C 
ATOM     11  H   UNL     1       3.775   7.248   0.890  1.00  0.00     0.348 HD
ATOM     12  C   UNL     1       4.071   6.466   3.328  1.00  0.00     0.120 C 
ATOM     13  C   UNL     1       5.926   5.946   1.740  1.00  0.00     0.120 C 
BRANCH   8  14
ATOM     14  C   UNL     1       2.574   5.948  -0.096  1.00  0.00     0.319 C 
BRANCH  14  15
ATOM     15  C   UNL     1       1.904   4.586  -0.003  1.00  0.00     0.095 A 
ATOM     16  C   UNL     1       0.918   2.063   0.547  1.00  0.00    -0.030 A 
ATOM     17  C   UNL     1       0.157   3.190   0.867  1.00  0.00     0.007 A 
ATOM     18  C   UNL     1       2.144   2.288  -0.069  1.00  0.00     0.115 A 
ATOM     19  C   UNL     1       0.648   4.463   0.590  1.00  0.00     0.030 A 
ATOM     20  N   UNL     1       2.635   3.509  -0.374  1.00  0.00    -0.255 NA
BRANCH  16  21
ATOM     21  C   UNL     1       0.453   0.691   0.953  1.00  0.00     0.034 C 
ATOM     22  C   UNL     1       0.796  -0.416  -0.036  1.00  0.00     0.009 C 
ENDBRANCH  16  21
ENDBRANCH  14  15
ENDBRANCH   8  14
BRANCH   7  23
ATOM     23  O   UNL     1       6.354   6.267   4.203  1.00  0.00    -0.473 OA
BRANCH  23  24
ATOM     24  C   UNL     1       7.021   7.439   4.014  1.00  0.00     0.162 A 
ATOM     25  C   UNL     1       8.355   7.327   3.606  1.00  0.00     0.050 A 
ATOM     26  C   UNL     1       6.513   8.694   4.367  1.00  0.00     0.160 A 
ATOM     27  C   UNL     1       9.158   8.462   3.492  1.00  0.00     0.004 A 
ATOM     28  C   UNL     1       7.314   9.831   4.229  1.00  0.00     0.050 A 
ATOM     29  C   UNL     1       8.636   9.716   3.800  1.00  0.00     0.004 A 
BRANCH  26  30
ATOM     30  O   UNL     1       5.232   8.930   4.786  1.00  0.00    -0.493 OA
ATOM     31  C   UNL     1       4.973   8.408   6.085  1.00  0.00     0.278 C 
ENDBRANCH  26  30
ENDBRANCH  23  24
ENDBRANCH   7  23
ENDBRANCH   4   7
ENDBRANCH   2   3
ENDBRANCH   1   2
BRANCH   1  32
ATOM     32  C   UNL     1       2.790   3.476   7.107  1.00  0.00     0.023 C 
BRANCH  32  33
ATOM     33  C   UNL     1       3.451   2.872   8.338  1.00  0.00     0.116 C 
BRANCH  33  34
ATOM     34  N   UNL     1       3.615   3.817   9.431  1.00  0.00    -0.352 N 
ATOM     35  C   UNL     1       3.488   3.589  10.783  1.00  0.00     0.251 C 
ATOM     36  H   UNL     1       3.847   4.738   9.171  1.00  0.00     0.163 HD
ATOM     37  O   UNL     1       3.541   4.524  11.570  1.00  0.00    -0.269 OA
BRANCH  35  38
ATOM     38  C   UNL     1       3.242   2.210  11.258  1.00  0.00     0.039 A 
ATOM     39  C   UNL     1       2.219   1.984  12.181  1.00  0.00     0.014 A 
ATOM     40  C   UNL     1       3.990   1.141  10.756  1.00  0.00     0.014 A 
ATOM     41  C   UNL     1       1.904   0.675  12.551  1.00  0.00     0.010 A 
ATOM     42  C   UNL     1       3.617  -0.164  11.059  1.00  0.00     0.010 A 
ATOM     43  C   UNL     1       2.576  -0.411  11.967  1.00  0.00    -0.014 A 
BRANCH  43  44
ATOM     44  C   UNL     1       2.231  -1.813  12.316  1.00  0.00     0.031 A 
ATOM     45  C   UNL     1       3.257  -2.690  12.982  1.00  0.00     0.074 A 
ATOM     46  C   UNL     1       1.024  -2.312  11.983  1.00  0.00     0.049 A 
ATOM     47  N   UNL     1       3.185  -3.957  13.302  1.00  0.00    -0.248 NA
ATOM     48  C   UNL     1       4.551  -2.065  13.296  1.00  0.00     0.031 C 
ATOM     49  C   UNL     1      -0.037  -1.573  11.294  1.00  0.00     0.029 A 
ATOM     50  N   UNL     1       0.485  -3.559  12.174  1.00  0.00    -0.354 N 
ATOM     51  C   UNL     1       4.426  -4.283  13.839  1.00  0.00     0.074 A 
ATOM     52  C   UNL     1       5.252  -3.100  13.732  1.00  0.00     0.031 C 
ATOM     53  C   UNL     1      -1.106  -2.372  11.146  1.00  0.00     0.029 A 
ATOM     54  C   UNL     1      -0.796  -3.690  11.690  1.00  0.00     0.049 A 
ATOM     55  H   UNL     1       0.971  -4.293  12.616  1.00  0.00     0.167 HD
ATOM     56  C   UNL     1       4.830  -5.451  14.397  1.00  0.00     0.034 A 
ATOM     57  C   UNL     1      -1.623  -4.755  11.679  1.00  0.00     0.034 A 
ATOM     58  C   UNL     1       3.986  -6.616  14.510  1.00  0.00     0.049 A 
ATOM     59  C   UNL     1      -1.150  -6.046  12.298  1.00  0.00     0.074 A 
ATOM     60  C   UNL     1       4.272  -7.836  15.097  1.00  0.00     0.029 A 
ATOM     61  N   UNL     1       2.688  -6.707  14.021  1.00  0.00    -0.354 N 
ATOM     62  N   UNL     1       0.010  -6.325  12.848  1.00  0.00    -0.248 NA
ATOM     63  C   UNL     1      -2.106  -7.161  12.311  1.00  0.00     0.031 C 
ATOM     64  C   UNL     1       3.175  -8.683  14.907  1.00  0.00     0.029 A 
ATOM     65  C   UNL     1       2.171  -7.969  14.272  1.00  0.00     0.049 A 
ATOM     66  H   UNL     1       2.205  -5.981  13.564  1.00  0.00     0.167 HD
ATOM     67  C   UNL     1      -0.091  -7.637  13.303  1.00  0.00     0.074 A 
ATOM     68  C   UNL     1      -1.431  -8.085  12.978  1.00  0.00     0.031 C 
ATOM     69  C   UNL     1       0.835  -8.403  13.935  1.00  0.00     0.034 A 
BRANCH  56  70
ATOM     70  C   UNL     1       6.253  -5.521  14.902  1.00  0.00     0.023 A 
ATOM     71  C   UNL     1       6.715  -4.678  15.929  1.00  0.00     0.031 A 
ATOM     72  C   UNL     1       7.173  -6.413  14.323  1.00  0.00     0.131 A 
ATOM     73  C   UNL     1       8.072  -4.681  16.283  1.00  0.00     0.055 A 
ATOM     74  C   UNL     1       8.504  -6.475  14.744  1.00  0.00     0.041 A 
ATOM     75  F   UNL     1       6.800  -7.229  13.324  1.00  0.00    -0.206 F 
ATOM     76  C   UNL     1       8.965  -5.593  15.717  1.00  0.00     0.022 A 
BRANCH  73  77
ATOM     77  S   UNL     1       8.683  -3.369  17.377  1.00  0.00     0.124 S 
ATOM     78  O   UNL     1       8.343  -2.170  16.615  1.00  0.00    -0.237 OA
ATOM     79  O   UNL     1       7.914  -3.591  18.596  1.00  0.00    -0.237 OA
ATOM     80  O   UNL     1      10.114  -3.648  17.481  1.00  0.00    -0.744 OA
ENDBRANCH  73  77
ENDBRANCH  56  70
BRANCH  57  81
ATOM     81  C   UNL     1      -2.981  -4.655  11.069  1.00  0.00     0.023 A 
ATOM     82  C   UNL     1      -4.138  -4.800  11.851  1.00  0.00     0.031 A 
ATOM     83  C   UNL     1      -3.142  -4.461   9.686  1.00  0.00     0.131 A 
ATOM     84  C   UNL     1      -5.401  -4.803  11.240  1.00  0.00     0.055 A 
ATOM     85  C   UNL     1      -4.403  -4.409   9.090  1.00  0.00     0.041 A 
ATOM     86  F   UNL     1      -2.069  -4.309   8.892  1.00  0.00    -0.206 F 
ATOM     87  C   UNL     1      -5.542  -4.595   9.867  1.00  0.00     0.022 A 
BRANCH  84  88
ATOM     88  S   UNL     1      -6.857  -5.171  12.257  1.00  0.00     0.124 S 
ATOM     89  O   UNL     1      -6.522  -6.486  12.790  1.00  0.00    -0.237 OA
ATOM     90  O   UNL     1      -6.845  -4.068  13.213  1.00  0.00    -0.237 OA
ATOM     91  O   UNL     1      -7.958  -5.147  11.296  1.00  0.00    -0.744 OA
ENDBRANCH  84  88
ENDBRANCH  57  81
BRANCH  69  92
ATOM     92  C   UNL     1       0.404  -9.786  14.362  1.00  0.00     0.023 A 
ATOM     93  C   UNL     1       0.070 -10.781  13.427  1.00  0.00     0.031 A 
ATOM     94  C   UNL     1       0.302 -10.102  15.729  1.00  0.00     0.131 A 
ATOM     95  C   UNL     1      -0.414 -12.021  13.870  1.00  0.00     0.055 A 
ATOM     96  C   UNL     1      -0.115 -11.361  16.163  1.00  0.00     0.041 A 
ATOM     97  F   UNL     1       0.606  -9.191  16.666  1.00  0.00    -0.206 F 
ATOM     98  C   UNL     1      -0.493 -12.323  15.232  1.00  0.00     0.022 A 
BRANCH  95  99
ATOM     99  S   UNL     1      -1.050 -13.196  12.642  1.00  0.00     0.124 S 
ATOM    100  O   UNL     1      -2.075 -12.405  11.968  1.00  0.00    -0.237 OA
ATOM    101  O   UNL     1       0.141 -13.498  11.854  1.00  0.00    -0.237 OA
ATOM    102  O   UNL     1      -1.553 -14.302  13.453  1.00  0.00    -0.744 OA
ENDBRANCH  95  99
ENDBRANCH  69  92
ENDBRANCH  43  44
ENDBRANCH  35  38
ENDBRANCH  33  34
ENDBRANCH  32  33
ENDBRANCH   1  32
TORSDOF 20
