REMARK SMILES O=C(Cn1cc(/C=C2\SC(=S)N(C[C@H]3CCCO3)C2=O)c2ccccc21)NCCCCNC(=O)c1ccc(-c2c3nc(c(-c4cc(S(=O)(=O)[O-])ccc4F)c4ccc([nH]4)c(-c4cc(S(=O)(=O)[O-])ccc4F)c4nc(c(-c5cc(S(=O)(=O)[O-])ccc5F)c5ccc2[nH]5)C=C4)C=C3)cc1
REMARK SMILES IDX 29 1 28 2 27 3 1 4 2 5 3 7 4 8 5 9 26 10 6 11 21 12 25 13
REMARK SMILES IDX 22 14 24 15 23 16 7 17 8 18 9 19 19 20 10 21 12 22 20 23
REMARK SMILES IDX 11 24 13 25 14 26 15 27 18 28 16 29 17 30 30 31 31 32 32 33
REMARK SMILES IDX 33 34 34 36 35 37 36 38 97 39 37 40 96 41 38 42 39 43 40 44
REMARK SMILES IDX 90 45 41 46 95 47 89 48 91 49 42 50 94 51 88 52 87 53 43 55
REMARK SMILES IDX 75 56 55 57 74 58 56 59 59 60 73 61 92 62 57 63 58 64 72 66
REMARK SMILES IDX 93 67 60 68 44 69 45 70 53 71 46 72 52 73 54 74 51 75 47 76
REMARK SMILES IDX 48 77 49 78 50 79 76 80 77 81 85 82 78 83 84 84 86 85 83 86
REMARK SMILES IDX 79 87 80 88 81 89 82 90 61 91 62 92 70 93 63 94 69 95 71 96
REMARK SMILES IDX 68 97 64 98 65 99 66 100 67 101
REMARK H PARENT 27 6 32 35 91 54 59 65
REMARK Flexibility Score: inf
ROOT
ATOM      1  C   UNL     1      20.363  -5.491  -4.139  1.00  0.00     0.023 C 
ENDROOT
BRANCH   1   2
ATOM      2  C   UNL     1      19.224  -4.497  -4.365  1.00  0.00     0.116 C 
BRANCH   2   3
ATOM      3  N   UNL     1      18.821  -3.812  -3.151  1.00  0.00    -0.355 N 
ATOM      4  O   UNL     1      19.339  -1.696  -3.890  1.00  0.00    -0.273 OA
ATOM      5  C   UNL     1      18.878  -2.437  -3.024  1.00  0.00     0.239 C 
ATOM      6  H   UNL     1      18.495  -4.346  -2.390  1.00  0.00     0.163 HD
BRANCH   5   7
ATOM      7  C   UNL     1      18.385  -1.881  -1.704  1.00  0.00     0.222 C 
BRANCH   7   8
ATOM      8  N   UNL     1      17.018  -2.269  -1.388  1.00  0.00    -0.337 N 
ATOM      9  C   UNL     1      16.668  -2.947  -0.251  1.00  0.00     0.095 A 
ATOM     10  C   UNL     1      15.896  -2.002  -2.150  1.00  0.00     0.049 A 
ATOM     11  C   UNL     1      15.307  -3.141  -0.279  1.00  0.00     0.001 A 
ATOM     12  C   UNL     1      14.802  -2.570  -1.482  1.00  0.00     0.007 A 
ATOM     13  C   UNL     1      15.750  -1.323  -3.371  1.00  0.00     0.027 A 
ATOM     14  C   UNL     1      13.522  -2.462  -2.067  1.00  0.00     0.011 A 
ATOM     15  C   UNL     1      14.472  -1.233  -3.928  1.00  0.00     0.002 A 
ATOM     16  C   UNL     1      13.372  -1.795  -3.289  1.00  0.00     0.001 A 
BRANCH  11  17
ATOM     17  C   UNL     1      14.601  -3.838   0.740  1.00  0.00     0.031 C 
ATOM     18  C   UNL     1      14.452  -3.442   2.012  1.00  0.00     0.081 C 
ATOM     19  S   UNL     1      14.923  -1.956   2.731  1.00  0.00    -0.054 SA
ATOM     20  C   UNL     1      13.755  -4.283   3.007  1.00  0.00     0.266 C 
ATOM     21  C   UNL     1      14.043  -2.298   4.218  1.00  0.00     0.148 C 
ATOM     22  N   UNL     1      13.491  -3.561   4.153  1.00  0.00    -0.290 N 
ATOM     23  O   UNL     1      13.466  -5.463   2.811  1.00  0.00    -0.268 OA
ATOM     24  S   UNL     1      13.940  -1.185   5.457  1.00  0.00    -0.052 S 
BRANCH  22  25
ATOM     25  C   UNL     1      12.694  -4.187   5.210  1.00  0.00     0.159 C 
BRANCH  25  26
ATOM     26  C   UNL     1      11.168  -4.047   4.999  1.00  0.00     0.138 C 
ATOM     27  C   UNL     1      10.576  -4.857   3.853  1.00  0.00     0.036 C 
ATOM     28  O   UNL     1      10.511  -4.558   6.183  1.00  0.00    -0.376 OA
ATOM     29  C   UNL     1      10.390  -6.213   4.485  1.00  0.00     0.031 C 
ATOM     30  C   UNL     1       9.907  -5.825   5.865  1.00  0.00     0.160 C 
ENDBRANCH  25  26
ENDBRANCH  22  25
ENDBRANCH  11  17
ENDBRANCH   7   8
ENDBRANCH   5   7
ENDBRANCH   2   3
ENDBRANCH   1   2
BRANCH   1  31
ATOM     31  C   UNL     1      20.035  -6.705  -3.255  1.00  0.00     0.023 C 
BRANCH  31  32
ATOM     32  C   UNL     1      18.863  -7.573  -3.720  1.00  0.00     0.116 C 
BRANCH  32  33
ATOM     33  N   UNL     1      18.977  -8.024  -5.092  1.00  0.00    -0.352 N 
ATOM     34  C   UNL     1      19.371  -9.176  -5.718  1.00  0.00     0.251 C 
ATOM     35  H   UNL     1      18.703  -7.330  -5.734  1.00  0.00     0.163 HD
ATOM     36  O   UNL     1      19.125  -9.217  -6.928  1.00  0.00    -0.269 OA
BRANCH  34  37
ATOM     37  C   UNL     1      20.086 -10.329  -5.095  1.00  0.00     0.039 A 
ATOM     38  C   UNL     1      20.512 -10.413  -3.771  1.00  0.00     0.014 A 
ATOM     39  C   UNL     1      20.414 -11.393  -5.964  1.00  0.00     0.014 A 
ATOM     40  C   UNL     1      21.289 -11.499  -3.350  1.00  0.00     0.010 A 
ATOM     41  C   UNL     1      21.189 -12.478  -5.546  1.00  0.00     0.010 A 
ATOM     42  C   UNL     1      21.664 -12.518  -4.242  1.00  0.00    -0.014 A 
BRANCH  42  43
ATOM     43  C   UNL     1      22.493 -13.618  -3.731  1.00  0.00     0.031 A 
ATOM     44  C   UNL     1      21.928 -14.361  -2.569  1.00  0.00     0.074 A 
ATOM     45  C   UNL     1      23.664 -14.045  -4.251  1.00  0.00     0.049 A 
ATOM     46  N   UNL     1      22.326 -14.333  -1.339  1.00  0.00    -0.248 NA
ATOM     47  C   UNL     1      20.712 -15.152  -2.790  1.00  0.00     0.031 C 
ATOM     48  C   UNL     1      24.274 -13.704  -5.538  1.00  0.00     0.029 A 
ATOM     49  N   UNL     1      24.541 -14.957  -3.729  1.00  0.00    -0.354 N 
ATOM     50  C   UNL     1      21.522 -15.240  -0.648  1.00  0.00     0.074 A 
ATOM     51  C   UNL     1      20.468 -15.610  -1.561  1.00  0.00     0.031 C 
ATOM     52  C   UNL     1      25.308 -14.545  -5.784  1.00  0.00     0.029 A 
ATOM     53  C   UNL     1      25.538 -15.363  -4.605  1.00  0.00     0.049 A 
ATOM     54  H   UNL     1      24.471 -15.297  -2.807  1.00  0.00     0.167 HD
ATOM     55  C   UNL     1      21.880 -15.746   0.568  1.00  0.00     0.034 A 
ATOM     56  C   UNL     1      26.475 -16.319  -4.393  1.00  0.00     0.034 A 
ATOM     57  C   UNL     1      22.972 -15.008   1.145  1.00  0.00     0.049 A 
ATOM     58  C   UNL     1      26.628 -16.515  -2.936  1.00  0.00     0.074 A 
ATOM     59  C   UNL     1      23.159 -13.724   1.611  1.00  0.00     0.029 A 
ATOM     60  N   UNL     1      24.225 -15.549   1.013  1.00  0.00    -0.354 N 
ATOM     61  N   UNL     1      27.181 -15.655  -2.130  1.00  0.00    -0.248 NA
ATOM     62  C   UNL     1      25.853 -17.563  -2.293  1.00  0.00     0.031 C 
ATOM     63  C   UNL     1      24.520 -13.414   1.323  1.00  0.00     0.029 A 
ATOM     64  C   UNL     1      25.101 -14.536   0.726  1.00  0.00     0.049 A 
ATOM     65  H   UNL     1      24.455 -16.502   1.108  1.00  0.00     0.167 HD
ATOM     66  C   UNL     1      26.452 -15.766  -0.959  1.00  0.00     0.074 A 
ATOM     67  C   UNL     1      25.772 -17.053  -1.063  1.00  0.00     0.031 C 
ATOM     68  C   UNL     1      26.246 -14.682  -0.153  1.00  0.00     0.034 A 
BRANCH  55  69
ATOM     69  C   UNL     1      21.466 -17.102   1.100  1.00  0.00     0.023 A 
ATOM     70  C   UNL     1      20.859 -18.086   0.299  1.00  0.00     0.031 A 
ATOM     71  C   UNL     1      21.882 -17.529   2.381  1.00  0.00     0.131 A 
ATOM     72  C   UNL     1      20.676 -19.399   0.756  1.00  0.00     0.055 A 
ATOM     73  C   UNL     1      21.761 -18.857   2.813  1.00  0.00     0.041 A 
ATOM     74  F   UNL     1      22.476 -16.681   3.235  1.00  0.00    -0.206 F 
ATOM     75  C   UNL     1      21.156 -19.803   1.998  1.00  0.00     0.022 A 
BRANCH  72  76
ATOM     76  S   UNL     1      19.814 -20.617  -0.275  1.00  0.00     0.124 S 
ATOM     77  O   UNL     1      20.848 -21.627  -0.474  1.00  0.00    -0.237 OA
ATOM     78  O   UNL     1      18.706 -21.008   0.593  1.00  0.00    -0.237 OA
ATOM     79  O   UNL     1      19.431 -19.851  -1.457  1.00  0.00    -0.744 OA
ENDBRANCH  72  76
ENDBRANCH  55  69
BRANCH  56  80
ATOM     80  C   UNL     1      26.917 -17.365  -5.344  1.00  0.00     0.023 A 
ATOM     81  C   UNL     1      26.014 -17.835  -6.314  1.00  0.00     0.031 A 
ATOM     82  C   UNL     1      28.056 -18.148  -5.081  1.00  0.00     0.131 A 
ATOM     83  C   UNL     1      26.218 -19.079  -6.924  1.00  0.00     0.055 A 
ATOM     84  C   UNL     1      28.268 -19.381  -5.708  1.00  0.00     0.041 A 
ATOM     85  F   UNL     1      28.942 -17.770  -4.146  1.00  0.00    -0.206 F 
ATOM     86  C   UNL     1      27.334 -19.861  -6.621  1.00  0.00     0.022 A 
BRANCH  83  87
ATOM     87  S   UNL     1      24.971 -19.751  -8.056  1.00  0.00     0.124 S 
ATOM     88  O   UNL     1      25.791 -20.257  -9.155  1.00  0.00    -0.237 OA
ATOM     89  O   UNL     1      24.336 -20.768  -7.225  1.00  0.00    -0.237 OA
ATOM     90  O   UNL     1      24.149 -18.590  -8.385  1.00  0.00    -0.744 OA
ENDBRANCH  83  87
ENDBRANCH  56  80
BRANCH  68  91
ATOM     91  C   UNL     1      27.104 -13.450  -0.364  1.00  0.00     0.023 A 
ATOM     92  C   UNL     1      27.695 -12.871   0.773  1.00  0.00     0.031 A 
ATOM     93  C   UNL     1      27.218 -12.747  -1.580  1.00  0.00     0.131 A 
ATOM     94  C   UNL     1      28.346 -11.634   0.685  1.00  0.00     0.055 A 
ATOM     95  C   UNL     1      27.936 -11.550  -1.678  1.00  0.00     0.041 A 
ATOM     96  F   UNL     1      26.583 -13.149  -2.688  1.00  0.00    -0.206 F 
ATOM     97  C   UNL     1      28.492 -10.980  -0.539  1.00  0.00     0.022 A 
BRANCH  94  98
ATOM     98  S   UNL     1      28.889 -10.774   2.184  1.00  0.00     0.124 S 
ATOM     99  O   UNL     1      30.340 -10.760   2.025  1.00  0.00    -0.237 OA
ATOM    100  O   UNL     1      28.231  -9.475   2.053  1.00  0.00    -0.237 OA
ATOM    101  O   UNL     1      28.387 -11.608   3.272  1.00  0.00    -0.744 OA
ENDBRANCH  94  98
ENDBRANCH  68  91
ENDBRANCH  42  43
ENDBRANCH  34  37
ENDBRANCH  32  33
ENDBRANCH  31  32
ENDBRANCH   1  31
TORSDOF 18
