REMARK SMILES Cc1ccc([C@@H](CC(=O)NCCCCNC(=O)c2ccc(-c3c4nc(c(-c5cc(S(=O)(=O)[O-])ccc5F)c5ccc([nH]5)c(-c5cc(S(=O)(=O)[O-])ccc5F)c5nc(c(-c6cc(S(=O)(=O)[O-])ccc6F)c6ccc3[nH]6)C=C5)C=C4)cc2)NC(=O)c2ccc(OC(F)F)cc2)cc1
REMARK SMILES IDX 11 1 10 2 8 3 9 4 7 6 6 7 5 8 1 9 2 10 3 11 95 12 4 13 94 14
REMARK SMILES IDX 81 15 82 16 83 18 84 19 85 20 93 21 86 22 92 23 87 24 88 25
REMARK SMILES IDX 89 26 90 27 91 28 12 29 13 30 14 31 15 32 16 33 17 35 18 36
REMARK SMILES IDX 19 37 80 38 20 39 79 40 21 41 22 42 23 43 73 44 24 45 78 46
REMARK SMILES IDX 72 47 74 48 25 49 77 50 71 51 70 52 26 54 58 55 38 56 57 57
REMARK SMILES IDX 39 58 42 59 56 60 75 61 40 62 41 63 55 65 76 66 43 67 27 68
REMARK SMILES IDX 28 69 36 70 29 71 35 72 37 73 34 74 30 75 31 76 32 77 33 78
REMARK SMILES IDX 59 79 60 80 68 81 61 82 67 83 69 84 66 85 62 86 63 87 64 88
REMARK SMILES IDX 65 89 44 90 45 91 53 92 46 93 52 94 54 95 51 96 47 97 48 98
REMARK SMILES IDX 49 99 50 100
REMARK H PARENT 10 5 81 17 15 34 74 53 42 64
REMARK Flexibility Score: inf
ROOT
ATOM      1  C   UNL     1      -0.884  -2.692  -0.970  1.00  0.00     0.116 C 
ENDROOT
BRANCH   1   2
ATOM      2  N   UNL     1      -2.316  -2.784  -1.275  1.00  0.00    -0.356 N 
ATOM      3  C   UNL     1      -3.329  -1.879  -1.226  1.00  0.00     0.222 C 
ATOM      4  O   UNL     1      -4.484  -2.317  -1.286  1.00  0.00    -0.275 OA
ATOM      5  H   UNL     1      -2.599  -3.678  -1.574  1.00  0.00     0.163 HD
BRANCH   3   6
ATOM      6  C   UNL     1      -3.088  -0.388  -1.172  1.00  0.00     0.129 C 
BRANCH   6   7
ATOM      7  C   UNL     1      -3.210   0.297   0.206  1.00  0.00     0.122 C 
BRANCH   7   8
ATOM      8  C   UNL     1      -1.825   0.656   0.737  1.00  0.00    -0.025 A 
ATOM      9  C   UNL     1       2.391   1.199   1.484  1.00  0.00     0.044 C 
ATOM     10  C   UNL     1       0.902   1.098   1.331  1.00  0.00    -0.051 A 
ATOM     11  C   UNL     1       0.199   0.071   1.957  1.00  0.00     0.004 A 
ATOM     12  C   UNL     1       0.218   1.953   0.464  1.00  0.00     0.004 A 
ATOM     13  C   UNL     1      -1.157  -0.124   1.688  1.00  0.00     0.006 A 
ATOM     14  C   UNL     1      -1.129   1.734   0.166  1.00  0.00     0.006 A 
ENDBRANCH   7   8
BRANCH   7  15
ATOM     15  N   UNL     1      -3.992  -0.447   1.198  1.00  0.00    -0.345 N 
ATOM     16  C   UNL     1      -5.075  -0.037   1.929  1.00  0.00     0.251 C 
ATOM     17  H   UNL     1      -3.697  -1.372   1.361  1.00  0.00     0.164 HD
ATOM     18  O   UNL     1      -5.285  -0.515   3.042  1.00  0.00    -0.269 OA
BRANCH  16  19
ATOM     19  C   UNL     1      -6.051   0.917   1.359  1.00  0.00     0.040 A 
ATOM     20  C   UNL     1      -6.681   1.842   2.196  1.00  0.00     0.017 A 
ATOM     21  C   UNL     1      -6.467   0.791   0.031  1.00  0.00     0.017 A 
ATOM     22  C   UNL     1      -7.697   2.659   1.690  1.00  0.00     0.047 A 
ATOM     23  C   UNL     1      -7.477   1.616  -0.472  1.00  0.00     0.047 A 
ATOM     24  C   UNL     1      -8.098   2.555   0.353  1.00  0.00     0.126 A 
BRANCH  24  25
ATOM     25  O   UNL     1      -9.110   3.399  -0.008  1.00  0.00    -0.435 OA
BRANCH  25  26
ATOM     26  C   UNL     1      -9.514   3.409  -1.372  1.00  0.00     0.542 C 
ATOM     27  F   UNL     1      -8.462   3.704  -2.171  1.00  0.00    -0.167 F 
ATOM     28  F   UNL     1      -9.997   2.193  -1.724  1.00  0.00    -0.167 F 
ENDBRANCH  25  26
ENDBRANCH  24  25
ENDBRANCH  16  19
ENDBRANCH   7  15
ENDBRANCH   6   7
ENDBRANCH   3   6
ENDBRANCH   1   2
BRANCH   1  29
ATOM     29  C   UNL     1      -0.633  -3.304   0.419  1.00  0.00     0.023 C 
BRANCH  29  30
ATOM     30  C   UNL     1       0.547  -4.245   0.696  1.00  0.00     0.023 C 
BRANCH  30  31
ATOM     31  C   UNL     1       1.881  -4.033   0.004  1.00  0.00     0.116 C 
BRANCH  31  32
ATOM     32  N   UNL     1       2.629  -2.832   0.383  1.00  0.00    -0.352 N 
ATOM     33  C   UNL     1       3.797  -2.377  -0.232  1.00  0.00     0.251 C 
ATOM     34  H   UNL     1       2.279  -2.301   1.135  1.00  0.00     0.163 HD
ATOM     35  O   UNL     1       4.679  -1.802   0.404  1.00  0.00    -0.269 OA
BRANCH  33  36
ATOM     36  C   UNL     1       3.944  -2.632  -1.680  1.00  0.00     0.039 A 
ATOM     37  C   UNL     1       5.146  -2.905  -2.348  1.00  0.00     0.014 A 
ATOM     38  C   UNL     1       2.751  -2.626  -2.376  1.00  0.00     0.014 A 
ATOM     39  C   UNL     1       5.107  -3.237  -3.714  1.00  0.00     0.010 A 
ATOM     40  C   UNL     1       2.684  -3.246  -3.581  1.00  0.00     0.010 A 
ATOM     41  C   UNL     1       3.859  -3.415  -4.316  1.00  0.00    -0.014 A 
BRANCH  41  42
ATOM     42  C   UNL     1       3.551  -3.566  -5.733  1.00  0.00     0.031 A 
ATOM     43  C   UNL     1       3.713  -4.814  -6.481  1.00  0.00     0.074 A 
ATOM     44  C   UNL     1       2.751  -2.585  -6.211  1.00  0.00     0.049 A 
ATOM     45  N   UNL     1       3.563  -4.901  -7.757  1.00  0.00    -0.248 NA
ATOM     46  C   UNL     1       4.041  -6.083  -5.849  1.00  0.00     0.031 C 
ATOM     47  C   UNL     1       1.787  -2.608  -7.298  1.00  0.00     0.029 A 
ATOM     48  N   UNL     1       2.657  -1.288  -5.733  1.00  0.00    -0.354 N 
ATOM     49  C   UNL     1       3.453  -6.234  -8.075  1.00  0.00     0.074 A 
ATOM     50  C   UNL     1       3.864  -6.929  -6.874  1.00  0.00     0.031 C 
ATOM     51  C   UNL     1       1.391  -1.344  -7.547  1.00  0.00     0.029 A 
ATOM     52  C   UNL     1       2.233  -0.454  -6.760  1.00  0.00     0.049 A 
ATOM     53  H   UNL     1       2.858  -1.003  -4.812  1.00  0.00     0.167 HD
ATOM     54  C   UNL     1       2.892  -6.583  -9.271  1.00  0.00     0.034 A 
ATOM     55  C   UNL     1       3.167   0.423  -7.249  1.00  0.00     0.034 A 
ATOM     56  C   UNL     1       2.482  -5.394 -10.031  1.00  0.00     0.049 A 
ATOM     57  C   UNL     1       3.677   0.020  -8.615  1.00  0.00     0.074 A 
ATOM     58  C   UNL     1       1.276  -4.739 -10.226  1.00  0.00     0.029 A 
ATOM     59  N   UNL     1       3.457  -4.531 -10.492  1.00  0.00    -0.354 N 
ATOM     60  N   UNL     1       3.238  -1.005  -9.293  1.00  0.00    -0.248 NA
ATOM     61  C   UNL     1       4.776   0.703  -9.289  1.00  0.00     0.031 C 
ATOM     62  C   UNL     1       1.564  -3.428 -10.724  1.00  0.00     0.029 A 
ATOM     63  C   UNL     1       2.936  -3.308 -10.871  1.00  0.00     0.049 A 
ATOM     64  H   UNL     1       4.413  -4.761 -10.544  1.00  0.00     0.167 HD
ATOM     65  C   UNL     1       4.011  -1.189 -10.399  1.00  0.00     0.074 A 
ATOM     66  C   UNL     1       4.951  -0.078 -10.367  1.00  0.00     0.031 C 
ATOM     67  C   UNL     1       3.865  -2.252 -11.245  1.00  0.00     0.034 A 
BRANCH  54  68
ATOM     68  C   UNL     1       2.497  -7.982  -9.692  1.00  0.00     0.023 A 
ATOM     69  C   UNL     1       1.537  -8.135 -10.716  1.00  0.00     0.031 A 
ATOM     70  C   UNL     1       3.009  -9.185  -9.169  1.00  0.00     0.131 A 
ATOM     71  C   UNL     1       1.075  -9.402 -11.116  1.00  0.00     0.055 A 
ATOM     72  C   UNL     1       2.515 -10.448  -9.530  1.00  0.00     0.041 A 
ATOM     73  F   UNL     1       4.054  -9.208  -8.333  1.00  0.00    -0.206 F 
ATOM     74  C   UNL     1       1.537 -10.562 -10.505  1.00  0.00     0.022 A 
BRANCH  71  75
ATOM     75  S   UNL     1      -0.123  -9.511 -12.472  1.00  0.00     0.124 S 
ATOM     76  O   UNL     1      -1.265  -8.782 -11.930  1.00  0.00    -0.237 OA
ATOM     77  O   UNL     1       0.593  -8.870 -13.569  1.00  0.00    -0.237 OA
ATOM     78  O   UNL     1      -0.328 -10.950 -12.628  1.00  0.00    -0.744 OA
ENDBRANCH  71  75
ENDBRANCH  54  68
BRANCH  55  79
ATOM     79  C   UNL     1       4.007   0.990  -6.130  1.00  0.00     0.023 A 
ATOM     80  C   UNL     1       3.287   1.670  -5.124  1.00  0.00     0.031 A 
ATOM     81  C   UNL     1       5.245   0.417  -5.780  1.00  0.00     0.131 A 
ATOM     82  C   UNL     1       3.675   1.527  -3.786  1.00  0.00     0.055 A 
ATOM     83  C   UNL     1       5.682   0.385  -4.449  1.00  0.00     0.041 A 
ATOM     84  F   UNL     1       5.969  -0.258  -6.685  1.00  0.00    -0.206 F 
ATOM     85  C   UNL     1       4.870   0.893  -3.437  1.00  0.00     0.022 A 
BRANCH  82  86
ATOM     86  S   UNL     1       2.462   1.877  -2.487  1.00  0.00     0.124 S 
ATOM     87  O   UNL     1       1.606   2.902  -3.079  1.00  0.00    -0.237 OA
ATOM     88  O   UNL     1       1.839   0.565  -2.320  1.00  0.00    -0.237 OA
ATOM     89  O   UNL     1       3.294   2.338  -1.381  1.00  0.00    -0.744 OA
ENDBRANCH  82  86
ENDBRANCH  55  79
BRANCH  67  90
ATOM     90  C   UNL     1       4.680  -2.345 -12.499  1.00  0.00     0.023 A 
ATOM     91  C   UNL     1       4.911  -1.196 -13.268  1.00  0.00     0.031 A 
ATOM     92  C   UNL     1       5.216  -3.552 -12.987  1.00  0.00     0.131 A 
ATOM     93  C   UNL     1       5.760  -1.241 -14.379  1.00  0.00     0.055 A 
ATOM     94  C   UNL     1       5.959  -3.615 -14.167  1.00  0.00     0.041 A 
ATOM     95  F   UNL     1       5.096  -4.706 -12.315  1.00  0.00    -0.206 F 
ATOM     96  C   UNL     1       6.259  -2.450 -14.857  1.00  0.00     0.022 A 
BRANCH  93  97
ATOM     97  S   UNL     1       6.317   0.330 -15.076  1.00  0.00     0.124 S 
ATOM     98  O   UNL     1       5.064   1.028 -15.341  1.00  0.00    -0.237 OA
ATOM     99  O   UNL     1       7.119   0.866 -13.978  1.00  0.00    -0.237 OA
ATOM    100  O   UNL     1       7.074  -0.070 -16.260  1.00  0.00    -0.744 OA
ENDBRANCH  93  97
ENDBRANCH  67  90
ENDBRANCH  41  42
ENDBRANCH  33  36
ENDBRANCH  31  32
ENDBRANCH  30  31
ENDBRANCH  29  30
ENDBRANCH   1  29
TORSDOF 20
