REMARK SMILES Cc1ccc2c(c1)[C@@]1([NH2+][C@@H](CCC(=O)NCCCCNC(=O)c3ccc(-c4c5nc(c(-c6cc(S(=O)(=O)[O-])ccc6F)c6ccc([nH]6)c(-c6cc(S(=O)(=O)[O-])ccc6F)c6nc(c(-c7cc(S(=O)(=O)[O-])ccc7F)c7ccc4[nH]7)C=C6)C=C5)cc3)[C@H]3C(=O)N(Cc4ccccc4)C(=O)[C@H]31)C(=O)N2
REMARK SMILES IDX 17 1 16 2 15 3 13 4 14 5 12 7 11 8 10 9 1 10 2 11 3 12 7 13
REMARK SMILES IDX 4 14 6 15 5 16 8 17 102 18 9 19 99 20 100 21 86 25 97 26
REMARK SMILES IDX 101 27 87 28 89 29 98 30 88 31 90 32 91 33 92 34 96 35 93 36
REMARK SMILES IDX 95 37 94 38 18 39 19 40 20 41 21 42 22 44 23 45 24 46 85 47
REMARK SMILES IDX 25 48 84 49 26 50 27 51 28 52 78 53 29 54 83 55 77 56 79 57
REMARK SMILES IDX 30 58 82 59 76 60 75 61 31 63 63 64 43 65 62 66 44 67 47 68
REMARK SMILES IDX 61 69 80 70 45 71 46 72 60 74 81 75 48 76 32 77 33 78 41 79
REMARK SMILES IDX 34 80 40 81 42 82 39 83 35 84 36 85 37 86 38 87 64 88 65 89
REMARK SMILES IDX 73 90 66 91 72 92 74 93 71 94 67 95 68 96 69 97 70 98 49 99
REMARK SMILES IDX 50 100 58 101 51 102 57 103 59 104 56 105 52 106 53 107
REMARK SMILES IDX 54 108 55 109
REMARK H PARENT 15 6 102 22 9 23 9 24 20 43 79 62 47 73
REMARK Flexibility Score: inf
ROOT
ATOM      1  C   UNL     1      -1.582   6.117  -5.129  1.00  0.00     0.023 C 
ENDROOT
BRANCH   1   2
ATOM      2  C   UNL     1      -0.372   6.256  -6.056  1.00  0.00     0.116 C 
BRANCH   2   3
ATOM      3  N   UNL     1       0.917   6.039  -5.393  1.00  0.00    -0.356 N 
ATOM      4  C   UNL     1       1.660   6.802  -4.543  1.00  0.00     0.220 C 
ATOM      5  O   UNL     1       1.404   7.947  -4.215  1.00  0.00    -0.275 OA
ATOM      6  H   UNL     1       1.328   5.169  -5.604  1.00  0.00     0.163 HD
BRANCH   4   7
ATOM      7  C   UNL     1       2.904   6.155  -3.977  1.00  0.00     0.106 C 
BRANCH   7   8
ATOM      8  C   UNL     1       3.051   6.286  -2.454  1.00  0.00     0.076 C 
BRANCH   8   9
ATOM      9  C   UNL     1       2.118   5.487  -1.524  1.00  0.00     0.197 C 
ATOM     10  C   UNL     1       0.974  -0.262   0.519  1.00  0.00     0.044 C 
ATOM     11  C   UNL     1       0.261   0.509  -0.554  1.00  0.00    -0.050 A 
ATOM     12  C   UNL     1      -0.382  -0.188  -1.601  1.00  0.00     0.005 A 
ATOM     13  C   UNL     1       0.383   1.913  -0.593  1.00  0.00     0.016 A 
ATOM     14  C   UNL     1      -0.900   0.494  -2.696  1.00  0.00     0.027 A 
ATOM     15  C   UNL     1      -0.074   2.592  -1.712  1.00  0.00     0.047 A 
ATOM     16  C   UNL     1      -0.705   1.862  -2.733  1.00  0.00     0.051 A 
ATOM     17  C   UNL     1       0.371   3.974  -2.234  1.00  0.00     0.216 C 
ATOM     18  N   UNL     1      -0.704   2.584  -3.912  1.00  0.00    -0.320 N 
ATOM     19  N   UNL     1       1.827   4.120  -1.945  1.00  0.00    -0.326 N 
ATOM     20  C   UNL     1      -0.316   5.189  -1.546  1.00  0.00     0.174 C 
ATOM     21  C   UNL     1       0.215   3.601  -3.767  1.00  0.00     0.291 C 
ATOM     22  H   UNL     1      -1.257   2.405  -4.707  1.00  0.00     0.170 HD
ATOM     23  H   UNL     1       2.362   3.904  -2.786  1.00  0.00     0.347 HD
ATOM     24  H   UNL     1       2.085   3.478  -1.195  1.00  0.00     0.347 HD
ATOM     25  C   UNL     1       0.811   6.074  -1.024  1.00  0.00     0.157 C 
ATOM     26  C   UNL     1      -1.230   6.254  -2.156  1.00  0.00     0.240 C 
ATOM     27  O   UNL     1       1.018   3.805  -4.671  1.00  0.00    -0.267 OA
ATOM     28  C   UNL     1       0.475   7.495  -1.401  1.00  0.00     0.239 C 
ATOM     29  N   UNL     1      -0.636   7.501  -2.190  1.00  0.00    -0.277 N 
ATOM     30  O   UNL     1      -2.413   6.027  -2.389  1.00  0.00    -0.274 OA
ATOM     31  O   UNL     1       1.052   8.460  -0.918  1.00  0.00    -0.274 OA
BRANCH  29  32
ATOM     32  C   UNL     1      -1.308   8.778  -2.610  1.00  0.00     0.164 C 
BRANCH  32  33
ATOM     33  C   UNL     1      -0.584   9.686  -3.622  1.00  0.00    -0.028 A 
ATOM     34  C   UNL     1       0.330  10.667  -3.199  1.00  0.00     0.005 A 
ATOM     35  C   UNL     1      -0.737   9.530  -5.014  1.00  0.00     0.005 A 
ATOM     36  C   UNL     1       1.152  11.346  -4.117  1.00  0.00     0.000 A 
ATOM     37  C   UNL     1       0.132  10.151  -5.928  1.00  0.00     0.000 A 
ATOM     38  C   UNL     1       1.093  11.046  -5.476  1.00  0.00     0.000 A 
ENDBRANCH  32  33
ENDBRANCH  29  32
ENDBRANCH   8   9
ENDBRANCH   7   8
ENDBRANCH   4   7
ENDBRANCH   2   3
ENDBRANCH   1   2
BRANCH   1  39
ATOM     39  C   UNL     1      -2.947   5.930  -5.776  1.00  0.00     0.023 C 
BRANCH  39  40
ATOM     40  C   UNL     1      -3.144   4.499  -6.254  1.00  0.00     0.116 C 
BRANCH  40  41
ATOM     41  N   UNL     1      -3.606   3.567  -5.214  1.00  0.00    -0.352 N 
ATOM     42  C   UNL     1      -4.851   3.020  -4.948  1.00  0.00     0.251 C 
ATOM     43  H   UNL     1      -2.900   3.278  -4.592  1.00  0.00     0.163 HD
ATOM     44  O   UNL     1      -5.002   2.267  -3.990  1.00  0.00    -0.269 OA
BRANCH  42  45
ATOM     45  C   UNL     1      -6.010   3.404  -5.782  1.00  0.00     0.039 A 
ATOM     46  C   UNL     1      -5.834   3.531  -7.146  1.00  0.00     0.014 A 
ATOM     47  C   UNL     1      -7.219   3.796  -5.201  1.00  0.00     0.014 A 
ATOM     48  C   UNL     1      -6.640   4.420  -7.828  1.00  0.00     0.010 A 
ATOM     49  C   UNL     1      -8.166   4.482  -5.976  1.00  0.00     0.010 A 
ATOM     50  C   UNL     1      -7.842   4.895  -7.276  1.00  0.00    -0.014 A 
BRANCH  50  51
ATOM     51  C   UNL     1      -8.692   5.816  -8.094  1.00  0.00     0.031 A 
ATOM     52  C   UNL     1      -9.185   7.137  -7.548  1.00  0.00     0.074 A 
ATOM     53  C   UNL     1      -8.935   5.502  -9.386  1.00  0.00     0.049 A 
ATOM     54  N   UNL     1      -9.958   8.022  -8.126  1.00  0.00    -0.248 NA
ATOM     55  C   UNL     1      -8.782   7.511  -6.183  1.00  0.00     0.031 C 
ATOM     56  C   UNL     1      -8.502   4.261 -10.036  1.00  0.00     0.029 A 
ATOM     57  N   UNL     1      -9.534   6.203 -10.403  1.00  0.00    -0.354 N 
ATOM     58  C   UNL     1     -10.189   9.016  -7.178  1.00  0.00     0.074 A 
ATOM     59  C   UNL     1      -9.478   8.624  -5.983  1.00  0.00     0.031 C 
ATOM     60  C   UNL     1      -8.704   4.355 -11.352  1.00  0.00     0.029 A 
ATOM     61  C   UNL     1      -9.460   5.569 -11.625  1.00  0.00     0.049 A 
ATOM     62  H   UNL     1      -9.973   7.074 -10.273  1.00  0.00     0.167 HD
ATOM     63  C   UNL     1     -10.925  10.147  -7.302  1.00  0.00     0.034 A 
ATOM     64  C   UNL     1      -9.983   5.883 -12.827  1.00  0.00     0.034 A 
ATOM     65  C   UNL     1     -11.565  10.551  -8.531  1.00  0.00     0.049 A 
ATOM     66  C   UNL     1     -10.797   7.138 -12.937  1.00  0.00     0.074 A 
ATOM     67  C   UNL     1     -12.309  11.693  -8.769  1.00  0.00     0.029 A 
ATOM     68  N   UNL     1     -11.521   9.849  -9.728  1.00  0.00    -0.354 N 
ATOM     69  N   UNL     1     -11.032   8.044 -12.017  1.00  0.00    -0.248 NA
ATOM     70  C   UNL     1     -11.441   7.408 -14.227  1.00  0.00     0.031 C 
ATOM     71  C   UNL     1     -12.769  11.649 -10.085  1.00  0.00     0.029 A 
ATOM     72  C   UNL     1     -12.247  10.521 -10.698  1.00  0.00     0.049 A 
ATOM     73  H   UNL     1     -11.044   8.998  -9.867  1.00  0.00     0.167 HD
ATOM     74  C   UNL     1     -11.856   8.989 -12.614  1.00  0.00     0.074 A 
ATOM     75  C   UNL     1     -12.042   8.567 -13.988  1.00  0.00     0.031 C 
ATOM     76  C   UNL     1     -12.419  10.095 -12.067  1.00  0.00     0.034 A 
BRANCH  63  77
ATOM     77  C   UNL     1     -11.105  11.049  -6.101  1.00  0.00     0.023 A 
ATOM     78  C   UNL     1     -12.399  11.273  -5.588  1.00  0.00     0.031 A 
ATOM     79  C   UNL     1     -10.043  11.793  -5.559  1.00  0.00     0.131 A 
ATOM     80  C   UNL     1     -12.605  12.245  -4.601  1.00  0.00     0.055 A 
ATOM     81  C   UNL     1     -10.247  12.729  -4.541  1.00  0.00     0.041 A 
ATOM     82  F   UNL     1      -8.790  11.623  -6.011  1.00  0.00    -0.206 F 
ATOM     83  C   UNL     1     -11.534  12.969  -4.069  1.00  0.00     0.022 A 
BRANCH  80  84
ATOM     84  S   UNL     1     -14.275  12.664  -4.027  1.00  0.00     0.124 S 
ATOM     85  O   UNL     1     -14.180  12.381  -2.596  1.00  0.00    -0.237 OA
ATOM     86  O   UNL     1     -14.373  14.078  -4.377  1.00  0.00    -0.237 OA
ATOM     87  O   UNL     1     -15.142  11.765  -4.780  1.00  0.00    -0.744 OA
ENDBRANCH  80  84
ENDBRANCH  63  77
BRANCH  64  88
ATOM     88  C   UNL     1      -9.746   4.967 -13.985  1.00  0.00     0.023 A 
ATOM     89  C   UNL     1     -10.116   3.610 -13.912  1.00  0.00     0.031 A 
ATOM     90  C   UNL     1      -9.008   5.387 -15.102  1.00  0.00     0.131 A 
ATOM     91  C   UNL     1      -9.638   2.702 -14.864  1.00  0.00     0.055 A 
ATOM     92  C   UNL     1      -8.621   4.494 -16.105  1.00  0.00     0.041 A 
ATOM     93  F   UNL     1      -8.626   6.668 -15.219  1.00  0.00    -0.206 F 
ATOM     94  C   UNL     1      -8.909   3.138 -15.973  1.00  0.00     0.022 A 
BRANCH  91  95
ATOM     95  S   UNL     1      -9.770   0.912 -14.580  1.00  0.00     0.124 S 
ATOM     96  O   UNL     1     -10.601   0.486 -15.700  1.00  0.00    -0.237 OA
ATOM     97  O   UNL     1      -8.369   0.497 -14.637  1.00  0.00    -0.237 OA
ATOM     98  O   UNL     1     -10.385   0.817 -13.261  1.00  0.00    -0.744 OA
ENDBRANCH  91  95
ENDBRANCH  64  88
BRANCH  76  99
ATOM     99  C   UNL     1     -13.302  10.950 -12.941  1.00  0.00     0.023 A 
ATOM    100  C   UNL     1     -12.936  12.280 -13.218  1.00  0.00     0.031 A 
ATOM    101  C   UNL     1     -14.562  10.500 -13.369  1.00  0.00     0.131 A 
ATOM    102  C   UNL     1     -13.841  13.129 -13.864  1.00  0.00     0.055 A 
ATOM    103  C   UNL     1     -15.440  11.335 -14.059  1.00  0.00     0.041 A 
ATOM    104  F   UNL     1     -14.957   9.240 -13.121  1.00  0.00    -0.206 F 
ATOM    105  C   UNL     1     -15.088  12.662 -14.294  1.00  0.00     0.022 A 
BRANCH 102 106
ATOM    106  S   UNL     1     -13.474  14.891 -14.085  1.00  0.00     0.124 S 
ATOM    107  O   UNL     1     -13.511  15.026 -15.540  1.00  0.00    -0.237 OA
ATOM    108  O   UNL     1     -14.578  15.527 -13.371  1.00  0.00    -0.237 OA
ATOM    109  O   UNL     1     -12.156  15.055 -13.480  1.00  0.00    -0.744 OA
ENDBRANCH 102 106
ENDBRANCH  76  99
ENDBRANCH  50  51
ENDBRANCH  42  45
ENDBRANCH  40  41
ENDBRANCH  39  40
ENDBRANCH   1  39
TORSDOF 18
