REMARK SMILES Cn1c(=O)c(=O)n(C)c2cc(S(=O)(=O)N3CCC[C@H]3C(=O)NCCCCNC(=O)c3ccc(-c4c5nc(c(-c6cc(S(=O)(=O)[O-])ccc6F)c6ccc([nH]6)c(-c6cc(S(=O)(=O)[O-])ccc6F)c6nc(c(-c7cc(S(=O)(=O)[O-])ccc7F)c7ccc4[nH]7)C=C6)C=C5)cc3)ccc21
REMARK SMILES IDX 25 1 24 2 23 3 22 4 20 5 21 6 19 8 15 9 16 10 17 11 18 12
REMARK SMILES IDX 12 13 13 14 14 15 11 16 1 17 2 18 3 19 95 20 4 21 5 22 9 23
REMARK SMILES IDX 94 24 6 25 7 26 10 27 93 28 8 29 26 30 27 31 28 32 29 34
REMARK SMILES IDX 30 35 31 36 92 37 32 38 91 39 33 40 34 41 35 42 85 43 36 44
REMARK SMILES IDX 90 45 84 46 86 47 37 48 89 49 83 50 82 51 38 53 70 54 50 55
REMARK SMILES IDX 69 56 51 57 54 58 68 59 87 60 52 61 53 62 67 64 88 65 55 66
REMARK SMILES IDX 39 67 40 68 48 69 41 70 47 71 49 72 46 73 42 74 43 75 44 76
REMARK SMILES IDX 45 77 71 78 72 79 80 80 73 81 79 82 81 83 78 84 74 85 75 86
REMARK SMILES IDX 76 87 77 88 56 89 57 90 65 91 58 92 64 93 66 94 63 95 59 96
REMARK SMILES IDX 60 97 61 98 62 99
REMARK H PARENT 22 7 27 33 86 52 54 63
REMARK Flexibility Score: inf
ROOT
ATOM      1  C   UNL     1       8.296   1.655  -4.771  1.00  0.00     0.023 C 
ENDROOT
BRANCH   1   2
ATOM      2  C   UNL     1       7.031   1.846  -3.942  1.00  0.00     0.023 C 
BRANCH   2   3
ATOM      3  C   UNL     1       7.126   2.936  -2.874  1.00  0.00     0.116 C 
BRANCH   3   4
ATOM      4  N   UNL     1       7.129   4.284  -3.429  1.00  0.00    -0.355 N 
ATOM      5  C   UNL     1       6.080   5.169  -3.571  1.00  0.00     0.238 C 
ATOM      6  O   UNL     1       6.291   6.283  -4.043  1.00  0.00    -0.273 OA
ATOM      7  H   UNL     1       8.002   4.608  -3.749  1.00  0.00     0.163 HD
BRANCH   5   8
ATOM      8  C   UNL     1       4.698   4.672  -3.182  1.00  0.00     0.162 C 
ATOM      9  N   UNL     1       3.630   5.667  -2.939  1.00  0.00    -0.185 NA
ATOM     10  C   UNL     1       2.654   5.616  -4.034  1.00  0.00     0.103 C 
ATOM     11  C   UNL     1       2.692   4.174  -4.490  1.00  0.00     0.019 C 
ATOM     12  C   UNL     1       4.144   3.771  -4.298  1.00  0.00     0.032 C 
BRANCH   9  13
ATOM     13  S   UNL     1       3.127   5.969  -1.362  1.00  0.00     0.243 S 
ATOM     14  O   UNL     1       2.135   7.019  -1.416  1.00  0.00    -0.207 OA
ATOM     15  O   UNL     1       4.306   6.080  -0.525  1.00  0.00    -0.207 OA
BRANCH  13  16
ATOM     16  C   UNL     1       2.266   4.509  -0.756  1.00  0.00     0.084 A 
ATOM     17  C   UNL     1       0.699  -0.205   0.488  1.00  0.00     0.154 C 
ATOM     18  N   UNL     1       0.323   1.133   0.927  1.00  0.00    -0.305 N 
ATOM     19  C   UNL     1      -0.687   1.250   1.876  1.00  0.00     0.316 A 
ATOM     20  C   UNL     1       0.965   2.273   0.381  1.00  0.00     0.068 A 
ATOM     21  O   UNL     1      -1.297   0.290   2.340  1.00  0.00    -0.263 OA
ATOM     22  C   UNL     1      -1.046   2.659   2.367  1.00  0.00     0.316 A 
ATOM     23  C   UNL     1       0.596   3.573   0.774  1.00  0.00     0.069 A 
ATOM     24  C   UNL     1       1.986   2.117  -0.560  1.00  0.00     0.030 A 
ATOM     25  O   UNL     1      -1.889   2.770   3.254  1.00  0.00    -0.263 OA
ATOM     26  N   UNL     1      -0.395   3.746   1.779  1.00  0.00    -0.305 N 
ATOM     27  C   UNL     1       1.240   4.683   0.184  1.00  0.00     0.050 A 
ATOM     28  C   UNL     1       2.634   3.218  -1.109  1.00  0.00     0.024 A 
ATOM     29  C   UNL     1      -0.729   5.077   2.260  1.00  0.00     0.154 C 
ENDBRANCH  13  16
ENDBRANCH   9  13
ENDBRANCH   5   8
ENDBRANCH   3   4
ENDBRANCH   2   3
ENDBRANCH   1   2
BRANCH   1  30
ATOM     30  C   UNL     1       9.533   1.275  -3.972  1.00  0.00     0.116 C 
BRANCH  30  31
ATOM     31  N   UNL     1       9.402   0.014  -3.253  1.00  0.00    -0.352 N 
ATOM     32  C   UNL     1      10.364  -0.955  -3.060  1.00  0.00     0.251 C 
ATOM     33  H   UNL     1       8.520  -0.167  -2.856  1.00  0.00     0.163 HD
ATOM     34  O   UNL     1      10.073  -2.014  -2.515  1.00  0.00    -0.269 OA
BRANCH  32  35
ATOM     35  C   UNL     1      11.729  -0.712  -3.575  1.00  0.00     0.039 A 
ATOM     36  C   UNL     1      12.355   0.513  -3.341  1.00  0.00     0.014 A 
ATOM     37  C   UNL     1      12.339  -1.672  -4.386  1.00  0.00     0.014 A 
ATOM     38  C   UNL     1      13.479   0.857  -4.079  1.00  0.00     0.010 A 
ATOM     39  C   UNL     1      13.531  -1.360  -5.047  1.00  0.00     0.010 A 
ATOM     40  C   UNL     1      14.078  -0.071  -4.949  1.00  0.00    -0.014 A 
BRANCH  40  41
ATOM     41  C   UNL     1      15.267   0.346  -5.742  1.00  0.00     0.031 A 
ATOM     42  C   UNL     1      15.217   0.406  -7.246  1.00  0.00     0.074 A 
ATOM     43  C   UNL     1      16.373   0.752  -5.087  1.00  0.00     0.049 A 
ATOM     44  N   UNL     1      16.139   0.814  -8.082  1.00  0.00    -0.248 NA
ATOM     45  C   UNL     1      13.980  -0.048  -7.903  1.00  0.00     0.031 C 
ATOM     46  C   UNL     1      16.527   0.747  -3.631  1.00  0.00     0.029 A 
ATOM     47  N   UNL     1      17.554   1.282  -5.543  1.00  0.00    -0.354 N 
ATOM     48  C   UNL     1      15.603   0.655  -9.355  1.00  0.00     0.074 A 
ATOM     49  C   UNL     1      14.288   0.077  -9.187  1.00  0.00     0.031 C 
ATOM     50  C   UNL     1      17.693   1.322  -3.311  1.00  0.00     0.029 A 
ATOM     51  C   UNL     1      18.411   1.663  -4.535  1.00  0.00     0.049 A 
ATOM     52  H   UNL     1      17.767   1.380  -6.499  1.00  0.00     0.167 HD
ATOM     53  C   UNL     1      16.152   0.977 -10.552  1.00  0.00     0.034 A 
ATOM     54  C   UNL     1      19.638   2.222  -4.585  1.00  0.00     0.034 A 
ATOM     55  C   UNL     1      17.456   1.574 -10.702  1.00  0.00     0.049 A 
ATOM     56  C   UNL     1      20.236   2.536  -5.931  1.00  0.00     0.074 A 
ATOM     57  C   UNL     1      18.091   1.950 -11.873  1.00  0.00     0.029 A 
ATOM     58  N   UNL     1      18.317   1.894  -9.662  1.00  0.00    -0.354 N 
ATOM     59  N   UNL     1      19.701   2.403  -7.122  1.00  0.00    -0.248 NA
ATOM     60  C   UNL     1      21.604   3.072  -5.944  1.00  0.00     0.031 C 
ATOM     61  C   UNL     1      19.356   2.439 -11.547  1.00  0.00     0.029 A 
ATOM     62  C   UNL     1      19.486   2.440 -10.168  1.00  0.00     0.049 A 
ATOM     63  H   UNL     1      18.125   1.754  -8.707  1.00  0.00     0.167 HD
ATOM     64  C   UNL     1      20.659   2.858  -8.024  1.00  0.00     0.074 A 
ATOM     65  C   UNL     1      21.793   3.298  -7.238  1.00  0.00     0.031 C 
ATOM     66  C   UNL     1      20.606   2.895  -9.379  1.00  0.00     0.034 A 
BRANCH  53  67
ATOM     67  C   UNL     1      15.360   0.722 -11.812  1.00  0.00     0.023 A 
ATOM     68  C   UNL     1      15.845  -0.180 -12.778  1.00  0.00     0.031 A 
ATOM     69  C   UNL     1      14.216   1.478 -12.123  1.00  0.00     0.131 A 
ATOM     70  C   UNL     1      15.216  -0.268 -14.027  1.00  0.00     0.055 A 
ATOM     71  C   UNL     1      13.569   1.355 -13.354  1.00  0.00     0.041 A 
ATOM     72  F   UNL     1      13.713   2.350 -11.234  1.00  0.00    -0.206 F 
ATOM     73  C   UNL     1      14.077   0.490 -14.318  1.00  0.00     0.022 A 
BRANCH  70  74
ATOM     74  S   UNL     1      15.888  -1.317 -15.346  1.00  0.00     0.124 S 
ATOM     75  O   UNL     1      14.753  -2.188 -15.643  1.00  0.00    -0.237 OA
ATOM     76  O   UNL     1      16.210  -0.337 -16.380  1.00  0.00    -0.237 OA
ATOM     77  O   UNL     1      17.029  -1.977 -14.722  1.00  0.00    -0.744 OA
ENDBRANCH  70  74
ENDBRANCH  53  67
BRANCH  54  78
ATOM     78  C   UNL     1      20.340   2.559  -3.312  1.00  0.00     0.023 A 
ATOM     79  C   UNL     1      20.646   1.564  -2.365  1.00  0.00     0.031 A 
ATOM     80  C   UNL     1      20.622   3.894  -2.979  1.00  0.00     0.131 A 
ATOM     81  C   UNL     1      21.140   1.927  -1.106  1.00  0.00     0.055 A 
ATOM     82  C   UNL     1      21.189   4.244  -1.752  1.00  0.00     0.041 A 
ATOM     83  F   UNL     1      20.337   4.881  -3.843  1.00  0.00    -0.206 F 
ATOM     84  C   UNL     1      21.431   3.259  -0.800  1.00  0.00     0.022 A 
BRANCH  81  85
ATOM     85  S   UNL     1      21.276   0.700   0.224  1.00  0.00     0.124 S 
ATOM     86  O   UNL     1      22.710   0.701   0.493  1.00  0.00    -0.237 OA
ATOM     87  O   UNL     1      20.437   1.292   1.264  1.00  0.00    -0.237 OA
ATOM     88  O   UNL     1      20.745  -0.519  -0.377  1.00  0.00    -0.744 OA
ENDBRANCH  81  85
ENDBRANCH  54  78
BRANCH  66  89
ATOM     89  C   UNL     1      21.797   3.435 -10.133  1.00  0.00     0.023 A 
ATOM     90  C   UNL     1      21.660   4.582 -10.938  1.00  0.00     0.031 A 
ATOM     91  C   UNL     1      23.016   2.736 -10.174  1.00  0.00     0.131 A 
ATOM     92  C   UNL     1      22.709   4.972 -11.781  1.00  0.00     0.055 A 
ATOM     93  C   UNL     1      24.076   3.157 -10.978  1.00  0.00     0.041 A 
ATOM     94  F   UNL     1      23.192   1.629  -9.434  1.00  0.00    -0.206 F 
ATOM     95  C   UNL     1      23.919   4.271 -11.798  1.00  0.00     0.022 A 
BRANCH  92  96
ATOM     96  S   UNL     1      22.509   6.342 -12.953  1.00  0.00     0.124 S 
ATOM     97  O   UNL     1      23.532   7.280 -12.497  1.00  0.00    -0.237 OA
ATOM     98  O   UNL     1      22.783   5.694 -14.233  1.00  0.00    -0.237 OA
ATOM     99  O   UNL     1      21.131   6.779 -12.754  1.00  0.00    -0.744 OA
ENDBRANCH  92  96
ENDBRANCH  66  89
ENDBRANCH  40  41
ENDBRANCH  32  35
ENDBRANCH  30  31
ENDBRANCH   1  30
TORSDOF 16
