REMARK SMILES CC1(C)[C@H](C(=O)NCCCCNC(=O)c2ccc(-c3c4nc(c(-c5cc(S(=O)(=O)[O-])ccc5F)c5ccc([nH]5)c(-c5cc(S(=O)(=O)[O-])ccc5F)c5nc(c(-c6cc(S(=O)(=O)[O-])ccc6F)c6ccc3[nH]6)C=C5)C=C4)cc2)[C@@H]1C(=O)Nc1ccc(Cl)c(Br)c1
REMARK SMILES IDX 10 1 9 2 8 3 7 4 5 5 6 6 4 8 1 9 2 10 3 11 78 12 79 13 80 14
REMARK SMILES IDX 81 15 82 17 83 18 89 19 84 20 87 21 85 22 88 23 86 24 11 25
REMARK SMILES IDX 12 26 13 27 14 29 15 30 16 31 77 32 17 33 76 34 18 35 19 36
REMARK SMILES IDX 20 37 70 38 21 39 75 40 69 41 71 42 22 43 74 44 68 45 67 46
REMARK SMILES IDX 23 48 55 49 35 50 54 51 36 52 39 53 53 54 72 55 37 56 38 57
REMARK SMILES IDX 52 59 73 60 40 61 24 62 25 63 33 64 26 65 32 66 34 67 31 68
REMARK SMILES IDX 27 69 28 70 29 71 30 72 56 73 57 74 65 75 58 76 64 77 66 78
REMARK SMILES IDX 63 79 59 80 60 81 61 82 62 83 41 84 42 85 50 86 43 87 49 88
REMARK SMILES IDX 51 89 48 90 44 91 45 92 46 93 47 94
REMARK H PARENT 7 7 81 16 12 28 71 47 39 58
REMARK Flexibility Score: inf
ROOT
ATOM      1  C   UNL     1      -0.175   5.332  -1.709  1.00  0.00     0.023 C 
ENDROOT
BRANCH   1   2
ATOM      2  C   UNL     1       0.344   4.171  -0.861  1.00  0.00     0.023 C 
BRANCH   2   3
ATOM      3  C   UNL     1      -0.718   3.140  -0.491  1.00  0.00     0.116 C 
BRANCH   3   4
ATOM      4  N   UNL     1      -1.025   2.266  -1.601  1.00  0.00    -0.356 N 
ATOM      5  C   UNL     1      -1.065   0.916  -1.787  1.00  0.00     0.224 C 
ATOM      6  O   UNL     1      -1.377   0.550  -2.922  1.00  0.00    -0.275 OA
ATOM      7  H   UNL     1      -1.261   2.765  -2.417  1.00  0.00     0.163 HD
BRANCH   5   8
ATOM      8  C   UNL     1      -0.817  -0.167  -0.797  1.00  0.00     0.098 C 
ATOM      9  C   UNL     1       0.995  -1.681   0.201  1.00  0.00     0.013 C 
ATOM     10  C   UNL     1       0.339  -0.315   0.172  1.00  0.00    -0.011 C 
ATOM     11  C   UNL     1       1.345   0.791   0.355  1.00  0.00     0.013 C 
ATOM     12  C   UNL     1      -1.120  -0.232   0.672  1.00  0.00     0.098 C 
BRANCH  12  13
ATOM     13  C   UNL     1      -1.696   0.861   1.484  1.00  0.00     0.228 C 
ATOM     14  O   UNL     1      -1.101   1.245   2.488  1.00  0.00    -0.274 OA
ATOM     15  N   UNL     1      -2.885   1.459   1.128  1.00  0.00    -0.326 N 
ATOM     16  H   UNL     1      -3.151   2.217   1.697  1.00  0.00     0.169 HD
BRANCH  15  17
ATOM     17  C   UNL     1      -3.779   1.163   0.087  1.00  0.00     0.042 A 
ATOM     18  C   UNL     1      -4.458   2.235  -0.499  1.00  0.00     0.028 A 
ATOM     19  C   UNL     1      -3.994  -0.127  -0.400  1.00  0.00     0.043 A 
ATOM     20  C   UNL     1      -5.245   2.034  -1.637  1.00  0.00     0.024 A 
ATOM     21  C   UNL     1      -4.796  -0.334  -1.529  1.00  0.00     0.038 A 
ATOM     22  C   UNL     1      -5.404   0.751  -2.165  1.00  0.00     0.055 A 
ATOM     23  Br  UNL     1      -4.996  -2.125  -2.134  1.00  0.00    -0.049 Br
ATOM     24  Cl  UNL     1      -6.362   0.583  -3.591  1.00  0.00    -0.083 Cl
ENDBRANCH  15  17
ENDBRANCH  12  13
ENDBRANCH   5   8
ENDBRANCH   3   4
ENDBRANCH   2   3
ENDBRANCH   1   2
BRANCH   1  25
ATOM     25  C   UNL     1      -1.314   6.136  -1.087  1.00  0.00     0.116 C 
BRANCH  25  26
ATOM     26  N   UNL     1      -1.003   6.638   0.246  1.00  0.00    -0.352 N 
ATOM     27  C   UNL     1      -1.117   7.920   0.731  1.00  0.00     0.251 C 
ATOM     28  H   UNL     1      -0.665   5.969   0.884  1.00  0.00     0.163 HD
ATOM     29  O   UNL     1      -0.695   8.202   1.849  1.00  0.00    -0.269 OA
BRANCH  27  30
ATOM     30  C   UNL     1      -1.722   8.953  -0.129  1.00  0.00     0.039 A 
ATOM     31  C   UNL     1      -0.987  10.102  -0.429  1.00  0.00     0.014 A 
ATOM     32  C   UNL     1      -2.974   8.733  -0.709  1.00  0.00     0.014 A 
ATOM     33  C   UNL     1      -1.465  10.987  -1.396  1.00  0.00     0.010 A 
ATOM     34  C   UNL     1      -3.418   9.583  -1.714  1.00  0.00     0.010 A 
ATOM     35  C   UNL     1      -2.656  10.703  -2.085  1.00  0.00    -0.014 A 
BRANCH  35  36
ATOM     36  C   UNL     1      -3.104  11.528  -3.234  1.00  0.00     0.031 A 
ATOM     37  C   UNL     1      -4.393  12.293  -3.151  1.00  0.00     0.074 A 
ATOM     38  C   UNL     1      -2.405  11.494  -4.386  1.00  0.00     0.049 A 
ATOM     39  N   UNL     1      -5.030  12.946  -4.087  1.00  0.00    -0.248 NA
ATOM     40  C   UNL     1      -5.067  12.296  -1.845  1.00  0.00     0.031 C 
ATOM     41  C   UNL     1      -1.157  10.754  -4.597  1.00  0.00     0.029 A 
ATOM     42  N   UNL     1      -2.653  12.076  -5.603  1.00  0.00    -0.354 N 
ATOM     43  C   UNL     1      -6.189  13.427  -3.490  1.00  0.00     0.074 A 
ATOM     44  C   UNL     1      -6.189  12.942  -2.125  1.00  0.00     0.031 C 
ATOM     45  C   UNL     1      -0.748  10.935  -5.863  1.00  0.00     0.029 A 
ATOM     46  C   UNL     1      -1.724  11.758  -6.567  1.00  0.00     0.049 A 
ATOM     47  H   UNL     1      -3.424  12.665  -5.771  1.00  0.00     0.167 HD
ATOM     48  C   UNL     1      -7.153  14.216  -4.027  1.00  0.00     0.034 A 
ATOM     49  C   UNL     1      -1.679  12.073  -7.877  1.00  0.00     0.034 A 
ATOM     50  C   UNL     1      -7.129  14.697  -5.386  1.00  0.00     0.049 A 
ATOM     51  C   UNL     1      -2.786  12.907  -8.465  1.00  0.00     0.074 A 
ATOM     52  C   UNL     1      -8.009  15.564  -6.011  1.00  0.00     0.029 A 
ATOM     53  N   UNL     1      -6.181  14.342  -6.338  1.00  0.00    -0.354 N 
ATOM     54  N   UNL     1      -3.852  13.396  -7.874  1.00  0.00    -0.248 NA
ATOM     55  C   UNL     1      -2.687  13.227  -9.894  1.00  0.00     0.031 C 
ATOM     56  C   UNL     1      -7.631  15.682  -7.353  1.00  0.00     0.029 A 
ATOM     57  C   UNL     1      -6.478  14.939  -7.553  1.00  0.00     0.049 A 
ATOM     58  H   UNL     1      -5.411  13.751  -6.173  1.00  0.00     0.167 HD
ATOM     59  C   UNL     1      -4.541  14.097  -8.858  1.00  0.00     0.074 A 
ATOM     60  C   UNL     1      -3.765  13.976 -10.076  1.00  0.00     0.031 C 
ATOM     61  C   UNL     1      -5.707  14.785  -8.763  1.00  0.00     0.034 A 
BRANCH  48  62
ATOM     62  C   UNL     1      -8.319  14.577  -3.142  1.00  0.00     0.023 A 
ATOM     63  C   UNL     1      -8.148  15.342  -1.974  1.00  0.00     0.031 A 
ATOM     64  C   UNL     1      -9.613  14.119  -3.444  1.00  0.00     0.131 A 
ATOM     65  C   UNL     1      -9.232  15.555  -1.111  1.00  0.00     0.055 A 
ATOM     66  C   UNL     1     -10.705  14.403  -2.621  1.00  0.00     0.041 A 
ATOM     67  F   UNL     1      -9.835  13.368  -4.535  1.00  0.00    -0.206 F 
ATOM     68  C   UNL     1     -10.515  15.110  -1.438  1.00  0.00     0.022 A 
BRANCH  65  69
ATOM     69  S   UNL     1      -8.909  16.288   0.516  1.00  0.00     0.124 S 
ATOM     70  O   UNL     1      -7.956  15.338   1.084  1.00  0.00    -0.237 OA
ATOM     71  O   UNL     1      -8.374  17.600   0.169  1.00  0.00    -0.237 OA
ATOM     72  O   UNL     1     -10.223  16.298   1.155  1.00  0.00    -0.744 OA
ENDBRANCH  65  69
ENDBRANCH  48  62
BRANCH  49  73
ATOM     73  C   UNL     1      -0.567  11.573  -8.732  1.00  0.00     0.023 A 
ATOM     74  C   UNL     1       0.374  12.458  -9.280  1.00  0.00     0.031 A 
ATOM     75  C   UNL     1      -0.445  10.206  -9.036  1.00  0.00     0.131 A 
ATOM     76  C   UNL     1       1.377  11.971 -10.132  1.00  0.00     0.055 A 
ATOM     77  C   UNL     1       0.579   9.720  -9.851  1.00  0.00     0.041 A 
ATOM     78  F   UNL     1      -1.316   9.318  -8.530  1.00  0.00    -0.206 F 
ATOM     79  C   UNL     1       1.493  10.608 -10.412  1.00  0.00     0.022 A 
BRANCH  76  80
ATOM     80  S   UNL     1       2.499  13.159 -10.919  1.00  0.00     0.124 S 
ATOM     81  O   UNL     1       1.569  13.997 -11.667  1.00  0.00    -0.237 OA
ATOM     82  O   UNL     1       3.139  13.782  -9.764  1.00  0.00    -0.237 OA
ATOM     83  O   UNL     1       3.372  12.315 -11.732  1.00  0.00    -0.744 OA
ENDBRANCH  76  80
ENDBRANCH  49  73
BRANCH  61  84
ATOM     84  C   UNL     1      -6.191  15.476 -10.011  1.00  0.00     0.023 A 
ATOM     85  C   UNL     1      -6.694  14.749 -11.104  1.00  0.00     0.031 A 
ATOM     86  C   UNL     1      -6.146  16.877 -10.106  1.00  0.00     0.131 A 
ATOM     87  C   UNL     1      -7.095  15.427 -12.265  1.00  0.00     0.055 A 
ATOM     88  C   UNL     1      -6.592  17.549 -11.245  1.00  0.00     0.041 A 
ATOM     89  F   UNL     1      -5.673  17.616  -9.090  1.00  0.00    -0.206 F 
ATOM     90  C   UNL     1      -7.061  16.823 -12.336  1.00  0.00     0.022 A 
BRANCH  87  91
ATOM     91  S   UNL     1      -7.612  14.457 -13.707  1.00  0.00     0.124 S 
ATOM     92  O   UNL     1      -6.388  13.733 -14.039  1.00  0.00    -0.237 OA
ATOM     93  O   UNL     1      -8.703  13.651 -13.170  1.00  0.00    -0.237 OA
ATOM     94  O   UNL     1      -8.014  15.473 -14.678  1.00  0.00    -0.744 OA
ENDBRANCH  87  91
ENDBRANCH  61  84
ENDBRANCH  35  36
ENDBRANCH  27  30
ENDBRANCH  25  26
ENDBRANCH   1  25
TORSDOF 16
