REMARK SMILES COc1ccc(Cl)c2c1N[C@@H](c1ccc(C(=O)NCCCCNC(=O)c3ccc(-c4c5nc(c(-c6cc(S(=O)(=O)[O-])ccc6F)c6ccc([nH]6)c(-c6cc(S(=O)(=O)[O-])ccc6F)c6nc(c(-c7cc(S(=O)(=O)[O-])ccc7F)c7ccc4[nH]7)C=C6)C=C5)cc3)cc1)[C@@H]1CC=C[C@H]21
REMARK SMILES IDX 21 1 20 2 19 3 18 4 16 5 17 6 15 8 12 9 13 10 90 11 14 12
REMARK SMILES IDX 89 13 11 14 3 15 4 16 9 17 5 18 8 19 10 20 6 21 95 22 7 24
REMARK SMILES IDX 91 25 94 26 92 27 93 28 2 29 1 30 22 31 23 32 24 33 25 35
REMARK SMILES IDX 26 36 27 37 88 38 28 39 87 40 29 41 30 42 31 43 81 44 32 45
REMARK SMILES IDX 86 46 80 47 82 48 33 49 85 50 79 51 78 52 34 54 66 55 46 56
REMARK SMILES IDX 65 57 47 58 50 59 64 60 83 61 48 62 49 63 63 65 84 66 51 67
REMARK SMILES IDX 35 68 36 69 44 70 37 71 43 72 45 73 42 74 38 75 39 76 40 77
REMARK SMILES IDX 41 78 67 79 68 80 76 81 69 82 75 83 77 84 74 85 70 86 71 87
REMARK SMILES IDX 72 88 73 89 52 90 53 91 61 92 54 93 60 94 62 95 59 96 55 97
REMARK SMILES IDX 56 98 57 99 58 100
REMARK H PARENT 18 7 10 23 23 34 82 53 50 64
REMARK Flexibility Score: inf
ROOT
ATOM      1  C   UNL     1      11.070  -0.175   3.951  1.00  0.00     0.023 C 
ENDROOT
BRANCH   1   2
ATOM      2  C   UNL     1      10.082   0.514   3.011  1.00  0.00     0.023 C 
BRANCH   2   3
ATOM      3  C   UNL     1      10.218   0.123   1.538  1.00  0.00     0.116 C 
BRANCH   3   4
ATOM      4  N   UNL     1       9.646  -1.185   1.284  1.00  0.00    -0.352 N 
ATOM      5  C   UNL     1       8.440  -1.549   0.737  1.00  0.00     0.251 C 
ATOM      6  O   UNL     1       8.225  -2.740   0.517  1.00  0.00    -0.269 OA
ATOM      7  H   UNL     1      10.219  -1.941   1.549  1.00  0.00     0.163 HD
BRANCH   5   8
ATOM      8  C   UNL     1       7.403  -0.553   0.357  1.00  0.00     0.039 A 
ATOM      9  C   UNL     1       5.383   1.243  -0.468  1.00  0.00    -0.025 A 
ATOM     10  C   UNL     1       5.642   0.073  -1.198  1.00  0.00     0.006 A 
ATOM     11  C   UNL     1       6.129   1.483   0.693  1.00  0.00     0.006 A 
ATOM     12  C   UNL     1       6.632  -0.822  -0.780  1.00  0.00     0.014 A 
ATOM     13  C   UNL     1       7.119   0.589   1.105  1.00  0.00     0.014 A 
BRANCH   9  14
ATOM     14  C   UNL     1       4.325   2.250  -0.888  1.00  0.00     0.114 C 
ATOM     15  C   UNL     1       0.790   1.678  -1.897  1.00  0.00     0.142 A 
ATOM     16  C   UNL     1      -0.292   2.348  -2.460  1.00  0.00     0.050 A 
ATOM     17  C   UNL     1       2.073   2.260  -1.857  1.00  0.00     0.083 A 
ATOM     18  C   UNL     1      -0.114   3.631  -2.965  1.00  0.00     0.025 A 
ATOM     19  C   UNL     1       2.259   3.558  -2.375  1.00  0.00     0.005 A 
ATOM     20  N   UNL     1       3.144   1.544  -1.344  1.00  0.00    -0.375 N 
ATOM     21  C   UNL     1       1.149   4.231  -2.927  1.00  0.00     0.047 A 
ATOM     22  C   UNL     1       3.647   4.161  -2.402  1.00  0.00     0.051 C 
ATOM     23  H   UNL     1       3.103   0.562  -1.290  1.00  0.00     0.161 HD
ATOM     24  Cl  UNL     1       1.282   5.808  -3.628  1.00  0.00    -0.084 Cl
ATOM     25  C   UNL     1       4.802   3.208  -1.998  1.00  0.00     0.031 C 
ATOM     26  C   UNL     1       3.870   5.310  -1.449  1.00  0.00    -0.023 C 
ATOM     27  C   UNL     1       5.908   4.170  -1.524  1.00  0.00     0.034 C 
ATOM     28  C   UNL     1       5.124   5.320  -0.980  1.00  0.00    -0.030 C 
BRANCH  15  29
ATOM     29  O   UNL     1       0.564   0.399  -1.447  1.00  0.00    -0.495 OA
ATOM     30  C   UNL     1       0.515   0.350  -0.020  1.00  0.00     0.278 C 
ENDBRANCH  15  29
ENDBRANCH   9  14
ENDBRANCH   5   8
ENDBRANCH   3   4
ENDBRANCH   2   3
ENDBRANCH   1   2
BRANCH   1  31
ATOM     31  C   UNL     1      12.534   0.153   3.697  1.00  0.00     0.116 C 
BRANCH  31  32
ATOM     32  N   UNL     1      12.824   1.579   3.770  1.00  0.00    -0.352 N 
ATOM     33  C   UNL     1      13.992   2.172   4.189  1.00  0.00     0.251 C 
ATOM     34  H   UNL     1      12.103   2.186   3.487  1.00  0.00     0.163 HD
ATOM     35  O   UNL     1      14.089   3.388   4.278  1.00  0.00    -0.269 OA
BRANCH  33  36
ATOM     36  C   UNL     1      15.113   1.292   4.567  1.00  0.00     0.039 A 
ATOM     37  C   UNL     1      15.578   1.323   5.882  1.00  0.00     0.014 A 
ATOM     38  C   UNL     1      15.614   0.369   3.644  1.00  0.00     0.014 A 
ATOM     39  C   UNL     1      16.518   0.379   6.294  1.00  0.00     0.010 A 
ATOM     40  C   UNL     1      16.515  -0.599   4.070  1.00  0.00     0.010 A 
ATOM     41  C   UNL     1      16.971  -0.603   5.397  1.00  0.00    -0.014 A 
BRANCH  41  42
ATOM     42  C   UNL     1      17.923  -1.648   5.835  1.00  0.00     0.031 A 
ATOM     43  C   UNL     1      19.334  -1.627   5.329  1.00  0.00     0.074 A 
ATOM     44  C   UNL     1      17.496  -2.645   6.634  1.00  0.00     0.049 A 
ATOM     45  N   UNL     1      20.308  -2.460   5.582  1.00  0.00    -0.248 NA
ATOM     46  C   UNL     1      19.692  -0.541   4.402  1.00  0.00     0.031 C 
ATOM     47  C   UNL     1      16.128  -2.795   7.135  1.00  0.00     0.029 A 
ATOM     48  N   UNL     1      18.162  -3.727   7.152  1.00  0.00    -0.354 N 
ATOM     49  C   UNL     1      21.393  -2.002   4.846  1.00  0.00     0.074 A 
ATOM     50  C   UNL     1      20.945  -0.850   4.097  1.00  0.00     0.031 C 
ATOM     51  C   UNL     1      16.059  -3.901   7.893  1.00  0.00     0.029 A 
ATOM     52  C   UNL     1      17.369  -4.549   7.918  1.00  0.00     0.049 A 
ATOM     53  H   UNL     1      19.117  -3.898   6.991  1.00  0.00     0.167 HD
ATOM     54  C   UNL     1      22.656  -2.486   4.820  1.00  0.00     0.034 A 
ATOM     55  C   UNL     1      17.665  -5.693   8.567  1.00  0.00     0.034 A 
ATOM     56  C   UNL     1      23.095  -3.619   5.588  1.00  0.00     0.049 A 
ATOM     57  C   UNL     1      19.084  -6.202   8.540  1.00  0.00     0.074 A 
ATOM     58  C   UNL     1      24.371  -4.142   5.684  1.00  0.00     0.029 A 
ATOM     59  N   UNL     1      22.277  -4.402   6.388  1.00  0.00    -0.354 N 
ATOM     60  N   UNL     1      20.128  -5.690   7.932  1.00  0.00    -0.248 NA
ATOM     61  C   UNL     1      19.373  -7.429   9.295  1.00  0.00     0.031 C 
ATOM     62  C   UNL     1      24.319  -5.263   6.514  1.00  0.00     0.029 A 
ATOM     63  C   UNL     1      23.018  -5.416   6.969  1.00  0.00     0.049 A 
ATOM     64  H   UNL     1      21.312  -4.259   6.522  1.00  0.00     0.167 HD
ATOM     65  C   UNL     1      21.201  -6.517   8.250  1.00  0.00     0.074 A 
ATOM     66  C   UNL     1      20.683  -7.553   9.119  1.00  0.00     0.031 C 
ATOM     67  C   UNL     1      22.495  -6.428   7.853  1.00  0.00     0.034 A 
BRANCH  54  68
ATOM     68  C   UNL     1      23.672  -1.776   3.969  1.00  0.00     0.023 A 
ATOM     69  C   UNL     1      24.229  -2.417   2.849  1.00  0.00     0.031 A 
ATOM     70  C   UNL     1      24.161  -0.508   4.331  1.00  0.00     0.131 A 
ATOM     71  C   UNL     1      25.263  -1.794   2.140  1.00  0.00     0.055 A 
ATOM     72  C   UNL     1      25.171   0.120   3.603  1.00  0.00     0.041 A 
ATOM     73  F   UNL     1      23.652   0.141   5.391  1.00  0.00    -0.206 F 
ATOM     74  C   UNL     1      25.732  -0.527   2.507  1.00  0.00     0.022 A 
BRANCH  71  75
ATOM     75  S   UNL     1      26.052  -2.611   0.728  1.00  0.00     0.124 S 
ATOM     76  O   UNL     1      25.981  -1.576  -0.301  1.00  0.00    -0.237 OA
ATOM     77  O   UNL     1      27.389  -2.887   1.245  1.00  0.00    -0.237 OA
ATOM     78  O   UNL     1      25.212  -3.779   0.486  1.00  0.00    -0.744 OA
ENDBRANCH  71  75
ENDBRANCH  54  68
BRANCH  55  79
ATOM     79  C   UNL     1      16.602  -6.383   9.350  1.00  0.00     0.023 A 
ATOM     80  C   UNL     1      15.490  -6.963   8.713  1.00  0.00     0.031 A 
ATOM     81  C   UNL     1      16.642  -6.395  10.754  1.00  0.00     0.131 A 
ATOM     82  C   UNL     1      14.444  -7.490   9.482  1.00  0.00     0.055 A 
ATOM     83  C   UNL     1      15.624  -6.970  11.516  1.00  0.00     0.041 A 
ATOM     84  F   UNL     1      17.678  -5.841  11.404  1.00  0.00    -0.206 F 
ATOM     85  C   UNL     1      14.512  -7.512  10.879  1.00  0.00     0.022 A 
BRANCH  82  86
ATOM     86  S   UNL     1      12.919  -8.084   8.700  1.00  0.00     0.124 S 
ATOM     87  O   UNL     1      12.828  -9.450   9.207  1.00  0.00    -0.237 OA
ATOM     88  O   UNL     1      11.932  -7.147   9.230  1.00  0.00    -0.237 OA
ATOM     89  O   UNL     1      13.193  -7.958   7.273  1.00  0.00    -0.744 OA
ENDBRANCH  82  86
ENDBRANCH  55  79
BRANCH  67  90
ATOM     90  C   UNL     1      23.472  -7.462   8.347  1.00  0.00     0.023 A 
ATOM     91  C   UNL     1      24.524  -7.082   9.201  1.00  0.00     0.031 A 
ATOM     92  C   UNL     1      23.457  -8.773   7.844  1.00  0.00     0.131 A 
ATOM     93  C   UNL     1      25.544  -7.995   9.495  1.00  0.00     0.055 A 
ATOM     94  C   UNL     1      24.455  -9.692   8.171  1.00  0.00     0.041 A 
ATOM     95  F   UNL     1      22.478  -9.175   7.019  1.00  0.00    -0.206 F 
ATOM     96  C   UNL     1      25.512  -9.300   8.990  1.00  0.00     0.022 A 
BRANCH  93  97
ATOM     97  S   UNL     1      26.983  -7.505  10.484  1.00  0.00     0.124 S 
ATOM     98  O   UNL     1      26.956  -8.487  11.566  1.00  0.00    -0.237 OA
ATOM     99  O   UNL     1      28.077  -7.657   9.530  1.00  0.00    -0.237 OA
ATOM    100  O   UNL     1      26.684  -6.134  10.886  1.00  0.00    -0.744 OA
ENDBRANCH  93  97
ENDBRANCH  67  90
ENDBRANCH  41  42
ENDBRANCH  33  36
ENDBRANCH  31  32
ENDBRANCH   1  31
TORSDOF 16
