REMARK SMILES CC1=Nc2c(c(C)nn2-c2ccc(F)cc2)[C@H](c2ccc(C(=O)NCCCCNC(=O)c3ccc(-c4c5nc(c(-c6cc(S(=O)(=O)[O-])ccc6F)c6ccc([nH]6)c(-c6cc(S(=O)(=O)[O-])ccc6F)c6nc(c(-c7cc(S(=O)(=O)[O-])ccc7F)c7ccc4[nH]7)C=C6)C=C5)cc3)cc2)S1
REMARK SMILES IDX 27 1 26 2 25 3 24 4 22 5 23 6 21 8 18 9 19 10 96 11 20 12
REMARK SMILES IDX 95 13 17 14 1 15 2 16 3 17 97 18 4 19 5 20 9 21 6 22 8 23
REMARK SMILES IDX 7 24 10 25 11 26 16 27 12 28 15 29 13 30 14 31 28 32 29 33
REMARK SMILES IDX 30 34 31 36 32 37 33 38 94 39 34 40 93 41 35 42 36 43 37 44
REMARK SMILES IDX 87 45 38 46 92 47 86 48 88 49 39 50 91 51 85 52 84 53 40 55
REMARK SMILES IDX 72 56 52 57 71 58 53 59 56 60 70 61 89 62 54 63 55 64 69 66
REMARK SMILES IDX 90 67 57 68 41 69 42 70 50 71 43 72 49 73 51 74 48 75 44 76
REMARK SMILES IDX 45 77 46 78 47 79 73 80 74 81 82 82 75 83 81 84 83 85 80 86
REMARK SMILES IDX 76 87 77 88 78 89 79 90 58 91 59 92 67 93 60 94 66 95 68 96
REMARK SMILES IDX 65 97 61 98 62 99 63 100 64 101
REMARK H PARENT 24 7 29 35 88 54 56 65
REMARK Flexibility Score: inf
ROOT
ATOM      1  C   UNL     1       7.439  -3.555   5.817  1.00  0.00     0.023 C 
ENDROOT
BRANCH   1   2
ATOM      2  C   UNL     1       6.137  -3.287   5.046  1.00  0.00     0.023 C 
BRANCH   2   3
ATOM      3  C   UNL     1       4.952  -4.177   5.436  1.00  0.00     0.116 C 
BRANCH   3   4
ATOM      4  N   UNL     1       4.454  -3.832   6.754  1.00  0.00    -0.352 N 
ATOM      5  C   UNL     1       3.370  -3.103   7.166  1.00  0.00     0.251 C 
ATOM      6  O   UNL     1       3.184  -2.978   8.377  1.00  0.00    -0.269 OA
ATOM      7  H   UNL     1       4.997  -4.191   7.492  1.00  0.00     0.163 HD
BRANCH   5   8
ATOM      8  C   UNL     1       2.391  -2.492   6.228  1.00  0.00     0.039 A 
ATOM      9  C   UNL     1       0.398  -1.289   4.606  1.00  0.00    -0.030 A 
ATOM     10  C   UNL     1       0.080  -1.824   5.865  1.00  0.00     0.006 A 
ATOM     11  C   UNL     1       1.735  -1.367   4.179  1.00  0.00     0.006 A 
ATOM     12  C   UNL     1       1.065  -2.404   6.669  1.00  0.00     0.014 A 
ATOM     13  C   UNL     1       2.720  -1.949   4.987  1.00  0.00     0.014 A 
BRANCH   9  14
ATOM     14  C   UNL     1      -0.686  -0.583   3.806  1.00  0.00     0.119 C 
ATOM     15  C   UNL     1       0.876  -0.052  -0.007  1.00  0.00     0.075 C 
ATOM     16  C   UNL     1       0.252   0.262   1.327  1.00  0.00     0.074 C 
ATOM     17  N   UNL     1       0.474   1.438   1.821  1.00  0.00    -0.227 NA
ATOM     18  S   UNL     1      -0.712  -1.023   2.038  1.00  0.00    -0.098 SA
ATOM     19  C   UNL     1       0.017   1.713   3.066  1.00  0.00     0.161 A 
ATOM     20  C   UNL     1      -0.469   0.867   4.032  1.00  0.00     0.038 A 
ATOM     21  N   UNL     1       0.093   2.966   3.648  1.00  0.00    -0.215 N 
ATOM     22  C   UNL     1      -0.633   1.685   5.184  1.00  0.00     0.067 A 
ATOM     23  N   UNL     1      -0.199   2.936   4.971  1.00  0.00    -0.171 NA
ATOM     24  C   UNL     1      -1.152   1.305   6.523  1.00  0.00     0.069 C 
BRANCH  21  25
ATOM     25  C   UNL     1       0.420   4.171   2.988  1.00  0.00     0.067 A 
ATOM     26  C   UNL     1      -0.162   4.444   1.741  1.00  0.00     0.031 A 
ATOM     27  C   UNL     1       1.356   5.043   3.552  1.00  0.00     0.031 A 
ATOM     28  C   UNL     1       0.208   5.591   1.045  1.00  0.00     0.041 A 
ATOM     29  C   UNL     1       1.761   6.161   2.821  1.00  0.00     0.041 A 
ATOM     30  C   UNL     1       1.182   6.426   1.580  1.00  0.00     0.123 A 
ATOM     31  F   UNL     1       1.576   7.500   0.884  1.00  0.00    -0.207 F 
ENDBRANCH  21  25
ENDBRANCH   9  14
ENDBRANCH   5   8
ENDBRANCH   3   4
ENDBRANCH   2   3
ENDBRANCH   1   2
BRANCH   1  32
ATOM     32  C   UNL     1       8.086  -4.907   5.535  1.00  0.00     0.116 C 
BRANCH  32  33
ATOM     33  N   UNL     1       8.471  -5.068   4.133  1.00  0.00    -0.352 N 
ATOM     34  C   UNL     1       8.828  -6.232   3.473  1.00  0.00     0.251 C 
ATOM     35  H   UNL     1       8.476  -4.246   3.591  1.00  0.00     0.163 HD
ATOM     36  O   UNL     1       9.517  -6.187   2.467  1.00  0.00    -0.269 OA
BRANCH  34  37
ATOM     37  C   UNL     1       8.341  -7.519   4.006  1.00  0.00     0.039 A 
ATOM     38  C   UNL     1       9.159  -8.650   4.067  1.00  0.00     0.014 A 
ATOM     39  C   UNL     1       7.034  -7.561   4.483  1.00  0.00     0.014 A 
ATOM     40  C   UNL     1       8.672  -9.795   4.699  1.00  0.00     0.010 A 
ATOM     41  C   UNL     1       6.609  -8.632   5.228  1.00  0.00     0.010 A 
ATOM     42  C   UNL     1       7.402  -9.771   5.300  1.00  0.00    -0.014 A 
BRANCH  42  43
ATOM     43  C   UNL     1       6.936 -10.873   6.137  1.00  0.00     0.031 A 
ATOM     44  C   UNL     1       7.850 -11.218   7.258  1.00  0.00     0.074 A 
ATOM     45  C   UNL     1       5.687 -11.386   6.066  1.00  0.00     0.049 A 
ATOM     46  N   UNL     1       8.585 -12.273   7.373  1.00  0.00    -0.248 NA
ATOM     47  C   UNL     1       8.102 -10.209   8.300  1.00  0.00     0.031 C 
ATOM     48  C   UNL     1       4.574 -10.957   5.211  1.00  0.00     0.029 A 
ATOM     49  N   UNL     1       5.110 -12.352   6.833  1.00  0.00    -0.354 N 
ATOM     50  C   UNL     1       9.191 -12.185   8.621  1.00  0.00     0.074 A 
ATOM     51  C   UNL     1       9.035 -10.816   9.038  1.00  0.00     0.031 C 
ATOM     52  C   UNL     1       3.417 -11.498   5.658  1.00  0.00     0.029 A 
ATOM     53  C   UNL     1       3.723 -12.443   6.716  1.00  0.00     0.049 A 
ATOM     54  H   UNL     1       5.632 -12.941   7.426  1.00  0.00     0.167 HD
ATOM     55  C   UNL     1       9.541 -13.306   9.312  1.00  0.00     0.034 A 
ATOM     56  C   UNL     1       2.890 -13.247   7.432  1.00  0.00     0.034 A 
ATOM     57  C   UNL     1       9.526 -14.470   8.454  1.00  0.00     0.049 A 
ATOM     58  C   UNL     1       3.725 -14.377   7.906  1.00  0.00     0.074 A 
ATOM     59  C   UNL     1      10.178 -14.825   7.288  1.00  0.00     0.029 A 
ATOM     60  N   UNL     1       8.430 -15.300   8.528  1.00  0.00    -0.354 N 
ATOM     61  N   UNL     1       4.299 -15.230   7.104  1.00  0.00    -0.248 NA
ATOM     62  C   UNL     1       4.307 -14.279   9.234  1.00  0.00     0.031 C 
ATOM     63  C   UNL     1       9.181 -15.465   6.491  1.00  0.00     0.029 A 
ATOM     64  C   UNL     1       8.008 -15.550   7.244  1.00  0.00     0.049 A 
ATOM     65  H   UNL     1       8.023 -15.652   9.352  1.00  0.00     0.167 HD
ATOM     66  C   UNL     1       5.555 -15.435   7.651  1.00  0.00     0.074 A 
ATOM     67  C   UNL     1       5.466 -14.903   9.010  1.00  0.00     0.031 C 
ATOM     68  C   UNL     1       6.623 -15.758   6.864  1.00  0.00     0.034 A 
BRANCH  55  69
ATOM     69  C   UNL     1       9.546 -13.425  10.820  1.00  0.00     0.023 A 
ATOM     70  C   UNL     1      10.041 -14.616  11.386  1.00  0.00     0.031 A 
ATOM     71  C   UNL     1       8.857 -12.565  11.706  1.00  0.00     0.131 A 
ATOM     72  C   UNL     1       9.793 -14.935  12.734  1.00  0.00     0.055 A 
ATOM     73  C   UNL     1       8.666 -12.857  13.059  1.00  0.00     0.041 A 
ATOM     74  F   UNL     1       8.247 -11.446  11.297  1.00  0.00    -0.206 F 
ATOM     75  C   UNL     1       9.111 -14.060  13.576  1.00  0.00     0.022 A 
BRANCH  72  76
ATOM     76  S   UNL     1      10.258 -16.579  13.338  1.00  0.00     0.124 S 
ATOM     77  O   UNL     1       9.504 -17.448  12.441  1.00  0.00    -0.237 OA
ATOM     78  O   UNL     1      11.706 -16.567  13.158  1.00  0.00    -0.237 OA
ATOM     79  O   UNL     1       9.805 -16.570  14.727  1.00  0.00    -0.744 OA
ENDBRANCH  72  76
ENDBRANCH  55  69
BRANCH  56  80
ATOM     80  C   UNL     1       1.551 -12.941   8.016  1.00  0.00     0.023 A 
ATOM     81  C   UNL     1       0.774 -13.944   8.643  1.00  0.00     0.031 A 
ATOM     82  C   UNL     1       1.147 -11.606   8.235  1.00  0.00     0.131 A 
ATOM     83  C   UNL     1      -0.316 -13.597   9.475  1.00  0.00     0.055 A 
ATOM     84  C   UNL     1       0.069 -11.269   9.059  1.00  0.00     0.041 A 
ATOM     85  F   UNL     1       1.844 -10.576   7.733  1.00  0.00    -0.206 F 
ATOM     86  C   UNL     1      -0.656 -12.262   9.700  1.00  0.00     0.022 A 
BRANCH  83  87
ATOM     87  S   UNL     1      -1.226 -14.876  10.403  1.00  0.00     0.124 S 
ATOM     88  O   UNL     1      -2.174 -15.359   9.405  1.00  0.00    -0.237 OA
ATOM     89  O   UNL     1      -0.171 -15.803  10.795  1.00  0.00    -0.237 OA
ATOM     90  O   UNL     1      -1.822 -14.127  11.510  1.00  0.00    -0.744 OA
ENDBRANCH  83  87
ENDBRANCH  56  80
BRANCH  68  91
ATOM     91  C   UNL     1       6.358 -16.206   5.438  1.00  0.00     0.023 A 
ATOM     92  C   UNL     1       5.750 -15.426   4.425  1.00  0.00     0.031 A 
ATOM     93  C   UNL     1       6.863 -17.466   5.074  1.00  0.00     0.131 A 
ATOM     94  C   UNL     1       5.665 -15.926   3.106  1.00  0.00     0.055 A 
ATOM     95  C   UNL     1       6.796 -17.947   3.768  1.00  0.00     0.041 A 
ATOM     96  F   UNL     1       7.470 -18.244   5.986  1.00  0.00    -0.206 F 
ATOM     97  C   UNL     1       6.194 -17.180   2.779  1.00  0.00     0.022 A 
BRANCH  94  98
ATOM     98  S   UNL     1       4.871 -14.953   1.781  1.00  0.00     0.124 S 
ATOM     99  O   UNL     1       3.545 -14.671   2.316  1.00  0.00    -0.237 OA
ATOM    100  O   UNL     1       5.764 -13.805   1.645  1.00  0.00    -0.237 OA
ATOM    101  O   UNL     1       4.881 -15.864   0.633  1.00  0.00    -0.744 OA
ENDBRANCH  94  98
ENDBRANCH  68  91
ENDBRANCH  42  43
ENDBRANCH  34  37
ENDBRANCH  32  33
ENDBRANCH   1  32
TORSDOF 16
