REMARK SMILES C[C@@H]1CCC[C@@H](N(C)C(=O)N2CCC(CC(=O)NCCCCNC(=O)c3ccc(-c4c5nc(c(-c6cc(S(=O)(=O)[O-])ccc6F)c6ccc([nH]6)c(-c6cc(S(=O)(=O)[O-])ccc6F)c6nc(c(-c7cc(S(=O)(=O)[O-])ccc7F)c7ccc4[nH]7)C=C6)C=C5)cc3)CC2)C1
REMARK SMILES IDX 20 1 19 2 18 3 16 4 17 5 15 7 14 8 9 9 10 10 11 11 12 12
REMARK SMILES IDX 90 13 13 14 89 15 7 16 8 17 6 18 1 19 2 20 3 21 91 22 4 23
REMARK SMILES IDX 5 24 21 25 22 26 23 27 24 28 25 30 26 31 27 32 88 33 28 34
REMARK SMILES IDX 87 35 29 36 30 37 31 38 81 39 32 40 86 41 80 42 82 43 33 44
REMARK SMILES IDX 85 45 79 46 78 47 34 49 66 50 46 51 65 52 47 53 50 54 64 55
REMARK SMILES IDX 83 56 48 57 49 58 63 60 84 61 51 62 35 63 36 64 44 65 37 66
REMARK SMILES IDX 43 67 45 68 42 69 38 70 39 71 40 72 41 73 67 74 68 75 76 76
REMARK SMILES IDX 69 77 75 78 77 79 74 80 70 81 71 82 72 83 73 84 52 85 53 86
REMARK SMILES IDX 61 87 54 88 60 89 62 90 59 91 55 92 56 93 57 94 58 95
REMARK H PARENT 18 6 23 29 82 48 50 59
REMARK Flexibility Score: inf
ROOT
ATOM      1  C   UNL     1      -2.471  -6.160  -5.995  1.00  0.00     0.023 C 
ENDROOT
BRANCH   1   2
ATOM      2  C   UNL     1      -3.443  -5.236  -6.738  1.00  0.00     0.116 C 
BRANCH   2   3
ATOM      3  N   UNL     1      -4.816  -5.702  -6.617  1.00  0.00    -0.356 N 
ATOM      4  C   UNL     1      -5.850  -5.234  -5.859  1.00  0.00     0.220 C 
ATOM      5  O   UNL     1      -6.911  -5.862  -5.866  1.00  0.00    -0.275 OA
ATOM      6  H   UNL     1      -5.036  -6.484  -7.173  1.00  0.00     0.163 HD
BRANCH   4   7
ATOM      7  C   UNL     1      -5.709  -3.971  -5.019  1.00  0.00     0.103 C 
BRANCH   7   8
ATOM      8  C   UNL     1      -5.316  -4.239  -3.550  1.00  0.00     0.002 C 
ATOM      9  C   UNL     1      -2.415  -2.767  -1.256  1.00  0.00     0.319 C 
ATOM     10  O   UNL     1      -1.706  -2.493  -2.219  1.00  0.00    -0.248 OA
ATOM     11  N   UNL     1      -3.476  -3.649  -1.367  1.00  0.00    -0.325 N 
ATOM     12  C   UNL     1      -3.299  -4.884  -2.085  1.00  0.00     0.121 C 
ATOM     13  C   UNL     1      -4.843  -3.155  -1.295  1.00  0.00     0.121 C 
ATOM     14  C   UNL     1      -3.902  -4.811  -3.469  1.00  0.00     0.026 C 
ATOM     15  C   UNL     1      -5.423  -2.959  -2.701  1.00  0.00     0.026 C 
BRANCH   9  16
ATOM     16  N   UNL     1      -2.229  -2.257   0.023  1.00  0.00    -0.325 N 
ATOM     17  C   UNL     1      -2.809  -2.903   1.194  1.00  0.00     0.149 C 
BRANCH  16  18
ATOM     18  C   UNL     1      -1.378  -1.089   0.273  1.00  0.00     0.086 C 
ATOM     19  C   UNL     1       1.170  -0.036   1.844  1.00  0.00     0.008 C 
ATOM     20  C   UNL     1       0.964  -0.083   0.326  1.00  0.00    -0.012 C 
ATOM     21  C   UNL     1       0.375   1.234  -0.209  1.00  0.00     0.003 C 
ATOM     22  C   UNL     1       0.102  -1.288  -0.093  1.00  0.00     0.028 C 
ATOM     23  C   UNL     1      -1.119   1.402   0.073  1.00  0.00     0.002 C 
ATOM     24  C   UNL     1      -1.928   0.186  -0.376  1.00  0.00     0.025 C 
ENDBRANCH  16  18
ENDBRANCH   9  16
ENDBRANCH   7   8
ENDBRANCH   4   7
ENDBRANCH   2   3
ENDBRANCH   1   2
BRANCH   1  25
ATOM     25  C   UNL     1      -1.888  -7.301  -6.806  1.00  0.00     0.023 C 
BRANCH  25  26
ATOM     26  C   UNL     1      -0.948  -6.867  -7.909  1.00  0.00     0.116 C 
BRANCH  26  27
ATOM     27  N   UNL     1       0.204  -6.112  -7.435  1.00  0.00    -0.352 N 
ATOM     28  C   UNL     1       1.518  -6.218  -7.837  1.00  0.00     0.251 C 
ATOM     29  H   UNL     1       0.020  -5.441  -6.739  1.00  0.00     0.163 HD
ATOM     30  O   UNL     1       2.393  -5.578  -7.271  1.00  0.00    -0.269 OA
BRANCH  28  31
ATOM     31  C   UNL     1       1.851  -7.160  -8.928  1.00  0.00     0.039 A 
ATOM     32  C   UNL     1       2.922  -8.038  -8.763  1.00  0.00     0.014 A 
ATOM     33  C   UNL     1       1.045  -7.232 -10.066  1.00  0.00     0.014 A 
ATOM     34  C   UNL     1       3.137  -9.038  -9.712  1.00  0.00     0.010 A 
ATOM     35  C   UNL     1       1.183  -8.302 -10.937  1.00  0.00     0.010 A 
ATOM     36  C   UNL     1       2.244  -9.204 -10.784  1.00  0.00    -0.014 A 
BRANCH  36  37
ATOM     37  C   UNL     1       2.429 -10.282 -11.787  1.00  0.00     0.031 A 
ATOM     38  C   UNL     1       2.639  -9.917 -13.233  1.00  0.00     0.074 A 
ATOM     39  C   UNL     1       2.347 -11.573 -11.410  1.00  0.00     0.049 A 
ATOM     40  N   UNL     1       2.759 -10.697 -14.276  1.00  0.00    -0.248 NA
ATOM     41  C   UNL     1       2.668  -8.481 -13.555  1.00  0.00     0.031 C 
ATOM     42  C   UNL     1       2.076 -12.044 -10.048  1.00  0.00     0.029 A 
ATOM     43  N   UNL     1       2.484 -12.729 -12.136  1.00  0.00    -0.354 N 
ATOM     44  C   UNL     1       2.854  -9.846 -15.373  1.00  0.00     0.074 A 
ATOM     45  C   UNL     1       2.689  -8.498 -14.877  1.00  0.00     0.031 C 
ATOM     46  C   UNL     1       2.110 -13.387 -10.032  1.00  0.00     0.029 A 
ATOM     47  C   UNL     1       2.365 -13.874 -11.383  1.00  0.00     0.049 A 
ATOM     48  H   UNL     1       2.652 -12.738 -13.106  1.00  0.00     0.167 HD
ATOM     49  C   UNL     1       3.096 -10.157 -16.670  1.00  0.00     0.034 A 
ATOM     50  C   UNL     1       2.459 -15.169 -11.744  1.00  0.00     0.034 A 
ATOM     51  C   UNL     1       3.292 -11.506 -17.136  1.00  0.00     0.049 A 
ATOM     52  C   UNL     1       2.762 -15.492 -13.186  1.00  0.00     0.074 A 
ATOM     53  C   UNL     1       3.598 -11.944 -18.412  1.00  0.00     0.029 A 
ATOM     54  N   UNL     1       3.206 -12.640 -16.337  1.00  0.00    -0.354 N 
ATOM     55  N   UNL     1       2.909 -14.674 -14.204  1.00  0.00    -0.248 NA
ATOM     56  C   UNL     1       2.936 -16.910 -13.522  1.00  0.00     0.031 C 
ATOM     57  C   UNL     1       3.641 -13.343 -18.396  1.00  0.00     0.029 A 
ATOM     58  C   UNL     1       3.436 -13.776 -17.095  1.00  0.00     0.049 A 
ATOM     59  H   UNL     1       3.010 -12.636 -15.372  1.00  0.00     0.167 HD
ATOM     60  C   UNL     1       3.227 -15.478 -15.294  1.00  0.00     0.074 A 
ATOM     61  C   UNL     1       3.268 -16.841 -14.803  1.00  0.00     0.031 C 
ATOM     62  C   UNL     1       3.468 -15.126 -16.583  1.00  0.00     0.034 A 
BRANCH  49  63
ATOM     63  C   UNL     1       3.144  -9.015 -17.659  1.00  0.00     0.023 A 
ATOM     64  C   UNL     1       4.093  -7.981 -17.549  1.00  0.00     0.031 A 
ATOM     65  C   UNL     1       2.201  -8.929 -18.698  1.00  0.00     0.131 A 
ATOM     66  C   UNL     1       4.021  -6.867 -18.398  1.00  0.00     0.055 A 
ATOM     67  C   UNL     1       2.192  -7.861 -19.598  1.00  0.00     0.041 A 
ATOM     68  F   UNL     1       1.256  -9.871 -18.843  1.00  0.00    -0.206 F 
ATOM     69  C   UNL     1       3.094  -6.813 -19.440  1.00  0.00     0.022 A 
BRANCH  66  70
ATOM     70  S   UNL     1       5.051  -5.423 -18.020  1.00  0.00     0.124 S 
ATOM     71  O   UNL     1       4.581  -5.069 -16.683  1.00  0.00    -0.237 OA
ATOM     72  O   UNL     1       6.401  -5.967 -18.101  1.00  0.00    -0.237 OA
ATOM     73  O   UNL     1       4.699  -4.467 -19.069  1.00  0.00    -0.744 OA
ENDBRANCH  66  70
ENDBRANCH  49  63
BRANCH  50  74
ATOM     74  C   UNL     1       2.290 -16.254 -10.735  1.00  0.00     0.023 A 
ATOM     75  C   UNL     1       3.356 -17.105 -10.400  1.00  0.00     0.031 A 
ATOM     76  C   UNL     1       1.048 -16.481 -10.116  1.00  0.00     0.131 A 
ATOM     77  C   UNL     1       3.149 -18.173  -9.514  1.00  0.00     0.055 A 
ATOM     78  C   UNL     1       0.861 -17.513  -9.194  1.00  0.00     0.041 A 
ATOM     79  F   UNL     1      -0.003 -15.691 -10.391  1.00  0.00    -0.206 F 
ATOM     80  C   UNL     1       1.912 -18.376  -8.899  1.00  0.00     0.022 A 
BRANCH  77  81
ATOM     81  S   UNL     1       4.504 -19.348  -9.238  1.00  0.00     0.124 S 
ATOM     82  O   UNL     1       4.775 -19.813 -10.594  1.00  0.00    -0.237 OA
ATOM     83  O   UNL     1       5.524 -18.498  -8.635  1.00  0.00    -0.237 OA
ATOM     84  O   UNL     1       3.914 -20.342  -8.343  1.00  0.00    -0.744 OA
ENDBRANCH  77  81
ENDBRANCH  50  74
BRANCH  62  85
ATOM     85  C   UNL     1       3.851 -16.235 -17.532  1.00  0.00     0.023 A 
ATOM     86  C   UNL     1       2.949 -17.255 -17.881  1.00  0.00     0.031 A 
ATOM     87  C   UNL     1       5.147 -16.281 -18.076  1.00  0.00     0.131 A 
ATOM     88  C   UNL     1       3.376 -18.314 -18.696  1.00  0.00     0.055 A 
ATOM     89  C   UNL     1       5.546 -17.302 -18.938  1.00  0.00     0.041 A 
ATOM     90  F   UNL     1       6.048 -15.332 -17.775  1.00  0.00    -0.206 F 
ATOM     91  C   UNL     1       4.663 -18.335 -19.239  1.00  0.00     0.022 A 
BRANCH  88  92
ATOM     92  S   UNL     1       2.261 -19.722 -18.945  1.00  0.00     0.124 S 
ATOM     93  O   UNL     1       1.991 -20.142 -17.573  1.00  0.00    -0.237 OA
ATOM     94  O   UNL     1       1.142 -19.111 -19.655  1.00  0.00    -0.237 OA
ATOM     95  O   UNL     1       3.060 -20.657 -19.734  1.00  0.00    -0.744 OA
ENDBRANCH  88  92
ENDBRANCH  62  85
ENDBRANCH  36  37
ENDBRANCH  28  31
ENDBRANCH  26  27
ENDBRANCH  25  26
ENDBRANCH   1  25
TORSDOF 17
