REMARK SMILES COc1cc(/C=C2/C(=O)NN(c3ccc(Cl)c(Cl)c3)C2=O)ccc1OCC(=O)NCCCCNC(=O)c1ccc(-c2c3nc(c(-c4cc(S(=O)(=O)[O-])ccc4F)c4ccc([nH]4)c(-c4cc(S(=O)(=O)[O-])ccc4F)c4nc(c(-c5cc(S(=O)(=O)[O-])ccc5F)c5ccc2[nH]5)C=C4)C=C3)cc1
REMARK SMILES IDX 31 1 30 2 29 3 27 4 28 5 26 7 25 8 24 9 3 10 4 11 5 12 23 13
REMARK SMILES IDX 22 14 2 15 1 16 6 17 7 18 8 19 20 20 9 21 10 22 11 23 21 24
REMARK SMILES IDX 12 26 13 27 19 28 14 29 17 30 15 31 18 32 16 33 32 34 33 35
REMARK SMILES IDX 34 36 35 37 36 39 37 40 38 41 99 42 39 43 98 44 40 45 41 46
REMARK SMILES IDX 42 47 92 48 43 49 97 50 91 51 93 52 44 53 96 54 90 55 89 56
REMARK SMILES IDX 45 58 77 59 57 60 76 61 58 62 61 63 75 64 94 65 59 66 60 67
REMARK SMILES IDX 74 69 95 70 62 71 46 72 47 73 55 74 48 75 54 76 56 77 53 78
REMARK SMILES IDX 49 79 50 80 51 81 52 82 78 83 79 84 87 85 80 86 86 87 88 88
REMARK SMILES IDX 85 89 81 90 82 91 83 92 84 93 63 94 64 95 72 96 65 97 71 98
REMARK SMILES IDX 73 99 70 100 66 101 67 102 68 103 69 104
REMARK H PARENT 29 6 10 25 34 38 93 57 61 68
REMARK Flexibility Score: inf
ROOT
ATOM      1  C   UNL     1       2.910  -4.318  -0.339  1.00  0.00     0.023 C 
ENDROOT
BRANCH   1   2
ATOM      2  C   UNL     1       3.374  -3.053  -1.055  1.00  0.00     0.116 C 
BRANCH   2   3
ATOM      3  N   UNL     1       2.287  -2.159  -1.396  1.00  0.00    -0.353 N 
ATOM      4  C   UNL     1       2.109  -0.862  -1.009  1.00  0.00     0.257 C 
ATOM      5  O   UNL     1       1.281  -0.185  -1.622  1.00  0.00    -0.271 OA
ATOM      6  H   UNL     1       1.589  -2.534  -1.981  1.00  0.00     0.163 HD
BRANCH   4   7
ATOM      7  C   UNL     1       2.983  -0.266   0.102  1.00  0.00     0.329 C 
BRANCH   7   8
ATOM      8  O   UNL     1       3.213  -1.058   1.251  1.00  0.00    -0.480 OA
BRANCH   8   9
ATOM      9  C   UNL     1       2.190  -1.356   2.105  1.00  0.00     0.161 A 
ATOM     10  C   UNL     1       0.985  -0.673   2.302  1.00  0.00     0.161 A 
ATOM     11  C   UNL     1       0.100  -1.079   3.317  1.00  0.00     0.058 A 
ATOM     12  C   UNL     1       0.420  -2.165   4.141  1.00  0.00    -0.021 A 
ATOM     13  C   UNL     1       2.474  -2.468   2.908  1.00  0.00     0.051 A 
ATOM     14  C   UNL     1       1.596  -2.883   3.906  1.00  0.00     0.012 A 
BRANCH  10  15
ATOM     15  O   UNL     1       0.744   0.511   1.658  1.00  0.00    -0.493 OA
ATOM     16  C   UNL     1      -0.387   0.448   0.790  1.00  0.00     0.278 C 
ENDBRANCH  10  15
BRANCH  12  17
ATOM     17  C   UNL     1      -0.331  -2.438   5.371  1.00  0.00     0.028 C 
ATOM     18  C   UNL     1       0.083  -1.961   6.556  1.00  0.00     0.109 C 
ATOM     19  C   UNL     1      -0.523  -2.320   7.858  1.00  0.00     0.275 C 
ATOM     20  C   UNL     1       1.231  -1.050   6.820  1.00  0.00     0.282 C 
ATOM     21  O   UNL     1      -1.540  -2.960   8.056  1.00  0.00    -0.267 OA
ATOM     22  N   UNL     1       0.311  -1.759   8.805  1.00  0.00    -0.256 N 
ATOM     23  N   UNL     1       1.300  -0.977   8.213  1.00  0.00    -0.217 N 
ATOM     24  O   UNL     1       1.955  -0.515   5.998  1.00  0.00    -0.267 OA
ATOM     25  H   UNL     1       0.219  -1.895   9.775  1.00  0.00     0.192 HD
BRANCH  23  26
ATOM     26  C   UNL     1       2.210  -0.186   8.937  1.00  0.00     0.068 A 
ATOM     27  C   UNL     1       2.712  -0.618  10.169  1.00  0.00     0.030 A 
ATOM     28  C   UNL     1       2.637   1.046   8.421  1.00  0.00     0.050 A 
ATOM     29  C   UNL     1       3.655   0.159  10.853  1.00  0.00     0.024 A 
ATOM     30  C   UNL     1       3.538   1.847   9.127  1.00  0.00     0.061 A 
ATOM     31  C   UNL     1       4.062   1.395  10.340  1.00  0.00     0.059 A 
ATOM     32  Cl  UNL     1       3.942   3.387   8.456  1.00  0.00    -0.083 Cl
ATOM     33  Cl  UNL     1       5.208   2.310  11.251  1.00  0.00    -0.083 Cl
ENDBRANCH  23  26
ENDBRANCH  12  17
ENDBRANCH   8   9
ENDBRANCH   7   8
ENDBRANCH   4   7
ENDBRANCH   2   3
ENDBRANCH   1   2
BRANCH   1  34
ATOM     34  C   UNL     1       1.902  -5.177  -1.102  1.00  0.00     0.023 C 
BRANCH  34  35
ATOM     35  C   UNL     1       2.255  -5.471  -2.554  1.00  0.00     0.116 C 
BRANCH  35  36
ATOM     36  N   UNL     1       3.553  -6.109  -2.705  1.00  0.00    -0.352 N 
ATOM     37  C   UNL     1       3.886  -7.237  -3.415  1.00  0.00     0.251 C 
ATOM     38  H   UNL     1       4.298  -5.671  -2.233  1.00  0.00     0.163 HD
ATOM     39  O   UNL     1       5.015  -7.709  -3.319  1.00  0.00    -0.269 OA
BRANCH  37  40
ATOM     40  C   UNL     1       2.865  -7.896  -4.257  1.00  0.00     0.039 A 
ATOM     41  C   UNL     1       2.690  -9.277  -4.151  1.00  0.00     0.014 A 
ATOM     42  C   UNL     1       2.056  -7.147  -5.116  1.00  0.00     0.014 A 
ATOM     43  C   UNL     1       1.653  -9.896  -4.852  1.00  0.00     0.010 A 
ATOM     44  C   UNL     1       0.974  -7.752  -5.747  1.00  0.00     0.010 A 
ATOM     45  C   UNL     1       0.758  -9.134  -5.621  1.00  0.00    -0.014 A 
BRANCH  45  46
ATOM     46  C   UNL     1      -0.404  -9.759  -6.307  1.00  0.00     0.031 A 
ATOM     47  C   UNL     1      -0.507  -9.702  -7.808  1.00  0.00     0.074 A 
ATOM     48  C   UNL     1      -1.394 -10.318  -5.580  1.00  0.00     0.049 A 
ATOM     49  N   UNL     1      -1.483 -10.092  -8.586  1.00  0.00    -0.248 NA
ATOM     50  C   UNL     1       0.628  -9.099  -8.525  1.00  0.00     0.031 C 
ATOM     51  C   UNL     1      -1.422 -10.409  -4.119  1.00  0.00     0.029 A 
ATOM     52  N   UNL     1      -2.574 -10.904  -5.968  1.00  0.00    -0.354 N 
ATOM     53  C   UNL     1      -1.088  -9.771  -9.880  1.00  0.00     0.074 A 
ATOM     54  C   UNL     1       0.190  -9.099  -9.775  1.00  0.00     0.031 C 
ATOM     55  C   UNL     1      -2.547 -11.034  -3.737  1.00  0.00     0.029 A 
ATOM     56  C   UNL     1      -3.352 -11.336  -4.916  1.00  0.00     0.049 A 
ATOM     57  H   UNL     1      -2.840 -11.007  -6.910  1.00  0.00     0.167 HD
ATOM     58  C   UNL     1      -1.724 -10.030 -11.049  1.00  0.00     0.034 A 
ATOM     59  C   UNL     1      -4.582 -11.889  -4.902  1.00  0.00     0.034 A 
ATOM     60  C   UNL     1      -2.991 -10.712 -11.137  1.00  0.00     0.049 A 
ATOM     61  C   UNL     1      -5.289 -12.126  -6.216  1.00  0.00     0.074 A 
ATOM     62  C   UNL     1      -3.696 -11.072 -12.272  1.00  0.00     0.029 A 
ATOM     63  N   UNL     1      -3.750 -11.129 -10.051  1.00  0.00    -0.354 N 
ATOM     64  N   UNL     1      -4.878 -11.857  -7.435  1.00  0.00    -0.248 NA
ATOM     65  C   UNL     1      -6.618 -12.748  -6.155  1.00  0.00     0.031 C 
ATOM     66  C   UNL     1      -4.914 -11.628 -11.874  1.00  0.00     0.029 A 
ATOM     67  C   UNL     1      -4.931 -11.707 -10.491  1.00  0.00     0.049 A 
ATOM     68  H   UNL     1      -3.488 -11.028  -9.107  1.00  0.00     0.167 HD
ATOM     69  C   UNL     1      -5.882 -12.318  -8.284  1.00  0.00     0.074 A 
ATOM     70  C   UNL     1      -6.910 -12.890  -7.440  1.00  0.00     0.031 C 
ATOM     71  C   UNL     1      -5.947 -12.278  -9.639  1.00  0.00     0.034 A 
BRANCH  58  72
ATOM     72  C   UNL     1      -1.074  -9.550 -12.324  1.00  0.00     0.023 A 
ATOM     73  C   UNL     1       0.174 -10.037 -12.750  1.00  0.00     0.031 A 
ATOM     74  C   UNL     1      -1.715  -8.592 -13.130  1.00  0.00     0.131 A 
ATOM     75  C   UNL     1       0.768  -9.522 -13.911  1.00  0.00     0.055 A 
ATOM     76  C   UNL     1      -1.156  -8.144 -14.328  1.00  0.00     0.041 A 
ATOM     77  F   UNL     1      -2.897  -8.071 -12.763  1.00  0.00    -0.206 F 
ATOM     78  C   UNL     1       0.099  -8.600 -14.719  1.00  0.00     0.022 A 
BRANCH  75  79
ATOM     79  S   UNL     1       2.485  -9.975 -14.281  1.00  0.00     0.124 S 
ATOM     80  O   UNL     1       3.179  -9.497 -13.088  1.00  0.00    -0.237 OA
ATOM     81  O   UNL     1       2.403 -11.423 -14.435  1.00  0.00    -0.237 OA
ATOM     82  O   UNL     1       2.780  -9.232 -15.504  1.00  0.00    -0.744 OA
ENDBRANCH  75  79
ENDBRANCH  58  72
BRANCH  59  83
ATOM     83  C   UNL     1      -5.250 -12.236  -3.611  1.00  0.00     0.023 A 
ATOM     84  C   UNL     1      -5.621 -13.559  -3.319  1.00  0.00     0.031 A 
ATOM     85  C   UNL     1      -5.597 -11.238  -2.682  1.00  0.00     0.131 A 
ATOM     86  C   UNL     1      -6.372 -13.838  -2.167  1.00  0.00     0.055 A 
ATOM     87  C   UNL     1      -6.283 -11.532  -1.502  1.00  0.00     0.041 A 
ATOM     88  F   UNL     1      -5.271  -9.955  -2.908  1.00  0.00    -0.206 F 
ATOM     89  C   UNL     1      -6.692 -12.837  -1.248  1.00  0.00     0.022 A 
BRANCH  86  90
ATOM     90  S   UNL     1      -7.039 -15.512  -1.952  1.00  0.00     0.124 S 
ATOM     91  O   UNL     1      -7.800 -15.686  -3.184  1.00  0.00    -0.237 OA
ATOM     92  O   UNL     1      -5.823 -16.309  -1.830  1.00  0.00    -0.237 OA
ATOM     93  O   UNL     1      -7.838 -15.405  -0.733  1.00  0.00    -0.744 OA
ENDBRANCH  86  90
ENDBRANCH  59  83
BRANCH  71  94
ATOM     94  C   UNL     1      -7.138 -12.931 -10.298  1.00  0.00     0.023 A 
ATOM     95  C   UNL     1      -8.444 -12.435 -10.143  1.00  0.00     0.031 A 
ATOM     96  C   UNL     1      -6.955 -14.070 -11.105  1.00  0.00     0.131 A 
ATOM     97  C   UNL     1      -9.521 -13.105 -10.743  1.00  0.00     0.055 A 
ATOM     98  C   UNL     1      -8.022 -14.691 -11.755  1.00  0.00     0.041 A 
ATOM     99  F   UNL     1      -5.731 -14.591 -11.285  1.00  0.00    -0.206 F 
ATOM    100  C   UNL     1      -9.316 -14.216 -11.566  1.00  0.00     0.022 A 
BRANCH  97 101
ATOM    101  S   UNL     1     -11.209 -12.560 -10.362  1.00  0.00     0.124 S 
ATOM    102  O   UNL     1     -11.253 -12.703  -8.911  1.00  0.00    -0.237 OA
ATOM    103  O   UNL     1     -11.217 -11.191 -10.869  1.00  0.00    -0.237 OA
ATOM    104  O   UNL     1     -12.048 -13.499 -11.104  1.00  0.00    -0.744 OA
ENDBRANCH  97 101
ENDBRANCH  71  94
ENDBRANCH  45  46
ENDBRANCH  37  40
ENDBRANCH  35  36
ENDBRANCH  34  35
ENDBRANCH   1  34
TORSDOF 19
