REMARK SMILES COc1ccc([C@@H]([NH3+])[C@](C)(C(N)=O)C(=O)NCCCCNC(=O)c2ccc(-c3c4nc(c(-c5cc(S(=O)(=O)[O-])ccc5F)c5ccc([nH]5)c(-c5cc(S(=O)(=O)[O-])ccc5F)c5nc(c(-c6cc(S(=O)(=O)[O-])ccc6F)c6ccc3[nH]6)C=C5)C=C4)cc2)cc1OC
REMARK SMILES IDX 18 1 17 2 16 3 14 4 15 5 9 7 10 8 7 9 6 10 3 11 4 12 88 13
REMARK SMILES IDX 5 14 87 15 2 16 1 17 89 18 90 19 8 20 11 24 12 25 13 26
REMARK SMILES IDX 19 29 20 30 21 31 22 32 23 34 24 35 25 36 86 37 26 38 85 39
REMARK SMILES IDX 27 40 28 41 29 42 79 43 30 44 84 45 78 46 80 47 31 48 83 49
REMARK SMILES IDX 77 50 76 51 32 53 64 54 44 55 63 56 45 57 48 58 62 59 81 60
REMARK SMILES IDX 46 61 47 62 61 64 82 65 49 66 33 67 34 68 42 69 35 70 41 71
REMARK SMILES IDX 43 72 40 73 36 74 37 75 38 76 39 77 65 78 66 79 74 80 67 81
REMARK SMILES IDX 73 82 75 83 72 84 68 85 69 86 70 87 71 88 50 89 51 90 59 91
REMARK SMILES IDX 52 92 58 93 60 94 57 95 53 96 54 97 55 98 56 99
REMARK H PARENT 16 6 8 21 8 22 8 23 12 27 12 28 21 33 80 52 48 63
REMARK Flexibility Score: inf
ROOT
ATOM      1  C   UNL     1      -2.288  -4.470  -8.659  1.00  0.00     0.023 C 
ENDROOT
BRANCH   1   2
ATOM      2  C   UNL     1      -1.449  -3.630  -7.702  1.00  0.00     0.116 C 
BRANCH   2   3
ATOM      3  N   UNL     1      -1.714  -3.891  -6.293  1.00  0.00    -0.355 N 
ATOM      4  C   UNL     1      -0.850  -4.144  -5.263  1.00  0.00     0.241 C 
ATOM      5  O   UNL     1      -1.354  -4.161  -4.136  1.00  0.00    -0.274 OA
ATOM      6  H   UNL     1      -2.666  -3.883  -6.042  1.00  0.00     0.163 HD
BRANCH   4   7
ATOM      7  C   UNL     1       0.649  -4.410  -5.491  1.00  0.00     0.180 C 
ATOM      8  C   UNL     1       1.208  -4.968  -4.138  1.00  0.00     0.039 C 
BRANCH   7   9
ATOM      9  C   UNL     1       1.402  -3.033  -5.755  1.00  0.00     0.237 C 
BRANCH   9  10
ATOM     10  C   UNL     1       2.901  -3.150  -5.996  1.00  0.00     0.015 A 
ATOM     11  C   UNL     1       5.628  -3.751  -6.193  1.00  0.00     0.160 A 
ATOM     12  C   UNL     1       4.772  -4.014  -7.266  1.00  0.00     0.051 A 
ATOM     13  C   UNL     1       5.168  -3.038  -5.082  1.00  0.00     0.161 A 
ATOM     14  C   UNL     1       3.422  -3.681  -7.180  1.00  0.00     0.014 A 
ATOM     15  C   UNL     1       3.800  -2.754  -4.995  1.00  0.00     0.060 A 
BRANCH  11  16
ATOM     16  O   UNL     1       6.909  -4.228  -6.289  1.00  0.00    -0.493 OA
ATOM     17  C   UNL     1       6.960  -5.573  -5.797  1.00  0.00     0.278 C 
ENDBRANCH  11  16
BRANCH  13  18
ATOM     18  O   UNL     1       5.863  -2.577  -4.000  1.00  0.00    -0.493 OA
ATOM     19  C   UNL     1       7.236  -2.899  -3.880  1.00  0.00     0.278 C 
ENDBRANCH  13  18
ENDBRANCH   9  10
BRANCH   9  20
ATOM     20  N   UNL     1       0.853  -2.093  -6.749  1.00  0.00    -0.350 N 
ATOM     21  H   UNL     1       1.015  -2.459  -7.688  1.00  0.00     0.345 HD
ATOM     22  H   UNL     1       1.314  -1.189  -6.652  1.00  0.00     0.345 HD
ATOM     23  H   UNL     1      -0.149  -1.983  -6.595  1.00  0.00     0.345 HD
ENDBRANCH   9  20
ENDBRANCH   7   9
BRANCH   7  24
ATOM     24  C   UNL     1       0.910  -5.595  -6.449  1.00  0.00     0.239 C 
ATOM     25  N   UNL     1      -0.144  -6.370  -6.837  1.00  0.00    -0.369 N 
ATOM     26  O   UNL     1       2.022  -6.004  -6.779  1.00  0.00    -0.274 OA
ATOM     27  H   UNL     1      -1.063  -6.103  -6.606  1.00  0.00     0.159 HD
ATOM     28  H   UNL     1       0.015  -7.197  -7.347  1.00  0.00     0.159 HD
ENDBRANCH   7  24
ENDBRANCH   4   7
ENDBRANCH   2   3
ENDBRANCH   1   2
BRANCH   1  29
ATOM     29  C   UNL     1      -3.796  -4.378  -8.456  1.00  0.00     0.023 C 
BRANCH  29  30
ATOM     30  C   UNL     1      -4.353  -2.961  -8.431  1.00  0.00     0.116 C 
BRANCH  30  31
ATOM     31  N   UNL     1      -4.065  -2.225  -9.653  1.00  0.00    -0.352 N 
ATOM     32  C   UNL     1      -4.936  -1.691 -10.573  1.00  0.00     0.251 C 
ATOM     33  H   UNL     1      -3.110  -2.091  -9.850  1.00  0.00     0.163 HD
ATOM     34  O   UNL     1      -4.509  -1.266 -11.644  1.00  0.00    -0.269 OA
BRANCH  32  35
ATOM     35  C   UNL     1      -6.382  -1.663 -10.275  1.00  0.00     0.039 A 
ATOM     36  C   UNL     1      -7.287  -2.081 -11.252  1.00  0.00     0.014 A 
ATOM     37  C   UNL     1      -6.838  -1.262  -9.017  1.00  0.00     0.014 A 
ATOM     38  C   UNL     1      -8.645  -2.172 -10.938  1.00  0.00     0.010 A 
ATOM     39  C   UNL     1      -8.173  -1.449  -8.677  1.00  0.00     0.010 A 
ATOM     40  C   UNL     1      -9.093  -1.902  -9.634  1.00  0.00    -0.014 A 
BRANCH  40  41
ATOM     41  C   UNL     1     -10.519  -2.076  -9.251  1.00  0.00     0.031 A 
ATOM     42  C   UNL     1     -11.315  -0.893  -8.769  1.00  0.00     0.074 A 
ATOM     43  C   UNL     1     -11.074  -3.304  -9.275  1.00  0.00     0.049 A 
ATOM     44  N   UNL     1     -12.541  -0.848  -8.317  1.00  0.00    -0.248 NA
ATOM     45  C   UNL     1     -10.626   0.407  -8.761  1.00  0.00     0.031 C 
ATOM     46  C   UNL     1     -10.390  -4.534  -9.684  1.00  0.00     0.029 A 
ATOM     47  N   UNL     1     -12.338  -3.725  -8.945  1.00  0.00    -0.354 N 
ATOM     48  C   UNL     1     -12.765   0.477  -7.957  1.00  0.00     0.074 A 
ATOM     49  C   UNL     1     -11.523   1.185  -8.177  1.00  0.00     0.031 C 
ATOM     50  C   UNL     1     -11.252  -5.561  -9.616  1.00  0.00     0.029 A 
ATOM     51  C   UNL     1     -12.531  -5.079  -9.107  1.00  0.00     0.049 A 
ATOM     52  H   UNL     1     -13.040  -3.116  -8.623  1.00  0.00     0.167 HD
ATOM     53  C   UNL     1     -13.908   1.053  -7.510  1.00  0.00     0.034 A 
ATOM     54  C   UNL     1     -13.614  -5.845  -8.863  1.00  0.00     0.034 A 
ATOM     55  C   UNL     1     -15.141   0.332  -7.311  1.00  0.00     0.049 A 
ATOM     56  C   UNL     1     -14.864  -5.186  -8.334  1.00  0.00     0.074 A 
ATOM     57  C   UNL     1     -16.373   0.824  -6.922  1.00  0.00     0.029 A 
ATOM     58  N   UNL     1     -15.296  -1.039  -7.476  1.00  0.00    -0.354 N 
ATOM     59  N   UNL     1     -15.076  -3.920  -8.053  1.00  0.00    -0.248 NA
ATOM     60  C   UNL     1     -16.021  -6.057  -8.098  1.00  0.00     0.031 C 
ATOM     61  C   UNL     1     -17.250  -0.255  -6.773  1.00  0.00     0.029 A 
ATOM     62  C   UNL     1     -16.593  -1.413  -7.158  1.00  0.00     0.049 A 
ATOM     63  H   UNL     1     -14.589  -1.655  -7.775  1.00  0.00     0.167 HD
ATOM     64  C   UNL     1     -16.404  -3.841  -7.642  1.00  0.00     0.074 A 
ATOM     65  C   UNL     1     -16.944  -5.183  -7.727  1.00  0.00     0.031 C 
ATOM     66  C   UNL     1     -17.116  -2.758  -7.238  1.00  0.00     0.034 A 
BRANCH  53  67
ATOM     67  C   UNL     1     -13.862   2.527  -7.180  1.00  0.00     0.023 A 
ATOM     68  C   UNL     1     -13.562   3.496  -8.154  1.00  0.00     0.031 A 
ATOM     69  C   UNL     1     -14.093   2.970  -5.865  1.00  0.00     0.131 A 
ATOM     70  C   UNL     1     -13.419   4.842  -7.785  1.00  0.00     0.055 A 
ATOM     71  C   UNL     1     -14.039   4.323  -5.522  1.00  0.00     0.041 A 
ATOM     72  F   UNL     1     -14.360   2.093  -4.885  1.00  0.00    -0.206 F 
ATOM     73  C   UNL     1     -13.683   5.267  -6.481  1.00  0.00     0.022 A 
BRANCH  70  74
ATOM     74  S   UNL     1     -12.727   6.002  -8.996  1.00  0.00     0.124 S 
ATOM     75  O   UNL     1     -11.438   5.382  -9.295  1.00  0.00    -0.237 OA
ATOM     76  O   UNL     1     -13.716   5.968 -10.066  1.00  0.00    -0.237 OA
ATOM     77  O   UNL     1     -12.648   7.261  -8.258  1.00  0.00    -0.744 OA
ENDBRANCH  70  74
ENDBRANCH  53  67
BRANCH  54  78
ATOM     78  C   UNL     1     -13.574  -7.316  -9.108  1.00  0.00     0.023 A 
ATOM     79  C   UNL     1     -14.416  -7.912 -10.061  1.00  0.00     0.031 A 
ATOM     80  C   UNL     1     -12.732  -8.157  -8.358  1.00  0.00     0.131 A 
ATOM     81  C   UNL     1     -14.436  -9.308 -10.204  1.00  0.00     0.055 A 
ATOM     82  C   UNL     1     -12.712  -9.540  -8.546  1.00  0.00     0.041 A 
ATOM     83  F   UNL     1     -11.904  -7.641  -7.435  1.00  0.00    -0.206 F 
ATOM     84  C   UNL     1     -13.579 -10.125  -9.463  1.00  0.00     0.022 A 
BRANCH  81  85
ATOM     85  S   UNL     1     -15.672 -10.051 -11.304  1.00  0.00     0.124 S 
ATOM     86  O   UNL     1     -16.916  -9.552 -10.729  1.00  0.00    -0.237 OA
ATOM     87  O   UNL     1     -15.295  -9.497 -12.600  1.00  0.00    -0.237 OA
ATOM     88  O   UNL     1     -15.444 -11.486 -11.151  1.00  0.00    -0.744 OA
ENDBRANCH  81  85
ENDBRANCH  54  78
BRANCH  66  89
ATOM     89  C   UNL     1     -18.573  -2.976  -6.906  1.00  0.00     0.023 A 
ATOM     90  C   UNL     1     -18.977  -3.767  -5.816  1.00  0.00     0.031 A 
ATOM     91  C   UNL     1     -19.573  -2.387  -7.701  1.00  0.00     0.131 A 
ATOM     92  C   UNL     1     -20.342  -3.997  -5.588  1.00  0.00     0.055 A 
ATOM     93  C   UNL     1     -20.930  -2.562  -7.427  1.00  0.00     0.041 A 
ATOM     94  F   UNL     1     -19.246  -1.625  -8.757  1.00  0.00    -0.206 F 
ATOM     95  C   UNL     1     -21.321  -3.383  -6.373  1.00  0.00     0.022 A 
BRANCH  92  96
ATOM     96  S   UNL     1     -20.822  -5.192  -4.310  1.00  0.00     0.124 S 
ATOM     97  O   UNL     1     -20.151  -6.405  -4.764  1.00  0.00    -0.237 OA
ATOM     98  O   UNL     1     -20.287  -4.583  -3.096  1.00  0.00    -0.237 OA
ATOM     99  O   UNL     1     -22.281  -5.220  -4.398  1.00  0.00    -0.744 OA
ENDBRANCH  92  96
ENDBRANCH  66  89
ENDBRANCH  40  41
ENDBRANCH  32  35
ENDBRANCH  30  31
ENDBRANCH  29  30
ENDBRANCH   1  29
TORSDOF 20
