REMARK SMILES CCN(CC)S(=O)(=O)c1ccc2nc(-c3ccncc3)cc(C(=O)NCCCCNC(=O)c3ccc(-c4c5nc(c(-c6cc(S(=O)(=O)[O-])ccc6F)c6ccc([nH]6)c(-c6cc(S(=O)(=O)[O-])ccc6F)c6nc(c(-c7cc(S(=O)(=O)[O-])ccc7F)c7ccc4[nH]7)C=C6)C=C5)cc3)c2c1
REMARK SMILES IDX 27 1 26 2 25 3 23 4 24 5 22 7 9 8 10 9 97 10 11 11 96 12
REMARK SMILES IDX 12 13 13 14 21 15 14 16 6 17 7 18 8 19 3 20 2 21 1 22 4 23
REMARK SMILES IDX 5 24 15 25 16 26 20 27 17 28 19 29 18 30 28 31 29 32 30 33
REMARK SMILES IDX 31 34 32 36 33 37 34 38 95 39 35 40 94 41 36 42 37 43 38 44
REMARK SMILES IDX 88 45 39 46 93 47 87 48 89 49 40 50 92 51 86 52 85 53 41 55
REMARK SMILES IDX 73 56 53 57 72 58 54 59 57 60 71 61 90 62 55 63 56 64 70 66
REMARK SMILES IDX 91 67 58 68 42 69 43 70 51 71 44 72 50 73 52 74 49 75 45 76
REMARK SMILES IDX 46 77 47 78 48 79 74 80 75 81 83 82 76 83 82 84 84 85 81 86
REMARK SMILES IDX 77 87 78 88 79 89 80 90 59 91 60 92 68 93 61 94 67 95 69 96
REMARK SMILES IDX 66 97 62 98 63 99 64 100 65 101
REMARK H PARENT 25 6 30 35 89 54 57 65
REMARK Flexibility Score: inf
ROOT
ATOM      1  C   UNL     1       1.341   3.312   1.506  1.00  0.00     0.023 C 
ENDROOT
BRANCH   1   2
ATOM      2  C   UNL     1       2.557   4.197   1.808  1.00  0.00     0.116 C 
BRANCH   2   3
ATOM      3  N   UNL     1       2.130   5.274   2.677  1.00  0.00    -0.352 N 
ATOM      4  C   UNL     1       2.100   5.465   4.029  1.00  0.00     0.252 C 
ATOM      5  O   UNL     1       1.422   6.423   4.417  1.00  0.00    -0.269 OA
ATOM      6  H   UNL     1       1.780   6.047   2.178  1.00  0.00     0.163 HD
BRANCH   4   7
ATOM      7  C   UNL     1       2.894   4.726   5.061  1.00  0.00     0.051 A 
ATOM      8  C   UNL     1       3.217   1.001   4.419  1.00  0.00     0.083 A 
ATOM      9  C   UNL     1       4.121   0.665   5.412  1.00  0.00     0.024 A 
ATOM     10  C   UNL     1       2.714   2.304   4.351  1.00  0.00     0.033 A 
ATOM     11  C   UNL     1       4.499   1.647   6.328  1.00  0.00     0.030 A 
ATOM     12  C   UNL     1       3.203   3.344   5.171  1.00  0.00     0.014 A 
ATOM     13  C   UNL     1       4.061   2.964   6.232  1.00  0.00     0.072 A 
ATOM     14  N   UNL     1       4.465   3.806   7.192  1.00  0.00    -0.248 NA
ATOM     15  C   UNL     1       3.325   5.583   6.085  1.00  0.00     0.043 A 
ATOM     16  C   UNL     1       4.046   5.086   7.153  1.00  0.00     0.072 A 
BRANCH   8  17
ATOM     17  S   UNL     1       2.808  -0.174   3.140  1.00  0.00     0.243 S 
ATOM     18  O   UNL     1       3.340  -1.460   3.541  1.00  0.00    -0.207 OA
ATOM     19  O   UNL     1       3.227   0.453   1.905  1.00  0.00    -0.207 OA
BRANCH  17  20
ATOM     20  N   UNL     1       1.097  -0.276   3.165  1.00  0.00    -0.198 NA
BRANCH  20  21
ATOM     21  C   UNL     1       0.507  -1.171   2.110  1.00  0.00     0.099 C 
ATOM     22  C   UNL     1       0.600  -0.596   0.715  1.00  0.00     0.022 C 
ENDBRANCH  20  21
BRANCH  20  23
ATOM     23  C   UNL     1       0.445  -0.509   4.488  1.00  0.00     0.099 C 
ATOM     24  C   UNL     1       0.666  -1.900   5.057  1.00  0.00     0.022 C 
ENDBRANCH  20  23
ENDBRANCH  17  20
ENDBRANCH   8  17
BRANCH  16  25
ATOM     25  C   UNL     1       4.325   5.902   8.340  1.00  0.00     0.003 A 
ATOM     26  C   UNL     1       5.608   5.988   8.885  1.00  0.00     0.030 A 
ATOM     27  C   UNL     1       3.294   6.606   8.981  1.00  0.00     0.030 A 
ATOM     28  C   UNL     1       5.805   6.774  10.009  1.00  0.00     0.111 A 
ATOM     29  C   UNL     1       3.587   7.358  10.107  1.00  0.00     0.111 A 
ATOM     30  N   UNL     1       4.824   7.462  10.633  1.00  0.00    -0.265 NA
ENDBRANCH  16  25
ENDBRANCH   4   7
ENDBRANCH   2   3
ENDBRANCH   1   2
BRANCH   1  31
ATOM     31  C   UNL     1       0.699   3.522   0.150  1.00  0.00     0.023 C 
BRANCH  31  32
ATOM     32  C   UNL     1       1.610   3.202  -1.024  1.00  0.00     0.116 C 
BRANCH  32  33
ATOM     33  N   UNL     1       2.242   1.885  -0.969  1.00  0.00    -0.352 N 
ATOM     34  C   UNL     1       2.316   0.941  -1.972  1.00  0.00     0.251 C 
ATOM     35  H   UNL     1       2.666   1.642  -0.114  1.00  0.00     0.163 HD
ATOM     36  O   UNL     1       2.867  -0.141  -1.816  1.00  0.00    -0.269 OA
BRANCH  34  37
ATOM     37  C   UNL     1       1.648   1.254  -3.241  1.00  0.00     0.039 A 
ATOM     38  C   UNL     1       0.552   0.483  -3.639  1.00  0.00     0.014 A 
ATOM     39  C   UNL     1       2.007   2.419  -3.917  1.00  0.00     0.014 A 
ATOM     40  C   UNL     1      -0.251   0.938  -4.683  1.00  0.00     0.010 A 
ATOM     41  C   UNL     1       1.152   2.914  -4.886  1.00  0.00     0.010 A 
ATOM     42  C   UNL     1       0.016   2.181  -5.276  1.00  0.00    -0.014 A 
BRANCH  42  43
ATOM     43  C   UNL     1      -0.830   2.752  -6.351  1.00  0.00     0.031 A 
ATOM     44  C   UNL     1      -0.186   3.029  -7.678  1.00  0.00     0.074 A 
ATOM     45  C   UNL     1      -2.093   3.144  -6.095  1.00  0.00     0.049 A 
ATOM     46  N   UNL     1      -0.598   3.782  -8.661  1.00  0.00    -0.248 NA
ATOM     47  C   UNL     1       1.138   2.422  -7.891  1.00  0.00     0.031 C 
ATOM     48  C   UNL     1      -2.811   2.940  -4.835  1.00  0.00     0.029 A 
ATOM     49  N   UNL     1      -2.986   3.830  -6.877  1.00  0.00    -0.354 N 
ATOM     50  C   UNL     1       0.440   3.783  -9.587  1.00  0.00     0.074 A 
ATOM     51  C   UNL     1       1.516   3.001  -9.019  1.00  0.00     0.031 C 
ATOM     52  C   UNL     1      -4.034   3.487  -4.932  1.00  0.00     0.029 A 
ATOM     53  C   UNL     1      -4.165   4.133  -6.234  1.00  0.00     0.049 A 
ATOM     54  H   UNL     1      -2.802   4.083  -7.811  1.00  0.00     0.167 HD
ATOM     55  C   UNL     1       0.478   4.371 -10.806  1.00  0.00     0.034 A 
ATOM     56  C   UNL     1      -5.211   4.881  -6.639  1.00  0.00     0.034 A 
ATOM     57  C   UNL     1      -0.630   5.105 -11.361  1.00  0.00     0.049 A 
ATOM     58  C   UNL     1      -5.145   5.533  -7.998  1.00  0.00     0.074 A 
ATOM     59  C   UNL     1      -0.745   5.678 -12.614  1.00  0.00     0.029 A 
ATOM     60  N   UNL     1      -1.820   5.363 -10.692  1.00  0.00    -0.354 N 
ATOM     61  N   UNL     1      -4.171   5.508  -8.880  1.00  0.00    -0.248 NA
ATOM     62  C   UNL     1      -6.314   6.317  -8.415  1.00  0.00     0.031 C 
ATOM     63  C   UNL     1      -1.982   6.329 -12.683  1.00  0.00     0.029 A 
ATOM     64  C   UNL     1      -2.665   6.110 -11.496  1.00  0.00     0.049 A 
ATOM     65  H   UNL     1      -2.032   5.059  -9.780  1.00  0.00     0.167 HD
ATOM     66  C   UNL     1      -4.620   6.258  -9.963  1.00  0.00     0.074 A 
ATOM     67  C   UNL     1      -5.957   6.707  -9.630  1.00  0.00     0.031 C 
ATOM     68  C   UNL     1      -3.989   6.551 -11.129  1.00  0.00     0.034 A 
BRANCH  55  69
ATOM     69  C   UNL     1       1.763   4.258 -11.589  1.00  0.00     0.023 A 
ATOM     70  C   UNL     1       2.276   3.013 -11.992  1.00  0.00     0.031 A 
ATOM     71  C   UNL     1       2.517   5.407 -11.888  1.00  0.00     0.131 A 
ATOM     72  C   UNL     1       3.545   2.935 -12.584  1.00  0.00     0.055 A 
ATOM     73  C   UNL     1       3.739   5.330 -12.559  1.00  0.00     0.041 A 
ATOM     74  F   UNL     1       2.091   6.622 -11.510  1.00  0.00    -0.206 F 
ATOM     75  C   UNL     1       4.269   4.088 -12.895  1.00  0.00     0.022 A 
BRANCH  72  76
ATOM     76  S   UNL     1       4.298   1.300 -12.798  1.00  0.00     0.124 S 
ATOM     77  O   UNL     1       4.366   0.826 -11.418  1.00  0.00    -0.237 OA
ATOM     78  O   UNL     1       3.338   0.620 -13.660  1.00  0.00    -0.237 OA
ATOM     79  O   UNL     1       5.590   1.595 -13.413  1.00  0.00    -0.744 OA
ENDBRANCH  72  76
ENDBRANCH  55  69
BRANCH  56  80
ATOM     80  C   UNL     1      -6.390   5.087  -5.750  1.00  0.00     0.023 A 
ATOM     81  C   UNL     1      -7.651   4.580  -6.101  1.00  0.00     0.031 A 
ATOM     82  C   UNL     1      -6.285   5.825  -4.557  1.00  0.00     0.131 A 
ATOM     83  C   UNL     1      -8.766   4.851  -5.291  1.00  0.00     0.055 A 
ATOM     84  C   UNL     1      -7.388   6.051  -3.730  1.00  0.00     0.041 A 
ATOM     85  F   UNL     1      -5.102   6.327  -4.171  1.00  0.00    -0.206 F 
ATOM     86  C   UNL     1      -8.640   5.573  -4.102  1.00  0.00     0.022 A 
BRANCH  83  87
ATOM     87  S   UNL     1     -10.402   4.305  -5.854  1.00  0.00     0.124 S 
ATOM     88  O   UNL     1     -10.513   4.980  -7.142  1.00  0.00    -0.237 OA
ATOM     89  O   UNL     1     -10.237   2.856  -5.900  1.00  0.00    -0.237 OA
ATOM     90  O   UNL     1     -11.301   4.795  -4.812  1.00  0.00    -0.744 OA
ENDBRANCH  83  87
ENDBRANCH  56  80
BRANCH  68  91
ATOM     91  C   UNL     1      -4.760   7.366 -12.134  1.00  0.00     0.023 A 
ATOM     92  C   UNL     1      -5.039   8.725 -11.917  1.00  0.00     0.031 A 
ATOM     93  C   UNL     1      -5.208   6.775 -13.328  1.00  0.00     0.131 A 
ATOM     94  C   UNL     1      -5.783   9.442 -12.865  1.00  0.00     0.055 A 
ATOM     95  C   UNL     1      -5.902   7.506 -14.291  1.00  0.00     0.041 A 
ATOM     96  F   UNL     1      -4.967   5.478 -13.581  1.00  0.00    -0.206 F 
ATOM     97  C   UNL     1      -6.201   8.846 -14.058  1.00  0.00     0.022 A 
BRANCH  94  98
ATOM     98  S   UNL     1      -6.252  11.153 -12.490  1.00  0.00     0.124 S 
ATOM     99  O   UNL     1      -7.080  10.986 -11.300  1.00  0.00    -0.237 OA
ATOM    100  O   UNL     1      -4.958  11.795 -12.281  1.00  0.00    -0.237 OA
ATOM    101  O   UNL     1      -6.968  11.582 -13.689  1.00  0.00    -0.744 OA
ENDBRANCH  94  98
ENDBRANCH  68  91
ENDBRANCH  42  43
ENDBRANCH  34  37
ENDBRANCH  32  33
ENDBRANCH  31  32
ENDBRANCH   1  31
TORSDOF 19
