REMARK SMILES Cc1cc(Nc2ccc(C(=O)NCCCCNC(=O)c3ccc(-c4c5nc(c(-c6cc(S(=O)(=O)[O-])ccc6F)c6ccc([nH]6)c(-c6cc(S(=O)(=O)[O-])ccc6F)c6nc(c(-c7cc(S(=O)(=O)[O-])ccc7F)c7ccc4[nH]7)C=C6)C=C5)cc3)cc2)nc(C(C)C)n1
REMARK SMILES IDX 14 1 13 2 12 3 10 4 11 5 9 7 6 8 7 9 84 10 8 11 83 12 5 13
REMARK SMILES IDX 4 15 1 16 2 17 3 18 90 19 86 20 85 21 87 22 88 23 89 24
REMARK SMILES IDX 15 25 16 26 17 27 18 28 19 30 20 31 21 32 82 33 22 34 81 35
REMARK SMILES IDX 23 36 24 37 25 38 75 39 26 40 80 41 74 42 76 43 27 44 79 45
REMARK SMILES IDX 73 46 72 47 28 49 60 50 40 51 59 52 41 53 44 54 58 55 77 56
REMARK SMILES IDX 42 57 43 58 57 60 78 61 45 62 29 63 30 64 38 65 31 66 37 67
REMARK SMILES IDX 39 68 36 69 32 70 33 71 34 72 35 73 61 74 62 75 70 76 63 77
REMARK SMILES IDX 69 78 71 79 68 80 64 81 65 82 66 83 67 84 46 85 47 86 55 87
REMARK SMILES IDX 48 88 54 89 56 90 53 91 49 92 50 93 51 94 52 95
REMARK H PARENT 12 6 5 14 17 29 76 48 44 59
REMARK Flexibility Score: inf
ROOT
ATOM      1  C   UNL     1       7.824  -1.032   3.444  1.00  0.00     0.023 C 
ENDROOT
BRANCH   1   2
ATOM      2  C   UNL     1       7.775  -0.499   2.010  1.00  0.00     0.116 C 
BRANCH   2   3
ATOM      3  N   UNL     1       8.202  -1.522   1.072  1.00  0.00    -0.352 N 
ATOM      4  C   UNL     1       7.497  -2.385   0.272  1.00  0.00     0.251 C 
ATOM      5  O   UNL     1       8.133  -3.145  -0.459  1.00  0.00    -0.269 OA
ATOM      6  H   UNL     1       9.179  -1.612   0.996  1.00  0.00     0.163 HD
BRANCH   4   7
ATOM      7  C   UNL     1       6.009  -2.403   0.204  1.00  0.00     0.039 A 
ATOM      8  C   UNL     1       3.212  -2.335  -0.155  1.00  0.00     0.040 A 
ATOM      9  C   UNL     1       4.042  -2.769  -1.188  1.00  0.00     0.027 A 
ATOM     10  C   UNL     1       3.780  -2.050   1.090  1.00  0.00     0.027 A 
ATOM     11  C   UNL     1       5.430  -2.780  -1.018  1.00  0.00     0.016 A 
ATOM     12  C   UNL     1       5.165  -2.103   1.274  1.00  0.00     0.016 A 
BRANCH   8  13
ATOM     13  N   UNL     1       1.820  -2.294  -0.336  1.00  0.00    -0.340 N 
ATOM     14  H   UNL     1       1.369  -3.128  -0.599  1.00  0.00     0.168 HD
BRANCH  13  15
ATOM     15  C   UNL     1       1.024  -1.146  -0.168  1.00  0.00     0.134 A 
ATOM     16  C   UNL     1      -2.585  -0.141  -0.006  1.00  0.00     0.067 C 
ATOM     17  C   UNL     1      -1.088  -0.108  -0.043  1.00  0.00     0.043 A 
ATOM     18  C   UNL     1      -0.351  -1.270  -0.162  1.00  0.00     0.070 A 
ATOM     19  N   UNL     1      -0.512   1.108   0.019  1.00  0.00    -0.238 NA
ATOM     20  C   UNL     1       0.832   1.146  -0.025  1.00  0.00     0.133 A 
ATOM     21  N   UNL     1       1.615   0.060  -0.104  1.00  0.00    -0.216 NA
BRANCH  20  22
ATOM     22  C   UNL     1       1.520   2.493  -0.047  1.00  0.00     0.051 C 
ATOM     23  C   UNL     1       1.169   3.255  -1.325  1.00  0.00     0.016 C 
ATOM     24  C   UNL     1       1.179   3.312   1.196  1.00  0.00     0.016 C 
ENDBRANCH  20  22
ENDBRANCH  13  15
ENDBRANCH   8  13
ENDBRANCH   4   7
ENDBRANCH   2   3
ENDBRANCH   1   2
BRANCH   1  25
ATOM     25  C   UNL     1       9.234  -1.097   4.040  1.00  0.00     0.023 C 
BRANCH  25  26
ATOM     26  C   UNL     1       9.911   0.255   4.237  1.00  0.00     0.116 C 
BRANCH  26  27
ATOM     27  N   UNL     1       9.164   1.145   5.112  1.00  0.00    -0.352 N 
ATOM     28  C   UNL     1       9.645   2.089   5.989  1.00  0.00     0.251 C 
ATOM     29  H   UNL     1       8.184   1.060   5.071  1.00  0.00     0.163 HD
ATOM     30  O   UNL     1       8.876   2.672   6.741  1.00  0.00    -0.269 OA
BRANCH  28  31
ATOM     31  C   UNL     1      11.100   2.353   6.042  1.00  0.00     0.039 A 
ATOM     32  C   UNL     1      11.734   2.367   7.287  1.00  0.00     0.014 A 
ATOM     33  C   UNL     1      11.836   2.556   4.872  1.00  0.00     0.014 A 
ATOM     34  C   UNL     1      13.121   2.516   7.353  1.00  0.00     0.010 A 
ATOM     35  C   UNL     1      13.224   2.639   4.936  1.00  0.00     0.010 A 
ATOM     36  C   UNL     1      13.881   2.616   6.176  1.00  0.00    -0.014 A 
BRANCH  36  37
ATOM     37  C   UNL     1      15.363   2.695   6.222  1.00  0.00     0.031 A 
ATOM     38  C   UNL     1      16.065   3.935   5.743  1.00  0.00     0.074 A 
ATOM     39  C   UNL     1      16.075   1.625   6.630  1.00  0.00     0.049 A 
ATOM     40  N   UNL     1      17.347   4.166   5.619  1.00  0.00    -0.248 NA
ATOM     41  C   UNL     1      15.208   5.051   5.318  1.00  0.00     0.031 C 
ATOM     42  C   UNL     1      15.505   0.351   7.075  1.00  0.00     0.029 A 
ATOM     43  N   UNL     1      17.430   1.432   6.724  1.00  0.00    -0.354 N 
ATOM     44  C   UNL     1      17.451   5.450   5.095  1.00  0.00     0.074 A 
ATOM     45  C   UNL     1      16.100   5.918   4.864  1.00  0.00     0.031 C 
ATOM     46  C   UNL     1      16.502  -0.485   7.406  1.00  0.00     0.029 A 
ATOM     47  C   UNL     1      17.780   0.175   7.160  1.00  0.00     0.049 A 
ATOM     48  H   UNL     1      18.090   2.128   6.501  1.00  0.00     0.167 HD
ATOM     49  C   UNL     1      18.568   6.179   4.852  1.00  0.00     0.034 A 
ATOM     50  C   UNL     1      18.994  -0.387   7.327  1.00  0.00     0.034 A 
ATOM     51  C   UNL     1      19.907   5.698   5.092  1.00  0.00     0.049 A 
ATOM     52  C   UNL     1      20.223   0.436   7.036  1.00  0.00     0.074 A 
ATOM     53  C   UNL     1      21.109   6.364   4.919  1.00  0.00     0.029 A 
ATOM     54  N   UNL     1      20.224   4.426   5.553  1.00  0.00    -0.354 N 
ATOM     55  N   UNL     1      20.305   1.666   6.583  1.00  0.00    -0.248 NA
ATOM     56  C   UNL     1      21.522  -0.199   7.293  1.00  0.00     0.031 C 
ATOM     57  C   UNL     1      22.150   5.478   5.218  1.00  0.00     0.029 A 
ATOM     58  C   UNL     1      21.600   4.281   5.648  1.00  0.00     0.049 A 
ATOM     59  H   UNL     1      19.567   3.729   5.779  1.00  0.00     0.167 HD
ATOM     60  C   UNL     1      21.664   1.960   6.528  1.00  0.00     0.074 A 
ATOM     61  C   UNL     1      22.362   0.785   7.009  1.00  0.00     0.031 C 
ATOM     62  C   UNL     1      22.281   3.098   6.120  1.00  0.00     0.034 A 
BRANCH  49  63
ATOM     63  C   UNL     1      18.378   7.564   4.280  1.00  0.00     0.023 A 
ATOM     64  C   UNL     1      17.693   8.565   4.992  1.00  0.00     0.031 A 
ATOM     65  C   UNL     1      18.852   7.880   2.995  1.00  0.00     0.131 A 
ATOM     66  C   UNL     1      17.429   9.802   4.386  1.00  0.00     0.055 A 
ATOM     67  C   UNL     1      18.660   9.143   2.429  1.00  0.00     0.041 A 
ATOM     68  F   UNL     1      19.496   6.962   2.258  1.00  0.00    -0.206 F 
ATOM     69  C   UNL     1      17.930  10.108   3.119  1.00  0.00     0.022 A 
BRANCH  66  70
ATOM     70  S   UNL     1      16.296  10.949   5.217  1.00  0.00     0.124 S 
ATOM     71  O   UNL     1      15.076  10.149   5.300  1.00  0.00    -0.237 OA
ATOM     72  O   UNL     1      16.978  11.207   6.480  1.00  0.00    -0.237 OA
ATOM     73  O   UNL     1      16.226  12.086   4.301  1.00  0.00    -0.744 OA
ENDBRANCH  66  70
ENDBRANCH  49  63
BRANCH  50  74
ATOM     74  C   UNL     1      19.114  -1.803   7.778  1.00  0.00     0.023 A 
ATOM     75  C   UNL     1      19.688  -2.123   9.018  1.00  0.00     0.031 A 
ATOM     76  C   UNL     1      18.691  -2.861   6.954  1.00  0.00     0.131 A 
ATOM     77  C   UNL     1      19.867  -3.467   9.380  1.00  0.00     0.055 A 
ATOM     78  C   UNL     1      18.825  -4.196   7.340  1.00  0.00     0.041 A 
ATOM     79  F   UNL     1      18.128  -2.610   5.761  1.00  0.00    -0.206 F 
ATOM     80  C   UNL     1      19.429  -4.506   8.555  1.00  0.00     0.022 A 
BRANCH  77  81
ATOM     81  S   UNL     1      20.761  -3.842  10.913  1.00  0.00     0.124 S 
ATOM     82  O   UNL     1      22.034  -3.167  10.689  1.00  0.00    -0.237 OA
ATOM     83  O   UNL     1      19.889  -3.250  11.923  1.00  0.00    -0.237 OA
ATOM     84  O   UNL     1      20.821  -5.302  10.924  1.00  0.00    -0.744 OA
ENDBRANCH  77  81
ENDBRANCH  50  74
BRANCH  62  85
ATOM     85  C   UNL     1      23.785   3.135   6.223  1.00  0.00     0.023 A 
ATOM     86  C   UNL     1      24.603   2.326   5.415  1.00  0.00     0.031 A 
ATOM     87  C   UNL     1      24.407   3.984   7.156  1.00  0.00     0.131 A 
ATOM     88  C   UNL     1      25.995   2.344   5.591  1.00  0.00     0.055 A 
ATOM     89  C   UNL     1      25.796   4.039   7.287  1.00  0.00     0.041 A 
ATOM     90  F   UNL     1      23.674   4.776   7.955  1.00  0.00    -0.206 F 
ATOM     91  C   UNL     1      26.597   3.207   6.511  1.00  0.00     0.022 A 
BRANCH  88  92
ATOM     92  S   UNL     1      27.006   1.161   4.660  1.00  0.00     0.124 S 
ATOM     93  O   UNL     1      26.453  -0.118   5.093  1.00  0.00    -0.237 OA
ATOM     94  O   UNL     1      26.734   1.537   3.277  1.00  0.00    -0.237 OA
ATOM     95  O   UNL     1      28.367   1.436   5.120  1.00  0.00    -0.744 OA
ENDBRANCH  88  92
ENDBRANCH  62  85
ENDBRANCH  36  37
ENDBRANCH  28  31
ENDBRANCH  26  27
ENDBRANCH  25  26
ENDBRANCH   1  25
TORSDOF 17
