REMARK SMILES CC[C@H]1CC[C@](Cc2cccc(OC)n2)(C(=O)NCCCCNC(=O)c2ccc(-c3c4nc(c(-c5cc(S(=O)(=O)[O-])ccc5F)c5ccc([nH]5)c(-c5cc(S(=O)(=O)[O-])ccc5F)c5nc(c(-c6cc(S(=O)(=O)[O-])ccc6F)c6ccc3[nH]6)C=C5)C=C4)cc2)C1
REMARK SMILES IDX 20 1 19 2 18 3 16 4 17 5 6 7 3 8 4 9 89 10 5 11 2 12 1 13
REMARK SMILES IDX 7 14 8 15 9 16 15 17 10 18 12 19 11 20 13 21 14 22 21 23
REMARK SMILES IDX 22 24 23 25 24 26 25 28 26 29 27 30 88 31 28 32 87 33 29 34
REMARK SMILES IDX 30 35 31 36 81 37 32 38 86 39 80 40 82 41 33 42 85 43 79 44
REMARK SMILES IDX 78 45 34 47 66 48 46 49 65 50 47 51 50 52 64 53 83 54 48 55
REMARK SMILES IDX 49 56 63 58 84 59 51 60 35 61 36 62 44 63 37 64 43 65 45 66
REMARK SMILES IDX 42 67 38 68 39 69 40 70 41 71 67 72 68 73 76 74 69 75 75 76
REMARK SMILES IDX 77 77 74 78 70 79 71 80 72 81 73 82 52 83 53 84 61 85 54 86
REMARK SMILES IDX 60 87 62 88 59 89 55 90 56 91 57 92 58 93
REMARK H PARENT 18 6 23 27 82 46 50 57
REMARK Flexibility Score: inf
ROOT
ATOM      1  C   UNL     1      -3.666   4.697  -0.649  1.00  0.00     0.023 C 
ENDROOT
BRANCH   1   2
ATOM      2  C   UNL     1      -2.201   4.310  -0.856  1.00  0.00     0.116 C 
BRANCH   2   3
ATOM      3  N   UNL     1      -1.291   5.371  -1.277  1.00  0.00    -0.356 N 
ATOM      4  C   UNL     1       0.084   5.454  -1.245  1.00  0.00     0.226 C 
ATOM      5  O   UNL     1       0.578   6.396  -1.877  1.00  0.00    -0.274 OA
ATOM      6  H   UNL     1      -1.738   6.166  -1.648  1.00  0.00     0.163 HD
BRANCH   4   7
ATOM      7  C   UNL     1       1.008   4.445  -0.481  1.00  0.00     0.055 C 
ATOM      8  C   UNL     1       0.777   2.095   0.277  1.00  0.00    -0.010 C 
ATOM      9  C   UNL     1       0.837   3.014   1.511  1.00  0.00     0.005 C 
ATOM     10  C   UNL     1       0.669   3.021  -0.929  1.00  0.00     0.021 C 
ATOM     11  C   UNL     1       0.730   4.463   1.024  1.00  0.00     0.017 C 
BRANCH   8  12
ATOM     12  C   UNL     1       1.898   1.048   0.207  1.00  0.00     0.000 C 
ATOM     13  C   UNL     1       2.219   0.538  -1.198  1.00  0.00     0.004 C 
ENDBRANCH   8  12
BRANCH   7  14
ATOM     14  C   UNL     1       2.527   4.803  -0.789  1.00  0.00     0.073 C 
BRANCH  14  15
ATOM     15  C   UNL     1       3.679   4.079  -0.086  1.00  0.00     0.045 A 
ATOM     16  C   UNL     1       4.341   3.029  -0.720  1.00  0.00     0.024 A 
ATOM     17  N   UNL     1       4.089   4.514   1.136  1.00  0.00    -0.219 NA
ATOM     18  C   UNL     1       5.271   2.269  -0.011  1.00  0.00     0.007 A 
ATOM     19  C   UNL     1       5.092   3.839   1.759  1.00  0.00     0.213 A 
ATOM     20  C   UNL     1       5.622   2.655   1.270  1.00  0.00     0.068 A 
BRANCH  19  21
ATOM     21  O   UNL     1       5.570   4.439   2.900  1.00  0.00    -0.481 OA
ATOM     22  C   UNL     1       6.939   4.157   3.202  1.00  0.00     0.280 C 
ENDBRANCH  19  21
ENDBRANCH  14  15
ENDBRANCH   7  14
ENDBRANCH   4   7
ENDBRANCH   2   3
ENDBRANCH   1   2
BRANCH   1  23
ATOM     23  C   UNL     1      -4.497   4.976  -1.906  1.00  0.00     0.023 C 
BRANCH  23  24
ATOM     24  C   UNL     1      -4.456   3.929  -3.021  1.00  0.00     0.116 C 
BRANCH  24  25
ATOM     25  N   UNL     1      -5.028   2.637  -2.659  1.00  0.00    -0.352 N 
ATOM     26  C   UNL     1      -6.177   2.008  -3.090  1.00  0.00     0.251 C 
ATOM     27  H   UNL     1      -4.506   2.128  -1.998  1.00  0.00     0.163 HD
ATOM     28  O   UNL     1      -6.502   0.934  -2.579  1.00  0.00    -0.269 OA
BRANCH  26  29
ATOM     29  C   UNL     1      -7.048   2.627  -4.116  1.00  0.00     0.039 A 
ATOM     30  C   UNL     1      -8.430   2.662  -3.904  1.00  0.00     0.014 A 
ATOM     31  C   UNL     1      -6.515   3.191  -5.275  1.00  0.00     0.014 A 
ATOM     32  C   UNL     1      -9.254   3.367  -4.790  1.00  0.00     0.010 A 
ATOM     33  C   UNL     1      -7.320   3.974  -6.100  1.00  0.00     0.010 A 
ATOM     34  C   UNL     1      -8.699   4.086  -5.861  1.00  0.00    -0.014 A 
BRANCH  34  35
ATOM     35  C   UNL     1      -9.532   4.966  -6.730  1.00  0.00     0.031 A 
ATOM     36  C   UNL     1      -9.612   4.710  -8.213  1.00  0.00     0.074 A 
ATOM     37  C   UNL     1     -10.158   6.039  -6.199  1.00  0.00     0.049 A 
ATOM     38  N   UNL     1     -10.191   5.421  -9.147  1.00  0.00    -0.248 NA
ATOM     39  C   UNL     1      -8.925   3.510  -8.715  1.00  0.00     0.031 C 
ATOM     40  C   UNL     1     -10.130   6.421  -4.785  1.00  0.00     0.029 A 
ATOM     41  N   UNL     1     -10.932   7.012  -6.784  1.00  0.00    -0.354 N 
ATOM     42  C   UNL     1      -9.932   4.761 -10.344  1.00  0.00     0.074 A 
ATOM     43  C   UNL     1      -9.084   3.632 -10.024  1.00  0.00     0.031 C 
ATOM     44  C   UNL     1     -10.876   7.524  -4.610  1.00  0.00     0.029 A 
ATOM     45  C   UNL     1     -11.389   7.967  -5.902  1.00  0.00     0.049 A 
ATOM     46  H   UNL     1     -11.142   7.026  -7.746  1.00  0.00     0.167 HD
ATOM     47  C   UNL     1     -10.381   5.050 -11.590  1.00  0.00     0.034 A 
ATOM     48  C   UNL     1     -12.122   9.081  -6.109  1.00  0.00     0.034 A 
ATOM     49  C   UNL     1     -11.236   6.170 -11.896  1.00  0.00     0.049 A 
ATOM     50  C   UNL     1     -12.570   9.405  -7.516  1.00  0.00     0.074 A 
ATOM     51  C   UNL     1     -11.778   6.531 -13.119  1.00  0.00     0.029 A 
ATOM     52  N   UNL     1     -11.675   7.113 -10.976  1.00  0.00    -0.354 N 
ATOM     53  N   UNL     1     -12.348   8.743  -8.628  1.00  0.00    -0.248 NA
ATOM     54  C   UNL     1     -13.377  10.620  -7.693  1.00  0.00     0.031 C 
ATOM     55  C   UNL     1     -12.482   7.726 -12.952  1.00  0.00     0.029 A 
ATOM     56  C   UNL     1     -12.456   8.068 -11.610  1.00  0.00     0.049 A 
ATOM     57  H   UNL     1     -11.462   7.106 -10.015  1.00  0.00     0.167 HD
ATOM     58  C   UNL     1     -13.024   9.441  -9.626  1.00  0.00     0.074 A 
ATOM     59  C   UNL     1     -13.675  10.562  -8.981  1.00  0.00     0.031 C 
ATOM     60  C   UNL     1     -13.104   9.179 -10.955  1.00  0.00     0.034 A 
BRANCH  47  61
ATOM     61  C   UNL     1      -9.948   4.145 -12.718  1.00  0.00     0.023 A 
ATOM     62  C   UNL     1     -10.321   2.790 -12.758  1.00  0.00     0.031 A 
ATOM     63  C   UNL     1      -9.157   4.640 -13.770  1.00  0.00     0.131 A 
ATOM     64  C   UNL     1      -9.853   1.964 -13.791  1.00  0.00     0.055 A 
ATOM     65  C   UNL     1      -8.762   3.832 -14.838  1.00  0.00     0.041 A 
ATOM     66  F   UNL     1      -8.751   5.920 -13.775  1.00  0.00    -0.206 F 
ATOM     67  C   UNL     1      -9.100   2.482 -14.847  1.00  0.00     0.022 A 
BRANCH  64  68
ATOM     68  S   UNL     1     -10.139   0.178 -13.668  1.00  0.00     0.124 S 
ATOM     69  O   UNL     1      -9.448  -0.146 -12.422  1.00  0.00    -0.237 OA
ATOM     70  O   UNL     1     -11.595   0.092 -13.632  1.00  0.00    -0.237 OA
ATOM     71  O   UNL     1      -9.512  -0.354 -14.876  1.00  0.00    -0.744 OA
ENDBRANCH  64  68
ENDBRANCH  47  61
BRANCH  48  72
ATOM     72  C   UNL     1     -12.472   9.995  -4.979  1.00  0.00     0.023 A 
ATOM     73  C   UNL     1     -13.812  10.252  -4.648  1.00  0.00     0.031 A 
ATOM     74  C   UNL     1     -11.477  10.693  -4.271  1.00  0.00     0.131 A 
ATOM     75  C   UNL     1     -14.124  11.234  -3.693  1.00  0.00     0.055 A 
ATOM     76  C   UNL     1     -11.790  11.616  -3.272  1.00  0.00     0.041 A 
ATOM     77  F   UNL     1     -10.178  10.490  -4.545  1.00  0.00    -0.206 F 
ATOM     78  C   UNL     1     -13.122  11.906  -2.992  1.00  0.00     0.022 A 
BRANCH  75  79
ATOM     79  S   UNL     1     -15.860  11.716  -3.482  1.00  0.00     0.124 S 
ATOM     80  O   UNL     1     -16.230  12.091  -4.842  1.00  0.00    -0.237 OA
ATOM     81  O   UNL     1     -16.455  10.486  -2.970  1.00  0.00    -0.237 OA
ATOM     82  O   UNL     1     -15.792  12.820  -2.526  1.00  0.00    -0.744 OA
ENDBRANCH  75  79
ENDBRANCH  48  72
BRANCH  60  83
ATOM     83  C   UNL     1     -13.978  10.086 -11.788  1.00  0.00     0.023 A 
ATOM     84  C   UNL     1     -13.670  11.444 -11.982  1.00  0.00     0.031 A 
ATOM     85  C   UNL     1     -15.144   9.580 -12.391  1.00  0.00     0.131 A 
ATOM     86  C   UNL     1     -14.548  12.262 -12.709  1.00  0.00     0.055 A 
ATOM     87  C   UNL     1     -15.977  10.383 -13.170  1.00  0.00     0.041 A 
ATOM     88  F   UNL     1     -15.489   8.292 -12.238  1.00  0.00    -0.206 F 
ATOM     89  C   UNL     1     -15.689  11.736 -13.321  1.00  0.00     0.022 A 
BRANCH  86  90
ATOM     90  S   UNL     1     -14.231  14.047 -12.763  1.00  0.00     0.124 S 
ATOM     91  O   UNL     1     -14.236  14.399 -11.347  1.00  0.00    -0.237 OA
ATOM     92  O   UNL     1     -12.935  14.114 -13.431  1.00  0.00    -0.237 OA
ATOM     93  O   UNL     1     -15.354  14.572 -13.537  1.00  0.00    -0.744 OA
ENDBRANCH  86  90
ENDBRANCH  60  83
ENDBRANCH  34  35
ENDBRANCH  26  29
ENDBRANCH  24  25
ENDBRANCH  23  24
ENDBRANCH   1  23
TORSDOF 18
