REMARK SMILES Cc1ncn(CC[C@@H]2CCC[C@@]2([NH3+])C(=O)NCCCCNC(=O)c2ccc(-c3c4nc(c(-c5cc(S(=O)(=O)[O-])ccc5F)c5ccc([nH]5)c(-c5cc(S(=O)(=O)[O-])ccc5F)c5nc(c(-c6cc(S(=O)(=O)[O-])ccc6F)c6ccc3[nH]6)C=C5)C=C4)cc2)c1C
REMARK SMILES IDX 18 1 17 2 16 3 14 4 15 5 12 7 8 8 9 9 10 10 11 11 7 12 6 13
REMARK SMILES IDX 5 14 1 15 2 16 3 17 87 18 4 19 88 20 13 21 19 25 20 26 21 27
REMARK SMILES IDX 22 28 23 30 24 31 25 32 86 33 26 34 85 35 27 36 28 37 29 38
REMARK SMILES IDX 79 39 30 40 84 41 78 42 80 43 31 44 83 45 77 46 76 47 32 49
REMARK SMILES IDX 64 50 44 51 63 52 45 53 48 54 62 55 81 56 46 57 47 58 61 60
REMARK SMILES IDX 82 61 49 62 33 63 34 64 42 65 35 66 41 67 43 68 40 69 36 70
REMARK SMILES IDX 37 71 38 72 39 73 65 74 66 75 74 76 67 77 73 78 75 79 72 80
REMARK SMILES IDX 68 81 69 82 70 83 71 84 50 85 51 86 59 87 52 88 58 89 60 90
REMARK SMILES IDX 57 91 53 92 54 93 55 94 56 95
REMARK H PARENT 16 6 13 22 13 23 13 24 21 29 80 48 48 59
REMARK Flexibility Score: inf
ROOT
ATOM      1  C   UNL     1       0.584   5.237  -0.813  1.00  0.00     0.023 C 
ENDROOT
BRANCH   1   2
ATOM      2  C   UNL     1       1.841   6.071  -1.048  1.00  0.00     0.116 C 
BRANCH   2   3
ATOM      3  N   UNL     1       2.223   6.893   0.092  1.00  0.00    -0.351 N 
ATOM      4  C   UNL     1       3.067   6.720   1.145  1.00  0.00     0.281 C 
ATOM      5  O   UNL     1       3.220   7.714   1.874  1.00  0.00    -0.268 OA
ATOM      6  H   UNL     1       1.770   7.767   0.103  1.00  0.00     0.163 HD
BRANCH   4   7
ATOM      7  C   UNL     1       3.823   5.391   1.520  1.00  0.00     0.176 C 
ATOM      8  C   UNL     1       2.915   4.151   1.687  1.00  0.00     0.062 C 
ATOM      9  C   UNL     1       3.914   2.991   1.634  1.00  0.00     0.011 C 
ATOM     10  C   UNL     1       4.838   3.392   0.490  1.00  0.00     0.008 C 
ATOM     11  C   UNL     1       4.855   4.928   0.469  1.00  0.00     0.079 C 
BRANCH   8  12
ATOM     12  C   UNL     1       1.992   4.122   2.917  1.00  0.00     0.032 C 
BRANCH  12  13
ATOM     13  C   UNL     1       0.614   3.470   2.687  1.00  0.00     0.124 C 
BRANCH  13  14
ATOM     14  N   UNL     1       0.601   2.047   2.417  1.00  0.00    -0.335 N 
ATOM     15  C   UNL     1       0.633  -1.123   0.631  1.00  0.00     0.069 C 
ATOM     16  C   UNL     1       0.564   0.043   1.542  1.00  0.00     0.058 A 
ATOM     17  N   UNL     1       0.427  -0.118   2.896  1.00  0.00    -0.242 NA
ATOM     18  C   UNL     1       0.608   1.385   1.208  1.00  0.00     0.037 A 
ATOM     19  C   UNL     1       0.422   1.098   3.389  1.00  0.00     0.199 A 
ATOM     20  C   UNL     1       0.650   1.995  -0.138  1.00  0.00     0.066 C 
ENDBRANCH  13  14
ENDBRANCH  12  13
ENDBRANCH   8  12
BRANCH   7  21
ATOM     21  N   UNL     1       4.537   5.618   2.820  1.00  0.00    -0.345 N 
ATOM     22  H   UNL     1       5.037   4.770   3.086  1.00  0.00     0.345 HD
ATOM     23  H   UNL     1       3.858   5.854   3.544  1.00  0.00     0.345 HD
ATOM     24  H   UNL     1       5.202   6.385   2.714  1.00  0.00     0.345 HD
ENDBRANCH   7  21
ENDBRANCH   4   7
ENDBRANCH   2   3
ENDBRANCH   1   2
BRANCH   1  25
ATOM     25  C   UNL     1      -0.791   5.902  -0.872  1.00  0.00     0.023 C 
BRANCH  25  26
ATOM     26  C   UNL     1      -1.420   5.925  -2.259  1.00  0.00     0.116 C 
BRANCH  26  27
ATOM     27  N   UNL     1      -1.610   4.589  -2.841  1.00  0.00    -0.352 N 
ATOM     28  C   UNL     1      -1.643   4.255  -4.184  1.00  0.00     0.251 C 
ATOM     29  H   UNL     1      -1.726   3.848  -2.203  1.00  0.00     0.163 HD
ATOM     30  O   UNL     1      -2.073   3.175  -4.572  1.00  0.00    -0.269 OA
BRANCH  28  31
ATOM     31  C   UNL     1      -1.140   5.265  -5.126  1.00  0.00     0.039 A 
ATOM     32  C   UNL     1      -2.019   5.933  -5.980  1.00  0.00     0.014 A 
ATOM     33  C   UNL     1       0.150   5.731  -4.894  1.00  0.00     0.014 A 
ATOM     34  C   UNL     1      -1.641   7.175  -6.489  1.00  0.00     0.010 A 
ATOM     35  C   UNL     1       0.459   7.013  -5.297  1.00  0.00     0.010 A 
ATOM     36  C   UNL     1      -0.424   7.756  -6.092  1.00  0.00    -0.014 A 
BRANCH  36  37
ATOM     37  C   UNL     1      -0.155   9.177  -6.373  1.00  0.00     0.031 A 
ATOM     38  C   UNL     1      -1.273  10.159  -6.172  1.00  0.00     0.074 A 
ATOM     39  C   UNL     1       1.078   9.694  -6.569  1.00  0.00     0.049 A 
ATOM     40  N   UNL     1      -1.842  10.903  -7.065  1.00  0.00    -0.248 NA
ATOM     41  C   UNL     1      -1.855  10.314  -4.831  1.00  0.00     0.031 C 
ATOM     42  C   UNL     1       2.377   9.016  -6.532  1.00  0.00     0.029 A 
ATOM     43  N   UNL     1       1.429  11.004  -6.712  1.00  0.00    -0.354 N 
ATOM     44  C   UNL     1      -2.711  11.763  -6.391  1.00  0.00     0.074 A 
ATOM     45  C   UNL     1      -2.773  11.263  -5.040  1.00  0.00     0.031 C 
ATOM     46  C   UNL     1       3.359   9.927  -6.368  1.00  0.00     0.029 A 
ATOM     47  C   UNL     1       2.779  11.248  -6.511  1.00  0.00     0.049 A 
ATOM     48  H   UNL     1       0.783  11.712  -6.938  1.00  0.00     0.167 HD
ATOM     49  C   UNL     1      -3.175  12.915  -6.962  1.00  0.00     0.034 A 
ATOM     50  C   UNL     1       3.408  12.445  -6.478  1.00  0.00     0.034 A 
ATOM     51  C   UNL     1      -2.934  12.930  -8.386  1.00  0.00     0.049 A 
ATOM     52  C   UNL     1       2.587  13.383  -7.277  1.00  0.00     0.074 A 
ATOM     53  C   UNL     1      -3.255  12.091  -9.438  1.00  0.00     0.029 A 
ATOM     54  N   UNL     1      -1.939  13.745  -8.878  1.00  0.00    -0.354 N 
ATOM     55  N   UNL     1       2.374  13.228  -8.556  1.00  0.00    -0.248 NA
ATOM     56  C   UNL     1       1.634  14.241  -6.593  1.00  0.00     0.031 C 
ATOM     57  C   UNL     1      -2.079  12.067 -10.248  1.00  0.00     0.029 A 
ATOM     58  C   UNL     1      -1.157  12.947  -9.676  1.00  0.00     0.049 A 
ATOM     59  H   UNL     1      -1.814  14.704  -8.695  1.00  0.00     0.167 HD
ATOM     60  C   UNL     1       1.050  13.585  -8.745  1.00  0.00     0.074 A 
ATOM     61  C   UNL     1       0.686  14.317  -7.533  1.00  0.00     0.031 C 
ATOM     62  C   UNL     1       0.289  13.021  -9.731  1.00  0.00     0.034 A 
BRANCH  49  63
ATOM     63  C   UNL     1      -3.591  14.181  -6.235  1.00  0.00     0.023 A 
ATOM     64  C   UNL     1      -4.103  15.247  -7.008  1.00  0.00     0.031 A 
ATOM     65  C   UNL     1      -3.256  14.502  -4.903  1.00  0.00     0.131 A 
ATOM     66  C   UNL     1      -4.172  16.556  -6.496  1.00  0.00     0.055 A 
ATOM     67  C   UNL     1      -3.397  15.792  -4.373  1.00  0.00     0.041 A 
ATOM     68  F   UNL     1      -2.686  13.619  -4.074  1.00  0.00    -0.206 F 
ATOM     69  C   UNL     1      -3.826  16.835  -5.178  1.00  0.00     0.022 A 
BRANCH  66  70
ATOM     70  S   UNL     1      -4.523  17.920  -7.642  1.00  0.00     0.124 S 
ATOM     71  O   UNL     1      -3.574  17.655  -8.718  1.00  0.00    -0.237 OA
ATOM     72  O   UNL     1      -5.931  17.695  -7.953  1.00  0.00    -0.237 OA
ATOM     73  O   UNL     1      -4.243  19.112  -6.845  1.00  0.00    -0.744 OA
ENDBRANCH  66  70
ENDBRANCH  49  63
BRANCH  50  74
ATOM     74  C   UNL     1       4.525  12.821  -5.582  1.00  0.00     0.023 A 
ATOM     75  C   UNL     1       5.393  13.889  -5.865  1.00  0.00     0.031 A 
ATOM     76  C   UNL     1       4.620  12.241  -4.295  1.00  0.00     0.131 A 
ATOM     77  C   UNL     1       6.310  14.331  -4.886  1.00  0.00     0.055 A 
ATOM     78  C   UNL     1       5.534  12.675  -3.335  1.00  0.00     0.041 A 
ATOM     79  F   UNL     1       3.767  11.280  -3.901  1.00  0.00    -0.206 F 
ATOM     80  C   UNL     1       6.381  13.732  -3.626  1.00  0.00     0.022 A 
BRANCH  77  81
ATOM     81  S   UNL     1       7.354  15.785  -5.213  1.00  0.00     0.124 S 
ATOM     82  O   UNL     1       8.353  15.245  -6.127  1.00  0.00    -0.237 OA
ATOM     83  O   UNL     1       6.402  16.735  -5.778  1.00  0.00    -0.237 OA
ATOM     84  O   UNL     1       7.859  16.142  -3.887  1.00  0.00    -0.744 OA
ENDBRANCH  77  81
ENDBRANCH  50  74
BRANCH  62  85
ATOM     85  C   UNL     1       0.969  12.191 -10.803  1.00  0.00     0.023 A 
ATOM     86  C   UNL     1       1.766  11.053 -10.548  1.00  0.00     0.031 A 
ATOM     87  C   UNL     1       0.663  12.481 -12.145  1.00  0.00     0.131 A 
ATOM     88  C   UNL     1       2.232  10.260 -11.614  1.00  0.00     0.055 A 
ATOM     89  C   UNL     1       1.111  11.684 -13.199  1.00  0.00     0.041 A 
ATOM     90  F   UNL     1      -0.121  13.528 -12.455  1.00  0.00    -0.206 F 
ATOM     91  C   UNL     1       1.903  10.572 -12.937  1.00  0.00     0.022 A 
BRANCH  88  92
ATOM     92  S   UNL     1       3.281   8.805 -11.296  1.00  0.00     0.124 S 
ATOM     93  O   UNL     1       4.287   9.302 -10.364  1.00  0.00    -0.237 OA
ATOM     94  O   UNL     1       2.329   7.840 -10.753  1.00  0.00    -0.237 OA
ATOM     95  O   UNL     1       3.799   8.464 -12.623  1.00  0.00    -0.744 OA
ENDBRANCH  88  92
ENDBRANCH  62  85
ENDBRANCH  36  37
ENDBRANCH  28  31
ENDBRANCH  26  27
ENDBRANCH  25  26
ENDBRANCH   1  25
TORSDOF 18
