REMARK SMILES COC[C@H](C)CNC(=O)N[C@@H]1CCCCC[C@@H]1C(=O)NCCCCNC(=O)c1ccc(-c2c3nc(c(-c4cc(S(=O)(=O)[O-])ccc4F)c4ccc([nH]4)c(-c4cc(S(=O)(=O)[O-])ccc4F)c4nc(c(-c5cc(S(=O)(=O)[O-])ccc5F)c5ccc2[nH]5)C=C4)C=C3)cc1
REMARK SMILES IDX 21 1 20 2 18 3 19 4 17 6 11 7 10 8 7 9 8 10 9 12 6 14 4 15
REMARK SMILES IDX 5 16 3 17 2 18 1 19 12 20 13 21 14 22 16 24 15 25 22 27
REMARK SMILES IDX 23 28 24 29 25 30 26 31 27 33 28 34 29 35 90 36 30 37 89 38
REMARK SMILES IDX 31 39 32 40 33 41 83 42 34 43 88 44 82 45 84 46 35 47 87 48
REMARK SMILES IDX 81 49 80 50 36 52 68 53 48 54 67 55 49 56 52 57 66 58 85 59
REMARK SMILES IDX 50 60 51 61 65 63 86 64 53 65 37 66 38 67 46 68 39 69 45 70
REMARK SMILES IDX 47 71 44 72 40 73 41 74 42 75 43 76 69 77 70 78 78 79 71 80
REMARK SMILES IDX 77 81 79 82 76 83 72 84 73 85 74 86 75 87 54 88 55 89 63 90
REMARK SMILES IDX 56 91 62 92 64 93 61 94 57 95 58 96 59 97 60 98
REMARK H PARENT 20 5 7 11 10 13 25 32 84 51 52 62
REMARK Flexibility Score: 100.00
ROOT
ATOM      1  C   UNL     1       0.537   2.953   9.214  1.00  0.00     0.116 C 
ENDROOT
BRANCH   1   2
ATOM      2  N   UNL     1       1.353   3.105   8.027  1.00  0.00    -0.356 N 
ATOM      3  C   UNL     1       1.816   2.195   7.131  1.00  0.00     0.225 C 
ATOM      4  O   UNL     1       2.670   2.584   6.326  1.00  0.00    -0.275 OA
ATOM      5  H   UNL     1       1.619   4.033   7.835  1.00  0.00     0.163 HD
BRANCH   3   6
ATOM      6  C   UNL     1       1.309   0.747   7.060  1.00  0.00     0.101 C 
BRANCH   6   7
ATOM      7  C   UNL     1      -0.020   0.564   6.271  1.00  0.00     0.096 C 
BRANCH   7   8
ATOM      8  N   UNL     1      -0.804   1.782   6.100  1.00  0.00    -0.335 N 
ATOM      9  N   UNL     1       0.184   2.955   4.293  1.00  0.00    -0.338 N 
ATOM     10  C   UNL     1      -0.702   2.845   5.288  1.00  0.00     0.315 C 
ATOM     11  H   UNL     1       0.194   3.860   3.903  1.00  0.00     0.165 HD
ATOM     12  O   UNL     1      -1.479   3.783   5.483  1.00  0.00    -0.249 OA
ATOM     13  H   UNL     1      -1.574   1.836   6.711  1.00  0.00     0.165 HD
BRANCH   9  14
ATOM     14  C   UNL     1       1.140   2.064   3.641  1.00  0.00     0.123 C 
BRANCH  14  15
ATOM     15  C   UNL     1       0.500   1.403   2.404  1.00  0.00     0.031 C 
ATOM     16  C   UNL     1       0.615   2.361   1.212  1.00  0.00     0.012 C 
BRANCH  15  17
ATOM     17  C   UNL     1       1.076  -0.005   2.140  1.00  0.00     0.164 C 
BRANCH  17  18
ATOM     18  O   UNL     1       1.946  -0.050   1.012  1.00  0.00    -0.384 OA
ATOM     19  C   UNL     1       1.315  -0.578  -0.150  1.00  0.00     0.194 C 
ENDBRANCH  17  18
ENDBRANCH  15  17
ENDBRANCH  14  15
ENDBRANCH   9  14
ENDBRANCH   7   8
BRANCH   7  20
ATOM     20  C   UNL     1      -0.946  -0.551   6.788  1.00  0.00     0.026 C 
BRANCH  20  21
ATOM     21  C   UNL     1      -0.311  -1.941   6.735  1.00  0.00     0.002 C 
BRANCH  21  22
ATOM     22  C   UNL     1       0.441  -2.315   8.005  1.00  0.00     0.000 CG0
ATOM     23  G   UNL     1       1.696  -1.496   8.264  1.00  0.00     0.000 G0
ENDBRANCH  21  22
ENDBRANCH  20  21
ENDBRANCH   7  20
ENDBRANCH   6   7
BRANCH   6  24
ATOM     24  C   UNL     1       1.454   0.005   8.398  1.00  0.00     0.015 C 
BRANCH  24  25
ATOM     25  C   UNL     1       1.696  -1.496   8.264  1.00  0.00     0.001 CG0
ATOM     26  G   UNL     1       0.441  -2.315   8.005  1.00  0.00     0.000 G0
ENDBRANCH  24  25
ENDBRANCH   6  24
ENDBRANCH   3   6
ENDBRANCH   1   2
BRANCH   1  27
ATOM     27  C   UNL     1       1.410   2.737  10.454  1.00  0.00     0.023 C 
BRANCH  27  28
ATOM     28  C   UNL     1       2.248   3.953  10.857  1.00  0.00     0.023 C 
BRANCH  28  29
ATOM     29  C   UNL     1       1.441   5.137  11.370  1.00  0.00     0.116 C 
BRANCH  29  30
ATOM     30  N   UNL     1       0.670   4.807  12.560  1.00  0.00    -0.352 N 
ATOM     31  C   UNL     1       0.589   5.479  13.760  1.00  0.00     0.251 C 
ATOM     32  H   UNL     1       0.129   3.986  12.499  1.00  0.00     0.163 HD
ATOM     33  O   UNL     1       0.022   4.966  14.710  1.00  0.00    -0.269 OA
BRANCH  31  34
ATOM     34  C   UNL     1       1.226   6.808  13.883  1.00  0.00     0.039 A 
ATOM     35  C   UNL     1       2.030   7.073  14.995  1.00  0.00     0.014 A 
ATOM     36  C   UNL     1       1.062   7.769  12.883  1.00  0.00     0.014 A 
ATOM     37  C   UNL     1       2.734   8.276  15.062  1.00  0.00     0.010 A 
ATOM     38  C   UNL     1       1.826   8.930  12.912  1.00  0.00     0.010 A 
ATOM     39  C   UNL     1       2.673   9.194  14.000  1.00  0.00    -0.014 A 
BRANCH  39  40
ATOM     40  C   UNL     1       3.491  10.433  13.998  1.00  0.00     0.031 A 
ATOM     41  C   UNL     1       2.817  11.776  14.001  1.00  0.00     0.074 A 
ATOM     42  C   UNL     1       4.832  10.345  13.912  1.00  0.00     0.049 A 
ATOM     43  N   UNL     1       3.345  12.969  13.907  1.00  0.00    -0.248 NA
ATOM     44  C   UNL     1       1.349  11.772  14.084  1.00  0.00     0.031 C 
ATOM     45  C   UNL     1       5.596   9.095  13.855  1.00  0.00     0.029 A 
ATOM     46  N   UNL     1       5.793  11.322  13.845  1.00  0.00    -0.354 N 
ATOM     47  C   UNL     1       2.275  13.857  13.906  1.00  0.00     0.074 A 
ATOM     48  C   UNL     1       1.069  13.057  13.936  1.00  0.00     0.031 C 
ATOM     49  C   UNL     1       6.905   9.383  13.790  1.00  0.00     0.029 A 
ATOM     50  C   UNL     1       7.075  10.832  13.751  1.00  0.00     0.049 A 
ATOM     51  H   UNL     1       5.584  12.284  13.863  1.00  0.00     0.167 HD
ATOM     52  C   UNL     1       2.297  15.213  13.907  1.00  0.00     0.034 A 
ATOM     53  C   UNL     1       8.252  11.477  13.634  1.00  0.00     0.034 A 
ATOM     54  C   UNL     1       3.512  15.991  13.883  1.00  0.00     0.049 A 
ATOM     55  C   UNL     1       8.254  12.983  13.600  1.00  0.00     0.074 A 
ATOM     56  C   UNL     1       3.659  17.366  13.945  1.00  0.00     0.029 A 
ATOM     57  N   UNL     1       4.793  15.461  13.777  1.00  0.00    -0.354 N 
ATOM     58  N   UNL     1       7.236  13.812  13.656  1.00  0.00    -0.248 NA
ATOM     59  C   UNL     1       9.562  13.640  13.491  1.00  0.00     0.031 C 
ATOM     60  C   UNL     1       5.019  17.669  13.807  1.00  0.00     0.029 A 
ATOM     61  C   UNL     1       5.731  16.482  13.734  1.00  0.00     0.049 A 
ATOM     62  H   UNL     1       5.004  14.500  13.738  1.00  0.00     0.167 HD
ATOM     63  C   UNL     1       7.786  15.090  13.614  1.00  0.00     0.074 A 
ATOM     64  C   UNL     1       9.224  14.920  13.542  1.00  0.00     0.031 C 
ATOM     65  C   UNL     1       7.161  16.295  13.639  1.00  0.00     0.034 A 
BRANCH  52  66
ATOM     66  C   UNL     1       0.964  15.925  13.906  1.00  0.00     0.023 A 
ATOM     67  C   UNL     1       0.041  15.760  14.955  1.00  0.00     0.031 A 
ATOM     68  C   UNL     1       0.584  16.734  12.822  1.00  0.00     0.131 A 
ATOM     69  C   UNL     1      -1.246  16.310  14.852  1.00  0.00     0.055 A 
ATOM     70  C   UNL     1      -0.666  17.355  12.768  1.00  0.00     0.041 A 
ATOM     71  F   UNL     1       1.412  16.916  11.781  1.00  0.00    -0.206 F 
ATOM     72  C   UNL     1      -1.597  17.128  13.777  1.00  0.00     0.022 A 
BRANCH  69  73
ATOM     73  S   UNL     1      -2.503  15.797  16.055  1.00  0.00     0.124 S 
ATOM     74  O   UNL     1      -2.505  14.347  15.880  1.00  0.00    -0.237 OA
ATOM     75  O   UNL     1      -1.954  16.288  17.314  1.00  0.00    -0.237 OA
ATOM     76  O   UNL     1      -3.714  16.474  15.595  1.00  0.00    -0.744 OA
ENDBRANCH  69  73
ENDBRANCH  52  66
BRANCH  53  77
ATOM     77  C   UNL     1       9.524  10.708  13.534  1.00  0.00     0.023 A 
ATOM     78  C   UNL     1      10.484  10.769  14.557  1.00  0.00     0.031 A 
ATOM     79  C   UNL     1       9.807   9.917  12.407  1.00  0.00     0.131 A 
ATOM     80  C   UNL     1      11.698  10.079  14.417  1.00  0.00     0.055 A 
ATOM     81  C   UNL     1      10.997   9.195  12.294  1.00  0.00     0.041 A 
ATOM     82  F   UNL     1       8.919   9.819  11.405  1.00  0.00    -0.206 F 
ATOM     83  C   UNL     1      11.956   9.283  13.299  1.00  0.00     0.022 A 
BRANCH  80  84
ATOM     84  S   UNL     1      12.966  10.286  15.697  1.00  0.00     0.124 S 
ATOM     85  O   UNL     1      13.207  11.724  15.648  1.00  0.00    -0.237 OA
ATOM     86  O   UNL     1      12.282   9.790  16.886  1.00  0.00    -0.237 OA
ATOM     87  O   UNL     1      14.068   9.452  15.222  1.00  0.00    -0.744 OA
ENDBRANCH  80  84
ENDBRANCH  53  77
BRANCH  65  88
ATOM     88  C   UNL     1       8.041  17.520  13.620  1.00  0.00     0.023 A 
ATOM     89  C   UNL     1       8.802  17.866  12.489  1.00  0.00     0.031 A 
ATOM     90  C   UNL     1       8.125  18.348  14.754  1.00  0.00     0.131 A 
ATOM     91  C   UNL     1       9.653  18.980  12.535  1.00  0.00     0.055 A 
ATOM     92  C   UNL     1       8.930  19.488  14.772  1.00  0.00     0.041 A 
ATOM     93  F   UNL     1       7.423  18.063  15.861  1.00  0.00    -0.206 F 
ATOM     94  C   UNL     1       9.709  19.803  13.663  1.00  0.00     0.022 A 
BRANCH  91  95
ATOM     95  S   UNL     1      10.754  19.294  11.127  1.00  0.00     0.124 S 
ATOM     96  O   UNL     1      11.546  18.069  11.083  1.00  0.00    -0.237 OA
ATOM     97  O   UNL     1       9.812  19.484  10.030  1.00  0.00    -0.237 OA
ATOM     98  O   UNL     1      11.488  20.493  11.527  1.00  0.00    -0.744 OA
ENDBRANCH  91  95
ENDBRANCH  65  88
ENDBRANCH  39  40
ENDBRANCH  31  34
ENDBRANCH  29  30
ENDBRANCH  28  29
ENDBRANCH  27  28
ENDBRANCH   1  27
TORSDOF 19
