REMARK SMILES CC(C)c1cc(N2CCC(C(=O)NCCCCNC(=O)c3ccc(-c4c5nc(c(-c6cc(S(=O)(=O)[O-])ccc6F)c6ccc([nH]6)c(-c6cc(S(=O)(=O)[O-])ccc6F)c6nc(c(-c7cc(S(=O)(=O)[O-])ccc7F)c7ccc4[nH]7)C=C6)C=C5)cc3)CC2)nc(-c2ccc(F)cc2)n1
REMARK SMILES IDX 16 1 15 2 14 3 13 4 11 5 12 6 10 8 7 9 8 10 85 11 9 12 84 13
REMARK SMILES IDX 6 14 4 15 5 16 95 17 87 18 86 19 2 20 1 21 3 22 88 23 89 24
REMARK SMILES IDX 94 25 90 26 93 27 91 28 92 29 17 30 18 31 19 32 20 34 21 35
REMARK SMILES IDX 22 36 83 37 23 38 82 39 24 40 25 41 26 42 76 43 27 44 81 45
REMARK SMILES IDX 75 46 77 47 28 48 80 49 74 50 73 51 29 53 61 54 41 55 60 56
REMARK SMILES IDX 42 57 45 58 59 59 78 60 43 61 44 62 58 64 79 65 46 66 30 67
REMARK SMILES IDX 31 68 39 69 32 70 38 71 40 72 37 73 33 74 34 75 35 76 36 77
REMARK SMILES IDX 62 78 63 79 71 80 64 81 70 82 72 83 69 84 65 85 66 86 67 87
REMARK SMILES IDX 68 88 47 89 48 90 56 91 49 92 55 93 57 94 54 95 50 96 51 97
REMARK SMILES IDX 52 98 53 99
REMARK H PARENT 13 7 18 33 77 52 45 63
REMARK Flexibility Score: inf
ROOT
ATOM      1  C   UNL     1      -9.700  -0.808   1.778  1.00  0.00     0.023 C 
ENDROOT
BRANCH   1   2
ATOM      2  C   UNL     1      -8.195  -0.954   1.560  1.00  0.00     0.023 C 
BRANCH   2   3
ATOM      3  C   UNL     1      -7.519  -2.038   2.398  1.00  0.00     0.116 C 
BRANCH   3   4
ATOM      4  N   UNL     1      -7.955  -3.380   2.035  1.00  0.00    -0.356 N 
ATOM      5  C   UNL     1      -7.258  -4.428   1.508  1.00  0.00     0.223 C 
ATOM      6  O   UNL     1      -7.856  -5.489   1.315  1.00  0.00    -0.275 OA
ATOM      7  H   UNL     1      -8.909  -3.561   2.197  1.00  0.00     0.163 HD
BRANCH   5   8
ATOM      8  C   UNL     1      -5.777  -4.312   1.165  1.00  0.00     0.082 C 
ATOM      9  N   UNL     1      -3.706  -2.417   1.309  1.00  0.00    -0.356 N 
ATOM     10  C   UNL     1      -4.164  -2.724  -0.034  1.00  0.00     0.119 C 
ATOM     11  C   UNL     1      -3.557  -3.538   2.212  1.00  0.00     0.119 C 
ATOM     12  C   UNL     1      -5.573  -3.279   0.044  1.00  0.00     0.035 C 
ATOM     13  C   UNL     1      -4.935  -4.149   2.447  1.00  0.00     0.035 C 
BRANCH   9  14
ATOM     14  C   UNL     1      -2.973  -1.262   1.452  1.00  0.00     0.132 A 
ATOM     15  C   UNL     1      -0.933  -0.073   1.540  1.00  0.00     0.049 A 
ATOM     16  C   UNL     1      -1.594  -1.288   1.526  1.00  0.00     0.071 A 
ATOM     17  N   UNL     1      -1.598   1.096   1.499  1.00  0.00    -0.233 NA
ATOM     18  C   UNL     1      -2.940   1.028   1.490  1.00  0.00     0.161 A 
ATOM     19  N   UNL     1      -3.656  -0.106   1.447  1.00  0.00    -0.211 NA
BRANCH  15  20
ATOM     20  C   UNL     1       0.581  -0.030   1.513  1.00  0.00     0.032 C 
ATOM     21  C   UNL     1       1.078  -0.059   0.067  1.00  0.00     0.014 C 
ATOM     22  C   UNL     1       1.141   1.192   2.247  1.00  0.00     0.014 C 
ENDBRANCH  15  20
BRANCH  18  23
ATOM     23  C   UNL     1      -3.670   2.297   1.552  1.00  0.00     0.019 A 
ATOM     24  C   UNL     1      -3.395   3.334   0.640  1.00  0.00     0.015 A 
ATOM     25  C   UNL     1      -4.642   2.527   2.546  1.00  0.00     0.015 A 
ATOM     26  C   UNL     1      -4.065   4.557   0.720  1.00  0.00     0.040 A 
ATOM     27  C   UNL     1      -5.301   3.756   2.637  1.00  0.00     0.040 A 
ATOM     28  C   UNL     1      -5.005   4.759   1.722  1.00  0.00     0.123 A 
ATOM     29  F   UNL     1      -5.628   5.942   1.809  1.00  0.00    -0.207 F 
ENDBRANCH  18  23
ENDBRANCH   9  14
ENDBRANCH   5   8
ENDBRANCH   3   4
ENDBRANCH   2   3
ENDBRANCH   1   2
BRANCH   1  30
ATOM     30  C   UNL     1     -10.135  -0.586   3.221  1.00  0.00     0.116 C 
BRANCH  30  31
ATOM     31  N   UNL     1      -9.507   0.571   3.838  1.00  0.00    -0.352 N 
ATOM     32  C   UNL     1     -10.076   1.555   4.612  1.00  0.00     0.251 C 
ATOM     33  H   UNL     1      -8.540   0.663   3.679  1.00  0.00     0.163 HD
ATOM     34  O   UNL     1      -9.405   2.526   4.955  1.00  0.00    -0.269 OA
BRANCH  32  35
ATOM     35  C   UNL     1     -11.502   1.456   4.991  1.00  0.00     0.039 A 
ATOM     36  C   UNL     1     -12.326   2.572   4.820  1.00  0.00     0.014 A 
ATOM     37  C   UNL     1     -12.034   0.260   5.480  1.00  0.00     0.014 A 
ATOM     38  C   UNL     1     -13.697   2.464   5.066  1.00  0.00     0.010 A 
ATOM     39  C   UNL     1     -13.409   0.134   5.655  1.00  0.00     0.010 A 
ATOM     40  C   UNL     1     -14.256   1.234   5.446  1.00  0.00    -0.014 A 
BRANCH  40  41
ATOM     41  C   UNL     1     -15.723   1.073   5.628  1.00  0.00     0.031 A 
ATOM     42  C   UNL     1     -16.281   0.725   6.981  1.00  0.00     0.074 A 
ATOM     43  C   UNL     1     -16.543   1.165   4.563  1.00  0.00     0.049 A 
ATOM     44  N   UNL     1     -17.514   0.457   7.327  1.00  0.00    -0.248 NA
ATOM     45  C   UNL     1     -15.313   0.635   8.084  1.00  0.00     0.031 C 
ATOM     46  C   UNL     1     -16.119   1.453   3.191  1.00  0.00     0.029 A 
ATOM     47  N   UNL     1     -17.904   1.016   4.463  1.00  0.00    -0.354 N 
ATOM     48  C   UNL     1     -17.469   0.149   8.683  1.00  0.00     0.074 A 
ATOM     49  C   UNL     1     -16.076   0.203   9.076  1.00  0.00     0.031 C 
ATOM     50  C   UNL     1     -17.198   1.481   2.393  1.00  0.00     0.029 A 
ATOM     51  C   UNL     1     -18.385   1.173   3.184  1.00  0.00     0.049 A 
ATOM     52  H   UNL     1     -18.482   0.816   5.235  1.00  0.00     0.167 HD
ATOM     53  C   UNL     1     -18.495  -0.130   9.526  1.00  0.00     0.034 A 
ATOM     54  C   UNL     1     -19.639   1.069   2.700  1.00  0.00     0.034 A 
ATOM     55  C   UNL     1     -19.880  -0.166   9.118  1.00  0.00     0.049 A 
ATOM     56  C   UNL     1     -20.763   0.742   3.649  1.00  0.00     0.074 A 
ATOM     57  C   UNL     1     -21.004  -0.376   9.898  1.00  0.00     0.029 A 
ATOM     58  N   UNL     1     -20.330   0.002   7.814  1.00  0.00    -0.354 N 
ATOM     59  N   UNL     1     -20.712   0.504   4.940  1.00  0.00    -0.248 NA
ATOM     60  C   UNL     1     -22.114   0.681   3.078  1.00  0.00     0.031 C 
ATOM     61  C   UNL     1     -22.124  -0.398   9.059  1.00  0.00     0.029 A 
ATOM     62  C   UNL     1     -21.710  -0.129   7.764  1.00  0.00     0.049 A 
ATOM     63  H   UNL     1     -19.753   0.188   7.039  1.00  0.00     0.167 HD
ATOM     64  C   UNL     1     -22.029   0.292   5.338  1.00  0.00     0.074 A 
ATOM     65  C   UNL     1     -22.850   0.443   4.154  1.00  0.00     0.031 C 
ATOM     66  C   UNL     1     -22.516   0.007   6.573  1.00  0.00     0.034 A 
BRANCH  53  67
ATOM     67  C   UNL     1     -18.143  -0.442  10.962  1.00  0.00     0.023 A 
ATOM     68  C   UNL     1     -17.501   0.501  11.786  1.00  0.00     0.031 A 
ATOM     69  C   UNL     1     -18.407  -1.712  11.502  1.00  0.00     0.131 A 
ATOM     70  C   UNL     1     -17.063   0.130  13.066  1.00  0.00     0.055 A 
ATOM     71  C   UNL     1     -18.048  -2.046  12.810  1.00  0.00     0.041 A 
ATOM     72  F   UNL     1     -19.000  -2.661  10.761  1.00  0.00    -0.206 F 
ATOM     73  C   UNL     1     -17.354  -1.129  13.594  1.00  0.00     0.022 A 
BRANCH  70  74
ATOM     74  S   UNL     1     -15.962   1.260  13.962  1.00  0.00     0.124 S 
ATOM     75  O   UNL     1     -14.851   1.397  13.023  1.00  0.00    -0.237 OA
ATOM     76  O   UNL     1     -16.799   2.441  14.139  1.00  0.00    -0.237 OA
ATOM     77  O   UNL     1     -15.645   0.529  15.187  1.00  0.00    -0.744 OA
ENDBRANCH  70  74
ENDBRANCH  53  67
BRANCH  54  78
ATOM     78  C   UNL     1     -19.904   1.272   1.248  1.00  0.00     0.023 A 
ATOM     79  C   UNL     1     -20.652   2.370   0.798  1.00  0.00     0.031 A 
ATOM     80  C   UNL     1     -19.433   0.355   0.291  1.00  0.00     0.131 A 
ATOM     81  C   UNL     1     -20.943   2.506  -0.569  1.00  0.00     0.055 A 
ATOM     82  C   UNL     1     -19.685   0.519  -1.072  1.00  0.00     0.041 A 
ATOM     83  F   UNL     1     -18.706  -0.708   0.669  1.00  0.00    -0.206 F 
ATOM     84  C   UNL     1     -20.454   1.595  -1.508  1.00  0.00     0.022 A 
BRANCH  81  85
ATOM     85  S   UNL     1     -22.026   3.862  -1.096  1.00  0.00     0.124 S 
ATOM     86  O   UNL     1     -23.249   3.570  -0.358  1.00  0.00    -0.237 OA
ATOM     87  O   UNL     1     -21.277   5.035  -0.660  1.00  0.00    -0.237 OA
ATOM     88  O   UNL     1     -22.112   3.684  -2.544  1.00  0.00    -0.744 OA
ENDBRANCH  81  85
ENDBRANCH  54  78
BRANCH  66  89
ATOM     89  C   UNL     1     -24.014  -0.117   6.704  1.00  0.00     0.023 A 
ATOM     90  C   UNL     1     -24.725  -1.175   6.111  1.00  0.00     0.031 A 
ATOM     91  C   UNL     1     -24.741   0.847   7.424  1.00  0.00     0.131 A 
ATOM     92  C   UNL     1     -26.124  -1.214   6.203  1.00  0.00     0.055 A 
ATOM     93  C   UNL     1     -26.127   0.772   7.561  1.00  0.00     0.041 A 
ATOM     94  F   UNL     1     -24.113   1.880   8.009  1.00  0.00    -0.206 F 
ATOM     95  C   UNL     1     -26.828  -0.256   6.937  1.00  0.00     0.022 A 
BRANCH  92  96
ATOM     96  S   UNL     1     -27.024  -2.488   5.276  1.00  0.00     0.124 S 
ATOM     97  O   UNL     1     -26.610  -2.215   3.904  1.00  0.00    -0.237 OA
ATOM     98  O   UNL     1     -26.512  -3.722   5.863  1.00  0.00    -0.237 OA
ATOM     99  O   UNL     1     -28.427  -2.199   5.570  1.00  0.00    -0.744 OA
ENDBRANCH  92  96
ENDBRANCH  66  89
ENDBRANCH  40  41
ENDBRANCH  32  35
ENDBRANCH  30  31
ENDBRANCH   1  30
TORSDOF 17
