REMARK SMILES C[C@H](CC(=O)NCCCCNC(=O)c1ccc(-c2c3nc(c(-c4cc(S(=O)(=O)[O-])ccc4F)c4ccc([nH]4)c(-c4cc(S(=O)(=O)[O-])ccc4F)c4nc(c(-c5cc(S(=O)(=O)[O-])ccc5F)c5ccc2[nH]5)C=C4)C=C3)cc1)NC(=O)[C@H]1CC(=O)N(C2CC2)C1
REMARK SMILES IDX 8 1 7 2 6 3 4 4 5 5 3 7 2 8 1 9 77 10 78 11 79 13 80 14
REMARK SMILES IDX 81 15 88 16 82 17 84 18 83 19 85 20 86 21 87 22 9 23 10 24
REMARK SMILES IDX 11 25 12 26 13 28 14 29 15 30 76 31 16 32 75 33 17 34 18 35
REMARK SMILES IDX 19 36 69 37 20 38 74 39 68 40 70 41 21 42 73 43 67 44 66 45
REMARK SMILES IDX 22 47 54 48 34 49 53 50 35 51 38 52 52 53 71 54 36 55 37 56
REMARK SMILES IDX 51 58 72 59 39 60 23 61 24 62 32 63 25 64 31 65 33 66 30 67
REMARK SMILES IDX 26 68 27 69 28 70 29 71 55 72 56 73 64 74 57 75 63 76 65 77
REMARK SMILES IDX 62 78 58 79 59 80 60 81 61 82 40 83 41 84 49 85 42 86 48 87
REMARK SMILES IDX 50 88 47 89 43 90 44 91 45 92 46 93
REMARK H PARENT 6 6 77 12 11 27 70 46 38 57
REMARK Flexibility Score: inf
ROOT
ATOM      1  C   UNL     1      -0.597   3.294   3.229  1.00  0.00     0.023 C 
ENDROOT
BRANCH   1   2
ATOM      2  C   UNL     1       0.531   2.367   2.788  1.00  0.00     0.116 C 
BRANCH   2   3
ATOM      3  N   UNL     1       0.217   0.982   3.084  1.00  0.00    -0.356 N 
ATOM      4  C   UNL     1      -0.054  -0.041   2.224  1.00  0.00     0.222 C 
ATOM      5  O   UNL     1      -0.371  -1.137   2.687  1.00  0.00    -0.275 OA
ATOM      6  H   UNL     1       0.197   0.747   4.040  1.00  0.00     0.163 HD
BRANCH   4   7
ATOM      7  C   UNL     1       0.039   0.177   0.722  1.00  0.00     0.124 C 
BRANCH   7   8
ATOM      8  C   UNL     1      -1.271   0.613   0.040  1.00  0.00     0.088 C 
ATOM      9  C   UNL     1      -2.349  -0.467   0.202  1.00  0.00     0.031 C 
BRANCH   8  10
ATOM     10  N   UNL     1      -1.817   1.850   0.584  1.00  0.00    -0.353 N 
ATOM     11  C   UNL     1      -2.041   3.114   0.201  1.00  0.00     0.225 C 
ATOM     12  H   UNL     1      -2.111   1.716   1.514  1.00  0.00     0.163 HD
ATOM     13  O   UNL     1      -2.715   3.770   1.011  1.00  0.00    -0.275 OA
BRANCH  11  14
ATOM     14  C   UNL     1      -1.623   3.817  -1.063  1.00  0.00     0.107 C 
ATOM     15  C   UNL     1      -0.960   5.147  -0.654  1.00  0.00     0.115 C 
ATOM     16  C   UNL     1      -0.659   3.319  -2.111  1.00  0.00     0.133 C 
ATOM     17  C   UNL     1      -0.430   5.658  -1.960  1.00  0.00     0.223 C 
ATOM     18  N   UNL     1      -0.320   4.553  -2.813  1.00  0.00    -0.339 N 
ATOM     19  O   UNL     1      -0.166   6.827  -2.191  1.00  0.00    -0.275 OA
BRANCH  18  20
ATOM     20  C   UNL     1      -0.113   4.617  -4.232  1.00  0.00     0.085 C 
ATOM     21  C   UNL     1      -0.575   5.806  -5.047  1.00  0.00     0.027 C 
ATOM     22  C   UNL     1       0.891   5.543  -4.867  1.00  0.00     0.027 C 
ENDBRANCH  18  20
ENDBRANCH  11  14
ENDBRANCH   8  10
ENDBRANCH   7   8
ENDBRANCH   4   7
ENDBRANCH   2   3
ENDBRANCH   1   2
BRANCH   1  23
ATOM     23  C   UNL     1      -0.604   3.662   4.702  1.00  0.00     0.023 C 
BRANCH  23  24
ATOM     24  C   UNL     1       0.632   4.406   5.170  1.00  0.00     0.116 C 
BRANCH  24  25
ATOM     25  N   UNL     1       0.885   5.633   4.425  1.00  0.00    -0.352 N 
ATOM     26  C   UNL     1       1.133   6.897   4.908  1.00  0.00     0.251 C 
ATOM     27  H   UNL     1       0.878   5.545   3.445  1.00  0.00     0.163 HD
ATOM     28  O   UNL     1       1.204   7.850   4.139  1.00  0.00    -0.269 OA
BRANCH  26  29
ATOM     29  C   UNL     1       1.264   7.089   6.366  1.00  0.00     0.039 A 
ATOM     30  C   UNL     1       0.543   8.110   6.987  1.00  0.00     0.014 A 
ATOM     31  C   UNL     1       2.029   6.199   7.122  1.00  0.00     0.014 A 
ATOM     32  C   UNL     1       0.524   8.181   8.381  1.00  0.00     0.010 A 
ATOM     33  C   UNL     1       1.912   6.201   8.504  1.00  0.00     0.010 A 
ATOM     34  C   UNL     1       1.166   7.197   9.151  1.00  0.00    -0.014 A 
BRANCH  34  35
ATOM     35  C   UNL     1       1.100   7.201  10.635  1.00  0.00     0.031 A 
ATOM     36  C   UNL     1       2.374   7.302  11.431  1.00  0.00     0.074 A 
ATOM     37  C   UNL     1      -0.084   7.040  11.258  1.00  0.00     0.049 A 
ATOM     38  N   UNL     1       2.553   7.218  12.724  1.00  0.00    -0.248 NA
ATOM     39  C   UNL     1       3.618   7.478  10.665  1.00  0.00     0.031 C 
ATOM     40  C   UNL     1      -1.379   6.882  10.591  1.00  0.00     0.029 A 
ATOM     41  N   UNL     1      -0.393   6.976  12.594  1.00  0.00    -0.354 N 
ATOM     42  C   UNL     1       3.927   7.311  12.921  1.00  0.00     0.074 A 
ATOM     43  C   UNL     1       4.537   7.374  11.611  1.00  0.00     0.031 C 
ATOM     44  C   UNL     1      -2.344   6.778  11.520  1.00  0.00     0.029 A 
ATOM     45  C   UNL     1      -1.736   6.807  12.846  1.00  0.00     0.049 A 
ATOM     46  H   UNL     1       0.283   7.045  13.306  1.00  0.00     0.167 HD
ATOM     47  C   UNL     1       4.614   7.372  14.088  1.00  0.00     0.034 A 
ATOM     48  C   UNL     1      -2.397   6.678  14.014  1.00  0.00     0.034 A 
ATOM     49  C   UNL     1       3.985   7.332  15.383  1.00  0.00     0.049 A 
ATOM     50  C   UNL     1      -1.609   6.729  15.299  1.00  0.00     0.074 A 
ATOM     51  C   UNL     1       4.572   7.443  16.631  1.00  0.00     0.029 A 
ATOM     52  N   UNL     1       2.622   7.166  15.599  1.00  0.00    -0.354 N 
ATOM     53  N   UNL     1      -0.314   6.869  15.471  1.00  0.00    -0.248 NA
ATOM     54  C   UNL     1      -2.372   6.614  16.548  1.00  0.00     0.031 C 
ATOM     55  C   UNL     1       3.578   7.273  17.599  1.00  0.00     0.029 A 
ATOM     56  C   UNL     1       2.356   7.139  16.959  1.00  0.00     0.049 A 
ATOM     57  H   UNL     1       1.945   7.079  14.890  1.00  0.00     0.167 HD
ATOM     58  C   UNL     1      -0.114   6.893  16.848  1.00  0.00     0.074 A 
ATOM     59  C   UNL     1      -1.422   6.770  17.458  1.00  0.00     0.031 C 
ATOM     60  C   UNL     1       1.044   7.008  17.548  1.00  0.00     0.034 A 
BRANCH  47  61
ATOM     61  C   UNL     1       6.120   7.471  14.003  1.00  0.00     0.023 A 
ATOM     62  C   UNL     1       6.755   8.559  13.376  1.00  0.00     0.031 A 
ATOM     63  C   UNL     1       6.932   6.448  14.522  1.00  0.00     0.131 A 
ATOM     64  C   UNL     1       8.148   8.557  13.210  1.00  0.00     0.055 A 
ATOM     65  C   UNL     1       8.325   6.497  14.433  1.00  0.00     0.041 A 
ATOM     66  F   UNL     1       6.386   5.372  15.110  1.00  0.00    -0.206 F 
ATOM     67  C   UNL     1       8.940   7.548  13.759  1.00  0.00     0.022 A 
BRANCH  64  68
ATOM     68  S   UNL     1       8.890   9.811  12.130  1.00  0.00     0.124 S 
ATOM     69  O   UNL     1       8.215   9.545  10.862  1.00  0.00    -0.237 OA
ATOM     70  O   UNL     1       8.530  11.056  12.797  1.00  0.00    -0.237 OA
ATOM     71  O   UNL     1      10.314   9.481  12.150  1.00  0.00    -0.744 OA
ENDBRANCH  64  68
ENDBRANCH  47  61
BRANCH  48  72
ATOM     72  C   UNL     1      -3.877   6.485  14.034  1.00  0.00     0.023 A 
ATOM     73  C   UNL     1      -4.722   7.436  14.630  1.00  0.00     0.031 A 
ATOM     74  C   UNL     1      -4.467   5.323  13.504  1.00  0.00     0.131 A 
ATOM     75  C   UNL     1      -6.099   7.185  14.731  1.00  0.00     0.055 A 
ATOM     76  C   UNL     1      -5.845   5.106  13.554  1.00  0.00     0.041 A 
ATOM     77  F   UNL     1      -3.708   4.382  12.921  1.00  0.00    -0.206 F 
ATOM     78  C   UNL     1      -6.669   6.033  14.184  1.00  0.00     0.022 A 
BRANCH  75  79
ATOM     79  S   UNL     1      -7.125   8.343  15.678  1.00  0.00     0.124 S 
ATOM     80  O   UNL     1      -6.471   8.320  16.982  1.00  0.00    -0.237 OA
ATOM     81  O   UNL     1      -6.982   9.574  14.909  1.00  0.00    -0.237 OA
ATOM     82  O   UNL     1      -8.453   7.734  15.635  1.00  0.00    -0.744 OA
ENDBRANCH  75  79
ENDBRANCH  48  72
BRANCH  60  83
ATOM     83  C   UNL     1       0.934   7.055  19.053  1.00  0.00     0.023 A 
ATOM     84  C   UNL     1       0.490   5.949  19.798  1.00  0.00     0.031 A 
ATOM     85  C   UNL     1       1.273   8.229  19.749  1.00  0.00     0.131 A 
ATOM     86  C   UNL     1       0.341   6.058  21.188  1.00  0.00     0.055 A 
ATOM     87  C   UNL     1       1.186   8.310  21.139  1.00  0.00     0.041 A 
ATOM     88  F   UNL     1       1.700   9.317  19.088  1.00  0.00    -0.206 F 
ATOM     89  C   UNL     1       0.704   7.225  21.866  1.00  0.00     0.022 A 
BRANCH  86  90
ATOM     90  S   UNL     1      -0.428   4.686  22.091  1.00  0.00     0.124 S 
ATOM     91  O   UNL     1      -1.726   4.580  21.433  1.00  0.00    -0.237 OA
ATOM     92  O   UNL     1       0.503   3.590  21.846  1.00  0.00    -0.237 OA
ATOM     93  O   UNL     1      -0.471   5.165  23.472  1.00  0.00    -0.744 OA
ENDBRANCH  86  90
ENDBRANCH  60  83
ENDBRANCH  34  35
ENDBRANCH  26  29
ENDBRANCH  24  25
ENDBRANCH  23  24
ENDBRANCH   1  23
TORSDOF 18
