REMARK SMILES CC1(C)[C@@H](C(=O)NCCc2ccccc2)CC[C@@]1(C)C(=O)NCCCCNC(=O)c1ccc(-c2c3nc(c(-c4cc(S(=O)(=O)[O-])ccc4F)c4ccc([nH]4)c(-c4cc(S(=O)(=O)[O-])ccc4F)c4nc(c(-c5cc(S(=O)(=O)[O-])ccc5F)c5ccc2[nH]5)C=C4)C=C3)cc1
REMARK SMILES IDX 24 1 23 2 22 3 20 4 21 5 18 7 1 8 2 9 3 10 4 11 16 12 17 13
REMARK SMILES IDX 19 14 5 15 6 16 7 17 8 19 9 20 10 21 11 22 15 23 12 24 14 25
REMARK SMILES IDX 13 26 25 27 26 28 27 29 28 30 29 32 30 33 31 34 92 35 32 36
REMARK SMILES IDX 91 37 33 38 34 39 35 40 85 41 36 42 90 43 84 44 86 45 37 46
REMARK SMILES IDX 89 47 83 48 82 49 38 51 70 52 50 53 69 54 51 55 54 56 68 57
REMARK SMILES IDX 87 58 52 59 53 60 67 62 88 63 55 64 39 65 40 66 48 67 41 68
REMARK SMILES IDX 47 69 49 70 46 71 42 72 43 73 44 74 45 75 71 76 72 77 80 78
REMARK SMILES IDX 73 79 79 80 81 81 78 82 74 83 75 84 76 85 77 86 56 87 57 88
REMARK SMILES IDX 65 89 58 90 64 91 66 92 63 93 59 94 60 95 61 96 62 97
REMARK H PARENT 22 6 7 18 27 31 86 50 54 61
REMARK Flexibility Score: inf
ROOT
ATOM      1  C   UNL     1       1.546   2.974  -1.377  1.00  0.00     0.023 C 
ENDROOT
BRANCH   1   2
ATOM      2  C   UNL     1       1.361   1.760  -0.482  1.00  0.00     0.116 C 
BRANCH   2   3
ATOM      3  N   UNL     1       2.344   1.575   0.551  1.00  0.00    -0.356 N 
ATOM      4  C   UNL     1       2.303   0.792   1.667  1.00  0.00     0.226 C 
ATOM      5  O   UNL     1       3.382   0.695   2.266  1.00  0.00    -0.274 OA
ATOM      6  H   UNL     1       3.173   2.093   0.434  1.00  0.00     0.163 HD
BRANCH   4   7
ATOM      7  C   UNL     1       0.972   0.233   2.287  1.00  0.00     0.052 C 
ATOM      8  C   UNL     1      -0.078  -0.845  -0.021  1.00  0.00     0.013 C 
ATOM      9  C   UNL     1       0.078  -0.839   1.508  1.00  0.00    -0.010 C 
ATOM     10  C   UNL     1      -1.404  -0.758   1.999  1.00  0.00     0.013 C 
ATOM     11  C   UNL     1       0.692  -2.205   1.950  1.00  0.00     0.085 C 
ATOM     12  C   UNL     1       0.906  -2.019   3.442  1.00  0.00     0.015 C 
ATOM     13  C   UNL     1       1.356  -0.570   3.602  1.00  0.00     0.018 C 
ATOM     14  C   UNL     1       0.216   1.498   2.769  1.00  0.00     0.022 C 
BRANCH  11  15
ATOM     15  C   UNL     1       2.002  -2.585   1.245  1.00  0.00     0.223 C 
ATOM     16  O   UNL     1       2.632  -1.816   0.523  1.00  0.00    -0.275 OA
ATOM     17  N   UNL     1       2.494  -3.843   1.373  1.00  0.00    -0.356 N 
ATOM     18  H   UNL     1       3.208  -4.077   0.736  1.00  0.00     0.163 HD
BRANCH  17  19
ATOM     19  C   UNL     1       2.133  -4.898   2.300  1.00  0.00     0.120 C 
BRANCH  19  20
ATOM     20  C   UNL     1       2.343  -6.297   1.715  1.00  0.00     0.056 C 
BRANCH  20  21
ATOM     21  C   UNL     1       3.750  -6.734   1.362  1.00  0.00    -0.046 A 
ATOM     22  C   UNL     1       3.906  -8.000   0.772  1.00  0.00     0.004 A 
ATOM     23  C   UNL     1       4.898  -5.956   1.568  1.00  0.00     0.004 A 
ATOM     24  C   UNL     1       5.162  -8.460   0.373  1.00  0.00     0.000 A 
ATOM     25  C   UNL     1       6.152  -6.408   1.148  1.00  0.00     0.000 A 
ATOM     26  C   UNL     1       6.284  -7.658   0.550  1.00  0.00     0.000 A 
ENDBRANCH  20  21
ENDBRANCH  19  20
ENDBRANCH  17  19
ENDBRANCH  11  15
ENDBRANCH   4   7
ENDBRANCH   2   3
ENDBRANCH   1   2
BRANCH   1  27
ATOM     27  C   UNL     1       2.812   2.983  -2.231  1.00  0.00     0.023 C 
BRANCH  27  28
ATOM     28  C   UNL     1       3.205   1.667  -2.902  1.00  0.00     0.116 C 
BRANCH  28  29
ATOM     29  N   UNL     1       2.200   1.139  -3.815  1.00  0.00    -0.352 N 
ATOM     30  C   UNL     1       2.221   0.975  -5.184  1.00  0.00     0.251 C 
ATOM     31  H   UNL     1       1.365   0.851  -3.381  1.00  0.00     0.163 HD
ATOM     32  O   UNL     1       1.217   0.580  -5.759  1.00  0.00    -0.269 OA
BRANCH  30  33
ATOM     33  C   UNL     1       3.433   1.328  -5.961  1.00  0.00     0.039 A 
ATOM     34  C   UNL     1       3.285   2.094  -7.119  1.00  0.00     0.014 A 
ATOM     35  C   UNL     1       4.706   0.937  -5.545  1.00  0.00     0.014 A 
ATOM     36  C   UNL     1       4.418   2.565  -7.788  1.00  0.00     0.010 A 
ATOM     37  C   UNL     1       5.833   1.486  -6.154  1.00  0.00     0.010 A 
ATOM     38  C   UNL     1       5.702   2.321  -7.273  1.00  0.00    -0.014 A 
BRANCH  38  39
ATOM     39  C   UNL     1       6.904   2.967  -7.870  1.00  0.00     0.031 A 
ATOM     40  C   UNL     1       8.018   2.135  -8.445  1.00  0.00     0.074 A 
ATOM     41  C   UNL     1       7.021   4.311  -7.832  1.00  0.00     0.049 A 
ATOM     42  N   UNL     1       9.156   2.521  -8.967  1.00  0.00    -0.248 NA
ATOM     43  C   UNL     1       7.845   0.676  -8.400  1.00  0.00     0.031 C 
ATOM     44  C   UNL     1       6.040   5.228  -7.243  1.00  0.00     0.029 A 
ATOM     45  N   UNL     1       8.011   5.144  -8.293  1.00  0.00    -0.354 N 
ATOM     46  C   UNL     1       9.837   1.355  -9.301  1.00  0.00     0.074 A 
ATOM     47  C   UNL     1       9.012   0.250  -8.861  1.00  0.00     0.031 C 
ATOM     48  C   UNL     1       6.460   6.492  -7.412  1.00  0.00     0.029 A 
ATOM     49  C   UNL     1       7.758   6.480  -8.076  1.00  0.00     0.049 A 
ATOM     50  H   UNL     1       8.826   4.816  -8.737  1.00  0.00     0.167 HD
ATOM     51  C   UNL     1      11.026   1.218  -9.940  1.00  0.00     0.034 A 
ATOM     52  C   UNL     1       8.490   7.573  -8.372  1.00  0.00     0.034 A 
ATOM     53  C   UNL     1      11.834   2.330 -10.383  1.00  0.00     0.049 A 
ATOM     54  C   UNL     1       9.813   7.395  -9.072  1.00  0.00     0.074 A 
ATOM     55  C   UNL     1      13.020   2.304 -11.095  1.00  0.00     0.029 A 
ATOM     56  N   UNL     1      11.546   3.669 -10.146  1.00  0.00    -0.354 N 
ATOM     57  N   UNL     1      10.409   6.286  -9.443  1.00  0.00    -0.248 NA
ATOM     58  C   UNL     1      10.555   8.618  -9.402  1.00  0.00     0.031 C 
ATOM     59  C   UNL     1      13.484   3.618 -11.229  1.00  0.00     0.029 A 
ATOM     60  C   UNL     1      12.548   4.473 -10.669  1.00  0.00     0.049 A 
ATOM     61  H   UNL     1      10.746   3.999  -9.676  1.00  0.00     0.167 HD
ATOM     62  C   UNL     1      11.585   6.681 -10.074  1.00  0.00     0.074 A 
ATOM     63  C   UNL     1      11.600   8.130 -10.053  1.00  0.00     0.031 C 
ATOM     64  C   UNL     1      12.564   5.917 -10.623  1.00  0.00     0.034 A 
BRANCH  51  65
ATOM     65  C   UNL     1      11.529  -0.187 -10.177  1.00  0.00     0.023 A 
ATOM     66  C   UNL     1      10.820  -1.101 -10.978  1.00  0.00     0.031 A 
ATOM     67  C   UNL     1      12.721  -0.630  -9.577  1.00  0.00     0.131 A 
ATOM     68  C   UNL     1      11.264  -2.426 -11.093  1.00  0.00     0.055 A 
ATOM     69  C   UNL     1      13.203  -1.928  -9.764  1.00  0.00     0.041 A 
ATOM     70  F   UNL     1      13.434   0.188  -8.786  1.00  0.00    -0.206 F 
ATOM     71  C   UNL     1      12.465  -2.840 -10.513  1.00  0.00     0.022 A 
BRANCH  68  72
ATOM     72  S   UNL     1      10.176  -3.638 -11.892  1.00  0.00     0.124 S 
ATOM     73  O   UNL     1       8.979  -3.553 -11.060  1.00  0.00    -0.237 OA
ATOM     74  O   UNL     1      10.053  -3.108 -13.245  1.00  0.00    -0.237 OA
ATOM     75  O   UNL     1      10.918  -4.893 -11.778  1.00  0.00    -0.744 OA
ENDBRANCH  68  72
ENDBRANCH  51  65
BRANCH  52  76
ATOM     76  C   UNL     1       7.999   8.934  -8.008  1.00  0.00     0.023 A 
ATOM     77  C   UNL     1       7.690   9.881  -8.998  1.00  0.00     0.031 A 
ATOM     78  C   UNL     1       7.873   9.323  -6.662  1.00  0.00     0.131 A 
ATOM     79  C   UNL     1       7.317  11.183  -8.630  1.00  0.00     0.055 A 
ATOM     80  C   UNL     1       7.449  10.603  -6.301  1.00  0.00     0.041 A 
ATOM     81  F   UNL     1       8.151   8.456  -5.676  1.00  0.00    -0.206 F 
ATOM     82  C   UNL     1       7.181  11.546  -7.288  1.00  0.00     0.022 A 
BRANCH  79  83
ATOM     83  S   UNL     1       7.092  12.425  -9.933  1.00  0.00     0.124 S 
ATOM     84  O   UNL     1       8.396  12.411 -10.585  1.00  0.00    -0.237 OA
ATOM     85  O   UNL     1       5.985  11.862 -10.699  1.00  0.00    -0.237 OA
ATOM     86  O   UNL     1       6.777  13.644  -9.191  1.00  0.00    -0.744 OA
ENDBRANCH  79  83
ENDBRANCH  52  76
BRANCH  64  87
ATOM     87  C   UNL     1      13.715   6.646 -11.274  1.00  0.00     0.023 A 
ATOM     88  C   UNL     1      14.608   7.434 -10.527  1.00  0.00     0.031 A 
ATOM     89  C   UNL     1      13.903   6.575 -12.666  1.00  0.00     0.131 A 
ATOM     90  C   UNL     1      15.609   8.169 -11.181  1.00  0.00     0.055 A 
ATOM     91  C   UNL     1      14.940   7.256 -13.304  1.00  0.00     0.041 A 
ATOM     92  F   UNL     1      13.079   5.841 -13.431  1.00  0.00    -0.206 F 
ATOM     93  C   UNL     1      15.791   8.071 -12.563  1.00  0.00     0.022 A 
BRANCH  90  94
ATOM     94  S   UNL     1      16.603   9.338 -10.214  1.00  0.00     0.124 S 
ATOM     95  O   UNL     1      15.580  10.214  -9.652  1.00  0.00    -0.237 OA
ATOM     96  O   UNL     1      17.283   8.461  -9.267  1.00  0.00    -0.237 OA
ATOM     97  O   UNL     1      17.470   9.960 -11.214  1.00  0.00    -0.744 OA
ENDBRANCH  90  94
ENDBRANCH  64  87
ENDBRANCH  38  39
ENDBRANCH  30  33
ENDBRANCH  28  29
ENDBRANCH  27  28
ENDBRANCH   1  27
TORSDOF 18
