REMARK SMILES O=C(NCCCCNC(=O)[C@H](C[NH+]1CCCC1)c1ccc(Br)cc1)c1ccc(-c2c3nc(c(-c4cc(S(=O)(=O)[O-])ccc4F)c4ccc([nH]4)c(-c4cc(S(=O)(=O)[O-])ccc4F)c4nc(c(-c5cc(S(=O)(=O)[O-])ccc5F)c5ccc2[nH]5)C=C4)C=C3)cc1
REMARK SMILES IDX 5 1 4 2 3 3 1 4 2 5 25 7 26 8 87 9 27 10 86 11 28 12 29 13
REMARK SMILES IDX 30 14 80 15 31 16 85 17 79 18 81 19 32 20 84 21 78 22 77 23
REMARK SMILES IDX 33 25 65 26 45 27 64 28 46 29 49 30 63 31 82 32 47 33 48 34
REMARK SMILES IDX 62 36 83 37 50 38 34 39 35 40 43 41 36 42 42 43 44 44 41 45
REMARK SMILES IDX 37 46 38 47 39 48 40 49 66 50 67 51 75 52 68 53 74 54 76 55
REMARK SMILES IDX 73 56 69 57 70 58 71 59 72 60 51 61 52 62 60 63 53 64 59 65
REMARK SMILES IDX 61 66 58 67 54 68 55 69 56 70 57 71 6 72 7 73 8 74 9 75
REMARK SMILES IDX 10 77 11 78 18 79 19 80 24 81 20 82 23 83 21 84 22 85 12 86
REMARK SMILES IDX 13 87 14 88 17 89 15 91 16 92
REMARK H PARENT 3 6 81 24 49 35 8 76 13 90
REMARK Flexibility Score: inf
ROOT
ATOM      1  C   UNL     1       7.340  -9.435   0.960  1.00  0.00     0.023 C 
ENDROOT
BRANCH   1   2
ATOM      2  C   UNL     1       7.143 -10.864   0.473  1.00  0.00     0.116 C 
BRANCH   2   3
ATOM      3  N   UNL     1       8.344 -11.470  -0.096  1.00  0.00    -0.352 N 
ATOM      4  O   UNL     1      10.017 -12.982  -0.291  1.00  0.00    -0.269 OA
ATOM      5  C   UNL     1       8.961 -12.659   0.237  1.00  0.00     0.251 C 
ATOM      6  H   UNL     1       8.774 -10.959  -0.819  1.00  0.00     0.163 HD
BRANCH   5   7
ATOM      7  C   UNL     1       8.345 -13.513   1.274  1.00  0.00     0.039 A 
ATOM      8  C   UNL     1       6.977 -13.777   1.227  1.00  0.00     0.014 A 
ATOM      9  C   UNL     1       9.114 -13.946   2.357  1.00  0.00     0.014 A 
ATOM     10  C   UNL     1       6.342 -14.248   2.366  1.00  0.00     0.010 A 
ATOM     11  C   UNL     1       8.482 -14.541   3.454  1.00  0.00     0.010 A 
ATOM     12  C   UNL     1       7.082 -14.630   3.499  1.00  0.00    -0.014 A 
BRANCH  12  13
ATOM     13  C   UNL     1       6.351 -15.091   4.712  1.00  0.00     0.031 A 
ATOM     14  C   UNL     1       6.467 -14.352   6.022  1.00  0.00     0.074 A 
ATOM     15  C   UNL     1       5.509 -16.138   4.602  1.00  0.00     0.049 A 
ATOM     16  N   UNL     1       5.876 -14.598   7.165  1.00  0.00    -0.248 NA
ATOM     17  C   UNL     1       7.378 -13.198   6.061  1.00  0.00     0.031 C 
ATOM     18  C   UNL     1       5.309 -16.930   3.385  1.00  0.00     0.029 A 
ATOM     19  N   UNL     1       4.634 -16.690   5.501  1.00  0.00    -0.354 N 
ATOM     20  C   UNL     1       6.375 -13.665   8.068  1.00  0.00     0.074 A 
ATOM     21  C   UNL     1       7.334 -12.858   7.342  1.00  0.00     0.031 C 
ATOM     22  C   UNL     1       4.312 -17.802   3.585  1.00  0.00     0.029 A 
ATOM     23  C   UNL     1       3.862 -17.695   4.967  1.00  0.00     0.049 A 
ATOM     24  H   UNL     1       4.565 -16.395   6.438  1.00  0.00     0.167 HD
ATOM     25  C   UNL     1       6.062 -13.496   9.379  1.00  0.00     0.034 A 
ATOM     26  C   UNL     1       2.904 -18.457   5.527  1.00  0.00     0.034 A 
ATOM     27  C   UNL     1       5.073 -14.285  10.076  1.00  0.00     0.049 A 
ATOM     28  C   UNL     1       2.564 -18.241   6.973  1.00  0.00     0.074 A 
ATOM     29  C   UNL     1       4.655 -14.181  11.393  1.00  0.00     0.029 A 
ATOM     30  N   UNL     1       4.341 -15.323   9.513  1.00  0.00    -0.354 N 
ATOM     31  N   UNL     1       3.064 -17.367   7.816  1.00  0.00    -0.248 NA
ATOM     32  C   UNL     1       1.535 -19.117   7.544  1.00  0.00     0.031 C 
ATOM     33  C   UNL     1       3.713 -15.188  11.639  1.00  0.00     0.029 A 
ATOM     34  C   UNL     1       3.492 -15.880  10.460  1.00  0.00     0.049 A 
ATOM     35  H   UNL     1       4.413 -15.621   8.578  1.00  0.00     0.167 HD
ATOM     36  C   UNL     1       2.401 -17.584   9.019  1.00  0.00     0.074 A 
ATOM     37  C   UNL     1       1.449 -18.651   8.781  1.00  0.00     0.031 C 
ATOM     38  C   UNL     1       2.565 -16.958  10.212  1.00  0.00     0.034 A 
BRANCH  25  39
ATOM     39  C   UNL     1       6.841 -12.457  10.154  1.00  0.00     0.023 A 
ATOM     40  C   UNL     1       6.763 -11.085   9.857  1.00  0.00     0.031 A 
ATOM     41  C   UNL     1       7.705 -12.856  11.191  1.00  0.00     0.131 A 
ATOM     42  C   UNL     1       7.588 -10.173  10.536  1.00  0.00     0.055 A 
ATOM     43  C   UNL     1       8.465 -11.934  11.916  1.00  0.00     0.041 A 
ATOM     44  F   UNL     1       7.838 -14.153  11.509  1.00  0.00    -0.206 F 
ATOM     45  C   UNL     1       8.421 -10.585  11.579  1.00  0.00     0.022 A 
BRANCH  42  46
ATOM     46  S   UNL     1       7.670  -8.463   9.935  1.00  0.00     0.124 S 
ATOM     47  O   UNL     1       8.056  -8.657   8.539  1.00  0.00    -0.237 OA
ATOM     48  O   UNL     1       6.311  -7.985  10.161  1.00  0.00    -0.237 OA
ATOM     49  O   UNL     1       8.696  -7.851  10.777  1.00  0.00    -0.744 OA
ENDBRANCH  42  46
ENDBRANCH  25  39
BRANCH  26  50
ATOM     50  C   UNL     1       2.223 -19.508   4.721  1.00  0.00     0.023 A 
ATOM     51  C   UNL     1       0.856 -19.415   4.419  1.00  0.00     0.031 A 
ATOM     52  C   UNL     1       2.934 -20.622   4.241  1.00  0.00     0.131 A 
ATOM     53  C   UNL     1       0.236 -20.434   3.679  1.00  0.00     0.055 A 
ATOM     54  C   UNL     1       2.324 -21.607   3.465  1.00  0.00     0.041 A 
ATOM     55  F   UNL     1       4.246 -20.752   4.497  1.00  0.00    -0.206 F 
ATOM     56  C   UNL     1       0.964 -21.521   3.188  1.00  0.00     0.022 A 
BRANCH  53  57
ATOM     57  S   UNL     1      -1.555 -20.345   3.411  1.00  0.00     0.124 S 
ATOM     58  O   UNL     1      -2.061 -20.331   4.779  1.00  0.00    -0.237 OA
ATOM     59  O   UNL     1      -1.688 -19.098   2.664  1.00  0.00    -0.237 OA
ATOM     60  O   UNL     1      -1.845 -21.558   2.649  1.00  0.00    -0.744 OA
ENDBRANCH  53  57
ENDBRANCH  26  50
BRANCH  38  61
ATOM     61  C   UNL     1       1.662 -17.406  11.333  1.00  0.00     0.023 A 
ATOM     62  C   UNL     1       1.782 -18.683  11.907  1.00  0.00     0.031 A 
ATOM     63  C   UNL     1       0.641 -16.560  11.798  1.00  0.00     0.131 A 
ATOM     64  C   UNL     1       0.852 -19.104  12.870  1.00  0.00     0.055 A 
ATOM     65  C   UNL     1      -0.247 -16.964  12.795  1.00  0.00     0.041 A 
ATOM     66  F   UNL     1       0.483 -15.332  11.280  1.00  0.00    -0.206 F 
ATOM     67  C   UNL     1      -0.154 -18.248  13.326  1.00  0.00     0.022 A 
BRANCH  64  68
ATOM     68  S   UNL     1       0.911 -20.825  13.442  1.00  0.00     0.124 S 
ATOM     69  O   UNL     1       0.783 -21.566  12.191  1.00  0.00    -0.237 OA
ATOM     70  O   UNL     1       2.215 -20.892  14.093  1.00  0.00    -0.237 OA
ATOM     71  O   UNL     1      -0.237 -20.926  14.342  1.00  0.00    -0.744 OA
ENDBRANCH  64  68
ENDBRANCH  38  61
ENDBRANCH  12  13
ENDBRANCH   5   7
ENDBRANCH   2   3
ENDBRANCH   1   2
BRANCH   1  72
ATOM     72  C   UNL     1       7.852  -8.464  -0.092  1.00  0.00     0.023 C 
BRANCH  72  73
ATOM     73  C   UNL     1       6.974  -8.350  -1.334  1.00  0.00     0.116 C 
BRANCH  73  74
ATOM     74  N   UNL     1       5.856  -7.447  -1.139  1.00  0.00    -0.355 N 
ATOM     75  C   UNL     1       5.514  -6.327  -1.852  1.00  0.00     0.233 C 
ATOM     76  H   UNL     1       5.259  -7.669  -0.389  1.00  0.00     0.163 HD
ATOM     77  O   UNL     1       4.516  -5.696  -1.500  1.00  0.00    -0.274 OA
BRANCH  75  78
ATOM     78  C   UNL     1       6.393  -5.889  -3.033  1.00  0.00     0.163 C 
BRANCH  78  79
ATOM     79  C   UNL     1       5.539  -5.386  -4.203  1.00  0.00    -0.030 A 
ATOM     80  C   UNL     1       4.857  -6.340  -4.985  1.00  0.00     0.006 A 
ATOM     81  C   UNL     1       5.370  -4.032  -4.526  1.00  0.00     0.006 A 
ATOM     82  C   UNL     1       4.060  -5.956  -6.067  1.00  0.00     0.016 A 
ATOM     83  C   UNL     1       4.580  -3.645  -5.614  1.00  0.00     0.016 A 
ATOM     84  C   UNL     1       3.932  -4.608  -6.382  1.00  0.00     0.017 A 
ATOM     85  Br  UNL     1       2.869  -4.079  -7.852  1.00  0.00    -0.051 Br
ENDBRANCH  78  79
BRANCH  78  86
ATOM     86  C   UNL     1       7.508  -4.952  -2.477  1.00  0.00     0.280 C 
BRANCH  86  87
ATOM     87  N   UNL     1       8.906  -5.136  -2.915  1.00  0.00    -0.334 N 
ATOM     88  C   UNL     1       9.149  -5.597  -4.277  1.00  0.00     0.262 C 
ATOM     89  C   UNL     1       9.732  -5.926  -2.000  1.00  0.00     0.262 C 
ATOM     90  H   UNL     1       9.195  -4.158  -2.899  1.00  0.00     0.348 HD
ATOM     91  C   UNL     1       9.635  -7.029  -4.139  1.00  0.00     0.067 C 
ATOM     92  C   UNL     1      10.383  -7.029  -2.821  1.00  0.00     0.067 C 
ENDBRANCH  86  87
ENDBRANCH  78  86
ENDBRANCH  75  78
ENDBRANCH  73  74
ENDBRANCH  72  73
ENDBRANCH   1  72
TORSDOF 17
