REMARK SMILES Cc1c(Br)cc(C(=O)NCCCCNC(=O)c2ccc(-c3c4nc(c(-c5cc(S(=O)(=O)[O-])ccc5F)c5ccc([nH]5)c(-c5cc(S(=O)(=O)[O-])ccc5F)c5nc(c(-c6cc(S(=O)(=O)[O-])ccc6F)c6ccc3[nH]6)C=C5)C=C4)cc2)c(C)c1C
REMARK SMILES IDX 13 1 12 2 11 3 10 4 9 5 7 6 8 7 6 9 1 10 2 11 3 12 82 13
REMARK SMILES IDX 4 14 5 15 80 16 83 17 81 18 14 19 15 20 16 22 17 23 18 24
REMARK SMILES IDX 79 25 19 26 78 27 20 28 21 29 22 30 72 31 23 32 77 33 71 34
REMARK SMILES IDX 73 35 24 36 76 37 70 38 69 39 25 41 57 42 37 43 56 44 38 45
REMARK SMILES IDX 41 46 55 47 74 48 39 49 40 50 54 52 75 53 42 54 26 55 27 56
REMARK SMILES IDX 35 57 28 58 34 59 36 60 33 61 29 62 30 63 31 64 32 65 58 66
REMARK SMILES IDX 59 67 67 68 60 69 66 70 68 71 65 72 61 73 62 74 63 75 64 76
REMARK SMILES IDX 43 77 44 78 52 79 45 80 51 81 53 82 50 83 46 84 47 85 48 86
REMARK SMILES IDX 49 87
REMARK H PARENT 9 8 14 21 73 40 41 51
REMARK Flexibility Score: inf
ROOT
ATOM      1  C   UNL     1       0.964   7.997  -5.465  1.00  0.00     0.116 C 
ENDROOT
BRANCH   1   2
ATOM      2  C   UNL     1       1.666   6.657  -5.670  1.00  0.00     0.023 C 
BRANCH   2   3
ATOM      3  C   UNL     1       1.390   5.614  -4.585  1.00  0.00     0.023 C 
BRANCH   3   4
ATOM      4  C   UNL     1      -0.084   5.232  -4.432  1.00  0.00     0.116 C 
BRANCH   4   5
ATOM      5  N   UNL     1      -0.355   3.874  -4.858  1.00  0.00    -0.352 N 
ATOM      6  C   UNL     1      -0.405   2.596  -4.388  1.00  0.00     0.251 C 
ATOM      7  O   UNL     1      -0.809   1.818  -5.268  1.00  0.00    -0.269 OA
ATOM      8  H   UNL     1      -0.581   3.875  -5.816  1.00  0.00     0.163 HD
BRANCH   6   9
ATOM      9  C   UNL     1      -0.046   1.985  -3.045  1.00  0.00     0.044 A 
ATOM     10  C   UNL     1       0.890  -0.591   0.402  1.00  0.00     0.046 C 
ATOM     11  C   UNL     1       0.558   0.282  -0.782  1.00  0.00    -0.034 A 
ATOM     12  C   UNL     1       0.033  -0.248  -1.960  1.00  0.00     0.021 A 
ATOM     13  C   UNL     1       0.795   1.681  -0.731  1.00  0.00    -0.043 A 
ATOM     14  Br  UNL     1      -0.323  -2.103  -2.208  1.00  0.00    -0.051 Br
ATOM     15  C   UNL     1      -0.250   0.583  -3.047  1.00  0.00     0.030 A 
ATOM     16  C   UNL     1       0.463   2.537  -1.846  1.00  0.00    -0.035 A 
ATOM     17  C   UNL     1       1.409   2.290   0.519  1.00  0.00     0.045 C 
ATOM     18  C   UNL     1       0.654   4.011  -1.672  1.00  0.00     0.045 C 
ENDBRANCH   6   9
ENDBRANCH   4   5
ENDBRANCH   3   4
ENDBRANCH   2   3
ENDBRANCH   1   2
BRANCH   1  19
ATOM     19  N   UNL     1       1.299   8.654  -4.208  1.00  0.00    -0.352 N 
ATOM     20  C   UNL     1       1.194   9.999  -3.931  1.00  0.00     0.251 C 
ATOM     21  H   UNL     1       1.634   8.078  -3.484  1.00  0.00     0.163 HD
ATOM     22  O   UNL     1       1.550  10.460  -2.856  1.00  0.00    -0.269 OA
BRANCH  20  23
ATOM     23  C   UNL     1       0.678  10.874  -5.000  1.00  0.00     0.039 A 
ATOM     24  C   UNL     1       1.540  11.807  -5.582  1.00  0.00     0.014 A 
ATOM     25  C   UNL     1      -0.607  10.664  -5.506  1.00  0.00     0.014 A 
ATOM     26  C   UNL     1       1.133  12.487  -6.729  1.00  0.00     0.010 A 
ATOM     27  C   UNL     1      -0.992  11.310  -6.675  1.00  0.00     0.010 A 
ATOM     28  C   UNL     1      -0.120  12.216  -7.300  1.00  0.00    -0.014 A 
BRANCH  28  29
ATOM     29  C   UNL     1      -0.551  12.865  -8.560  1.00  0.00     0.031 A 
ATOM     30  C   UNL     1      -1.660  13.873  -8.527  1.00  0.00     0.074 A 
ATOM     31  C   UNL     1      -0.003  12.487  -9.730  1.00  0.00     0.049 A 
ATOM     32  N   UNL     1      -2.257  14.473  -9.521  1.00  0.00    -0.248 NA
ATOM     33  C   UNL     1      -2.180  14.238  -7.198  1.00  0.00     0.031 C 
ATOM     34  C   UNL     1       1.066  11.498  -9.879  1.00  0.00     0.029 A 
ATOM     35  N   UNL     1      -0.280  12.875 -11.017  1.00  0.00    -0.354 N 
ATOM     36  C   UNL     1      -3.226  15.282  -8.942  1.00  0.00     0.074 A 
ATOM     37  C   UNL     1      -3.170  15.058  -7.514  1.00  0.00     0.031 C 
ATOM     38  C   UNL     1       1.361  11.365 -11.182  1.00  0.00     0.029 A 
ATOM     39  C   UNL     1       0.479  12.229 -11.964  1.00  0.00     0.049 A 
ATOM     40  H   UNL     1      -0.959  13.552 -11.240  1.00  0.00     0.167 HD
ATOM     41  C   UNL     1      -4.069  16.150  -9.547  1.00  0.00     0.034 A 
ATOM     42  C   UNL     1       0.459  12.317 -13.310  1.00  0.00     0.034 A 
ATOM     43  C   UNL     1      -4.106  16.371 -10.967  1.00  0.00     0.049 A 
ATOM     44  C   UNL     1      -0.510  13.267 -13.966  1.00  0.00     0.074 A 
ATOM     45  C   UNL     1      -4.899  17.257 -11.674  1.00  0.00     0.029 A 
ATOM     46  N   UNL     1      -3.316  15.708 -11.894  1.00  0.00    -0.354 N 
ATOM     47  N   UNL     1      -1.380  14.072 -13.402  1.00  0.00    -0.248 NA
ATOM     48  C   UNL     1      -0.506  13.325 -15.434  1.00  0.00     0.031 C 
ATOM     49  C   UNL     1      -4.609  17.108 -13.032  1.00  0.00     0.029 A 
ATOM     50  C   UNL     1      -3.611  16.155 -13.169  1.00  0.00     0.049 A 
ATOM     51  H   UNL     1      -2.645  15.021 -11.677  1.00  0.00     0.167 HD
ATOM     52  C   UNL     1      -2.009  14.748 -14.443  1.00  0.00     0.074 A 
ATOM     53  C   UNL     1      -1.413  14.265 -15.672  1.00  0.00     0.031 C 
ATOM     54  C   UNL     1      -2.992  15.680 -14.383  1.00  0.00     0.034 A 
BRANCH  41  55
ATOM     55  C   UNL     1      -4.999  16.945  -8.675  1.00  0.00     0.023 A 
ATOM     56  C   UNL     1      -6.386  16.720  -8.722  1.00  0.00     0.031 A 
ATOM     57  C   UNL     1      -4.513  17.971  -7.846  1.00  0.00     0.131 A 
ATOM     58  C   UNL     1      -7.241  17.520  -7.955  1.00  0.00     0.055 A 
ATOM     59  C   UNL     1      -5.367  18.747  -7.064  1.00  0.00     0.041 A 
ATOM     60  F   UNL     1      -3.194  18.213  -7.765  1.00  0.00    -0.206 F 
ATOM     61  C   UNL     1      -6.739  18.526  -7.121  1.00  0.00     0.022 A 
BRANCH  58  62
ATOM     62  S   UNL     1      -9.039  17.296  -8.014  1.00  0.00     0.124 S 
ATOM     63  O   UNL     1      -9.361  17.075  -6.605  1.00  0.00    -0.237 OA
ATOM     64  O   UNL     1      -9.487  18.572  -8.564  1.00  0.00    -0.237 OA
ATOM     65  O   UNL     1      -9.220  16.135  -8.878  1.00  0.00    -0.744 OA
ENDBRANCH  58  62
ENDBRANCH  41  55
BRANCH  42  66
ATOM     66  C   UNL     1       1.435  11.522 -14.106  1.00  0.00     0.023 A 
ATOM     67  C   UNL     1       1.378  10.118 -14.144  1.00  0.00     0.031 A 
ATOM     68  C   UNL     1       2.502  12.161 -14.760  1.00  0.00     0.131 A 
ATOM     69  C   UNL     1       2.401   9.398 -14.777  1.00  0.00     0.055 A 
ATOM     70  C   UNL     1       3.489  11.442 -15.436  1.00  0.00     0.041 A 
ATOM     71  F   UNL     1       2.601  13.499 -14.739  1.00  0.00    -0.206 F 
ATOM     72  C   UNL     1       3.447  10.051 -15.436  1.00  0.00     0.022 A 
BRANCH  69  73
ATOM     73  S   UNL     1       2.452   7.586 -14.695  1.00  0.00     0.124 S 
ATOM     74  O   UNL     1       2.606   7.217 -16.099  1.00  0.00    -0.237 OA
ATOM     75  O   UNL     1       3.624   7.364 -13.852  1.00  0.00    -0.237 OA
ATOM     76  O   UNL     1       1.172   7.234 -14.089  1.00  0.00    -0.744 OA
ENDBRANCH  69  73
ENDBRANCH  42  66
BRANCH  54  77
ATOM     77  C   UNL     1      -3.504  16.270 -15.670  1.00  0.00     0.023 A 
ATOM     78  C   UNL     1      -3.270  17.627 -15.961  1.00  0.00     0.031 A 
ATOM     79  C   UNL     1      -4.365  15.542 -16.508  1.00  0.00     0.131 A 
ATOM     80  C   UNL     1      -3.931  18.228 -17.038  1.00  0.00     0.055 A 
ATOM     81  C   UNL     1      -4.992  16.137 -17.603  1.00  0.00     0.041 A 
ATOM     82  F   UNL     1      -4.622  14.248 -16.260  1.00  0.00    -0.206 F 
ATOM     83  C   UNL     1      -4.786  17.490 -17.864  1.00  0.00     0.022 A 
BRANCH  80  84
ATOM     84  S   UNL     1      -3.752  20.003 -17.368  1.00  0.00     0.124 S 
ATOM     85  O   UNL     1      -3.408  20.018 -18.789  1.00  0.00    -0.237 OA
ATOM     86  O   UNL     1      -5.082  20.508 -17.042  1.00  0.00    -0.237 OA
ATOM     87  O   UNL     1      -2.680  20.420 -16.470  1.00  0.00    -0.744 OA
ENDBRANCH  80  84
ENDBRANCH  54  77
ENDBRANCH  28  29
ENDBRANCH  20  23
ENDBRANCH   1  19
TORSDOF 14
