REMARK SMILES CC1(C(=O)N[C@H](C(=O)NCCCCNC(=O)c2ccc(-c3c4nc(c(-c5cc(S(=O)(=O)[O-])ccc5F)c5ccc([nH]5)c(-c5cc(S(=O)(=O)[O-])ccc5F)c5nc(c(-c6cc(S(=O)(=O)[O-])ccc6F)c6ccc3[nH]6)C=C5)C=C4)cc2)C2CC2)CCCC1
REMARK SMILES IDX 12 1 11 2 10 3 9 4 7 5 8 6 6 8 5 9 3 10 4 11 2 13 1 14 83 15
REMARK SMILES IDX 86 16 84 17 85 18 80 19 81 20 82 21 13 22 14 23 15 24 16 26
REMARK SMILES IDX 17 27 18 28 79 29 19 30 78 31 20 32 21 33 22 34 72 35 23 36
REMARK SMILES IDX 77 37 71 38 73 39 24 40 76 41 70 42 69 43 25 45 57 46 37 47
REMARK SMILES IDX 56 48 38 49 41 50 55 51 74 52 39 53 40 54 54 56 75 57 42 58
REMARK SMILES IDX 26 59 27 60 35 61 28 62 34 63 36 64 33 65 29 66 30 67 31 68
REMARK SMILES IDX 32 69 58 70 59 71 67 72 60 73 66 74 68 75 65 76 61 77 62 78
REMARK SMILES IDX 63 79 64 80 43 81 44 82 52 83 45 84 51 85 53 86 50 87 46 88
REMARK SMILES IDX 47 89 48 90 49 91
REMARK H PARENT 9 7 5 12 14 25 73 44 41 55
REMARK Flexibility Score: inf
ROOT
ATOM      1  C   UNL     1       6.903   0.201   2.850  1.00  0.00     0.023 C 
ENDROOT
BRANCH   1   2
ATOM      2  C   UNL     1       6.492  -0.965   1.943  1.00  0.00     0.023 C 
BRANCH   2   3
ATOM      3  C   UNL     1       5.417  -1.877   2.527  1.00  0.00     0.116 C 
BRANCH   3   4
ATOM      4  N   UNL     1       4.163  -1.180   2.721  1.00  0.00    -0.354 N 
ATOM      5  C   UNL     1       2.991  -1.270   2.030  1.00  0.00     0.242 C 
ATOM      6  O   UNL     1       2.005  -0.704   2.515  1.00  0.00    -0.273 OA
ATOM      7  H   UNL     1       4.154  -0.541   3.470  1.00  0.00     0.163 HD
BRANCH   5   8
ATOM      8  C   UNL     1       2.835  -2.200   0.795  1.00  0.00     0.174 C 
BRANCH   8   9
ATOM      9  N   UNL     1       3.925  -2.087  -0.168  1.00  0.00    -0.344 N 
ATOM     10  C   UNL     1       4.157  -1.227  -1.191  1.00  0.00     0.226 C 
ATOM     11  O   UNL     1       5.209  -1.405  -1.812  1.00  0.00    -0.274 OA
ATOM     12  H   UNL     1       4.629  -2.766  -0.053  1.00  0.00     0.164 HD
BRANCH  10  13
ATOM     13  C   UNL     1       3.153  -0.146  -1.618  1.00  0.00     0.046 C 
ATOM     14  C   UNL     1       1.955  -0.796  -2.324  1.00  0.00     0.022 C 
ATOM     15  C   UNL     1       3.848   0.851  -2.576  1.00  0.00     0.016 C 
ATOM     16  C   UNL     1       2.731   0.797  -0.484  1.00  0.00     0.016 C 
ATOM     17  C   UNL     1       2.995   2.109  -2.533  1.00  0.00     0.001 C 
ATOM     18  C   UNL     1       2.405   2.145  -1.130  1.00  0.00     0.001 C 
ENDBRANCH  10  13
ENDBRANCH   8   9
BRANCH   8  19
ATOM     19  C   UNL     1       2.654  -3.641   1.250  1.00  0.00     0.021 C 
ATOM     20  C   UNL     1       1.815  -4.585   0.417  1.00  0.00     0.006 C 
ATOM     21  C   UNL     1       3.281  -4.848   0.578  1.00  0.00     0.006 C 
ENDBRANCH   8  19
ENDBRANCH   5   8
ENDBRANCH   3   4
ENDBRANCH   2   3
ENDBRANCH   1   2
BRANCH   1  22
ATOM     22  C   UNL     1       7.297  -0.179   4.274  1.00  0.00     0.116 C 
BRANCH  22  23
ATOM     23  N   UNL     1       8.373  -1.155   4.329  1.00  0.00    -0.352 N 
ATOM     24  C   UNL     1       9.417  -1.232   5.221  1.00  0.00     0.251 C 
ATOM     25  H   UNL     1       8.353  -1.853   3.635  1.00  0.00     0.163 HD
ATOM     26  O   UNL     1      10.303  -2.064   5.053  1.00  0.00    -0.269 OA
BRANCH  24  27
ATOM     27  C   UNL     1       9.483  -0.281   6.352  1.00  0.00     0.039 A 
ATOM     28  C   UNL     1      10.679   0.402   6.585  1.00  0.00     0.014 A 
ATOM     29  C   UNL     1       8.366  -0.042   7.157  1.00  0.00     0.014 A 
ATOM     30  C   UNL     1      10.735   1.377   7.584  1.00  0.00     0.010 A 
ATOM     31  C   UNL     1       8.405   0.975   8.108  1.00  0.00     0.010 A 
ATOM     32  C   UNL     1       9.588   1.698   8.328  1.00  0.00    -0.014 A 
BRANCH  32  33
ATOM     33  C   UNL     1       9.605   2.791   9.336  1.00  0.00     0.031 A 
ATOM     34  C   UNL     1       9.389   2.477  10.791  1.00  0.00     0.074 A 
ATOM     35  C   UNL     1       9.749   4.069   8.933  1.00  0.00     0.049 A 
ATOM     36  N   UNL     1       9.285   3.293  11.808  1.00  0.00    -0.248 NA
ATOM     37  C   UNL     1       9.240   1.057  11.142  1.00  0.00     0.031 C 
ATOM     38  C   UNL     1       9.926   4.502   7.544  1.00  0.00     0.029 A 
ATOM     39  N   UNL     1       9.758   5.241   9.647  1.00  0.00    -0.354 N 
ATOM     40  C   UNL     1       9.045   2.489  12.918  1.00  0.00     0.074 A 
ATOM     41  C   UNL     1       8.961   1.127  12.435  1.00  0.00     0.031 C 
ATOM     42  C   UNL     1      10.044   5.839   7.512  1.00  0.00     0.029 A 
ATOM     43  C   UNL     1       9.908   6.364   8.866  1.00  0.00     0.049 A 
ATOM     44  H   UNL     1       9.665   5.275  10.626  1.00  0.00     0.167 HD
ATOM     45  C   UNL     1       8.928   2.852  14.220  1.00  0.00     0.034 A 
ATOM     46  C   UNL     1       9.922   7.670   9.202  1.00  0.00     0.034 A 
ATOM     47  C   UNL     1       9.028   4.214  14.685  1.00  0.00     0.049 A 
ATOM     48  C   UNL     1       9.771   8.050  10.654  1.00  0.00     0.074 A 
ATOM     49  C   UNL     1       8.980   4.686  15.985  1.00  0.00     0.029 A 
ATOM     50  N   UNL     1       9.189   5.325  13.867  1.00  0.00    -0.354 N 
ATOM     51  N   UNL     1       9.595   7.272  11.697  1.00  0.00    -0.248 NA
ATOM     52  C   UNL     1       9.834   9.482  10.973  1.00  0.00     0.031 C 
ATOM     53  C   UNL     1       9.048   6.084  15.948  1.00  0.00     0.029 A 
ATOM     54  C   UNL     1       9.213   6.482  14.632  1.00  0.00     0.049 A 
ATOM     55  H   UNL     1       9.274   5.295  12.886  1.00  0.00     0.167 HD
ATOM     56  C   UNL     1       9.558   8.122  12.800  1.00  0.00     0.074 A 
ATOM     57  C   UNL     1       9.743   9.466  12.295  1.00  0.00     0.031 C 
ATOM     58  C   UNL     1       9.390   7.818  14.112  1.00  0.00     0.034 A 
BRANCH  45  59
ATOM     59  C   UNL     1       8.654   1.756  15.223  1.00  0.00     0.023 A 
ATOM     60  C   UNL     1       9.571   0.714  15.447  1.00  0.00     0.031 A 
ATOM     61  C   UNL     1       7.448   1.737  15.946  1.00  0.00     0.131 A 
ATOM     62  C   UNL     1       9.236  -0.341  16.309  1.00  0.00     0.055 A 
ATOM     63  C   UNL     1       7.157   0.727  16.865  1.00  0.00     0.041 A 
ATOM     64  F   UNL     1       6.524   2.693  15.761  1.00  0.00    -0.206 F 
ATOM     65  C   UNL     1       8.046  -0.329  17.039  1.00  0.00     0.022 A 
BRANCH  62  66
ATOM     66  S   UNL     1      10.314  -1.800  16.350  1.00  0.00     0.124 S 
ATOM     67  O   UNL     1      10.271  -2.236  14.956  1.00  0.00    -0.237 OA
ATOM     68  O   UNL     1      11.582  -1.243  16.806  1.00  0.00    -0.237 OA
ATOM     69  O   UNL     1       9.647  -2.692  17.296  1.00  0.00    -0.744 OA
ENDBRANCH  62  66
ENDBRANCH  45  59
BRANCH  46  70
ATOM     70  C   UNL     1      10.071   8.720   8.154  1.00  0.00     0.023 A 
ATOM     71  C   UNL     1      11.198   9.556   8.124  1.00  0.00     0.031 A 
ATOM     72  C   UNL     1       9.066   8.932   7.194  1.00  0.00     0.131 A 
ATOM     73  C   UNL     1      11.272  10.598   7.186  1.00  0.00     0.055 A 
ATOM     74  C   UNL     1       9.168   9.937   6.229  1.00  0.00     0.041 A 
ATOM     75  F   UNL     1       7.970   8.157   7.174  1.00  0.00    -0.206 F 
ATOM     76  C   UNL     1      10.271  10.786   6.231  1.00  0.00     0.022 A 
BRANCH  73  77
ATOM     77  S   UNL     1      12.659  11.762   7.289  1.00  0.00     0.124 S 
ATOM     78  O   UNL     1      12.520  12.270   8.649  1.00  0.00    -0.237 OA
ATOM     79  O   UNL     1      13.803  10.890   7.044  1.00  0.00    -0.237 OA
ATOM     80  O   UNL     1      12.374  12.726   6.229  1.00  0.00    -0.744 OA
ENDBRANCH  73  77
ENDBRANCH  46  70
BRANCH  58  81
ATOM     81  C   UNL     1       9.449   8.963  15.093  1.00  0.00     0.023 A 
ATOM     82  C   UNL     1       8.460   9.961  15.128  1.00  0.00     0.031 A 
ATOM     83  C   UNL     1      10.521   9.061  15.998  1.00  0.00     0.131 A 
ATOM     84  C   UNL     1       8.591  11.044  16.011  1.00  0.00     0.055 A 
ATOM     85  C   UNL     1      10.616  10.109  16.915  1.00  0.00     0.041 A 
ATOM     86  F   UNL     1      11.495   8.136  16.007  1.00  0.00    -0.206 F 
ATOM     87  C   UNL     1       9.654  11.115  16.916  1.00  0.00     0.022 A 
BRANCH  84  88
ATOM     88  S   UNL     1       7.399  12.407  15.902  1.00  0.00     0.124 S 
ATOM     89  O   UNL     1       7.567  12.848  14.522  1.00  0.00    -0.237 OA
ATOM     90  O   UNL     1       6.137  11.742  16.210  1.00  0.00    -0.237 OA
ATOM     91  O   UNL     1       7.864  13.351  16.916  1.00  0.00    -0.744 OA
ENDBRANCH  84  88
ENDBRANCH  58  81
ENDBRANCH  32  33
ENDBRANCH  24  27
ENDBRANCH  22  23
ENDBRANCH   1  22
TORSDOF 17
