REMARK SMILES Cc1cccc(-c2ncc(C[NH+]3CCC4(CC3)NC(=O)C[C@H]4C(=O)NCCCCNC(=O)c3ccc(-c4c5nc(c(-c6cc(S(=O)(=O)[O-])ccc6F)c6ccc([nH]6)c(-c6cc(S(=O)(=O)[O-])ccc6F)c6nc(c(-c7cc(S(=O)(=O)[O-])ccc7F)c7ccc4[nH]7)C=C6)C=C5)cc3)cn2)c1
REMARK SMILES IDX 27 1 26 2 25 3 23 4 24 5 22 7 12 8 13 9 17 10 14 12 16 13
REMARK SMILES IDX 15 14 18 15 19 16 21 18 20 19 11 20 10 21 7 22 8 23 97 24
REMARK SMILES IDX 9 25 96 26 6 27 1 28 2 29 3 30 98 31 4 32 5 33 28 34 29 35
REMARK SMILES IDX 30 36 31 37 32 39 33 40 34 41 95 42 35 43 94 44 36 45 37 46
REMARK SMILES IDX 38 47 88 48 39 49 93 50 87 51 89 52 40 53 92 54 86 55 85 56
REMARK SMILES IDX 41 58 73 59 53 60 72 61 54 62 57 63 71 64 90 65 55 66 56 67
REMARK SMILES IDX 70 69 91 70 58 71 42 72 43 73 51 74 44 75 50 76 52 77 49 78
REMARK SMILES IDX 45 79 46 80 47 81 48 82 74 83 75 84 83 85 76 86 82 87 84 88
REMARK SMILES IDX 81 89 77 90 78 91 79 92 80 93 59 94 60 95 68 96 61 97 67 98
REMARK SMILES IDX 69 99 66 100 62 101 63 102 64 103 65 104
REMARK H PARENT 25 6 12 11 18 17 30 38 89 57 57 68
REMARK Flexibility Score: inf
ROOT
ATOM      1  C   UNL     1      -0.681   3.010  -2.857  1.00  0.00     0.023 C 
ENDROOT
BRANCH   1   2
ATOM      2  C   UNL     1       0.689   3.738  -2.834  1.00  0.00     0.116 C 
BRANCH   2   3
ATOM      3  N   UNL     1       0.707   5.173  -3.194  1.00  0.00    -0.356 N 
ATOM      4  C   UNL     1       0.808   6.354  -2.515  1.00  0.00     0.226 C 
ATOM      5  O   UNL     1       0.841   7.382  -3.208  1.00  0.00    -0.275 OA
ATOM      6  H   UNL     1       0.624   5.311  -4.165  1.00  0.00     0.163 HD
BRANCH   4   7
ATOM      7  C   UNL     1       0.811   6.531  -0.982  1.00  0.00     0.114 C 
ATOM      8  N   UNL     1      -3.158   7.027   0.162  1.00  0.00    -0.331 N 
ATOM      9  C   UNL     1      -2.108   7.404   1.103  1.00  0.00     0.264 C 
ATOM     10  C   UNL     1      -2.591   6.808  -1.153  1.00  0.00     0.264 C 
ATOM     11  H   UNL     1      -3.765   7.846   0.145  1.00  0.00     0.348 HD
ATOM     12  C   UNL     1      -0.814   6.568   1.112  1.00  0.00     0.091 C 
ATOM     13  C   UNL     1      -1.574   5.689  -1.136  1.00  0.00     0.091 C 
ATOM     14  C   UNL     1      -0.368   5.894  -0.224  1.00  0.00     0.063 C 
ATOM     15  N   UNL     1       0.253   4.649   0.204  1.00  0.00    -0.349 N 
ATOM     16  C   UNL     1       1.622   4.720   0.313  1.00  0.00     0.221 C 
ATOM     17  H   UNL     1      -0.260   3.832   0.397  1.00  0.00     0.164 HD
ATOM     18  C   UNL     1       2.093   5.964  -0.368  1.00  0.00     0.116 C 
ATOM     19  O   UNL     1       2.334   3.918   0.912  1.00  0.00    -0.275 OA
BRANCH   8  20
ATOM     20  C   UNL     1      -4.210   6.069   0.567  1.00  0.00     0.302 C 
BRANCH  20  21
ATOM     21  C   UNL     1      -3.842   4.620   0.721  1.00  0.00     0.043 A 
ATOM     22  C   UNL     1      -2.651   2.175   0.842  1.00  0.00     0.159 A 
ATOM     23  N   UNL     1      -2.571   2.980   1.921  1.00  0.00    -0.236 NA
ATOM     24  N   UNL     1      -3.400   2.446  -0.245  1.00  0.00    -0.236 NA
ATOM     25  C   UNL     1      -3.199   4.164   1.845  1.00  0.00     0.124 A 
ATOM     26  C   UNL     1      -3.977   3.670  -0.282  1.00  0.00     0.124 A 
BRANCH  22  27
ATOM     27  C   UNL     1      -1.809   0.974   0.876  1.00  0.00     0.019 A 
ATOM     28  C   UNL     1       1.859   0.059   1.514  1.00  0.00     0.044 C 
ATOM     29  C   UNL     1       0.371  -0.069   1.338  1.00  0.00    -0.050 A 
ATOM     30  C   UNL     1      -0.217  -1.325   1.200  1.00  0.00     0.003 A 
ATOM     31  C   UNL     1      -0.441   1.063   1.221  1.00  0.00     0.015 A 
ATOM     32  C   UNL     1      -1.548  -1.438   0.796  1.00  0.00     0.001 A 
ATOM     33  C   UNL     1      -2.331  -0.297   0.609  1.00  0.00     0.012 A 
ENDBRANCH  22  27
ENDBRANCH  20  21
ENDBRANCH   8  20
ENDBRANCH   4   7
ENDBRANCH   2   3
ENDBRANCH   1   2
BRANCH   1  34
ATOM     34  C   UNL     1      -1.488   3.051  -4.152  1.00  0.00     0.023 C 
BRANCH  34  35
ATOM     35  C   UNL     1      -0.883   2.199  -5.252  1.00  0.00     0.116 C 
BRANCH  35  36
ATOM     36  N   UNL     1      -1.295   0.800  -5.322  1.00  0.00    -0.352 N 
ATOM     37  C   UNL     1      -0.952  -0.152  -6.283  1.00  0.00     0.251 C 
ATOM     38  H   UNL     1      -1.890   0.489  -4.602  1.00  0.00     0.163 HD
ATOM     39  O   UNL     1      -1.513  -1.242  -6.359  1.00  0.00    -0.269 OA
BRANCH  37  40
ATOM     40  C   UNL     1       0.259   0.086  -7.109  1.00  0.00     0.039 A 
ATOM     41  C   UNL     1       1.246  -0.912  -7.107  1.00  0.00     0.014 A 
ATOM     42  C   UNL     1       0.574   1.376  -7.501  1.00  0.00     0.014 A 
ATOM     43  C   UNL     1       2.579  -0.538  -7.179  1.00  0.00     0.010 A 
ATOM     44  C   UNL     1       1.868   1.778  -7.329  1.00  0.00     0.010 A 
ATOM     45  C   UNL     1       2.858   0.819  -7.122  1.00  0.00    -0.014 A 
BRANCH  45  46
ATOM     46  C   UNL     1       4.179   1.393  -7.049  1.00  0.00     0.031 A 
ATOM     47  C   UNL     1       4.792   1.692  -8.346  1.00  0.00     0.074 A 
ATOM     48  C   UNL     1       4.617   1.817  -5.845  1.00  0.00     0.049 A 
ATOM     49  N   UNL     1       6.040   1.888  -8.544  1.00  0.00    -0.248 NA
ATOM     50  C   UNL     1       4.008   1.723  -9.585  1.00  0.00     0.031 C 
ATOM     51  C   UNL     1       5.710   2.721  -5.510  1.00  0.00     0.029 A 
ATOM     52  N   UNL     1       4.254   1.262  -4.620  1.00  0.00    -0.354 N 
ATOM     53  C   UNL     1       6.159   2.432  -9.806  1.00  0.00     0.074 A 
ATOM     54  C   UNL     1       4.914   2.150 -10.463  1.00  0.00     0.031 C 
ATOM     55  C   UNL     1       6.130   2.442  -4.259  1.00  0.00     0.029 A 
ATOM     56  C   UNL     1       5.426   1.238  -3.840  1.00  0.00     0.049 A 
ATOM     57  H   UNL     1       3.359   0.950  -4.354  1.00  0.00     0.167 HD
ATOM     58  C   UNL     1       7.231   3.231 -10.053  1.00  0.00     0.034 A 
ATOM     59  C   UNL     1       6.019   0.029  -3.577  1.00  0.00     0.034 A 
ATOM     60  C   UNL     1       8.111   3.230  -8.883  1.00  0.00     0.049 A 
ATOM     61  C   UNL     1       7.392  -0.064  -4.200  1.00  0.00     0.074 A 
ATOM     62  C   UNL     1       8.259   4.106  -7.820  1.00  0.00     0.029 A 
ATOM     63  N   UNL     1       8.696   2.034  -8.497  1.00  0.00    -0.354 N 
ATOM     64  N   UNL     1       7.755   0.594  -5.268  1.00  0.00    -0.248 NA
ATOM     65  C   UNL     1       8.473  -0.860  -3.633  1.00  0.00     0.031 C 
ATOM     66  C   UNL     1       8.860   3.384  -6.750  1.00  0.00     0.029 A 
ATOM     67  C   UNL     1       9.101   2.089  -7.180  1.00  0.00     0.049 A 
ATOM     68  H   UNL     1       8.806   1.250  -9.083  1.00  0.00     0.167 HD
ATOM     69  C   UNL     1       9.079   0.357  -5.523  1.00  0.00     0.074 A 
ATOM     70  C   UNL     1       9.483  -0.557  -4.466  1.00  0.00     0.031 C 
ATOM     71  C   UNL     1       9.733   0.926  -6.581  1.00  0.00     0.034 A 
BRANCH  58  72
ATOM     72  C   UNL     1       7.371   4.228 -11.177  1.00  0.00     0.023 A 
ATOM     73  C   UNL     1       8.362   5.221 -11.039  1.00  0.00     0.031 A 
ATOM     74  C   UNL     1       6.593   4.320 -12.348  1.00  0.00     0.131 A 
ATOM     75  C   UNL     1       8.515   6.253 -11.978  1.00  0.00     0.055 A 
ATOM     76  C   UNL     1       6.733   5.358 -13.280  1.00  0.00     0.041 A 
ATOM     77  F   UNL     1       5.680   3.406 -12.683  1.00  0.00    -0.206 F 
ATOM     78  C   UNL     1       7.696   6.336 -13.097  1.00  0.00     0.022 A 
BRANCH  75  79
ATOM     79  S   UNL     1       9.809   7.488 -11.701  1.00  0.00     0.124 S 
ATOM     80  O   UNL     1       9.373   8.114 -10.457  1.00  0.00    -0.237 OA
ATOM     81  O   UNL     1      11.011   6.665 -11.627  1.00  0.00    -0.237 OA
ATOM     82  O   UNL     1       9.719   8.341 -12.886  1.00  0.00    -0.744 OA
ENDBRANCH  75  79
ENDBRANCH  58  72
BRANCH  59  83
ATOM     83  C   UNL     1       5.017  -1.089  -3.508  1.00  0.00     0.023 A 
ATOM     84  C   UNL     1       3.904  -0.877  -2.668  1.00  0.00     0.031 A 
ATOM     85  C   UNL     1       4.889  -2.046  -4.525  1.00  0.00     0.131 A 
ATOM     86  C   UNL     1       2.652  -1.379  -3.043  1.00  0.00     0.055 A 
ATOM     87  C   UNL     1       3.655  -2.654  -4.802  1.00  0.00     0.041 A 
ATOM     88  F   UNL     1       5.913  -2.317  -5.346  1.00  0.00    -0.206 F 
ATOM     89  C   UNL     1       2.514  -2.265  -4.105  1.00  0.00     0.022 A 
BRANCH  86  90
ATOM     90  S   UNL     1       1.169  -0.741  -2.245  1.00  0.00     0.124 S 
ATOM     91  O   UNL     1       0.910  -1.841  -1.329  1.00  0.00    -0.237 OA
ATOM     92  O   UNL     1       1.620   0.527  -1.676  1.00  0.00    -0.237 OA
ATOM     93  O   UNL     1       0.208  -0.586  -3.334  1.00  0.00    -0.744 OA
ENDBRANCH  86  90
ENDBRANCH  59  83
BRANCH  71  94
ATOM     94  C   UNL     1      11.054   0.459  -7.151  1.00  0.00     0.023 A 
ATOM     95  C   UNL     1      11.639  -0.760  -6.800  1.00  0.00     0.031 A 
ATOM     96  C   UNL     1      11.721   1.185  -8.172  1.00  0.00     0.131 A 
ATOM     97  C   UNL     1      12.858  -1.168  -7.360  1.00  0.00     0.055 A 
ATOM     98  C   UNL     1      12.866   0.716  -8.818  1.00  0.00     0.041 A 
ATOM     99  F   UNL     1      11.285   2.378  -8.602  1.00  0.00    -0.206 F 
ATOM    100  C   UNL     1      13.459  -0.460  -8.396  1.00  0.00     0.022 A 
BRANCH  97 101
ATOM    101  S   UNL     1      13.684  -2.590  -6.610  1.00  0.00     0.124 S 
ATOM    102  O   UNL     1      13.897  -2.121  -5.243  1.00  0.00    -0.237 OA
ATOM    103  O   UNL     1      12.693  -3.649  -6.766  1.00  0.00    -0.237 OA
ATOM    104  O   UNL     1      14.897  -2.744  -7.410  1.00  0.00    -0.744 OA
ENDBRANCH  97 101
ENDBRANCH  71  94
ENDBRANCH  45  46
ENDBRANCH  37  40
ENDBRANCH  35  36
ENDBRANCH  34  35
ENDBRANCH   1  34
TORSDOF 17
