REMARK SMILES Cc1cccc(CC(=O)N2CCC3(CCC(=O)N([C@H](C)C(=O)NCCCCNC(=O)c4ccc(-c5c6nc(c(-c7cc(S(=O)(=O)[O-])ccc7F)c7ccc([nH]7)c(-c7cc(S(=O)(=O)[O-])ccc7F)c7nc(c(-c8cc(S(=O)(=O)[O-])ccc8F)c8ccc5[nH]8)C=C7)C=C6)cc4)C3)CC2)c1
REMARK SMILES IDX 25 1 24 2 23 3 21 4 22 5 19 7 20 8 18 9 8 10 9 11 10 12
REMARK SMILES IDX 11 13 96 14 12 15 95 16 13 17 14 18 94 19 15 20 16 21 17 22
REMARK SMILES IDX 7 23 6 24 1 25 2 26 3 27 97 28 4 29 5 30 26 31 27 32 28 33
REMARK SMILES IDX 29 34 30 36 31 37 32 38 93 39 33 40 92 41 34 42 35 43 36 44
REMARK SMILES IDX 86 45 37 46 91 47 85 48 87 49 38 50 90 51 84 52 83 53 39 55
REMARK SMILES IDX 71 56 51 57 70 58 52 59 55 60 69 61 88 62 53 63 54 64 68 66
REMARK SMILES IDX 89 67 56 68 40 69 41 70 49 71 42 72 48 73 50 74 47 75 43 76
REMARK SMILES IDX 44 77 45 78 46 79 72 80 73 81 81 82 74 83 80 84 82 85 79 86
REMARK SMILES IDX 75 87 76 88 77 89 78 90 57 91 58 92 66 93 59 94 65 95 67 96
REMARK SMILES IDX 64 97 60 98 61 99 62 100 63 101
REMARK H PARENT 23 6 28 35 87 54 55 65
REMARK Flexibility Score: inf
ROOT
ATOM      1  C   UNL     1      -2.021   4.004  -8.531  1.00  0.00     0.023 C 
ENDROOT
BRANCH   1   2
ATOM      2  C   UNL     1      -1.257   5.325  -8.624  1.00  0.00     0.116 C 
BRANCH   2   3
ATOM      3  N   UNL     1      -1.631   6.282  -7.586  1.00  0.00    -0.354 N 
ATOM      4  C   UNL     1      -0.846   7.015  -6.740  1.00  0.00     0.242 C 
ATOM      5  O   UNL     1      -1.396   7.892  -6.061  1.00  0.00    -0.273 OA
ATOM      6  H   UNL     1      -2.600   6.421  -7.478  1.00  0.00     0.163 HD
BRANCH   4   7
ATOM      7  C   UNL     1       0.661   6.709  -6.539  1.00  0.00     0.171 C 
ATOM      8  C   UNL     1       0.883   5.264  -6.084  1.00  0.00     0.042 C 
BRANCH   7   9
ATOM      9  N   UNL     1       1.627   7.114  -7.574  1.00  0.00    -0.330 N 
ATOM     10  C   UNL     1       7.863   5.257  -6.981  1.00  0.00     0.226 C 
ATOM     11  O   UNL     1       8.066   4.062  -6.729  1.00  0.00    -0.275 OA
ATOM     12  N   UNL     1       6.752   5.650  -7.712  1.00  0.00    -0.342 N 
ATOM     13  C   UNL     1       5.624   4.732  -7.880  1.00  0.00     0.120 C 
ATOM     14  C   UNL     1       6.573   6.909  -8.421  1.00  0.00     0.120 C 
ATOM     15  C   UNL     1       4.321   5.403  -7.408  1.00  0.00     0.030 C 
ATOM     16  C   UNL     1       5.385   7.653  -7.837  1.00  0.00     0.030 C 
ATOM     17  C   UNL     1       4.083   6.826  -7.996  1.00  0.00    -0.008 C 
ATOM     18  C   UNL     1       3.706   6.792  -9.501  1.00  0.00     0.019 C 
ATOM     19  C   UNL     1       2.964   7.539  -7.204  1.00  0.00     0.127 C 
ATOM     20  C   UNL     1       2.274   6.374  -9.771  1.00  0.00     0.101 C 
ATOM     21  C   UNL     1       1.300   7.145  -8.917  1.00  0.00     0.223 C 
ATOM     22  O   UNL     1       0.271   7.643  -9.354  1.00  0.00    -0.275 OA
BRANCH  10  23
ATOM     23  C   UNL     1       8.736   6.291  -6.268  1.00  0.00     0.135 C 
BRANCH  23  24
ATOM     24  C   UNL     1       9.319   7.436  -7.053  1.00  0.00    -0.038 A 
ATOM     25  C   UNL     1       8.844  11.218  -7.263  1.00  0.00     0.044 C 
ATOM     26  C   UNL     1       9.344   9.830  -7.536  1.00  0.00    -0.051 A 
ATOM     27  C   UNL     1      10.167   9.582  -8.639  1.00  0.00     0.003 A 
ATOM     28  C   UNL     1       8.947   8.755  -6.732  1.00  0.00     0.007 A 
ATOM     29  C   UNL     1      10.586   8.283  -8.933  1.00  0.00     0.001 A 
ATOM     30  C   UNL     1      10.167   7.211  -8.143  1.00  0.00     0.004 A 
ENDBRANCH  23  24
ENDBRANCH  10  23
ENDBRANCH   7   9
ENDBRANCH   4   7
ENDBRANCH   2   3
ENDBRANCH   1   2
BRANCH   1  31
ATOM     31  C   UNL     1      -3.536   4.119  -8.687  1.00  0.00     0.023 C 
BRANCH  31  32
ATOM     32  C   UNL     1      -4.000   4.680 -10.026  1.00  0.00     0.116 C 
BRANCH  32  33
ATOM     33  N   UNL     1      -4.255   3.695 -11.066  1.00  0.00    -0.352 N 
ATOM     34  C   UNL     1      -4.688   3.900 -12.369  1.00  0.00     0.251 C 
ATOM     35  H   UNL     1      -4.099   2.757 -10.811  1.00  0.00     0.163 HD
ATOM     36  O   UNL     1      -5.018   2.959 -13.074  1.00  0.00    -0.269 OA
BRANCH  34  37
ATOM     37  C   UNL     1      -4.644   5.272 -12.943  1.00  0.00     0.039 A 
ATOM     38  C   UNL     1      -4.039   5.434 -14.197  1.00  0.00     0.014 A 
ATOM     39  C   UNL     1      -4.985   6.389 -12.188  1.00  0.00     0.014 A 
ATOM     40  C   UNL     1      -3.564   6.690 -14.576  1.00  0.00     0.010 A 
ATOM     41  C   UNL     1      -4.415   7.604 -12.502  1.00  0.00     0.010 A 
ATOM     42  C   UNL     1      -3.657   7.742 -13.668  1.00  0.00    -0.014 A 
BRANCH  42  43
ATOM     43  C   UNL     1      -2.911   8.988 -13.787  1.00  0.00     0.031 A 
ATOM     44  C   UNL     1      -3.602  10.250 -14.109  1.00  0.00     0.074 A 
ATOM     45  C   UNL     1      -1.601   9.005 -13.460  1.00  0.00     0.049 A 
ATOM     46  N   UNL     1      -3.022  11.303 -14.574  1.00  0.00    -0.248 NA
ATOM     47  C   UNL     1      -5.043  10.408 -13.967  1.00  0.00     0.031 C 
ATOM     48  C   UNL     1      -0.755  10.170 -13.214  1.00  0.00     0.029 A 
ATOM     49  N   UNL     1      -0.708   7.937 -13.539  1.00  0.00    -0.354 N 
ATOM     50  C   UNL     1      -3.914  12.346 -14.484  1.00  0.00     0.074 A 
ATOM     51  C   UNL     1      -5.180  11.719 -14.184  1.00  0.00     0.031 C 
ATOM     52  C   UNL     1       0.522   9.830 -13.445  1.00  0.00     0.029 A 
ATOM     53  C   UNL     1       0.511   8.484 -13.988  1.00  0.00     0.049 A 
ATOM     54  H   UNL     1      -0.891   6.994 -13.325  1.00  0.00     0.167 HD
ATOM     55  C   UNL     1      -3.443  13.626 -14.528  1.00  0.00     0.034 A 
ATOM     56  C   UNL     1       1.039   8.114 -15.191  1.00  0.00     0.034 A 
ATOM     57  C   UNL     1      -2.004  13.656 -14.810  1.00  0.00     0.049 A 
ATOM     58  C   UNL     1       1.230   9.270 -16.151  1.00  0.00     0.074 A 
ATOM     59  C   UNL     1      -0.883  13.881 -14.027  1.00  0.00     0.029 A 
ATOM     60  N   UNL     1      -1.536  13.148 -16.018  1.00  0.00    -0.354 N 
ATOM     61  N   UNL     1       0.668  10.441 -16.024  1.00  0.00    -0.248 NA
ATOM     62  C   UNL     1       2.068   9.187 -17.339  1.00  0.00     0.031 C 
ATOM     63  C   UNL     1       0.262  13.472 -14.766  1.00  0.00     0.029 A 
ATOM     64  C   UNL     1      -0.160  13.023 -16.005  1.00  0.00     0.049 A 
ATOM     65  H   UNL     1      -2.110  12.909 -16.781  1.00  0.00     0.167 HD
ATOM     66  C   UNL     1       1.031  11.256 -17.072  1.00  0.00     0.074 A 
ATOM     67  C   UNL     1       1.924  10.420 -17.858  1.00  0.00     0.031 C 
ATOM     68  C   UNL     1       0.549  12.536 -17.187  1.00  0.00     0.034 A 
BRANCH  55  69
ATOM     69  C   UNL     1      -4.214  14.834 -14.025  1.00  0.00     0.023 A 
ATOM     70  C   UNL     1      -3.503  15.954 -13.539  1.00  0.00     0.031 A 
ATOM     71  C   UNL     1      -5.616  14.941 -13.939  1.00  0.00     0.131 A 
ATOM     72  C   UNL     1      -4.157  17.032 -12.911  1.00  0.00     0.055 A 
ATOM     73  C   UNL     1      -6.266  15.982 -13.261  1.00  0.00     0.041 A 
ATOM     74  F   UNL     1      -6.431  14.082 -14.563  1.00  0.00    -0.206 F 
ATOM     75  C   UNL     1      -5.535  17.030 -12.729  1.00  0.00     0.022 A 
BRANCH  72  76
ATOM     76  S   UNL     1      -3.180  18.450 -12.339  1.00  0.00     0.124 S 
ATOM     77  O   UNL     1      -2.267  17.834 -11.382  1.00  0.00    -0.237 OA
ATOM     78  O   UNL     1      -2.586  18.936 -13.579  1.00  0.00    -0.237 OA
ATOM     79  O   UNL     1      -4.183  19.337 -11.750  1.00  0.00    -0.744 OA
ENDBRANCH  72  76
ENDBRANCH  55  69
BRANCH  56  80
ATOM     80  C   UNL     1       0.716   6.701 -15.555  1.00  0.00     0.023 A 
ATOM     81  C   UNL     1       1.032   5.709 -14.597  1.00  0.00     0.031 A 
ATOM     82  C   UNL     1      -0.214   6.374 -16.549  1.00  0.00     0.131 A 
ATOM     83  C   UNL     1       0.282   4.527 -14.525  1.00  0.00     0.055 A 
ATOM     84  C   UNL     1      -0.894   5.147 -16.530  1.00  0.00     0.041 A 
ATOM     85  F   UNL     1      -0.573   7.274 -17.475  1.00  0.00    -0.206 F 
ATOM     86  C   UNL     1      -0.685   4.239 -15.487  1.00  0.00     0.022 A 
BRANCH  83  87
ATOM     87  S   UNL     1       0.407   3.534 -13.005  1.00  0.00     0.124 S 
ATOM     88  O   UNL     1       1.687   2.856 -13.186  1.00  0.00    -0.237 OA
ATOM     89  O   UNL     1       0.380   4.545 -11.949  1.00  0.00    -0.237 OA
ATOM     90  O   UNL     1      -0.771   2.673 -13.049  1.00  0.00    -0.744 OA
ENDBRANCH  83  87
ENDBRANCH  56  80
BRANCH  68  91
ATOM     91  C   UNL     1       0.721  13.495 -18.365  1.00  0.00     0.023 A 
ATOM     92  C   UNL     1       1.412  13.187 -19.544  1.00  0.00     0.031 A 
ATOM     93  C   UNL     1       0.139  14.793 -18.343  1.00  0.00     0.131 A 
ATOM     94  C   UNL     1       1.537  14.117 -20.598  1.00  0.00     0.055 A 
ATOM     95  C   UNL     1       0.223  15.699 -19.407  1.00  0.00     0.041 A 
ATOM     96  F   UNL     1      -0.554  15.248 -17.291  1.00  0.00    -0.206 F 
ATOM     97  C   UNL     1       0.933  15.367 -20.546  1.00  0.00     0.022 A 
BRANCH  94  98
ATOM     98  S   UNL     1       2.549  13.656 -22.031  1.00  0.00     0.124 S 
ATOM     99  O   UNL     1       3.864  13.467 -21.425  1.00  0.00    -0.237 OA
ATOM    100  O   UNL     1       1.888  12.442 -22.500  1.00  0.00    -0.237 OA
ATOM    101  O   UNL     1       2.435  14.809 -22.921  1.00  0.00    -0.744 OA
ENDBRANCH  94  98
ENDBRANCH  68  91
ENDBRANCH  42  43
ENDBRANCH  34  37
ENDBRANCH  32  33
ENDBRANCH  31  32
ENDBRANCH   1  31
TORSDOF 17
