REMARK SMILES Cc1nc(Oc2ccc(F)cc2)c(C(=O)NCCCCNC(=O)c2ccc(-c3c4nc(c(-c5cc(S(=O)(=O)[O-])ccc5F)c5ccc([nH]5)c(-c5cc(S(=O)(=O)[O-])ccc5F)c5nc(c(-c6cc(S(=O)(=O)[O-])ccc6F)c6ccc3[nH]6)C=C5)C=C4)cc2)c(C)c1Cl
REMARK SMILES IDX 19 1 18 2 17 3 16 4 14 5 15 6 13 8 1 9 2 10 3 11 89 12 4 13
REMARK SMILES IDX 87 14 90 15 88 16 5 17 6 18 7 19 12 20 8 21 11 22 9 23 10 24
REMARK SMILES IDX 20 25 21 26 22 27 23 29 24 30 25 31 86 32 26 33 85 34 27 35
REMARK SMILES IDX 28 36 29 37 79 38 30 39 84 40 78 41 80 42 31 43 83 44 77 45
REMARK SMILES IDX 76 46 32 48 64 49 44 50 63 51 45 52 48 53 62 54 81 55 46 56
REMARK SMILES IDX 47 57 61 59 82 60 49 61 33 62 34 63 42 64 35 65 41 66 43 67
REMARK SMILES IDX 40 68 36 69 37 70 38 71 39 72 65 73 66 74 74 75 67 76 73 77
REMARK SMILES IDX 75 78 72 79 68 80 69 81 70 82 71 83 50 84 51 85 59 86 52 87
REMARK SMILES IDX 58 88 60 89 57 90 53 91 54 92 55 93 56 94
REMARK H PARENT 16 7 21 28 80 47 48 58
REMARK Flexibility Score: inf
ROOT
ATOM      1  C   UNL     1      -3.408   2.821   7.258  1.00  0.00     0.023 C 
ENDROOT
BRANCH   1   2
ATOM      2  C   UNL     1      -3.099   2.540   5.790  1.00  0.00     0.023 C 
BRANCH   2   3
ATOM      3  C   UNL     1      -1.660   2.233   5.405  1.00  0.00     0.116 C 
BRANCH   3   4
ATOM      4  N   UNL     1      -1.114   0.963   5.837  1.00  0.00    -0.352 N 
ATOM      5  C   UNL     1      -0.031   0.330   5.248  1.00  0.00     0.257 C 
ATOM      6  O   UNL     1       0.880  -0.118   5.937  1.00  0.00    -0.269 OA
ATOM      7  H   UNL     1      -1.543   0.518   6.603  1.00  0.00     0.163 HD
BRANCH   5   8
ATOM      8  C   UNL     1       0.025   0.130   3.782  1.00  0.00     0.106 A 
ATOM      9  C   UNL     1       0.621  -0.788  -0.347  1.00  0.00     0.068 C 
ATOM     10  C   UNL     1       0.358  -0.388   1.077  1.00  0.00     0.060 A 
ATOM     11  N   UNL     1       0.009  -1.395   1.907  1.00  0.00    -0.216 NA
ATOM     12  C   UNL     1       0.553   0.912   1.536  1.00  0.00     0.066 A 
ATOM     13  C   UNL     1      -0.150  -1.153   3.238  1.00  0.00     0.232 A 
ATOM     14  C   UNL     1       0.438   1.179   2.916  1.00  0.00    -0.012 A 
ATOM     15  Cl  UNL     1       0.964   2.170   0.413  1.00  0.00    -0.082 Cl
ATOM     16  C   UNL     1       0.813   2.550   3.425  1.00  0.00     0.047 C 
BRANCH  13  17
ATOM     17  O   UNL     1      -0.322  -2.351   3.881  1.00  0.00    -0.438 OA
BRANCH  17  18
ATOM     18  C   UNL     1      -0.881  -2.455   5.120  1.00  0.00     0.129 A 
ATOM     19  C   UNL     1      -0.082  -3.013   6.125  1.00  0.00     0.050 A 
ATOM     20  C   UNL     1      -2.224  -2.166   5.359  1.00  0.00     0.050 A 
ATOM     21  C   UNL     1      -0.606  -3.214   7.398  1.00  0.00     0.043 A 
ATOM     22  C   UNL     1      -2.749  -2.374   6.637  1.00  0.00     0.043 A 
ATOM     23  C   UNL     1      -1.934  -2.888   7.644  1.00  0.00     0.123 A 
ATOM     24  F   UNL     1      -2.440  -3.084   8.867  1.00  0.00    -0.207 F 
ENDBRANCH  17  18
ENDBRANCH  13  17
ENDBRANCH   5   8
ENDBRANCH   3   4
ENDBRANCH   2   3
ENDBRANCH   1   2
BRANCH   1  25
ATOM     25  C   UNL     1      -2.445   3.722   8.024  1.00  0.00     0.116 C 
BRANCH  25  26
ATOM     26  N   UNL     1      -2.160   5.002   7.386  1.00  0.00    -0.352 N 
ATOM     27  C   UNL     1      -2.109   6.255   7.961  1.00  0.00     0.251 C 
ATOM     28  H   UNL     1      -1.980   4.967   6.418  1.00  0.00     0.163 HD
ATOM     29  O   UNL     1      -1.832   7.242   7.298  1.00  0.00    -0.269 OA
BRANCH  27  30
ATOM     30  C   UNL     1      -2.457   6.380   9.390  1.00  0.00     0.039 A 
ATOM     31  C   UNL     1      -3.589   7.120   9.739  1.00  0.00     0.014 A 
ATOM     32  C   UNL     1      -1.748   5.654  10.350  1.00  0.00     0.014 A 
ATOM     33  C   UNL     1      -4.071   7.054  11.046  1.00  0.00     0.010 A 
ATOM     34  C   UNL     1      -2.267   5.540  11.635  1.00  0.00     0.010 A 
ATOM     35  C   UNL     1      -3.440   6.227  11.989  1.00  0.00    -0.014 A 
BRANCH  35  36
ATOM     36  C   UNL     1      -3.996   6.061  13.354  1.00  0.00     0.031 A 
ATOM     37  C   UNL     1      -3.235   6.584  14.535  1.00  0.00     0.074 A 
ATOM     38  C   UNL     1      -5.146   5.379  13.531  1.00  0.00     0.049 A 
ATOM     39  N   UNL     1      -3.533   6.506  15.804  1.00  0.00    -0.248 NA
ATOM     40  C   UNL     1      -1.958   7.260  14.255  1.00  0.00     0.031 C 
ATOM     41  C   UNL     1      -5.940   4.773  12.462  1.00  0.00     0.029 A 
ATOM     42  N   UNL     1      -5.839   5.069  14.676  1.00  0.00    -0.354 N 
ATOM     43  C   UNL     1      -2.479   7.115  16.474  1.00  0.00     0.074 A 
ATOM     44  C   UNL     1      -1.508   7.504  15.477  1.00  0.00     0.031 C 
ATOM     45  C   UNL     1      -7.018   4.178  12.999  1.00  0.00     0.029 A 
ATOM     46  C   UNL     1      -6.981   4.337  14.451  1.00  0.00     0.049 A 
ATOM     47  H   UNL     1      -5.545   5.346  15.574  1.00  0.00     0.167 HD
ATOM     48  C   UNL     1      -2.350   7.356  17.798  1.00  0.00     0.034 A 
ATOM     49  C   UNL     1      -7.897   3.853  15.315  1.00  0.00     0.034 A 
ATOM     50  C   UNL     1      -3.335   6.989  18.778  1.00  0.00     0.049 A 
ATOM     51  C   UNL     1      -7.743   4.149  16.786  1.00  0.00     0.074 A 
ATOM     52  C   UNL     1      -3.327   7.252  20.136  1.00  0.00     0.029 A 
ATOM     53  N   UNL     1      -4.501   6.288  18.510  1.00  0.00    -0.354 N 
ATOM     54  N   UNL     1      -6.795   4.824  17.393  1.00  0.00    -0.248 NA
ATOM     55  C   UNL     1      -8.784   3.638  17.689  1.00  0.00     0.031 C 
ATOM     56  C   UNL     1      -4.468   6.675  20.695  1.00  0.00     0.029 A 
ATOM     57  C   UNL     1      -5.213   6.095  19.680  1.00  0.00     0.049 A 
ATOM     58  H   UNL     1      -4.780   5.975  17.619  1.00  0.00     0.167 HD
ATOM     59  C   UNL     1      -7.138   4.841  18.742  1.00  0.00     0.074 A 
ATOM     60  C   UNL     1      -8.389   4.122  18.861  1.00  0.00     0.031 C 
ATOM     61  C   UNL     1      -6.474   5.401  19.784  1.00  0.00     0.034 A 
BRANCH  48  62
ATOM     62  C   UNL     1      -1.119   8.080  18.270  1.00  0.00     0.023 A 
ATOM     63  C   UNL     1      -0.190   7.429  19.100  1.00  0.00     0.031 A 
ATOM     64  C   UNL     1      -0.917   9.439  17.972  1.00  0.00     0.131 A 
ATOM     65  C   UNL     1       0.892   8.146  19.622  1.00  0.00     0.055 A 
ATOM     66  C   UNL     1       0.182  10.140  18.467  1.00  0.00     0.041 A 
ATOM     67  F   UNL     1      -1.776  10.099  17.179  1.00  0.00    -0.206 F 
ATOM     68  C   UNL     1       1.088   9.495  19.303  1.00  0.00     0.022 A 
BRANCH  65  69
ATOM     69  S   UNL     1       2.074   7.366  20.753  1.00  0.00     0.124 S 
ATOM     70  O   UNL     1       3.351   7.652  20.102  1.00  0.00    -0.237 OA
ATOM     71  O   UNL     1       1.830   8.094  21.995  1.00  0.00    -0.237 OA
ATOM     72  O   UNL     1       1.682   5.961  20.754  1.00  0.00    -0.744 OA
ENDBRANCH  65  69
ENDBRANCH  48  62
BRANCH  49  73
ATOM     73  C   UNL     1      -9.076   3.108  14.787  1.00  0.00     0.023 A 
ATOM     74  C   UNL     1      -8.927   1.863  14.151  1.00  0.00     0.031 A 
ATOM     75  C   UNL     1     -10.358   3.682  14.828  1.00  0.00     0.131 A 
ATOM     76  C   UNL     1     -10.034   1.257  13.539  1.00  0.00     0.055 A 
ATOM     77  C   UNL     1     -11.468   3.048  14.268  1.00  0.00     0.041 A 
ATOM     78  F   UNL     1     -10.545   4.875  15.413  1.00  0.00    -0.206 F 
ATOM     79  C   UNL     1     -11.306   1.833  13.608  1.00  0.00     0.022 A 
BRANCH  76  80
ATOM     80  S   UNL     1      -9.842  -0.255  12.556  1.00  0.00     0.124 S 
ATOM     81  O   UNL     1     -10.845  -1.136  13.146  1.00  0.00    -0.237 OA
ATOM     82  O   UNL     1     -10.143   0.229  11.210  1.00  0.00    -0.237 OA
ATOM     83  O   UNL     1      -8.454  -0.640  12.783  1.00  0.00    -0.744 OA
ENDBRANCH  76  80
ENDBRANCH  49  73
BRANCH  61  84
ATOM     84  C   UNL     1      -7.068   5.294  21.164  1.00  0.00     0.023 A 
ATOM     85  C   UNL     1      -7.486   6.457  21.838  1.00  0.00     0.031 A 
ATOM     86  C   UNL     1      -7.053   4.080  21.871  1.00  0.00     0.131 A 
ATOM     87  C   UNL     1      -7.826   6.391  23.194  1.00  0.00     0.055 A 
ATOM     88  C   UNL     1      -7.433   4.012  23.212  1.00  0.00     0.041 A 
ATOM     89  F   UNL     1      -6.652   2.948  21.271  1.00  0.00    -0.206 F 
ATOM     90  C   UNL     1      -7.808   5.173  23.883  1.00  0.00     0.022 A 
BRANCH  87  91
ATOM     91  S   UNL     1      -8.229   7.890  24.132  1.00  0.00     0.124 S 
ATOM     92  O   UNL     1      -9.546   7.565  24.673  1.00  0.00    -0.237 OA
ATOM     93  O   UNL     1      -7.146   7.939  25.110  1.00  0.00    -0.237 OA
ATOM     94  O   UNL     1      -8.217   8.948  23.127  1.00  0.00    -0.744 OA
ENDBRANCH  87  91
ENDBRANCH  61  84
ENDBRANCH  35  36
ENDBRANCH  27  30
ENDBRANCH  25  26
ENDBRANCH   1  25
TORSDOF 16
