REMARK SMILES C=CC[N@@H+](CC(=O)NCCCCNC(=O)c1ccc(-c2c3nc(c(-c4cc(S(=O)(=O)[O-])ccc4F)c4ccc([nH]4)c(-c4cc(S(=O)(=O)[O-])ccc4F)c4nc(c(-c5cc(S(=O)(=O)[O-])ccc5F)c5ccc2[nH]5)C=C4)C=C3)cc1)C[C@H]1CCC[C@H](C)C1
REMARK SMILES IDX 10 1 9 2 8 3 6 4 7 5 5 7 4 8 3 10 2 11 1 12 79 13 80 14
REMARK SMILES IDX 81 15 86 16 82 17 84 18 83 19 85 20 11 21 12 22 13 23 14 24
REMARK SMILES IDX 15 26 16 27 17 28 78 29 18 30 77 31 19 32 20 33 21 34 71 35
REMARK SMILES IDX 22 36 76 37 70 38 72 39 23 40 75 41 69 42 68 43 24 45 56 46
REMARK SMILES IDX 36 47 55 48 37 49 40 50 54 51 73 52 38 53 39 54 53 56 74 57
REMARK SMILES IDX 41 58 25 59 26 60 34 61 27 62 33 63 35 64 32 65 28 66 29 67
REMARK SMILES IDX 30 68 31 69 57 70 58 71 66 72 59 73 65 74 67 75 64 76 60 77
REMARK SMILES IDX 61 78 62 79 63 80 42 81 43 82 51 83 44 84 50 85 52 86 49 87
REMARK SMILES IDX 45 88 46 89 47 90 48 91
REMARK H PARENT 8 6 4 9 13 25 72 44 40 55
REMARK Flexibility Score: inf
ROOT
ATOM      1  C   UNL     1      -1.959   0.411   1.520  1.00  0.00     0.023 C 
ENDROOT
BRANCH   1   2
ATOM      2  C   UNL     1      -3.252  -0.217   0.977  1.00  0.00     0.116 C 
BRANCH   2   3
ATOM      3  N   UNL     1      -3.760   0.536  -0.155  1.00  0.00    -0.351 N 
ATOM      4  C   UNL     1      -3.638   0.351  -1.502  1.00  0.00     0.275 C 
ATOM      5  O   UNL     1      -4.120   1.235  -2.222  1.00  0.00    -0.269 OA
ATOM      6  H   UNL     1      -4.290   1.326   0.094  1.00  0.00     0.163 HD
BRANCH   4   7
ATOM      7  C   UNL     1      -2.976  -0.891  -2.144  1.00  0.00     0.363 C 
BRANCH   7   8
ATOM      8  N   UNL     1      -1.472  -0.897  -2.247  1.00  0.00    -0.324 N 
ATOM      9  H   UNL     1      -1.126  -1.534  -2.965  1.00  0.00     0.348 HD
BRANCH   8  10
ATOM     10  C   UNL     1      -0.918  -1.410  -0.998  1.00  0.00     0.290 C 
BRANCH  10  11
ATOM     11  C   UNL     1       0.491  -1.909  -0.920  1.00  0.00     0.025 C 
ATOM     12  C   UNL     1       1.356  -1.486   0.017  1.00  0.00     0.010 C 
ENDBRANCH  10  11
ENDBRANCH   8  10
BRANCH   8  13
ATOM     13  C   UNL     1      -0.995   0.435  -2.701  1.00  0.00     0.266 C 
BRANCH  13  14
ATOM     14  C   UNL     1       0.506   0.758  -2.595  1.00  0.00     0.044 C 
ATOM     15  C   UNL     1       1.409  -0.127  -3.459  1.00  0.00     0.009 C 
ATOM     16  C   UNL     1       0.803   2.229  -2.945  1.00  0.00     0.012 C 
ATOM     17  C   UNL     1       2.869   0.132  -3.086  1.00  0.00     0.001 C 
ATOM     18  C   UNL     1       2.268   2.597  -2.640  1.00  0.00    -0.014 C 
ATOM     19  C   UNL     1       3.249   1.600  -3.284  1.00  0.00     0.003 C 
ATOM     20  C   UNL     1       2.506   2.731  -1.131  1.00  0.00     0.007 C 
ENDBRANCH  13  14
ENDBRANCH   8  13
ENDBRANCH   7   8
ENDBRANCH   4   7
ENDBRANCH   2   3
ENDBRANCH   1   2
BRANCH   1  21
ATOM     21  C   UNL     1      -2.093   1.364   2.691  1.00  0.00     0.023 C 
BRANCH  21  22
ATOM     22  C   UNL     1      -2.589   0.727   3.975  1.00  0.00     0.116 C 
BRANCH  22  23
ATOM     23  N   UNL     1      -1.793  -0.403   4.438  1.00  0.00    -0.352 N 
ATOM     24  C   UNL     1      -1.454  -0.744   5.729  1.00  0.00     0.251 C 
ATOM     25  H   UNL     1      -1.454  -1.003   3.735  1.00  0.00     0.163 HD
ATOM     26  O   UNL     1      -0.716  -1.704   5.935  1.00  0.00    -0.269 OA
BRANCH  24  27
ATOM     27  C   UNL     1      -1.936   0.093   6.849  1.00  0.00     0.039 A 
ATOM     28  C   UNL     1      -1.039   0.468   7.851  1.00  0.00     0.014 A 
ATOM     29  C   UNL     1      -3.245   0.578   6.861  1.00  0.00     0.014 A 
ATOM     30  C   UNL     1      -1.436   1.401   8.810  1.00  0.00     0.010 A 
ATOM     31  C   UNL     1      -3.592   1.600   7.733  1.00  0.00     0.010 A 
ATOM     32  C   UNL     1      -2.698   2.014   8.728  1.00  0.00    -0.014 A 
BRANCH  32  33
ATOM     33  C   UNL     1      -3.099   3.076   9.686  1.00  0.00     0.031 A 
ATOM     34  C   UNL     1      -4.303   2.881  10.569  1.00  0.00     0.074 A 
ATOM     35  C   UNL     1      -2.408   4.234   9.721  1.00  0.00     0.049 A 
ATOM     36  N   UNL     1      -4.806   3.682  11.473  1.00  0.00    -0.248 NA
ATOM     37  C   UNL     1      -5.071   1.640  10.380  1.00  0.00     0.031 C 
ATOM     38  C   UNL     1      -1.284   4.576   8.843  1.00  0.00     0.029 A 
ATOM     39  N   UNL     1      -2.541   5.335  10.527  1.00  0.00    -0.354 N 
ATOM     40  C   UNL     1      -5.952   3.050  11.944  1.00  0.00     0.074 A 
ATOM     41  C   UNL     1      -6.118   1.845  11.163  1.00  0.00     0.031 C 
ATOM     42  C   UNL     1      -0.799   5.777   9.196  1.00  0.00     0.029 A 
ATOM     43  C   UNL     1      -1.593   6.306  10.299  1.00  0.00     0.049 A 
ATOM     44  H   UNL     1      -3.249   5.423  11.205  1.00  0.00     0.167 HD
ATOM     45  C   UNL     1      -6.769   3.419  12.961  1.00  0.00     0.034 A 
ATOM     46  C   UNL     1      -1.379   7.481  10.922  1.00  0.00     0.034 A 
ATOM     47  C   UNL     1      -6.569   4.614  13.744  1.00  0.00     0.049 A 
ATOM     48  C   UNL     1      -2.265   7.847  12.085  1.00  0.00     0.074 A 
ATOM     49  C   UNL     1      -7.288   5.062  14.837  1.00  0.00     0.029 A 
ATOM     50  N   UNL     1      -5.572   5.554  13.513  1.00  0.00    -0.354 N 
ATOM     51  N   UNL     1      -3.295   7.197  12.577  1.00  0.00    -0.248 NA
ATOM     52  C   UNL     1      -1.940   9.089  12.794  1.00  0.00     0.031 C 
ATOM     53  C   UNL     1      -6.764   6.299  15.229  1.00  0.00     0.029 A 
ATOM     54  C   UNL     1      -5.670   6.589  14.430  1.00  0.00     0.049 A 
ATOM     55  H   UNL     1      -4.894   5.493  12.802  1.00  0.00     0.167 HD
ATOM     56  C   UNL     1      -3.725   7.941  13.672  1.00  0.00     0.074 A 
ATOM     57  C   UNL     1      -2.822   9.070  13.781  1.00  0.00     0.031 C 
ATOM     58  C   UNL     1      -4.769   7.716  14.511  1.00  0.00     0.034 A 
BRANCH  45  59
ATOM     59  C   UNL     1      -7.950   2.524  13.261  1.00  0.00     0.023 A 
ATOM     60  C   UNL     1      -7.781   1.181  13.647  1.00  0.00     0.031 A 
ATOM     61  C   UNL     1      -9.264   3.001  13.115  1.00  0.00     0.131 A 
ATOM     62  C   UNL     1      -8.897   0.341  13.781  1.00  0.00     0.055 A 
ATOM     63  C   UNL     1     -10.375   2.183  13.339  1.00  0.00     0.041 A 
ATOM     64  F   UNL     1      -9.494   4.266  12.728  1.00  0.00    -0.206 F 
ATOM     65  C   UNL     1     -10.195   0.840  13.657  1.00  0.00     0.022 A 
BRANCH  62  66
ATOM     66  S   UNL     1      -8.622  -1.443  13.960  1.00  0.00     0.124 S 
ATOM     67  O   UNL     1      -7.886  -1.751  12.736  1.00  0.00    -0.237 OA
ATOM     68  O   UNL     1      -7.861  -1.523  15.201  1.00  0.00    -0.237 OA
ATOM     69  O   UNL     1      -9.974  -1.994  14.020  1.00  0.00    -0.744 OA
ENDBRANCH  62  66
ENDBRANCH  45  59
BRANCH  46  70
ATOM     70  C   UNL     1      -0.269   8.378  10.488  1.00  0.00     0.023 A 
ATOM     71  C   UNL     1       0.824   8.641  11.330  1.00  0.00     0.031 A 
ATOM     72  C   UNL     1      -0.300   9.011   9.233  1.00  0.00     0.131 A 
ATOM     73  C   UNL     1       1.816   9.549  10.929  1.00  0.00     0.055 A 
ATOM     74  C   UNL     1       0.715   9.875   8.817  1.00  0.00     0.041 A 
ATOM     75  F   UNL     1      -1.315   8.785   8.384  1.00  0.00    -0.206 F 
ATOM     76  C   UNL     1       1.775  10.159   9.673  1.00  0.00     0.022 A 
BRANCH  73  77
ATOM     77  S   UNL     1       3.127   9.983  12.106  1.00  0.00     0.124 S 
ATOM     78  O   UNL     1       2.357  10.496  13.233  1.00  0.00    -0.237 OA
ATOM     79  O   UNL     1       3.786   8.697  12.311  1.00  0.00    -0.237 OA
ATOM     80  O   UNL     1       3.917  10.977  11.384  1.00  0.00    -0.744 OA
ENDBRANCH  73  77
ENDBRANCH  46  70
BRANCH  58  81
ATOM     81  C   UNL     1      -4.955   8.701  15.639  1.00  0.00     0.023 A 
ATOM     82  C   UNL     1      -5.275  10.049  15.396  1.00  0.00     0.031 A 
ATOM     83  C   UNL     1      -4.767   8.297  16.973  1.00  0.00     0.131 A 
ATOM     84  C   UNL     1      -5.315  10.960  16.461  1.00  0.00     0.055 A 
ATOM     85  C   UNL     1      -4.880   9.194  18.035  1.00  0.00     0.041 A 
ATOM     86  F   UNL     1      -4.461   7.022  17.264  1.00  0.00    -0.206 F 
ATOM     87  C   UNL     1      -5.136  10.538  17.780  1.00  0.00     0.022 A 
BRANCH  84  88
ATOM     88  S   UNL     1      -5.470  12.727  16.083  1.00  0.00     0.124 S 
ATOM     89  O   UNL     1      -4.357  12.940  15.164  1.00  0.00    -0.237 OA
ATOM     90  O   UNL     1      -6.804  12.803  15.496  1.00  0.00    -0.237 OA
ATOM     91  O   UNL     1      -5.329  13.370  17.389  1.00  0.00    -0.744 OA
ENDBRANCH  84  88
ENDBRANCH  58  81
ENDBRANCH  32  33
ENDBRANCH  24  27
ENDBRANCH  22  23
ENDBRANCH  21  22
ENDBRANCH   1  21
TORSDOF 19
