REMARK SMILES CC1(C)[C@H](C(=O)NCCCCNC(=O)c2ccc(-c3c4nc(c(-c5cc(S(=O)(=O)[O-])ccc5F)c5ccc([nH]5)c(-c5cc(S(=O)(=O)[O-])ccc5F)c5nc(c(-c6cc(S(=O)(=O)[O-])ccc6F)c6ccc3[nH]6)C=C5)C=C4)cc2)[C@H]1C(=O)Nc1cccc2[nH]ccc12
REMARK SMILES IDX 10 1 9 2 8 3 7 4 5 5 6 6 4 8 1 9 2 10 3 11 78 12 79 13 80 14
REMARK SMILES IDX 81 15 82 17 83 18 90 19 84 20 86 21 89 22 85 23 87 24 88 25
REMARK SMILES IDX 11 27 12 28 13 29 14 31 15 32 16 33 77 34 17 35 76 36 18 37
REMARK SMILES IDX 19 38 20 39 70 40 21 41 75 42 69 43 71 44 22 45 74 46 68 47
REMARK SMILES IDX 67 48 23 50 55 51 35 52 54 53 36 54 39 55 53 56 72 57 37 58
REMARK SMILES IDX 38 59 52 61 73 62 40 63 24 64 25 65 33 66 26 67 32 68 34 69
REMARK SMILES IDX 31 70 27 71 28 72 29 73 30 74 56 75 57 76 65 77 58 78 64 79
REMARK SMILES IDX 66 80 63 81 59 82 60 83 61 84 62 85 41 86 42 87 50 88 43 89
REMARK SMILES IDX 49 90 51 91 48 92 44 93 45 94 46 95 47 96
REMARK H PARENT 7 7 81 16 87 26 12 30 71 49 39 60
REMARK Flexibility Score: inf
ROOT
ATOM      1  C   UNL     1      -0.674   5.153  -1.692  1.00  0.00     0.023 C 
ENDROOT
BRANCH   1   2
ATOM      2  C   UNL     1      -0.393   3.938  -0.814  1.00  0.00     0.023 C 
BRANCH   2   3
ATOM      3  C   UNL     1      -1.626   3.180  -0.326  1.00  0.00     0.116 C 
BRANCH   3   4
ATOM      4  N   UNL     1      -2.059   2.192  -1.278  1.00  0.00    -0.356 N 
ATOM      5  C   UNL     1      -1.790   0.866  -1.446  1.00  0.00     0.224 C 
ATOM      6  O   UNL     1      -2.416   0.310  -2.352  1.00  0.00    -0.275 OA
ATOM      7  H   UNL     1      -2.681   2.550  -1.953  1.00  0.00     0.163 HD
BRANCH   5   8
ATOM      8  C   UNL     1      -0.840   0.018  -0.675  1.00  0.00     0.098 C 
ATOM      9  C   UNL     1       1.607  -0.475  -0.354  1.00  0.00     0.013 C 
ATOM     10  C   UNL     1       0.436   0.353   0.111  1.00  0.00    -0.011 C 
ATOM     11  C   UNL     1       0.962   1.593   0.778  1.00  0.00     0.013 C 
ATOM     12  C   UNL     1      -0.842  -0.175   0.795  1.00  0.00     0.098 C 
BRANCH  12  13
ATOM     13  C   UNL     1      -0.853  -1.404   1.646  1.00  0.00     0.228 C 
ATOM     14  O   UNL     1      -0.748  -1.243   2.862  1.00  0.00    -0.274 OA
ATOM     15  N   UNL     1      -1.261  -2.630   1.180  1.00  0.00    -0.325 N 
ATOM     16  H   UNL     1      -1.918  -3.103   1.740  1.00  0.00     0.169 HD
BRANCH  15  17
ATOM     17  C   UNL     1      -0.867  -3.294   0.015  1.00  0.00     0.050 A 
ATOM     18  C   UNL     1      -1.867  -3.812  -0.814  1.00  0.00     0.027 A 
ATOM     19  C   UNL     1       0.483  -3.586  -0.289  1.00  0.00     0.023 A 
ATOM     20  C   UNL     1      -1.541  -4.421  -2.024  1.00  0.00     0.004 A 
ATOM     21  C   UNL     1       0.780  -4.137  -1.538  1.00  0.00     0.047 A 
ATOM     22  C   UNL     1       1.722  -3.516   0.417  1.00  0.00     0.030 A 
ATOM     23  C   UNL     1      -0.212  -4.538  -2.438  1.00  0.00     0.027 A 
ATOM     24  N   UNL     1       2.151  -4.159  -1.659  1.00  0.00    -0.361 N 
ATOM     25  C   UNL     1       2.733  -3.832  -0.464  1.00  0.00     0.083 A 
ATOM     26  H   UNL     1       2.642  -4.378  -2.484  1.00  0.00     0.166 HD
ENDBRANCH  15  17
ENDBRANCH  12  13
ENDBRANCH   5   8
ENDBRANCH   3   4
ENDBRANCH   2   3
ENDBRANCH   1   2
BRANCH   1  27
ATOM     27  C   UNL     1      -1.545   6.227  -1.056  1.00  0.00     0.116 C 
BRANCH  27  28
ATOM     28  N   UNL     1      -1.069   6.685   0.244  1.00  0.00    -0.352 N 
ATOM     29  C   UNL     1      -1.107   7.964   0.756  1.00  0.00     0.251 C 
ATOM     30  H   UNL     1      -0.674   5.997   0.827  1.00  0.00     0.163 HD
ATOM     31  O   UNL     1      -0.598   8.221   1.841  1.00  0.00    -0.269 OA
BRANCH  29  32
ATOM     32  C   UNL     1      -1.726   9.022  -0.065  1.00  0.00     0.039 A 
ATOM     33  C   UNL     1      -0.962  10.134  -0.423  1.00  0.00     0.014 A 
ATOM     34  C   UNL     1      -3.005   8.830  -0.593  1.00  0.00     0.014 A 
ATOM     35  C   UNL     1      -1.442  11.002  -1.404  1.00  0.00     0.010 A 
ATOM     36  C   UNL     1      -3.442   9.649  -1.625  1.00  0.00     0.010 A 
ATOM     37  C   UNL     1      -2.655  10.729  -2.057  1.00  0.00    -0.014 A 
BRANCH  37  38
ATOM     38  C   UNL     1      -3.109  11.529  -3.223  1.00  0.00     0.031 A 
ATOM     39  C   UNL     1      -4.399  12.294  -3.144  1.00  0.00     0.074 A 
ATOM     40  C   UNL     1      -2.412  11.481  -4.376  1.00  0.00     0.049 A 
ATOM     41  N   UNL     1      -5.036  12.940  -4.085  1.00  0.00    -0.248 NA
ATOM     42  C   UNL     1      -5.077  12.302  -1.840  1.00  0.00     0.031 C 
ATOM     43  C   UNL     1      -1.166  10.739  -4.582  1.00  0.00     0.029 A 
ATOM     44  N   UNL     1      -2.660  12.052  -5.599  1.00  0.00    -0.354 N 
ATOM     45  C   UNL     1      -6.197  13.421  -3.491  1.00  0.00     0.074 A 
ATOM     46  C   UNL     1      -6.204  12.934  -2.128  1.00  0.00     0.031 C 
ATOM     47  C   UNL     1      -0.749  10.918  -5.846  1.00  0.00     0.029 A 
ATOM     48  C   UNL     1      -1.724  11.738  -6.558  1.00  0.00     0.049 A 
ATOM     49  H   UNL     1      -3.435  12.633  -5.775  1.00  0.00     0.167 HD
ATOM     50  C   UNL     1      -7.155  14.215  -4.028  1.00  0.00     0.034 A 
ATOM     51  C   UNL     1      -1.669  12.054  -7.867  1.00  0.00     0.034 A 
ATOM     52  C   UNL     1      -7.125  14.695  -5.388  1.00  0.00     0.049 A 
ATOM     53  C   UNL     1      -2.777  12.889  -8.458  1.00  0.00     0.074 A 
ATOM     54  C   UNL     1      -8.005  15.558  -6.017  1.00  0.00     0.029 A 
ATOM     55  N   UNL     1      -6.173  14.339  -6.335  1.00  0.00    -0.354 N 
ATOM     56  N   UNL     1      -3.840  13.385  -7.869  1.00  0.00    -0.248 NA
ATOM     57  C   UNL     1      -2.679  13.204  -9.889  1.00  0.00     0.031 C 
ATOM     58  C   UNL     1      -7.627  15.666  -7.360  1.00  0.00     0.029 A 
ATOM     59  C   UNL     1      -6.468  14.930  -7.554  1.00  0.00     0.049 A 
ATOM     60  H   UNL     1      -5.400  13.753  -6.165  1.00  0.00     0.167 HD
ATOM     61  C   UNL     1      -4.527  14.088  -8.854  1.00  0.00     0.074 A 
ATOM     62  C   UNL     1      -3.749  13.965 -10.070  1.00  0.00     0.031 C 
ATOM     63  C   UNL     1      -5.692  14.777  -8.762  1.00  0.00     0.034 A 
BRANCH  50  64
ATOM     64  C   UNL     1      -8.321  14.587  -3.144  1.00  0.00     0.023 A 
ATOM     65  C   UNL     1      -8.143  15.329  -1.964  1.00  0.00     0.031 A 
ATOM     66  C   UNL     1      -9.623  14.163  -3.463  1.00  0.00     0.131 A 
ATOM     67  C   UNL     1      -9.229  15.552  -1.104  1.00  0.00     0.055 A 
ATOM     68  C   UNL     1     -10.715  14.462  -2.646  1.00  0.00     0.041 A 
ATOM     69  F   UNL     1      -9.854  13.433  -4.566  1.00  0.00    -0.206 F 
ATOM     70  C   UNL     1     -10.519  15.146  -1.450  1.00  0.00     0.022 A 
BRANCH  67  71
ATOM     71  S   UNL     1      -8.900  16.241   0.541  1.00  0.00     0.124 S 
ATOM     72  O   UNL     1      -7.968  15.258   1.091  1.00  0.00    -0.237 OA
ATOM     73  O   UNL     1      -8.338  17.549   0.229  1.00  0.00    -0.237 OA
ATOM     74  O   UNL     1     -10.218  16.261   1.173  1.00  0.00    -0.744 OA
ENDBRANCH  67  71
ENDBRANCH  50  64
BRANCH  51  75
ATOM     75  C   UNL     1      -0.548  11.562  -8.719  1.00  0.00     0.023 A 
ATOM     76  C   UNL     1       0.360  12.458  -9.305  1.00  0.00     0.031 A 
ATOM     77  C   UNL     1      -0.388  10.191  -8.990  1.00  0.00     0.131 A 
ATOM     78  C   UNL     1       1.363  11.978 -10.162  1.00  0.00     0.055 A 
ATOM     79  C   UNL     1       0.642   9.713  -9.803  1.00  0.00     0.041 A 
ATOM     80  F   UNL     1      -1.227   9.290  -8.453  1.00  0.00    -0.206 F 
ATOM     81  C   UNL     1       1.518  10.611 -10.404  1.00  0.00     0.022 A 
BRANCH  78  82
ATOM     82  S   UNL     1       2.418  13.177 -11.021  1.00  0.00     0.124 S 
ATOM     83  O   UNL     1       1.435  13.959 -11.763  1.00  0.00    -0.237 OA
ATOM     84  O   UNL     1       3.072  13.857  -9.908  1.00  0.00    -0.237 OA
ATOM     85  O   UNL     1       3.293  12.338 -11.836  1.00  0.00    -0.744 OA
ENDBRANCH  78  82
ENDBRANCH  51  75
BRANCH  63  86
ATOM     86  C   UNL     1      -6.179  15.470 -10.009  1.00  0.00     0.023 A 
ATOM     87  C   UNL     1      -6.645  14.745 -11.120  1.00  0.00     0.031 A 
ATOM     88  C   UNL     1      -6.187  16.875 -10.082  1.00  0.00     0.131 A 
ATOM     89  C   UNL     1      -7.063  15.427 -12.272  1.00  0.00     0.055 A 
ATOM     90  C   UNL     1      -6.655  17.548 -11.211  1.00  0.00     0.041 A 
ATOM     91  F   UNL     1      -5.750  17.614  -9.051  1.00  0.00    -0.206 F 
ATOM     92  C   UNL     1      -7.088  16.824 -12.318  1.00  0.00     0.022 A 
BRANCH  89  93
ATOM     93  S   UNL     1      -7.515  14.463 -13.740  1.00  0.00     0.124 S 
ATOM     94  O   UNL     1      -6.265  13.777 -14.048  1.00  0.00    -0.237 OA
ATOM     95  O   UNL     1      -8.598  13.622 -13.242  1.00  0.00    -0.237 OA
ATOM     96  O   UNL     1      -7.918  15.481 -14.709  1.00  0.00    -0.744 OA
ENDBRANCH  89  93
ENDBRANCH  63  86
ENDBRANCH  37  38
ENDBRANCH  29  32
ENDBRANCH  27  28
ENDBRANCH   1  27
TORSDOF 16
