REMARK SMILES O=C(NCCCCNC(=O)c1ccc(-c2c3nc(c(-c4cc(S(=O)(=O)[O-])ccc4F)c4ccc([nH]4)c(-c4cc(S(=O)(=O)[O-])ccc4F)c4nc(c(-c5cc(S(=O)(=O)[O-])ccc5F)c5ccc2[nH]5)C=C4)C=C3)cc1)c1ccc(/C=C/c2ccc3cccc(O)c3n2)cc1
REMARK SMILES IDX 5 1 4 2 3 3 1 4 2 5 74 7 75 8 92 9 76 10 91 11 77 12 78 13
REMARK SMILES IDX 79 14 80 15 81 16 90 17 82 18 89 19 83 20 87 21 84 22 86 23
REMARK SMILES IDX 85 24 88 25 6 27 7 28 8 29 9 30 10 32 11 33 12 34 73 35
REMARK SMILES IDX 13 36 72 37 14 38 15 39 16 40 66 41 17 42 71 43 65 44 67 45
REMARK SMILES IDX 18 46 70 47 64 48 63 49 19 51 51 52 31 53 50 54 32 55 35 56
REMARK SMILES IDX 49 57 68 58 33 59 34 60 48 62 69 63 36 64 20 65 21 66 29 67
REMARK SMILES IDX 22 68 28 69 30 70 27 71 23 72 24 73 25 74 26 75 52 76 53 77
REMARK SMILES IDX 61 78 54 79 60 80 62 81 59 82 55 83 56 84 57 85 58 86 37 87
REMARK SMILES IDX 38 88 46 89 39 90 45 91 47 92 44 93 40 94 41 95 42 96 43 97
REMARK H PARENT 3 6 88 26 8 31 67 50 35 61
REMARK Flexibility Score: inf
ROOT
ATOM      1  C   UNL     1       4.899  -2.004  -1.244  1.00  0.00     0.023 C 
ENDROOT
BRANCH   1   2
ATOM      2  C   UNL     1       4.597  -0.528  -0.989  1.00  0.00     0.116 C 
BRANCH   2   3
ATOM      3  N   UNL     1       3.173  -0.255  -0.940  1.00  0.00    -0.352 N 
ATOM      4  O   UNL     1       1.188   0.253  -0.008  1.00  0.00    -0.269 OA
ATOM      5  C   UNL     1       2.410   0.242   0.085  1.00  0.00     0.251 C 
ATOM      6  H   UNL     1       2.680  -0.457  -1.768  1.00  0.00     0.163 HD
BRANCH   5   7
ATOM      7  C   UNL     1       3.041   0.737   1.327  1.00  0.00     0.039 A 
ATOM      8  C   UNL     1       4.047   1.711   1.323  1.00  0.00     0.014 A 
ATOM      9  C   UNL     1       2.549   0.250   2.535  1.00  0.00     0.014 A 
ATOM     10  C   UNL     1       4.600   2.163   2.531  1.00  0.00     0.009 A 
ATOM     11  C   UNL     1       3.094   0.709   3.732  1.00  0.00     0.009 A 
ATOM     12  C   UNL     1       4.129   1.664   3.748  1.00  0.00    -0.026 A 
BRANCH  12  13
ATOM     13  C   UNL     1       4.689   1.991   5.065  1.00  0.00     0.010 C 
ATOM     14  C   UNL     1       5.833   2.621   5.404  1.00  0.00     0.029 C 
BRANCH  14  15
ATOM     15  C   UNL     1       6.334   2.243   6.752  1.00  0.00     0.064 A 
ATOM     16  C   UNL     1       6.983   1.011   6.731  1.00  0.00     0.029 A 
ATOM     17  N   UNL     1       5.589   2.661   7.806  1.00  0.00    -0.245 NA
ATOM     18  C   UNL     1       6.518   0.034   7.599  1.00  0.00     0.013 A 
ATOM     19  C   UNL     1       5.204   1.718   8.699  1.00  0.00     0.113 A 
ATOM     20  C   UNL     1       5.539   0.361   8.543  1.00  0.00     0.004 A 
ATOM     21  C   UNL     1       4.382   2.050   9.774  1.00  0.00     0.141 A 
ATOM     22  C   UNL     1       4.878  -0.624   9.296  1.00  0.00     0.010 A 
ATOM     23  C   UNL     1       3.762   1.087  10.567  1.00  0.00     0.048 A 
ATOM     24  C   UNL     1       3.966  -0.260  10.285  1.00  0.00     0.005 A 
BRANCH  21  25
ATOM     25  O   UNL     1       4.155   3.372  10.073  1.00  0.00    -0.506 OA
ATOM     26  H   UNL     1       3.603   3.601  10.795  1.00  0.00     0.293 HD
ENDBRANCH  21  25
ENDBRANCH  14  15
ENDBRANCH  12  13
ENDBRANCH   5   7
ENDBRANCH   2   3
ENDBRANCH   1   2
BRANCH   1  27
ATOM     27  C   UNL     1       4.393  -2.563  -2.575  1.00  0.00     0.023 C 
BRANCH  27  28
ATOM     28  C   UNL     1       4.794  -1.778  -3.820  1.00  0.00     0.116 C 
BRANCH  28  29
ATOM     29  N   UNL     1       6.236  -1.668  -3.986  1.00  0.00    -0.352 N 
ATOM     30  C   UNL     1       7.011  -1.958  -5.086  1.00  0.00     0.251 C 
ATOM     31  H   UNL     1       6.728  -1.340  -3.198  1.00  0.00     0.163 HD
ATOM     32  O   UNL     1       8.234  -1.923  -4.996  1.00  0.00    -0.269 OA
BRANCH  30  33
ATOM     33  C   UNL     1       6.363  -2.348  -6.358  1.00  0.00     0.039 A 
ATOM     34  C   UNL     1       6.822  -3.483  -7.032  1.00  0.00     0.014 A 
ATOM     35  C   UNL     1       5.285  -1.619  -6.865  1.00  0.00     0.014 A 
ATOM     36  C   UNL     1       6.142  -3.937  -8.167  1.00  0.00     0.010 A 
ATOM     37  C   UNL     1       4.565  -2.115  -7.950  1.00  0.00     0.010 A 
ATOM     38  C   UNL     1       4.979  -3.285  -8.608  1.00  0.00    -0.014 A 
BRANCH  38  39
ATOM     39  C   UNL     1       4.171  -3.807  -9.744  1.00  0.00     0.031 A 
ATOM     40  C   UNL     1       3.991  -2.969 -10.982  1.00  0.00     0.074 A 
ATOM     41  C   UNL     1       3.526  -4.987  -9.625  1.00  0.00     0.049 A 
ATOM     42  N   UNL     1       3.223  -3.180 -12.020  1.00  0.00    -0.248 NA
ATOM     43  C   UNL     1       4.754  -1.712 -11.048  1.00  0.00     0.031 C 
ATOM     44  C   UNL     1       3.597  -5.876  -8.462  1.00  0.00     0.029 A 
ATOM     45  N   UNL     1       2.669  -5.635 -10.480  1.00  0.00    -0.354 N 
ATOM     46  C   UNL     1       3.385  -2.072 -12.845  1.00  0.00     0.074 A 
ATOM     47  C   UNL     1       4.296  -1.174 -12.169  1.00  0.00     0.031 C 
ATOM     48  C   UNL     1       2.829  -6.956  -8.685  1.00  0.00     0.029 A 
ATOM     49  C   UNL     1       2.164  -6.814  -9.976  1.00  0.00     0.049 A 
ATOM     50  H   UNL     1       2.436  -5.289 -11.372  1.00  0.00     0.167 HD
ATOM     51  C   UNL     1       2.833  -1.834 -14.059  1.00  0.00     0.034 A 
ATOM     52  C   UNL     1       1.252  -7.669 -10.483  1.00  0.00     0.034 A 
ATOM     53  C   UNL     1       1.954  -2.756 -14.736  1.00  0.00     0.049 A 
ATOM     54  C   UNL     1       0.637  -7.364 -11.829  1.00  0.00     0.074 A 
ATOM     55  C   UNL     1       1.414  -2.650 -16.006  1.00  0.00     0.029 A 
ATOM     56  N   UNL     1       1.476  -3.943 -14.199  1.00  0.00    -0.354 N 
ATOM     57  N   UNL     1       0.858  -6.344 -12.627  1.00  0.00    -0.248 NA
ATOM     58  C   UNL     1      -0.343  -8.328 -12.349  1.00  0.00     0.031 C 
ATOM     59  C   UNL     1       0.548  -3.729 -16.206  1.00  0.00     0.029 A 
ATOM     60  C   UNL     1       0.616  -4.556 -15.097  1.00  0.00     0.049 A 
ATOM     61  H   UNL     1       1.713  -4.298 -13.312  1.00  0.00     0.167 HD
ATOM     62  C   UNL     1       0.077  -6.572 -13.758  1.00  0.00     0.074 A 
ATOM     63  C   UNL     1      -0.610  -7.827 -13.545  1.00  0.00     0.031 C 
ATOM     64  C   UNL     1      -0.056  -5.814 -14.876  1.00  0.00     0.034 A 
BRANCH  51  65
ATOM     65  C   UNL     1       3.131  -0.514 -14.727  1.00  0.00     0.023 A 
ATOM     66  C   UNL     1       4.424  -0.169 -15.154  1.00  0.00     0.031 A 
ATOM     67  C   UNL     1       2.092   0.406 -14.959  1.00  0.00     0.131 A 
ATOM     68  C   UNL     1       4.654   1.083 -15.745  1.00  0.00     0.055 A 
ATOM     69  C   UNL     1       2.314   1.618 -15.614  1.00  0.00     0.041 A 
ATOM     70  F   UNL     1       0.840   0.139 -14.553  1.00  0.00    -0.206 F 
ATOM     71  C   UNL     1       3.603   1.967 -16.003  1.00  0.00     0.022 A 
BRANCH  68  72
ATOM     72  S   UNL     1       6.364   1.586 -16.075  1.00  0.00     0.124 S 
ATOM     73  O   UNL     1       6.944   1.561 -14.734  1.00  0.00    -0.237 OA
ATOM     74  O   UNL     1       6.828   0.550 -16.990  1.00  0.00    -0.237 OA
ATOM     75  O   UNL     1       6.223   2.918 -16.660  1.00  0.00    -0.744 OA
ENDBRANCH  68  72
ENDBRANCH  51  65
BRANCH  52  76
ATOM     76  C   UNL     1       0.826  -8.882  -9.721  1.00  0.00     0.023 A 
ATOM     77  C   UNL     1       1.012 -10.169 -10.251  1.00  0.00     0.031 A 
ATOM     78  C   UNL     1       0.144  -8.771  -8.496  1.00  0.00     0.131 A 
ATOM     79  C   UNL     1       0.459 -11.284  -9.601  1.00  0.00     0.055 A 
ATOM     80  C   UNL     1      -0.344  -9.890  -7.817  1.00  0.00     0.041 A 
ATOM     81  F   UNL     1      -0.065  -7.567  -7.939  1.00  0.00    -0.206 F 
ATOM     82  C   UNL     1      -0.205 -11.155  -8.380  1.00  0.00     0.022 A 
BRANCH  79  83
ATOM     83  S   UNL     1       0.500 -12.888 -10.448  1.00  0.00     0.124 S 
ATOM     84  O   UNL     1      -0.138 -12.567 -11.720  1.00  0.00    -0.237 OA
ATOM     85  O   UNL     1       1.931 -13.165 -10.499  1.00  0.00    -0.237 OA
ATOM     86  O   UNL     1      -0.272 -13.758  -9.563  1.00  0.00    -0.744 OA
ENDBRANCH  79  83
ENDBRANCH  52  76
BRANCH  64  87
ATOM     87  C   UNL     1      -0.923  -6.359 -15.984  1.00  0.00     0.023 A 
ATOM     88  C   UNL     1      -2.314  -6.500 -15.843  1.00  0.00     0.031 A 
ATOM     89  C   UNL     1      -0.340  -6.734 -17.209  1.00  0.00     0.131 A 
ATOM     90  C   UNL     1      -3.070  -7.048 -16.891  1.00  0.00     0.055 A 
ATOM     91  C   UNL     1      -1.105  -7.220 -18.269  1.00  0.00     0.041 A 
ATOM     92  F   UNL     1       0.985  -6.623 -17.398  1.00  0.00    -0.206 F 
ATOM     93  C   UNL     1      -2.477  -7.390 -18.109  1.00  0.00     0.022 A 
BRANCH  90  94
ATOM     94  S   UNL     1      -4.831  -7.381 -16.615  1.00  0.00     0.124 S 
ATOM     95  O   UNL     1      -4.791  -8.312 -15.492  1.00  0.00    -0.237 OA
ATOM     96  O   UNL     1      -5.359  -6.053 -16.323  1.00  0.00    -0.237 OA
ATOM     97  O   UNL     1      -5.274  -7.958 -17.883  1.00  0.00    -0.744 OA
ENDBRANCH  90  94
ENDBRANCH  64  87
ENDBRANCH  38  39
ENDBRANCH  30  33
ENDBRANCH  28  29
ENDBRANCH  27  28
ENDBRANCH   1  27
TORSDOF 17
