REMARK SMILES O=C(NCCCCNC(=O)c1ccc(-c2c3nc(c(-c4cc(S(=O)(=O)[O-])ccc4F)c4ccc([nH]4)c(-c4cc(S(=O)(=O)[O-])ccc4F)c4nc(c(-c5cc(S(=O)(=O)[O-])ccc5F)c5ccc2[nH]5)C=C4)C=C3)cc1)C1=Cc2cc(Cl)cc(-c3ccc(Cl)cc3)c2O[C@@H]1C(F)(F)F
REMARK SMILES IDX 6 1 5 2 4 3 3 4 1 5 2 6 74 8 75 9 91 10 76 11 90 12 77 13
REMARK SMILES IDX 89 14 78 15 81 16 79 17 80 18 92 19 93 20 94 21 95 22 82 23
REMARK SMILES IDX 83 24 88 25 84 26 87 27 85 28 86 29 7 30 8 31 9 32 10 34
REMARK SMILES IDX 11 35 12 36 73 37 13 38 72 39 14 40 15 41 16 42 66 43 17 44
REMARK SMILES IDX 71 45 65 46 67 47 18 48 70 49 64 50 63 51 19 53 51 54 31 55
REMARK SMILES IDX 50 56 32 57 35 58 49 59 68 60 33 61 34 62 48 64 69 65 36 66
REMARK SMILES IDX 20 67 21 68 29 69 22 70 28 71 30 72 27 73 23 74 24 75 25 76
REMARK SMILES IDX 26 77 52 78 53 79 61 80 54 81 60 82 62 83 59 84 55 85 56 86
REMARK SMILES IDX 57 87 58 88 37 89 38 90 46 91 39 92 45 93 47 94 44 95 40 96
REMARK SMILES IDX 41 97 42 98 43 99
REMARK H PARENT 3 7 8 33 67 52 35 63
REMARK Flexibility Score: inf
ROOT
ATOM      1  C   UNL     1       4.269   0.984  -4.658  1.00  0.00     0.023 C 
ENDROOT
BRANCH   1   2
ATOM      2  C   UNL     1       4.332  -0.160  -3.643  1.00  0.00     0.023 C 
BRANCH   2   3
ATOM      3  C   UNL     1       3.793   0.177  -2.252  1.00  0.00     0.116 C 
BRANCH   3   4
ATOM      4  N   UNL     1       2.699  -0.674  -1.799  1.00  0.00    -0.352 N 
ATOM      5  O   UNL     1       1.201  -1.513  -0.348  1.00  0.00    -0.270 OA
ATOM      6  C   UNL     1       2.332  -1.068  -0.540  1.00  0.00     0.251 C 
ATOM      7  H   UNL     1       2.128  -1.025  -2.520  1.00  0.00     0.163 HD
BRANCH   6   8
ATOM      8  C   UNL     1       3.231  -0.914   0.635  1.00  0.00     0.067 C 
ATOM      9  C   UNL     1       4.526  -1.254   0.549  1.00  0.00     0.025 C 
ATOM     10  C   UNL     1       2.820   0.178   1.589  1.00  0.00     0.314 C 
ATOM     11  C   UNL     1       5.428  -0.087   0.664  1.00  0.00     0.019 A 
ATOM     12  O   UNL     1       3.605   1.377   1.371  1.00  0.00    -0.475 OA
ATOM     13  C   UNL     1       6.723  -0.232   0.160  1.00  0.00     0.032 A 
ATOM     14  C   UNL     1       4.890   1.197   0.907  1.00  0.00     0.135 A 
ATOM     15  C   UNL     1       7.449   0.903  -0.181  1.00  0.00     0.042 A 
ATOM     16  C   UNL     1       5.612   2.343   0.533  1.00  0.00     0.026 A 
ATOM     17  Cl  UNL     1       8.977   0.725  -0.949  1.00  0.00    -0.084 Cl
ATOM     18  C   UNL     1       6.900   2.174  -0.013  1.00  0.00     0.033 A 
BRANCH  10  19
ATOM     19  C   UNL     1       2.880  -0.297   3.054  1.00  0.00     0.429 C 
ATOM     20  F   UNL     1       2.418   0.647   3.908  1.00  0.00    -0.167 F 
ATOM     21  F   UNL     1       2.124  -1.406   3.251  1.00  0.00    -0.167 F 
ATOM     22  F   UNL     1       4.139  -0.609   3.451  1.00  0.00    -0.167 F 
ENDBRANCH  10  19
BRANCH  16  23
ATOM     23  C   UNL     1       5.020   3.689   0.525  1.00  0.00    -0.015 A 
ATOM     24  C   UNL     1       4.143   4.068  -0.508  1.00  0.00     0.010 A 
ATOM     25  C   UNL     1       5.384   4.650   1.476  1.00  0.00     0.010 A 
ATOM     26  C   UNL     1       3.680   5.381  -0.618  1.00  0.00     0.021 A 
ATOM     27  C   UNL     1       4.912   5.963   1.376  1.00  0.00     0.021 A 
ATOM     28  C   UNL     1       4.076   6.326   0.322  1.00  0.00     0.041 A 
ATOM     29  Cl  UNL     1       3.541   7.953   0.175  1.00  0.00    -0.084 Cl
ENDBRANCH  16  23
ENDBRANCH   6   8
ENDBRANCH   3   4
ENDBRANCH   2   3
ENDBRANCH   1   2
BRANCH   1  30
ATOM     30  C   UNL     1       4.866   2.334  -4.258  1.00  0.00     0.116 C 
BRANCH  30  31
ATOM     31  N   UNL     1       6.302   2.355  -4.028  1.00  0.00    -0.352 N 
ATOM     32  C   UNL     1       7.191   3.366  -4.352  1.00  0.00     0.251 C 
ATOM     33  H   UNL     1       6.686   1.560  -3.592  1.00  0.00     0.163 HD
ATOM     34  O   UNL     1       8.382   3.263  -4.077  1.00  0.00    -0.269 OA
BRANCH  32  35
ATOM     35  C   UNL     1       6.695   4.544  -5.105  1.00  0.00     0.039 A 
ATOM     36  C   UNL     1       7.215   4.786  -6.379  1.00  0.00     0.014 A 
ATOM     37  C   UNL     1       5.626   5.304  -4.622  1.00  0.00     0.014 A 
ATOM     38  C   UNL     1       6.567   5.690  -7.226  1.00  0.00     0.010 A 
ATOM     39  C   UNL     1       4.946   6.159  -5.490  1.00  0.00     0.010 A 
ATOM     40  C   UNL     1       5.379   6.319  -6.816  1.00  0.00    -0.014 A 
BRANCH  40  41
ATOM     41  C   UNL     1       4.513   7.020  -7.805  1.00  0.00     0.031 A 
ATOM     42  C   UNL     1       4.244   8.492  -7.704  1.00  0.00     0.074 A 
ATOM     43  C   UNL     1       3.888   6.290  -8.754  1.00  0.00     0.049 A 
ATOM     44  N   UNL     1       3.484   9.246  -8.458  1.00  0.00    -0.248 NA
ATOM     45  C   UNL     1       4.891   9.203  -6.595  1.00  0.00     0.031 C 
ATOM     46  C   UNL     1       4.004   4.838  -8.913  1.00  0.00     0.029 A 
ATOM     47  N   UNL     1       3.018   6.660  -9.750  1.00  0.00    -0.354 N 
ATOM     48  C   UNL     1       3.564  10.525  -7.921  1.00  0.00     0.074 A 
ATOM     49  C   UNL     1       4.396  10.424  -6.738  1.00  0.00     0.031 C 
ATOM     50  C   UNL     1       3.245   4.444  -9.947  1.00  0.00     0.029 A 
ATOM     51  C   UNL     1       2.557   5.605 -10.503  1.00  0.00     0.049 A 
ATOM     52  H   UNL     1       2.749   7.594  -9.910  1.00  0.00     0.167 HD
ATOM     53  C   UNL     1       3.015  11.677  -8.384  1.00  0.00     0.034 A 
ATOM     54  C   UNL     1       1.669   5.564 -11.516  1.00  0.00     0.034 A 
ATOM     55  C   UNL     1       2.175  11.759  -9.557  1.00  0.00     0.049 A 
ATOM     56  C   UNL     1       1.045   6.846 -11.996  1.00  0.00     0.074 A 
ATOM     57  C   UNL     1       1.638  12.885 -10.157  1.00  0.00     0.029 A 
ATOM     58  N   UNL     1       1.726  10.670 -10.293  1.00  0.00    -0.354 N 
ATOM     59  N   UNL     1       1.208   8.064 -11.534  1.00  0.00    -0.248 NA
ATOM     60  C   UNL     1       0.127   6.751 -13.138  1.00  0.00     0.031 C 
ATOM     61  C   UNL     1       0.809  12.473 -11.209  1.00  0.00     0.029 A 
ATOM     62  C   UNL     1       0.882  11.093 -11.311  1.00  0.00     0.049 A 
ATOM     63  H   UNL     1       1.970   9.732 -10.118  1.00  0.00     0.167 HD
ATOM     64  C   UNL     1       0.420   8.882 -12.338  1.00  0.00     0.074 A 
ATOM     65  C   UNL     1      -0.202   8.021 -13.323  1.00  0.00     0.031 C 
ATOM     66  C   UNL     1       0.234  10.225 -12.267  1.00  0.00     0.034 A 
BRANCH  53  67
ATOM     67  C   UNL     1       3.294  12.936  -7.596  1.00  0.00     0.023 A 
ATOM     68  C   UNL     1       4.603  13.425  -7.434  1.00  0.00     0.031 A 
ATOM     69  C   UNL     1       2.250  13.632  -6.962  1.00  0.00     0.131 A 
ATOM     70  C   UNL     1       4.845  14.516  -6.586  1.00  0.00     0.055 A 
ATOM     71  C   UNL     1       2.489  14.770  -6.187  1.00  0.00     0.041 A 
ATOM     72  F   UNL     1       0.981  13.207  -7.067  1.00  0.00    -0.206 F 
ATOM     73  C   UNL     1       3.794  15.206  -5.979  1.00  0.00     0.022 A 
BRANCH  70  74
ATOM     74  S   UNL     1       6.563  14.911  -6.159  1.00  0.00     0.124 S 
ATOM     75  O   UNL     1       7.036  13.637  -5.622  1.00  0.00    -0.237 OA
ATOM     76  O   UNL     1       7.122  15.310  -7.445  1.00  0.00    -0.237 OA
ATOM     77  O   UNL     1       6.433  15.983  -5.174  1.00  0.00    -0.744 OA
ENDBRANCH  70  74
ENDBRANCH  53  67
BRANCH  54  78
ATOM     78  C   UNL     1       1.294   4.256 -12.123  1.00  0.00     0.023 A 
ATOM     79  C   UNL     1       1.666   3.926 -13.434  1.00  0.00     0.031 A 
ATOM     80  C   UNL     1       0.547   3.317 -11.389  1.00  0.00     0.131 A 
ATOM     81  C   UNL     1       1.267   2.697 -13.983  1.00  0.00     0.055 A 
ATOM     82  C   UNL     1       0.188   2.080 -11.925  1.00  0.00     0.041 A 
ATOM     83  F   UNL     1       0.177   3.582 -10.125  1.00  0.00    -0.206 F 
ATOM     84  C   UNL     1       0.541   1.768 -13.234  1.00  0.00     0.022 A 
BRANCH  81  85
ATOM     85  S   UNL     1       1.675   2.344 -15.715  1.00  0.00     0.124 S 
ATOM     86  O   UNL     1       0.981   3.421 -16.410  1.00  0.00    -0.237 OA
ATOM     87  O   UNL     1       3.132   2.420 -15.705  1.00  0.00    -0.237 OA
ATOM     88  O   UNL     1       1.125   1.006 -15.928  1.00  0.00    -0.744 OA
ENDBRANCH  81  85
ENDBRANCH  54  78
BRANCH  66  89
ATOM     89  C   UNL     1      -0.677  10.842 -13.300  1.00  0.00     0.023 A 
ATOM     90  C   UNL     1      -2.062  10.598 -13.299  1.00  0.00     0.031 A 
ATOM     91  C   UNL     1      -0.153  11.675 -14.303  1.00  0.00     0.131 A 
ATOM     92  C   UNL     1      -2.869  11.146 -14.308  1.00  0.00     0.055 A 
ATOM     93  C   UNL     1      -0.968  12.260 -15.274  1.00  0.00     0.041 A 
ATOM     94  F   UNL     1       1.163  11.938 -14.354  1.00  0.00    -0.206 F 
ATOM     95  C   UNL     1      -2.333  11.988 -15.286  1.00  0.00     0.022 A 
BRANCH  92  96
ATOM     96  S   UNL     1      -4.624  10.687 -14.369  1.00  0.00     0.124 S 
ATOM     97  O   UNL     1      -4.551   9.242 -14.566  1.00  0.00    -0.237 OA
ATOM     98  O   UNL     1      -5.110  11.130 -13.067  1.00  0.00    -0.237 OA
ATOM     99  O   UNL     1      -5.136  11.443 -15.510  1.00  0.00    -0.744 OA
ENDBRANCH  92  96
ENDBRANCH  66  89
ENDBRANCH  40  41
ENDBRANCH  32  35
ENDBRANCH  30  31
ENDBRANCH   1  30
TORSDOF 16
