REMARK SMILES Cn1cc(/C=C2\SC(=S)N(c3cccc(C(=O)NCCCCNC(=O)c4ccc(-c5c6nc(c(-c7cc(S(=O)(=O)[O-])ccc7F)c7ccc([nH]7)c(-c7cc(S(=O)(=O)[O-])ccc7F)c7nc(c(-c8cc(S(=O)(=O)[O-])ccc8F)c8ccc5[nH]8)C=C7)C=C6)cc4)c3)C2=O)c2ccccc21
REMARK SMILES IDX 21 1 20 2 19 3 18 4 16 5 17 6 15 8 11 9 12 10 89 11 13 12
REMARK SMILES IDX 14 13 10 14 5 15 6 16 7 17 90 18 8 19 91 20 9 21 4 22 1 23
REMARK SMILES IDX 2 24 3 25 97 26 92 27 96 28 93 29 95 30 94 31 22 32 23 33
REMARK SMILES IDX 24 34 25 36 26 37 27 38 88 39 28 40 87 41 29 42 30 43 31 44
REMARK SMILES IDX 81 45 32 46 86 47 80 48 82 49 33 50 85 51 79 52 78 53 34 55
REMARK SMILES IDX 66 56 46 57 65 58 47 59 50 60 64 61 83 62 48 63 49 64 63 66
REMARK SMILES IDX 84 67 51 68 35 69 36 70 44 71 37 72 43 73 45 74 42 75 38 76
REMARK SMILES IDX 39 77 40 78 41 79 67 80 68 81 76 82 69 83 75 84 77 85 74 86
REMARK SMILES IDX 70 87 71 88 72 89 73 90 52 91 53 92 61 93 54 94 60 95 62 96
REMARK SMILES IDX 59 97 55 98 56 99 57 100 58 101
REMARK H PARENT 18 7 23 35 82 54 50 65
REMARK Flexibility Score: inf
ROOT
ATOM      1  C   UNL     1      -1.908  -7.485   6.937  1.00  0.00     0.023 C 
ENDROOT
BRANCH   1   2
ATOM      2  C   UNL     1      -1.328  -7.207   5.557  1.00  0.00     0.023 C 
BRANCH   2   3
ATOM      3  C   UNL     1       0.166  -7.443   5.381  1.00  0.00     0.116 C 
BRANCH   3   4
ATOM      4  N   UNL     1       0.598  -8.819   5.568  1.00  0.00    -0.352 N 
ATOM      5  C   UNL     1       1.450  -9.611   4.826  1.00  0.00     0.251 C 
ATOM      6  O   UNL     1       1.663 -10.766   5.188  1.00  0.00    -0.269 OA
ATOM      7  H   UNL     1       0.218  -9.262   6.361  1.00  0.00     0.163 HD
BRANCH   5   8
ATOM      8  C   UNL     1       2.058  -9.133   3.555  1.00  0.00     0.041 A 
ATOM      9  C   UNL     1       2.729  -7.317   2.086  1.00  0.00     0.051 A 
ATOM     10  C   UNL     1       2.785  -8.229   1.022  1.00  0.00     0.027 A 
ATOM     11  C   UNL     1       2.462  -7.808   3.370  1.00  0.00     0.040 A 
ATOM     12  C   UNL     1       2.547  -9.589   1.232  1.00  0.00     0.003 A 
ATOM     13  C   UNL     1       2.155 -10.037   2.492  1.00  0.00     0.014 A 
BRANCH   9  14
ATOM     14  N   UNL     1       2.737  -5.905   1.848  1.00  0.00    -0.261 N 
ATOM     15  C   UNL     1       1.141  -3.186   0.048  1.00  0.00     0.031 C 
ATOM     16  C   UNL     1       1.910  -3.908   0.879  1.00  0.00     0.081 C 
ATOM     17  S   UNL     1       2.887  -3.345   2.171  1.00  0.00    -0.054 SA
ATOM     18  C   UNL     1       1.949  -5.392   0.813  1.00  0.00     0.270 C 
ATOM     19  C   UNL     1       3.372  -4.967   2.650  1.00  0.00     0.152 C 
ATOM     20  O   UNL     1       1.315  -6.017  -0.029  1.00  0.00    -0.268 OA
ATOM     21  S   UNL     1       4.524  -5.184   3.845  1.00  0.00    -0.051 S 
BRANCH  15  22
ATOM     22  C   UNL     1       1.022  -1.764   0.004  1.00  0.00     0.001 A 
ATOM     23  C   UNL     1       2.399   1.576  -0.041  1.00  0.00     0.149 C 
ATOM     24  N   UNL     1       1.587   0.381  -0.050  1.00  0.00    -0.350 N 
ATOM     25  C   UNL     1       2.087  -0.892  -0.046  1.00  0.00     0.094 A 
ATOM     26  C   UNL     1       0.209   0.357  -0.053  1.00  0.00     0.048 A 
ATOM     27  C   UNL     1      -0.176  -0.990  -0.033  1.00  0.00     0.007 A 
ATOM     28  C   UNL     1      -0.728   1.403  -0.061  1.00  0.00     0.027 A 
ATOM     29  C   UNL     1      -1.555  -1.295  -0.024  1.00  0.00     0.011 A 
ATOM     30  C   UNL     1      -2.085   1.072  -0.050  1.00  0.00     0.002 A 
ATOM     31  C   UNL     1      -2.496  -0.257  -0.033  1.00  0.00     0.001 A 
ENDBRANCH  15  22
ENDBRANCH   9  14
ENDBRANCH   5   8
ENDBRANCH   3   4
ENDBRANCH   2   3
ENDBRANCH   1   2
BRANCH   1  32
ATOM     32  C   UNL     1      -1.172  -6.862   8.118  1.00  0.00     0.116 C 
BRANCH  32  33
ATOM     33  N   UNL     1      -1.003  -5.422   8.020  1.00  0.00    -0.352 N 
ATOM     34  C   UNL     1      -1.296  -4.430   8.938  1.00  0.00     0.251 C 
ATOM     35  H   UNL     1      -0.622  -5.104   7.170  1.00  0.00     0.163 HD
ATOM     36  O   UNL     1      -1.136  -3.260   8.633  1.00  0.00    -0.269 OA
BRANCH  34  37
ATOM     37  C   UNL     1      -1.854  -4.793  10.262  1.00  0.00     0.039 A 
ATOM     38  C   UNL     1      -2.972  -4.099  10.730  1.00  0.00     0.014 A 
ATOM     39  C   UNL     1      -1.309  -5.832  11.017  1.00  0.00     0.014 A 
ATOM     40  C   UNL     1      -3.605  -4.515  11.905  1.00  0.00     0.010 A 
ATOM     41  C   UNL     1      -1.987  -6.299  12.140  1.00  0.00     0.010 A 
ATOM     42  C   UNL     1      -3.149  -5.652  12.590  1.00  0.00    -0.014 A 
BRANCH  42  43
ATOM     43  C   UNL     1      -3.879  -6.195  13.767  1.00  0.00     0.031 A 
ATOM     44  C   UNL     1      -3.203  -6.263  15.108  1.00  0.00     0.074 A 
ATOM     45  C   UNL     1      -5.110  -6.719  13.605  1.00  0.00     0.049 A 
ATOM     46  N   UNL     1      -3.623  -6.803  16.224  1.00  0.00    -0.248 NA
ATOM     47  C   UNL     1      -1.855  -5.685  15.189  1.00  0.00     0.031 C 
ATOM     48  C   UNL     1      -5.845  -6.777  12.339  1.00  0.00     0.029 A 
ATOM     49  N   UNL     1      -5.953  -7.324  14.503  1.00  0.00    -0.354 N 
ATOM     50  C   UNL     1      -2.583  -6.647  17.134  1.00  0.00     0.074 A 
ATOM     51  C   UNL     1      -1.490  -6.026  16.415  1.00  0.00     0.031 C 
ATOM     52  C   UNL     1      -7.028  -7.378  12.543  1.00  0.00     0.029 A 
ATOM     53  C   UNL     1      -7.123  -7.781  13.942  1.00  0.00     0.049 A 
ATOM     54  H   UNL     1      -5.740  -7.422  15.460  1.00  0.00     0.167 HD
ATOM     55  C   UNL     1      -2.551  -6.969  18.453  1.00  0.00     0.034 A 
ATOM     56  C   UNL     1      -8.149  -8.463  14.487  1.00  0.00     0.034 A 
ATOM     57  C   UNL     1      -3.656  -7.576  19.155  1.00  0.00     0.049 A 
ATOM     58  C   UNL     1      -8.105  -8.800  15.954  1.00  0.00     0.074 A 
ATOM     59  C   UNL     1      -3.763  -7.879  20.502  1.00  0.00     0.029 A 
ATOM     60  N   UNL     1      -4.845  -7.986  18.563  1.00  0.00    -0.354 N 
ATOM     61  N   UNL     1      -7.144  -8.583  16.821  1.00  0.00    -0.248 NA
ATOM     62  C   UNL     1      -9.291  -9.457  16.518  1.00  0.00     0.031 C 
ATOM     63  C   UNL     1      -4.988  -8.524  20.712  1.00  0.00     0.029 A 
ATOM     64  C   UNL     1      -5.678  -8.563  19.511  1.00  0.00     0.049 A 
ATOM     65  H   UNL     1      -5.065  -7.881  17.609  1.00  0.00     0.167 HD
ATOM     66  C   UNL     1      -7.617  -9.061  18.039  1.00  0.00     0.074 A 
ATOM     67  C   UNL     1      -8.955  -9.562  17.796  1.00  0.00     0.031 C 
ATOM     68  C   UNL     1      -7.003  -9.079  19.250  1.00  0.00     0.034 A 
BRANCH  55  69
ATOM     69  C   UNL     1      -1.266  -6.686  19.197  1.00  0.00     0.023 A 
ATOM     70  C   UNL     1      -0.751  -5.381  19.307  1.00  0.00     0.031 A 
ATOM     71  C   UNL     1      -0.510  -7.736  19.746  1.00  0.00     0.131 A 
ATOM     72  C   UNL     1       0.525  -5.173  19.849  1.00  0.00     0.055 A 
ATOM     73  C   UNL     1       0.719  -7.510  20.371  1.00  0.00     0.041 A 
ATOM     74  F   UNL     1      -0.938  -9.005  19.661  1.00  0.00    -0.206 F 
ATOM     75  C   UNL     1       1.255  -6.225  20.405  1.00  0.00     0.022 A 
BRANCH  72  76
ATOM     76  S   UNL     1       1.292  -3.541  19.645  1.00  0.00     0.124 S 
ATOM     77  O   UNL     1       1.258  -3.379  18.193  1.00  0.00    -0.237 OA
ATOM     78  O   UNL     1       0.398  -2.676  20.406  1.00  0.00    -0.237 OA
ATOM     79  O   UNL     1       2.627  -3.716  20.214  1.00  0.00    -0.744 OA
ENDBRANCH  72  76
ENDBRANCH  55  69
BRANCH  56  80
ATOM     80  C   UNL     1      -9.296  -8.886  13.637  1.00  0.00     0.023 A 
ATOM     81  C   UNL     1     -10.566  -8.310  13.789  1.00  0.00     0.031 A 
ATOM     82  C   UNL     1      -9.134  -9.883  12.658  1.00  0.00     0.131 A 
ATOM     83  C   UNL     1     -11.635  -8.756  12.996  1.00  0.00     0.055 A 
ATOM     84  C   UNL     1     -10.190 -10.294  11.843  1.00  0.00     0.041 A 
ATOM     85  F   UNL     1      -7.935 -10.455  12.464  1.00  0.00    -0.206 F 
ATOM     86  C   UNL     1     -11.453  -9.736  12.017  1.00  0.00     0.022 A 
BRANCH  83  87
ATOM     87  S   UNL     1     -13.287  -8.066  13.293  1.00  0.00     0.124 S 
ATOM     88  O   UNL     1     -13.527  -8.455  14.677  1.00  0.00    -0.237 OA
ATOM     89  O   UNL     1     -13.068  -6.643  13.054  1.00  0.00    -0.237 OA
ATOM     90  O   UNL     1     -14.120  -8.740  12.300  1.00  0.00    -0.744 OA
ENDBRANCH  83  87
ENDBRANCH  56  80
BRANCH  68  91
ATOM     91  C   UNL     1      -7.795  -9.632  20.409  1.00  0.00     0.023 A 
ATOM     92  C   UNL     1      -8.125 -10.996  20.494  1.00  0.00     0.031 A 
ATOM     93  C   UNL     1      -8.234  -8.777  21.435  1.00  0.00     0.131 A 
ATOM     94  C   UNL     1      -8.916 -11.457  21.558  1.00  0.00     0.055 A 
ATOM     95  C   UNL     1      -8.974  -9.252  22.519  1.00  0.00     0.041 A 
ATOM     96  F   UNL     1      -7.949  -7.466  21.401  1.00  0.00    -0.206 F 
ATOM     97  C   UNL     1      -9.329 -10.596  22.579  1.00  0.00     0.022 A 
BRANCH  94  98
ATOM     98  S   UNL     1      -9.469 -13.184  21.549  1.00  0.00     0.124 S 
ATOM     99  O   UNL     1     -10.213 -13.258  20.296  1.00  0.00    -0.237 OA
ATOM    100  O   UNL     1      -8.208 -13.917  21.587  1.00  0.00    -0.237 OA
ATOM    101  O   UNL     1     -10.283 -13.290  22.759  1.00  0.00    -0.744 OA
ENDBRANCH  94  98
ENDBRANCH  68  91
ENDBRANCH  42  43
ENDBRANCH  34  37
ENDBRANCH  32  33
ENDBRANCH   1  32
TORSDOF 16
