REMARK SMILES O=C(NCCCCNC(=O)[C@H]1CC[C@@H]2CCCC[C@H]2N1C(=O)Cn1cnnn1)c1ccc(-c2c3nc(c(-c4cc(S(=O)(=O)[O-])ccc4F)c4ccc([nH]4)c(-c4cc(S(=O)(=O)[O-])ccc4F)c4nc(c(-c5cc(S(=O)(=O)[O-])ccc5F)c5ccc2[nH]5)C=C4)C=C3)cc1
REMARK SMILES IDX 5 1 4 2 3 3 1 4 2 5 29 7 30 8 91 9 31 10 90 11 32 12 33 13
REMARK SMILES IDX 34 14 84 15 35 16 89 17 83 18 85 19 36 20 88 21 82 22 81 23
REMARK SMILES IDX 37 25 69 26 49 27 68 28 50 29 53 30 67 31 86 32 51 33 52 34
REMARK SMILES IDX 66 36 87 37 54 38 38 39 39 40 47 41 40 42 46 43 48 44 45 45
REMARK SMILES IDX 41 46 42 47 43 48 44 49 70 50 71 51 79 52 72 53 78 54 80 55
REMARK SMILES IDX 77 56 73 57 74 58 75 59 76 60 55 61 56 62 64 63 57 64 63 65
REMARK SMILES IDX 65 66 62 67 58 68 59 69 60 70 61 71 6 72 7 73 8 74 9 75
REMARK SMILES IDX 10 77 11 78 12 79 20 80 13 81 19 82 14 83 18 84 15 85 17 86
REMARK SMILES IDX 16 87 21 88 22 89 23 90 24 91 25 92 28 93 26 94 27 95
REMARK H PARENT 3 6 85 24 53 35 8 76
REMARK Flexibility Score: inf
ROOT
ATOM      1  C   UNL     1      10.357   2.912   7.468  1.00  0.00     0.023 C 
ENDROOT
BRANCH   1   2
ATOM      2  C   UNL     1       9.682   2.611   8.804  1.00  0.00     0.116 C 
BRANCH   2   3
ATOM      3  N   UNL     1       9.426   1.206   9.034  1.00  0.00    -0.352 N 
ATOM      4  O   UNL     1       9.626  -0.935   9.537  1.00  0.00    -0.269 OA
ATOM      5  C   UNL     1      10.214   0.138   9.374  1.00  0.00     0.251 C 
ATOM      6  H   UNL     1       8.479   0.964   8.921  1.00  0.00     0.163 HD
BRANCH   5   7
ATOM      7  C   UNL     1      11.697   0.177   9.513  1.00  0.00     0.039 A 
ATOM      8  C   UNL     1      12.460   1.324   9.736  1.00  0.00     0.014 A 
ATOM      9  C   UNL     1      12.360  -1.064   9.447  1.00  0.00     0.014 A 
ATOM     10  C   UNL     1      13.850   1.244   9.827  1.00  0.00     0.010 A 
ATOM     11  C   UNL     1      13.747  -1.151   9.563  1.00  0.00     0.010 A 
ATOM     12  C   UNL     1      14.498   0.009   9.737  1.00  0.00    -0.014 A 
BRANCH  12  13
ATOM     13  C   UNL     1      15.938  -0.033  10.010  1.00  0.00     0.031 A 
ATOM     14  C   UNL     1      16.340   0.379  11.391  1.00  0.00     0.074 A 
ATOM     15  C   UNL     1      16.863  -0.555   9.179  1.00  0.00     0.049 A 
ATOM     16  N   UNL     1      17.170   1.304  11.752  1.00  0.00    -0.248 NA
ATOM     17  C   UNL     1      15.670  -0.287  12.520  1.00  0.00     0.031 C 
ATOM     18  C   UNL     1      16.637  -1.275   7.925  1.00  0.00     0.029 A 
ATOM     19  N   UNL     1      18.216  -0.641   9.348  1.00  0.00    -0.354 N 
ATOM     20  C   UNL     1      17.270   1.224  13.141  1.00  0.00     0.074 A 
ATOM     21  C   UNL     1      16.238   0.315  13.565  1.00  0.00     0.031 C 
ATOM     22  C   UNL     1      17.778  -1.904   7.562  1.00  0.00     0.029 A 
ATOM     23  C   UNL     1      18.842  -1.528   8.480  1.00  0.00     0.049 A 
ATOM     24  H   UNL     1      18.705  -0.119  10.025  1.00  0.00     0.167 HD
ATOM     25  C   UNL     1      18.297   1.792  13.835  1.00  0.00     0.034 A 
ATOM     26  C   UNL     1      20.124  -1.976   8.540  1.00  0.00     0.034 A 
ATOM     27  C   UNL     1      18.947   2.825  13.070  1.00  0.00     0.049 A 
ATOM     28  C   UNL     1      20.904  -1.000   9.335  1.00  0.00     0.074 A 
ATOM     29  C   UNL     1      18.526   4.012  12.500  1.00  0.00     0.029 A 
ATOM     30  N   UNL     1      20.164   2.557  12.490  1.00  0.00    -0.354 N 
ATOM     31  N   UNL     1      21.141   0.222   8.949  1.00  0.00    -0.248 NA
ATOM     32  C   UNL     1      21.067  -1.240  10.760  1.00  0.00     0.031 C 
ATOM     33  C   UNL     1      19.233   4.095  11.264  1.00  0.00     0.029 A 
ATOM     34  C   UNL     1      20.080   2.988  11.187  1.00  0.00     0.049 A 
ATOM     35  H   UNL     1      20.942   2.139  12.922  1.00  0.00     0.167 HD
ATOM     36  C   UNL     1      21.059   0.986  10.101  1.00  0.00     0.074 A 
ATOM     37  C   UNL     1      21.125   0.022  11.195  1.00  0.00     0.031 C 
ATOM     38  C   UNL     1      20.673   2.296  10.059  1.00  0.00     0.034 A 
BRANCH  25  39
ATOM     39  C   UNL     1      18.884   1.240  15.116  1.00  0.00     0.023 A 
ATOM     40  C   UNL     1      19.888   1.984  15.771  1.00  0.00     0.031 A 
ATOM     41  C   UNL     1      18.704  -0.084  15.578  1.00  0.00     0.131 A 
ATOM     42  C   UNL     1      20.686   1.400  16.773  1.00  0.00     0.055 A 
ATOM     43  C   UNL     1      19.453  -0.637  16.622  1.00  0.00     0.041 A 
ATOM     44  F   UNL     1      17.866  -0.943  14.985  1.00  0.00    -0.206 F 
ATOM     45  C   UNL     1      20.468   0.096  17.209  1.00  0.00     0.022 A 
BRANCH  42  46
ATOM     46  S   UNL     1      22.133   2.312  17.379  1.00  0.00     0.124 S 
ATOM     47  O   UNL     1      22.811   2.657  16.135  1.00  0.00    -0.237 OA
ATOM     48  O   UNL     1      21.510   3.417  18.102  1.00  0.00    -0.237 OA
ATOM     49  O   UNL     1      22.825   1.334  18.215  1.00  0.00    -0.744 OA
ENDBRANCH  42  46
ENDBRANCH  25  39
BRANCH  26  50
ATOM     50  C   UNL     1      20.616  -3.340   8.208  1.00  0.00     0.023 A 
ATOM     51  C   UNL     1      21.969  -3.619   7.921  1.00  0.00     0.031 A 
ATOM     52  C   UNL     1      19.767  -4.453   8.408  1.00  0.00     0.131 A 
ATOM     53  C   UNL     1      22.416  -4.959   7.837  1.00  0.00     0.055 A 
ATOM     54  C   UNL     1      20.212  -5.772   8.315  1.00  0.00     0.041 A 
ATOM     55  F   UNL     1      18.490  -4.292   8.789  1.00  0.00    -0.206 F 
ATOM     56  C   UNL     1      21.543  -6.031   8.035  1.00  0.00     0.022 A 
BRANCH  53  57
ATOM     57  S   UNL     1      24.180  -5.327   7.567  1.00  0.00     0.124 S 
ATOM     58  O   UNL     1      24.376  -4.904   6.183  1.00  0.00    -0.237 OA
ATOM     59  O   UNL     1      24.831  -4.522   8.590  1.00  0.00    -0.237 OA
ATOM     60  O   UNL     1      24.263  -6.774   7.782  1.00  0.00    -0.744 OA
ENDBRANCH  53  57
ENDBRANCH  26  50
BRANCH  38  61
ATOM     61  C   UNL     1      20.619   2.994   8.713  1.00  0.00     0.023 A 
ATOM     62  C   UNL     1      19.865   2.543   7.605  1.00  0.00     0.031 A 
ATOM     63  C   UNL     1      21.266   4.237   8.594  1.00  0.00     0.131 A 
ATOM     64  C   UNL     1      19.794   3.321   6.433  1.00  0.00     0.055 A 
ATOM     65  C   UNL     1      21.176   5.015   7.440  1.00  0.00     0.041 A 
ATOM     66  F   UNL     1      21.973   4.739   9.621  1.00  0.00    -0.206 F 
ATOM     67  C   UNL     1      20.445   4.556   6.351  1.00  0.00     0.022 A 
BRANCH  64  68
ATOM     68  S   UNL     1      18.857   2.733   4.984  1.00  0.00     0.124 S 
ATOM     69  O   UNL     1      19.321   1.362   4.809  1.00  0.00    -0.237 OA
ATOM     70  O   UNL     1      17.471   2.890   5.419  1.00  0.00    -0.237 OA
ATOM     71  O   UNL     1      19.264   3.653   3.920  1.00  0.00    -0.744 OA
ENDBRANCH  64  68
ENDBRANCH  38  61
ENDBRANCH  12  13
ENDBRANCH   5   7
ENDBRANCH   2   3
ENDBRANCH   1   2
BRANCH   1  72
ATOM     72  C   UNL     1       9.551   2.502   6.226  1.00  0.00     0.023 C 
BRANCH  72  73
ATOM     73  C   UNL     1       8.123   3.054   6.151  1.00  0.00     0.116 C 
BRANCH  73  74
ATOM     74  N   UNL     1       8.123   4.509   6.156  1.00  0.00    -0.354 N 
ATOM     75  C   UNL     1       7.817   5.319   5.106  1.00  0.00     0.242 C 
ATOM     76  H   UNL     1       8.368   4.950   7.002  1.00  0.00     0.163 HD
ATOM     77  O   UNL     1       8.604   6.234   4.860  1.00  0.00    -0.273 OA
BRANCH  75  78
ATOM     78  C   UNL     1       6.561   5.077   4.241  1.00  0.00     0.174 C 
ATOM     79  C   UNL     1       5.380   4.293   4.839  1.00  0.00     0.036 C 
ATOM     80  N   UNL     1       5.954   6.252   3.529  1.00  0.00    -0.326 N 
ATOM     81  C   UNL     1       4.513   3.748   3.693  1.00  0.00     0.008 C 
ATOM     82  C   UNL     1       5.214   5.790   2.318  1.00  0.00     0.089 C 
ATOM     83  C   UNL     1       4.040   4.867   2.742  1.00  0.00     0.012 C 
ATOM     84  C   UNL     1       4.746   6.850   1.300  1.00  0.00     0.025 C 
ATOM     85  C   UNL     1       3.349   4.251   1.516  1.00  0.00     0.006 C 
ATOM     86  C   UNL     1       4.073   6.200   0.089  1.00  0.00     0.002 C 
ATOM     87  C   UNL     1       2.906   5.314   0.517  1.00  0.00     0.000 C 
BRANCH  80  88
ATOM     88  C   UNL     1       5.529   7.428   4.174  1.00  0.00     0.245 C 
ATOM     89  O   UNL     1       4.547   8.060   3.769  1.00  0.00    -0.273 OA
BRANCH  88  90
ATOM     90  C   UNL     1       6.258   8.023   5.366  1.00  0.00     0.248 C 
BRANCH  90  91
ATOM     91  N   UNL     1       5.514   7.868   6.593  1.00  0.00    -0.223 N 
ATOM     92  C   UNL     1       5.476   6.803   7.436  1.00  0.00     0.246 A 
ATOM     93  N   UNL     1       4.869   8.903   7.157  1.00  0.00    -0.045 NA
ATOM     94  N   UNL     1       4.762   7.125   8.489  1.00  0.00    -0.117 NA
ATOM     95  N   UNL     1       4.396   8.435   8.304  1.00  0.00    -0.024 NA
ENDBRANCH  90  91
ENDBRANCH  88  90
ENDBRANCH  80  88
ENDBRANCH  75  78
ENDBRANCH  73  74
ENDBRANCH  72  73
ENDBRANCH   1  72
TORSDOF 17
