REMARK SMILES COc1cc(/C=C2/SC(=O)N(c3ccc(O)cc3C)C2=O)ccc1OCC(=O)NCCCCNC(=O)c1ccc(-c2c3nc(c(-c4cc(S(=O)(=O)[O-])ccc4F)c4ccc([nH]4)c(-c4cc(S(=O)(=O)[O-])ccc4F)c4nc(c(-c5cc(S(=O)(=O)[O-])ccc5F)c5ccc2[nH]5)C=C4)C=C3)cc1
REMARK SMILES IDX 30 1 29 2 27 3 28 4 26 6 25 7 24 8 3 9 4 10 5 11 23 12 22 13
REMARK SMILES IDX 2 14 1 15 6 16 7 17 8 18 20 19 9 20 11 21 21 22 10 23 12 24
REMARK SMILES IDX 13 25 18 26 14 27 17 28 19 29 15 30 16 31 31 33 32 34 33 35
REMARK SMILES IDX 34 36 35 37 36 39 37 40 38 41 99 42 39 43 98 44 40 45 41 46
REMARK SMILES IDX 42 47 92 48 43 49 97 50 91 51 93 52 44 53 96 54 90 55 89 56
REMARK SMILES IDX 45 58 77 59 57 60 76 61 58 62 61 63 75 64 94 65 59 66 60 67
REMARK SMILES IDX 74 69 95 70 62 71 46 72 47 73 55 74 48 75 54 76 56 77 53 78
REMARK SMILES IDX 49 79 50 80 51 81 52 82 78 83 79 84 87 85 80 86 86 87 88 88
REMARK SMILES IDX 85 89 81 90 82 91 83 92 84 93 63 94 64 95 72 96 65 97 71 98
REMARK SMILES IDX 73 99 70 100 66 101 67 102 68 103 69 104
REMARK H PARENT 29 5 16 32 34 38 93 57 61 68
REMARK Flexibility Score: inf
ROOT
ATOM      1  C   UNL     1       3.736   2.346  -1.609  1.00  0.00     0.116 C 
ENDROOT
BRANCH   1   2
ATOM      2  N   UNL     1       2.677   2.130  -0.643  1.00  0.00    -0.353 N 
ATOM      3  C   UNL     1       2.421   1.016   0.104  1.00  0.00     0.257 C 
ATOM      4  O   UNL     1       1.596   1.106   1.016  1.00  0.00    -0.271 OA
ATOM      5  H   UNL     1       2.061   2.887  -0.508  1.00  0.00     0.163 HD
BRANCH   3   6
ATOM      6  C   UNL     1       3.210  -0.271  -0.153  1.00  0.00     0.329 C 
BRANCH   6   7
ATOM      7  O   UNL     1       3.364  -0.667  -1.502  1.00  0.00    -0.480 OA
BRANCH   7   8
ATOM      8  C   UNL     1       2.288  -1.101  -2.223  1.00  0.00     0.161 A 
ATOM      9  C   UNL     1       1.060  -1.586  -1.761  1.00  0.00     0.161 A 
ATOM     10  C   UNL     1       0.128  -2.111  -2.670  1.00  0.00     0.058 A 
ATOM     11  C   UNL     1       0.402  -2.125  -4.042  1.00  0.00    -0.020 A 
ATOM     12  C   UNL     1       2.528  -1.077  -3.604  1.00  0.00     0.051 A 
ATOM     13  C   UNL     1       1.588  -1.559  -4.513  1.00  0.00     0.012 A 
BRANCH   9  14
ATOM     14  O   UNL     1       0.811  -1.706  -0.420  1.00  0.00    -0.493 OA
ATOM     15  C   UNL     1      -0.344  -0.969  -0.015  1.00  0.00     0.278 C 
ENDBRANCH   9  14
BRANCH  11  16
ATOM     16  C   UNL     1      -0.452  -2.893  -4.951  1.00  0.00     0.029 C 
ATOM     17  C   UNL     1      -0.148  -4.142  -5.343  1.00  0.00     0.083 C 
ATOM     18  S   UNL     1      -1.116  -5.057  -6.434  1.00  0.00    -0.022 SA
ATOM     19  C   UNL     1       1.061  -4.934  -4.953  1.00  0.00     0.272 C 
ATOM     20  C   UNL     1       0.011  -6.409  -6.443  1.00  0.00     0.298 C 
ATOM     21  N   UNL     1       1.107  -6.119  -5.666  1.00  0.00    -0.236 N 
ATOM     22  O   UNL     1       1.894  -4.549  -4.146  1.00  0.00    -0.268 OA
ATOM     23  O   UNL     1      -0.249  -7.445  -7.043  1.00  0.00    -0.260 OA
BRANCH  21  24
ATOM     24  C   UNL     1       2.216  -7.005  -5.535  1.00  0.00     0.056 A 
ATOM     25  C   UNL     1       2.699  -7.298  -4.245  1.00  0.00     0.031 A 
ATOM     26  C   UNL     1       2.891  -7.545  -6.652  1.00  0.00    -0.023 A 
ATOM     27  C   UNL     1       3.802  -8.130  -4.053  1.00  0.00     0.048 A 
ATOM     28  C   UNL     1       3.995  -8.397  -6.440  1.00  0.00     0.051 A 
ATOM     29  C   UNL     1       2.557  -7.214  -8.083  1.00  0.00     0.047 C 
ATOM     30  C   UNL     1       4.441  -8.675  -5.152  1.00  0.00     0.115 A 
BRANCH  30  31
ATOM     31  O   UNL     1       5.525  -9.469  -4.929  1.00  0.00    -0.508 OA
ATOM     32  H   UNL     1       5.807  -9.642  -4.053  1.00  0.00     0.293 HD
ENDBRANCH  30  31
ENDBRANCH  21  24
ENDBRANCH  11  16
ENDBRANCH   7   8
ENDBRANCH   6   7
ENDBRANCH   3   6
ENDBRANCH   1   2
BRANCH   1  33
ATOM     33  C   UNL     1       3.218   2.570  -3.027  1.00  0.00     0.023 C 
BRANCH  33  34
ATOM     34  C   UNL     1       2.245   3.737  -3.203  1.00  0.00     0.023 C 
BRANCH  34  35
ATOM     35  C   UNL     1       2.663   5.051  -2.557  1.00  0.00     0.116 C 
BRANCH  35  36
ATOM     36  N   UNL     1       3.976   5.505  -2.981  1.00  0.00    -0.352 N 
ATOM     37  C   UNL     1       4.379   6.758  -3.377  1.00  0.00     0.251 C 
ATOM     38  H   UNL     1       4.679   4.816  -2.984  1.00  0.00     0.163 HD
ATOM     39  O   UNL     1       5.519   6.922  -3.802  1.00  0.00    -0.269 OA
BRANCH  37  40
ATOM     40  C   UNL     1       3.424   7.887  -3.334  1.00  0.00     0.039 A 
ATOM     41  C   UNL     1       3.329   8.723  -4.449  1.00  0.00     0.014 A 
ATOM     42  C   UNL     1       2.610   8.105  -2.220  1.00  0.00     0.014 A 
ATOM     43  C   UNL     1       2.367   9.735  -4.474  1.00  0.00     0.010 A 
ATOM     44  C   UNL     1       1.601   9.062  -2.278  1.00  0.00     0.010 A 
ATOM     45  C   UNL     1       1.468   9.887  -3.406  1.00  0.00    -0.014 A 
BRANCH  45  46
ATOM     46  C   UNL     1       0.382  10.901  -3.455  1.00  0.00     0.031 A 
ATOM     47  C   UNL     1       0.351  12.024  -2.455  1.00  0.00     0.074 A 
ATOM     48  C   UNL     1      -0.615  10.767  -4.352  1.00  0.00     0.049 A 
ATOM     49  N   UNL     1      -0.546  12.962  -2.289  1.00  0.00    -0.248 NA
ATOM     50  C   UNL     1       1.460  12.074  -1.493  1.00  0.00     0.031 C 
ATOM     51  C   UNL     1      -0.725   9.687  -5.335  1.00  0.00     0.029 A 
ATOM     52  N   UNL     1      -1.732  11.532  -4.574  1.00  0.00    -0.354 N 
ATOM     53  C   UNL     1      -0.121  13.703  -1.192  1.00  0.00     0.074 A 
ATOM     54  C   UNL     1       1.078  13.059  -0.696  1.00  0.00     0.031 C 
ATOM     55  C   UNL     1      -1.837   9.869  -6.065  1.00  0.00     0.029 A 
ATOM     56  C   UNL     1      -2.542  11.049  -5.575  1.00  0.00     0.049 A 
ATOM     57  H   UNL     1      -1.935  12.349  -4.064  1.00  0.00     0.167 HD
ATOM     58  C   UNL     1      -0.667  14.827  -0.662  1.00  0.00     0.034 A 
ATOM     59  C   UNL     1      -3.726  11.495  -6.038  1.00  0.00     0.034 A 
ATOM     60  C   UNL     1      -1.860  15.455  -1.178  1.00  0.00     0.049 A 
ATOM     61  C   UNL     1      -4.323  12.739  -5.434  1.00  0.00     0.074 A 
ATOM     62  C   UNL     1      -2.459  16.634  -0.771  1.00  0.00     0.029 A 
ATOM     63  N   UNL     1      -2.649  14.945  -2.204  1.00  0.00    -0.354 N 
ATOM     64  N   UNL     1      -3.872  13.474  -4.443  1.00  0.00    -0.248 NA
ATOM     65  C   UNL     1      -5.580  13.221  -6.019  1.00  0.00     0.031 C 
ATOM     66  C   UNL     1      -3.646  16.797  -1.495  1.00  0.00     0.029 A 
ATOM     67  C   UNL     1      -3.749  15.765  -2.414  1.00  0.00     0.049 A 
ATOM     68  H   UNL     1      -2.455  14.122  -2.707  1.00  0.00     0.167 HD
ATOM     69  C   UNL     1      -4.779  14.520  -4.302  1.00  0.00     0.074 A 
ATOM     70  C   UNL     1      -5.794  14.326  -5.319  1.00  0.00     0.031 C 
ATOM     71  C   UNL     1      -4.769  15.550  -3.416  1.00  0.00     0.034 A 
BRANCH  58  72
ATOM     72  C   UNL     1       0.009  15.415   0.557  1.00  0.00     0.023 A 
ATOM     73  C   UNL     1       1.347  15.850   0.525  1.00  0.00     0.031 A 
ATOM     74  C   UNL     1      -0.672  15.491   1.784  1.00  0.00     0.131 A 
ATOM     75  C   UNL     1       1.989  16.236   1.711  1.00  0.00     0.055 A 
ATOM     76  C   UNL     1      -0.056  15.970   2.943  1.00  0.00     0.041 A 
ATOM     77  F   UNL     1      -1.944  15.076   1.887  1.00  0.00    -0.206 F 
ATOM     78  C   UNL     1       1.290  16.325   2.916  1.00  0.00     0.022 A 
BRANCH  75  79
ATOM     79  S   UNL     1       3.793  16.437   1.690  1.00  0.00     0.124 S 
ATOM     80  O   UNL     1       4.229  15.136   1.188  1.00  0.00    -0.237 OA
ATOM     81  O   UNL     1       3.973  17.565   0.784  1.00  0.00    -0.237 OA
ATOM     82  O   UNL     1       4.125  16.698   3.089  1.00  0.00    -0.744 OA
ENDBRANCH  75  79
ENDBRANCH  58  72
BRANCH  59  83
ATOM     83  C   UNL     1      -4.429  10.750  -7.121  1.00  0.00     0.023 A 
ATOM     84  C   UNL     1      -4.586  11.302  -8.401  1.00  0.00     0.031 A 
ATOM     85  C   UNL     1      -4.952   9.466  -6.885  1.00  0.00     0.131 A 
ATOM     86  C   UNL     1      -5.275  10.583  -9.391  1.00  0.00     0.055 A 
ATOM     87  C   UNL     1      -5.596   8.736  -7.885  1.00  0.00     0.041 A 
ATOM     88  F   UNL     1      -4.819   8.890  -5.679  1.00  0.00    -0.206 F 
ATOM     89  C   UNL     1      -5.768   9.299  -9.146  1.00  0.00     0.022 A 
BRANCH  86  90
ATOM     90  S   UNL     1      -5.559  11.369 -11.001  1.00  0.00     0.124 S 
ATOM     91  O   UNL     1      -6.354  12.533 -10.627  1.00  0.00    -0.237 OA
ATOM     92  O   UNL     1      -4.198  11.638 -11.452  1.00  0.00    -0.237 OA
ATOM     93  O   UNL     1      -6.272  10.343 -11.759  1.00  0.00    -0.744 OA
ENDBRANCH  86  90
ENDBRANCH  59  83
BRANCH  71  94
ATOM     94  C   UNL     1      -5.878  16.569  -3.536  1.00  0.00     0.023 A 
ATOM     95  C   UNL     1      -7.219  16.243  -3.267  1.00  0.00     0.031 A 
ATOM     96  C   UNL     1      -5.585  17.886  -3.933  1.00  0.00     0.131 A 
ATOM     97  C   UNL     1      -8.223  17.206  -3.450  1.00  0.00     0.055 A 
ATOM     98  C   UNL     1      -6.581  18.857  -4.053  1.00  0.00     0.041 A 
ATOM     99  F   UNL     1      -4.323  18.253  -4.208  1.00  0.00    -0.206 F 
ATOM    100  C   UNL     1      -7.910  18.516  -3.823  1.00  0.00     0.022 A 
BRANCH  97 101
ATOM    101  S   UNL     1      -9.957  16.701  -3.287  1.00  0.00     0.124 S 
ATOM    102  O   UNL     1     -10.060  15.642  -4.286  1.00  0.00    -0.237 OA
ATOM    103  O   UNL     1     -10.028  16.272  -1.894  1.00  0.00    -0.237 OA
ATOM    104  O   UNL     1     -10.701  17.920  -3.598  1.00  0.00    -0.744 OA
ENDBRANCH  97 101
ENDBRANCH  71  94
ENDBRANCH  45  46
ENDBRANCH  37  40
ENDBRANCH  35  36
ENDBRANCH  34  35
ENDBRANCH  33  34
ENDBRANCH   1  33
TORSDOF 20
