REMARK SMILES Cc1nc2cc(S(=O)(=O)N3CCC(C(=O)NCCCCNC(=O)c4ccc(-c5c6nc(c(-c7cc(S(=O)(=O)[O-])ccc7F)c7ccc([nH]7)c(-c7cc(S(=O)(=O)[O-])ccc7F)c7nc(c(-c8cc(S(=O)(=O)[O-])ccc8F)c8ccc5[nH]8)C=C7)C=C6)cc4)CC3)ccc2n1C1CCCC1
REMARK SMILES IDX 18 1 17 2 16 3 14 4 15 5 13 7 10 8 11 9 88 10 12 11 87 12
REMARK SMILES IDX 7 13 8 14 9 15 6 16 1 17 2 18 3 19 92 20 4 21 91 22 5 23
REMARK SMILES IDX 90 24 89 25 93 26 94 27 97 28 95 29 96 30 19 31 20 32 21 33
REMARK SMILES IDX 22 34 23 36 24 37 25 38 86 39 26 40 85 41 27 42 28 43 29 44
REMARK SMILES IDX 79 45 30 46 84 47 78 48 80 49 31 50 83 51 77 52 76 53 32 55
REMARK SMILES IDX 64 56 44 57 63 58 45 59 48 60 62 61 81 62 46 63 47 64 61 66
REMARK SMILES IDX 82 67 49 68 33 69 34 70 42 71 35 72 41 73 43 74 40 75 36 76
REMARK SMILES IDX 37 77 38 78 39 79 65 80 66 81 74 82 67 83 73 84 75 85 72 86
REMARK SMILES IDX 68 87 69 88 70 89 71 90 50 91 51 92 59 93 52 94 58 95 60 96
REMARK SMILES IDX 57 97 53 98 54 99 55 100 56 101
REMARK H PARENT 16 6 21 35 80 54 48 65
REMARK Flexibility Score: inf
ROOT
ATOM      1  C   UNL     1      -4.625  -0.400 -12.418  1.00  0.00     0.023 C 
ENDROOT
BRANCH   1   2
ATOM      2  C   UNL     1      -3.221   0.020 -12.017  1.00  0.00     0.116 C 
BRANCH   2   3
ATOM      3  N   UNL     1      -3.141   1.442 -11.708  1.00  0.00    -0.356 N 
ATOM      4  C   UNL     1      -2.738   2.070 -10.567  1.00  0.00     0.223 C 
ATOM      5  O   UNL     1      -2.709   3.301 -10.540  1.00  0.00    -0.275 OA
ATOM      6  H   UNL     1      -3.421   2.043 -12.436  1.00  0.00     0.163 HD
BRANCH   4   7
ATOM      7  C   UNL     1      -2.300   1.260  -9.357  1.00  0.00     0.081 C 
ATOM      8  N   UNL     1      -1.759  -1.310  -8.096  1.00  0.00    -0.198 NA
ATOM      9  C   UNL     1      -3.087  -0.687  -7.875  1.00  0.00     0.103 C 
ATOM     10  C   UNL     1      -0.634  -0.549  -8.684  1.00  0.00     0.103 C 
ATOM     11  C   UNL     1      -3.459   0.427  -8.825  1.00  0.00     0.030 C 
ATOM     12  C   UNL     1      -1.029   0.493  -9.697  1.00  0.00     0.030 C 
BRANCH   8  13
ATOM     13  S   UNL     1      -1.276  -2.366  -6.816  1.00  0.00     0.243 S 
ATOM     14  O   UNL     1      -0.035  -2.999  -7.218  1.00  0.00    -0.207 OA
ATOM     15  O   UNL     1      -2.432  -3.133  -6.412  1.00  0.00    -0.207 OA
BRANCH  13  16
ATOM     16  C   UNL     1      -0.872  -1.292  -5.447  1.00  0.00     0.085 A 
ATOM     17  C   UNL     1       1.004  -0.126   0.103  1.00  0.00     0.088 C 
ATOM     18  C   UNL     1       0.531  -0.236  -1.299  1.00  0.00     0.106 A 
ATOM     19  N   UNL     1       0.394  -1.377  -1.947  1.00  0.00    -0.233 NA
ATOM     20  N   UNL     1       0.189   0.833  -2.102  1.00  0.00    -0.325 N 
ATOM     21  C   UNL     1      -0.076  -1.056  -3.191  1.00  0.00     0.090 A 
ATOM     22  C   UNL     1      -0.225   0.321  -3.312  1.00  0.00     0.068 A 
ATOM     23  C   UNL     1      -0.403  -1.892  -4.270  1.00  0.00     0.052 A 
ATOM     24  C   UNL     1      -0.705   0.927  -4.469  1.00  0.00     0.030 A 
ATOM     25  C   UNL     1      -1.013   0.096  -5.533  1.00  0.00     0.024 A 
BRANCH  20  26
ATOM     26  C   UNL     1       0.231   2.243  -1.758  1.00  0.00     0.089 C 
ATOM     27  C   UNL     1       1.091   3.106  -2.689  1.00  0.00     0.025 C 
ATOM     28  C   UNL     1      -1.143   2.923  -1.763  1.00  0.00     0.025 C 
ATOM     29  C   UNL     1       0.581   4.522  -2.471  1.00  0.00     0.002 C 
ATOM     30  C   UNL     1      -0.878   4.398  -2.044  1.00  0.00     0.002 C 
ENDBRANCH  20  26
ENDBRANCH  13  16
ENDBRANCH   8  13
ENDBRANCH   4   7
ENDBRANCH   2   3
ENDBRANCH   1   2
BRANCH   1  31
ATOM     31  C   UNL     1      -5.084   0.174 -13.755  1.00  0.00     0.023 C 
BRANCH  31  32
ATOM     32  C   UNL     1      -4.095  -0.030 -14.906  1.00  0.00     0.116 C 
BRANCH  32  33
ATOM     33  N   UNL     1      -3.705  -1.408 -15.122  1.00  0.00    -0.352 N 
ATOM     34  C   UNL     1      -4.221  -2.432 -15.870  1.00  0.00     0.251 C 
ATOM     35  H   UNL     1      -2.895  -1.663 -14.623  1.00  0.00     0.163 HD
ATOM     36  O   UNL     1      -3.505  -3.430 -15.987  1.00  0.00    -0.269 OA
BRANCH  34  37
ATOM     37  C   UNL     1      -5.590  -2.446 -16.451  1.00  0.00     0.039 A 
ATOM     38  C   UNL     1      -6.485  -1.379 -16.411  1.00  0.00     0.014 A 
ATOM     39  C   UNL     1      -6.029  -3.672 -16.982  1.00  0.00     0.014 A 
ATOM     40  C   UNL     1      -7.819  -1.571 -16.727  1.00  0.00     0.010 A 
ATOM     41  C   UNL     1      -7.358  -3.860 -17.345  1.00  0.00     0.010 A 
ATOM     42  C   UNL     1      -8.263  -2.825 -17.150  1.00  0.00    -0.014 A 
BRANCH  42  43
ATOM     43  C   UNL     1      -9.680  -2.947 -17.465  1.00  0.00     0.031 A 
ATOM     44  C   UNL     1     -10.152  -2.013 -18.524  1.00  0.00     0.074 A 
ATOM     45  C   UNL     1     -10.501  -3.842 -16.885  1.00  0.00     0.049 A 
ATOM     46  N   UNL     1     -10.970  -1.021 -18.395  1.00  0.00    -0.248 NA
ATOM     47  C   UNL     1      -9.504  -2.088 -19.841  1.00  0.00     0.031 C 
ATOM     48  C   UNL     1     -10.153  -4.976 -16.026  1.00  0.00     0.029 A 
ATOM     49  N   UNL     1     -11.848  -3.972 -17.029  1.00  0.00    -0.354 N 
ATOM     50  C   UNL     1     -11.090  -0.450 -19.661  1.00  0.00     0.074 A 
ATOM     51  C   UNL     1     -10.055  -1.048 -20.466  1.00  0.00     0.031 C 
ATOM     52  C   UNL     1     -11.216  -5.809 -15.941  1.00  0.00     0.029 A 
ATOM     53  C   UNL     1     -12.352  -5.192 -16.607  1.00  0.00     0.049 A 
ATOM     54  H   UNL     1     -12.416  -3.259 -17.402  1.00  0.00     0.167 HD
ATOM     55  C   UNL     1     -12.149   0.342 -19.995  1.00  0.00     0.034 A 
ATOM     56  C   UNL     1     -13.591  -5.689 -16.854  1.00  0.00     0.034 A 
ATOM     57  C   UNL     1     -12.863   0.776 -18.825  1.00  0.00     0.049 A 
ATOM     58  C   UNL     1     -14.478  -4.561 -17.229  1.00  0.00     0.074 A 
ATOM     59  C   UNL     1     -12.551   1.569 -17.739  1.00  0.00     0.029 A 
ATOM     60  N   UNL     1     -13.996   0.083 -18.476  1.00  0.00    -0.354 N 
ATOM     61  N   UNL     1     -14.887  -3.653 -16.389  1.00  0.00    -0.248 NA
ATOM     62  C   UNL     1     -14.532  -4.183 -18.634  1.00  0.00     0.031 C 
ATOM     63  C   UNL     1     -13.219   0.963 -16.639  1.00  0.00     0.029 A 
ATOM     64  C   UNL     1     -13.954  -0.122 -17.121  1.00  0.00     0.049 A 
ATOM     65  H   UNL     1     -14.710  -0.212 -19.087  1.00  0.00     0.167 HD
ATOM     66  C   UNL     1     -14.782  -2.464 -17.093  1.00  0.00     0.074 A 
ATOM     67  C   UNL     1     -14.663  -2.861 -18.496  1.00  0.00     0.031 C 
ATOM     68  C   UNL     1     -14.505  -1.286 -16.459  1.00  0.00     0.034 A 
BRANCH  55  69
ATOM     69  C   UNL     1     -12.731   0.451 -21.385  1.00  0.00     0.023 A 
ATOM     70  C   UNL     1     -12.357  -0.401 -22.439  1.00  0.00     0.031 A 
ATOM     71  C   UNL     1     -13.861   1.262 -21.624  1.00  0.00     0.131 A 
ATOM     72  C   UNL     1     -13.074  -0.444 -23.642  1.00  0.00     0.055 A 
ATOM     73  C   UNL     1     -14.616   1.174 -22.800  1.00  0.00     0.041 A 
ATOM     74  F   UNL     1     -14.307   2.122 -20.694  1.00  0.00    -0.206 F 
ATOM     75  C   UNL     1     -14.227   0.312 -23.816  1.00  0.00     0.022 A 
BRANCH  72  76
ATOM     76  S   UNL     1     -12.523  -1.518 -24.995  1.00  0.00     0.124 S 
ATOM     77  O   UNL     1     -13.671  -2.403 -25.164  1.00  0.00    -0.237 OA
ATOM     78  O   UNL     1     -12.305  -0.551 -26.069  1.00  0.00    -0.237 OA
ATOM     79  O   UNL     1     -11.312  -2.139 -24.468  1.00  0.00    -0.744 OA
ENDBRANCH  72  76
ENDBRANCH  55  69
BRANCH  56  80
ATOM     80  C   UNL     1     -13.916  -7.085 -17.226  1.00  0.00     0.023 A 
ATOM     81  C   UNL     1     -12.952  -7.865 -17.892  1.00  0.00     0.031 A 
ATOM     82  C   UNL     1     -15.241  -7.554 -17.229  1.00  0.00     0.131 A 
ATOM     83  C   UNL     1     -13.325  -9.029 -18.576  1.00  0.00     0.055 A 
ATOM     84  C   UNL     1     -15.608  -8.731 -17.894  1.00  0.00     0.041 A 
ATOM     85  F   UNL     1     -16.217  -6.840 -16.648  1.00  0.00    -0.206 F 
ATOM     86  C   UNL     1     -14.650  -9.466 -18.586  1.00  0.00     0.022 A 
BRANCH  83  87
ATOM     87  S   UNL     1     -12.102  -9.940 -19.557  1.00  0.00     0.124 S 
ATOM     88  O   UNL     1     -12.341 -11.321 -19.145  1.00  0.00    -0.237 OA
ATOM     89  O   UNL     1     -12.508  -9.610 -20.918  1.00  0.00    -0.237 OA
ATOM     90  O   UNL     1     -10.826  -9.379 -19.121  1.00  0.00    -0.744 OA
ENDBRANCH  83  87
ENDBRANCH  56  80
BRANCH  68  91
ATOM     91  C   UNL     1     -14.525  -1.244 -14.946  1.00  0.00     0.023 A 
ATOM     92  C   UNL     1     -15.200  -0.168 -14.343  1.00  0.00     0.031 A 
ATOM     93  C   UNL     1     -13.735  -2.060 -14.113  1.00  0.00     0.131 A 
ATOM     94  C   UNL     1     -15.043   0.093 -12.977  1.00  0.00     0.055 A 
ATOM     95  C   UNL     1     -13.643  -1.843 -12.734  1.00  0.00     0.041 A 
ATOM     96  F   UNL     1     -12.959  -3.030 -14.610  1.00  0.00    -0.206 F 
ATOM     97  C   UNL     1     -14.284  -0.750 -12.162  1.00  0.00     0.022 A 
BRANCH  94  98
ATOM     98  S   UNL     1     -15.674   1.634 -12.267  1.00  0.00     0.124 S 
ATOM     99  O   UNL     1     -16.715   1.153 -11.363  1.00  0.00    -0.237 OA
ATOM    100  O   UNL     1     -14.487   2.188 -11.618  1.00  0.00    -0.237 OA
ATOM    101  O   UNL     1     -16.149   2.388 -13.424  1.00  0.00    -0.744 OA
ENDBRANCH  94  98
ENDBRANCH  68  91
ENDBRANCH  42  43
ENDBRANCH  34  37
ENDBRANCH  32  33
ENDBRANCH  31  32
ENDBRANCH   1  31
TORSDOF 17
