REMARK SMILES [NH3+][C@]1(C(=O)NCCCCNC(=O)c2ccc(-c3c4nc(c(-c5cc(S(=O)(=O)[O-])ccc5F)c5ccc([nH]5)c(-c5cc(S(=O)(=O)[O-])ccc5F)c5nc(c(-c6cc(S(=O)(=O)[O-])ccc6F)c6ccc3[nH]6)C=C5)C=C4)cc2)CC[C@@H](Sc2cc3ccccc3[nH]2)C1
REMARK SMILES IDX 8 1 7 2 6 3 5 4 3 5 4 6 2 8 76 9 89 10 77 11 78 12 1 13
REMARK SMILES IDX 79 17 80 18 81 19 88 20 82 21 87 22 83 24 86 25 84 26 85 27
REMARK SMILES IDX 9 28 10 29 11 30 12 32 13 33 14 34 75 35 15 36 74 37 16 38
REMARK SMILES IDX 17 39 18 40 68 41 19 42 73 43 67 44 69 45 20 46 72 47 66 48
REMARK SMILES IDX 65 49 21 51 53 52 33 53 52 54 34 55 37 56 51 57 70 58 35 59
REMARK SMILES IDX 36 60 50 62 71 63 38 64 22 65 23 66 31 67 24 68 30 69 32 70
REMARK SMILES IDX 29 71 25 72 26 73 27 74 28 75 54 76 55 77 63 78 56 79 62 80
REMARK SMILES IDX 64 81 61 82 57 83 58 84 59 85 60 86 39 87 40 88 48 89 41 90
REMARK SMILES IDX 47 91 49 92 46 93 42 94 43 95 44 96 45 97
REMARK H PARENT 5 7 1 14 1 15 1 16 88 23 10 31 69 50 37 61
REMARK Flexibility Score: inf
ROOT
ATOM      1  C   UNL     1       3.929   2.324   2.160  1.00  0.00     0.023 C 
ENDROOT
BRANCH   1   2
ATOM      2  C   UNL     1       3.038   1.132   2.514  1.00  0.00     0.023 C 
BRANCH   2   3
ATOM      3  C   UNL     1       1.570   1.291   2.104  1.00  0.00     0.116 C 
BRANCH   3   4
ATOM      4  N   UNL     1       1.389   1.070   0.684  1.00  0.00    -0.351 N 
ATOM      5  C   UNL     1       0.974  -0.027  -0.006  1.00  0.00     0.281 C 
ATOM      6  O   UNL     1       0.890   0.092  -1.236  1.00  0.00    -0.268 OA
ATOM      7  H   UNL     1       1.604   1.848   0.120  1.00  0.00     0.163 HD
BRANCH   5   8
ATOM      8  C   UNL     1       0.505  -1.342   0.684  1.00  0.00     0.175 C 
ATOM      9  C   UNL     1       0.753  -2.522  -0.283  1.00  0.00     0.080 C 
ATOM     10  C   UNL     1       1.293  -1.783   1.913  1.00  0.00     0.094 C 
ATOM     11  C   UNL     1       0.781  -3.779   0.577  1.00  0.00     0.022 C 
ATOM     12  C   UNL     1       1.235  -3.303   1.949  1.00  0.00     0.060 C 
BRANCH   8  13
ATOM     13  N   UNL     1      -0.933  -1.218   1.010  1.00  0.00    -0.345 N 
ATOM     14  H   UNL     1      -1.254  -2.074   1.463  1.00  0.00     0.345 HD
ATOM     15  H   UNL     1      -1.465  -1.068   0.152  1.00  0.00     0.345 HD
ATOM     16  H   UNL     1      -1.073  -0.427   1.639  1.00  0.00     0.345 HD
ENDBRANCH   8  13
BRANCH  12  17
ATOM     17  S   UNL     1       2.764  -3.965   2.618  1.00  0.00    -0.105 SA
BRANCH  17  18
ATOM     18  C   UNL     1       3.937  -4.008   1.339  1.00  0.00     0.073 A 
ATOM     19  C   UNL     1       5.013  -3.193   1.045  1.00  0.00     0.043 A 
ATOM     20  N   UNL     1       4.265  -5.261   0.894  1.00  0.00    -0.350 N 
ATOM     21  C   UNL     1       6.140  -4.089   1.051  1.00  0.00     0.001 A 
ATOM     22  C   UNL     1       5.626  -5.387   1.064  1.00  0.00     0.046 A 
ATOM     23  H   UNL     1       3.650  -5.937   0.526  1.00  0.00     0.167 HD
ATOM     24  C   UNL     1       7.527  -3.919   1.234  1.00  0.00     0.010 A 
ATOM     25  C   UNL     1       6.391  -6.522   1.334  1.00  0.00     0.027 A 
ATOM     26  C   UNL     1       8.301  -5.040   1.571  1.00  0.00     0.001 A 
ATOM     27  C   UNL     1       7.735  -6.313   1.643  1.00  0.00     0.002 A 
ENDBRANCH  17  18
ENDBRANCH  12  17
ENDBRANCH   5   8
ENDBRANCH   3   4
ENDBRANCH   2   3
ENDBRANCH   1   2
BRANCH   1  28
ATOM     28  C   UNL     1       3.523   3.643   2.803  1.00  0.00     0.116 C 
BRANCH  28  29
ATOM     29  N   UNL     1       3.474   3.582   4.256  1.00  0.00    -0.352 N 
ATOM     30  C   UNL     1       3.758   4.582   5.155  1.00  0.00     0.251 C 
ATOM     31  H   UNL     1       3.204   2.718   4.643  1.00  0.00     0.163 HD
ATOM     32  O   UNL     1       3.781   4.341   6.359  1.00  0.00    -0.269 OA
BRANCH  30  33
ATOM     33  C   UNL     1       4.080   5.932   4.649  1.00  0.00     0.039 A 
ATOM     34  C   UNL     1       5.238   6.565   5.106  1.00  0.00     0.014 A 
ATOM     35  C   UNL     1       3.272   6.543   3.686  1.00  0.00     0.014 A 
ATOM     36  C   UNL     1       5.623   7.783   4.543  1.00  0.00     0.010 A 
ATOM     37  C   UNL     1       3.697   7.719   3.075  1.00  0.00     0.010 A 
ATOM     38  C   UNL     1       4.878   8.350   3.495  1.00  0.00    -0.014 A 
BRANCH  38  39
ATOM     39  C   UNL     1       5.318   9.602   2.825  1.00  0.00     0.031 A 
ATOM     40  C   UNL     1       4.461  10.836   2.906  1.00  0.00     0.074 A 
ATOM     41  C   UNL     1       6.449   9.603   2.091  1.00  0.00     0.049 A 
ATOM     42  N   UNL     1       4.629  11.997   2.327  1.00  0.00    -0.248 NA
ATOM     43  C   UNL     1       3.239  10.745   3.721  1.00  0.00     0.031 C 
ATOM     44  C   UNL     1       7.336   8.451   1.901  1.00  0.00     0.029 A 
ATOM     45  N   UNL     1       7.044  10.598   1.355  1.00  0.00    -0.354 N 
ATOM     46  C   UNL     1       3.527  12.765   2.688  1.00  0.00     0.074 A 
ATOM     47  C   UNL     1       2.674  11.923   3.498  1.00  0.00     0.031 C 
ATOM     48  C   UNL     1       8.366   8.811   1.118  1.00  0.00     0.029 A 
ATOM     49  C   UNL     1       8.194  10.201   0.710  1.00  0.00     0.049 A 
ATOM     50  H   UNL     1       6.681  11.511   1.294  1.00  0.00     0.167 HD
ATOM     51  C   UNL     1       3.262  14.059   2.384  1.00  0.00     0.034 A 
ATOM     52  C   UNL     1       9.007  10.876  -0.129  1.00  0.00     0.034 A 
ATOM     53  C   UNL     1       4.139  14.894   1.603  1.00  0.00     0.049 A 
ATOM     54  C   UNL     1       8.685  12.317  -0.445  1.00  0.00     0.074 A 
ATOM     55  C   UNL     1       4.007  16.240   1.310  1.00  0.00     0.029 A 
ATOM     56  N   UNL     1       5.307  14.466   0.986  1.00  0.00    -0.354 N 
ATOM     57  N   UNL     1       7.677  13.050  -0.030  1.00  0.00    -0.248 NA
ATOM     58  C   UNL     1       9.618  13.027  -1.331  1.00  0.00     0.031 C 
ATOM     59  C   UNL     1       5.053  16.608   0.458  1.00  0.00     0.029 A 
ATOM     60  C   UNL     1       5.884  15.513   0.285  1.00  0.00     0.049 A 
ATOM     61  H   UNL     1       5.671  13.553   1.038  1.00  0.00     0.167 HD
ATOM     62  C   UNL     1       7.879  14.315  -0.575  1.00  0.00     0.074 A 
ATOM     63  C   UNL     1       9.111  14.251  -1.330  1.00  0.00     0.031 C 
ATOM     64  C   UNL     1       7.116  15.432  -0.461  1.00  0.00     0.034 A 
BRANCH  51  65
ATOM     65  C   UNL     1       1.963  14.648   2.876  1.00  0.00     0.023 A 
ATOM     66  C   UNL     1       1.701  14.832   4.244  1.00  0.00     0.031 A 
ATOM     67  C   UNL     1       0.980  15.053   1.955  1.00  0.00     0.131 A 
ATOM     68  C   UNL     1       0.469  15.363   4.654  1.00  0.00     0.055 A 
ATOM     69  C   UNL     1      -0.215  15.644   2.366  1.00  0.00     0.041 A 
ATOM     70  F   UNL     1       1.168  14.881   0.637  1.00  0.00    -0.206 F 
ATOM     71  C   UNL     1      -0.480  15.794   3.724  1.00  0.00     0.022 A 
BRANCH  68  72
ATOM     72  S   UNL     1       0.081  15.392   6.426  1.00  0.00     0.124 S 
ATOM     73  O   UNL     1       0.106  13.969   6.756  1.00  0.00    -0.237 OA
ATOM     74  O   UNL     1       1.168  16.194   6.974  1.00  0.00    -0.237 OA
ATOM     75  O   UNL     1      -1.240  16.015   6.477  1.00  0.00    -0.744 OA
ENDBRANCH  68  72
ENDBRANCH  51  65
BRANCH  52  76
ATOM     76  C   UNL     1      10.189  10.211  -0.753  1.00  0.00     0.023 A 
ATOM     77  C   UNL     1      11.491  10.684  -0.521  1.00  0.00     0.031 A 
ATOM     78  C   UNL     1      10.029   9.148  -1.660  1.00  0.00     0.131 A 
ATOM     79  C   UNL     1      12.571  10.147  -1.241  1.00  0.00     0.055 A 
ATOM     80  C   UNL     1      11.115   8.572  -2.323  1.00  0.00     0.041 A 
ATOM     81  F   UNL     1       8.809   8.653  -1.918  1.00  0.00    -0.206 F 
ATOM     82  C   UNL     1      12.393   9.086  -2.130  1.00  0.00     0.022 A 
BRANCH  79  83
ATOM     83  S   UNL     1      14.193  10.949  -1.096  1.00  0.00     0.124 S 
ATOM     84  O   UNL     1      13.871  12.331  -1.429  1.00  0.00    -0.237 OA
ATOM     85  O   UNL     1      14.534  10.687   0.298  1.00  0.00    -0.237 OA
ATOM     86  O   UNL     1      15.009  10.242  -2.080  1.00  0.00    -0.744 OA
ENDBRANCH  79  83
ENDBRANCH  52  76
BRANCH  64  87
ATOM     87  C   UNL     1       7.631  16.686  -1.124  1.00  0.00     0.023 A 
ATOM     88  C   UNL     1       7.729  16.799  -2.522  1.00  0.00     0.031 A 
ATOM     89  C   UNL     1       8.037  17.781  -0.341  1.00  0.00     0.131 A 
ATOM     90  C   UNL     1       8.276  17.959  -3.091  1.00  0.00     0.055 A 
ATOM     91  C   UNL     1       8.520  18.957  -0.916  1.00  0.00     0.041 A 
ATOM     92  F   UNL     1       7.965  17.727   0.999  1.00  0.00    -0.206 F 
ATOM     93  C   UNL     1       8.655  19.045  -2.298  1.00  0.00     0.022 A 
BRANCH  90  94
ATOM     94  S   UNL     1       8.572  17.994  -4.880  1.00  0.00     0.124 S 
ATOM     95  O   UNL     1       9.465  16.855  -5.063  1.00  0.00    -0.237 OA
ATOM     96  O   UNL     1       7.225  17.840  -5.422  1.00  0.00    -0.237 OA
ATOM     97  O   UNL     1       9.182  19.303  -5.102  1.00  0.00    -0.744 OA
ENDBRANCH  90  94
ENDBRANCH  64  87
ENDBRANCH  38  39
ENDBRANCH  30  33
ENDBRANCH  28  29
ENDBRANCH   1  28
TORSDOF 17
