REMARK SMILES Cc1ncc(C(=O)NCCCCNC(=O)c2ccc(-c3c4nc(c(-c5cc(S(=O)(=O)[O-])ccc5F)c5ccc([nH]5)c(-c5cc(S(=O)(=O)[O-])ccc5F)c5nc(c(-c6cc(S(=O)(=O)[O-])ccc6F)c6ccc3[nH]6)C=C5)C=C4)cc2)cc1C#N
REMARK SMILES IDX 11 1 10 2 9 3 8 4 6 5 7 6 5 8 1 9 2 10 3 11 80 12 4 13 79 14
REMARK SMILES IDX 81 15 82 16 12 17 13 18 14 19 15 21 16 22 17 23 78 24 18 25
REMARK SMILES IDX 77 26 19 27 20 28 21 29 71 30 22 31 76 32 70 33 72 34 23 35
REMARK SMILES IDX 75 36 69 37 68 38 24 40 56 41 36 42 55 43 37 44 40 45 54 46
REMARK SMILES IDX 73 47 38 48 39 49 53 51 74 52 41 53 25 54 26 55 34 56 27 57
REMARK SMILES IDX 33 58 35 59 32 60 28 61 29 62 30 63 31 64 57 65 58 66 66 67
REMARK SMILES IDX 59 68 65 69 67 70 64 71 60 72 61 73 62 74 63 75 42 76 43 77
REMARK SMILES IDX 51 78 44 79 50 80 52 81 49 82 45 83 46 84 47 85 48 86
REMARK H PARENT 8 7 13 20 72 39 40 50
REMARK Flexibility Score: inf
ROOT
ATOM      1  C   UNL     1       1.131   8.369  -1.522  1.00  0.00     0.023 C 
ENDROOT
BRANCH   1   2
ATOM      2  C   UNL     1       1.418   6.888  -1.270  1.00  0.00     0.023 C 
BRANCH   2   3
ATOM      3  C   UNL     1       1.193   6.471   0.184  1.00  0.00     0.116 C 
BRANCH   3   4
ATOM      4  N   UNL     1      -0.211   6.212   0.423  1.00  0.00    -0.352 N 
ATOM      5  C   UNL     1      -0.955   5.064   0.456  1.00  0.00     0.252 C 
ATOM      6  O   UNL     1      -2.154   5.170   0.715  1.00  0.00    -0.269 OA
ATOM      7  H   UNL     1      -0.737   7.026   0.596  1.00  0.00     0.163 HD
BRANCH   5   8
ATOM      8  C   UNL     1      -0.397   3.704   0.251  1.00  0.00     0.059 A 
ATOM      9  C   UNL     1       0.805  -0.398   0.050  1.00  0.00     0.068 C 
ATOM     10  C   UNL     1       0.442   1.057   0.122  1.00  0.00     0.055 A 
ATOM     11  N   UNL     1      -0.776   1.332   0.649  1.00  0.00    -0.259 NA
ATOM     12  C   UNL     1       1.266   2.058  -0.388  1.00  0.00     0.074 A 
ATOM     13  C   UNL     1      -1.158   2.635   0.714  1.00  0.00     0.125 A 
ATOM     14  C   UNL     1       0.813   3.384  -0.361  1.00  0.00     0.036 A 
BRANCH  12  15
ATOM     15  C   UNL     1       2.577   1.779  -0.893  1.00  0.00     0.101 C 
ATOM     16  N   UNL     1       3.653   1.568  -1.267  1.00  0.00    -0.192 NA
ENDBRANCH  12  15
ENDBRANCH   5   8
ENDBRANCH   3   4
ENDBRANCH   2   3
ENDBRANCH   1   2
BRANCH   1  17
ATOM     17  C   UNL     1       1.987   9.322  -0.698  1.00  0.00     0.116 C 
BRANCH  17  18
ATOM     18  N   UNL     1       3.417   9.121  -0.901  1.00  0.00    -0.352 N 
ATOM     19  C   UNL     1       4.381  10.092  -1.028  1.00  0.00     0.251 C 
ATOM     20  H   UNL     1       3.725   8.187  -0.953  1.00  0.00     0.163 HD
ATOM     21  O   UNL     1       5.539   9.810  -1.308  1.00  0.00    -0.269 OA
BRANCH  19  22
ATOM     22  C   UNL     1       3.957  11.489  -0.845  1.00  0.00     0.039 A 
ATOM     23  C   UNL     1       4.076  12.377  -1.914  1.00  0.00     0.014 A 
ATOM     24  C   UNL     1       3.309  11.857   0.339  1.00  0.00     0.014 A 
ATOM     25  C   UNL     1       3.496  13.639  -1.810  1.00  0.00     0.010 A 
ATOM     26  C   UNL     1       2.670  13.086   0.408  1.00  0.00     0.010 A 
ATOM     27  C   UNL     1       2.772  13.991  -0.659  1.00  0.00    -0.014 A 
BRANCH  27  28
ATOM     28  C   UNL     1       2.160  15.332  -0.531  1.00  0.00     0.031 A 
ATOM     29  C   UNL     1       2.708  16.292   0.482  1.00  0.00     0.074 A 
ATOM     30  C   UNL     1       1.103  15.671  -1.293  1.00  0.00     0.049 A 
ATOM     31  N   UNL     1       2.318  17.509   0.751  1.00  0.00    -0.248 NA
ATOM     32  C   UNL     1       3.828  15.820   1.314  1.00  0.00     0.031 C 
ATOM     33  C   UNL     1       0.464  14.802  -2.281  1.00  0.00     0.029 A 
ATOM     34  N   UNL     1       0.377  16.835  -1.350  1.00  0.00    -0.354 N 
ATOM     35  C   UNL     1       3.142  17.945   1.779  1.00  0.00     0.074 A 
ATOM     36  C   UNL     1       4.009  16.846   2.131  1.00  0.00     0.031 C 
ATOM     37  C   UNL     1      -0.547  15.470  -2.860  1.00  0.00     0.029 A 
ATOM     38  C   UNL     1      -0.650  16.801  -2.263  1.00  0.00     0.049 A 
ATOM     39  H   UNL     1       0.574  17.620  -0.790  1.00  0.00     0.167 HD
ATOM     40  C   UNL     1       3.191  19.167   2.353  1.00  0.00     0.034 A 
ATOM     41  C   UNL     1      -1.572  17.734  -2.582  1.00  0.00     0.034 A 
ATOM     42  C   UNL     1       2.334  20.259   1.981  1.00  0.00     0.049 A 
ATOM     43  C   UNL     1      -1.512  19.084  -1.916  1.00  0.00     0.074 A 
ATOM     44  C   UNL     1       2.349  21.553   2.467  1.00  0.00     0.029 A 
ATOM     45  N   UNL     1       1.313  20.192   1.046  1.00  0.00    -0.354 N 
ATOM     46  N   UNL     1      -0.663  19.516  -1.014  1.00  0.00    -0.248 NA
ATOM     47  C   UNL     1      -2.518  20.078  -2.316  1.00  0.00     0.031 C 
ATOM     48  C   UNL     1       1.291  22.248   1.884  1.00  0.00     0.029 A 
ATOM     49  C   UNL     1       0.669  21.415   0.966  1.00  0.00     0.049 A 
ATOM     50  H   UNL     1       1.081  19.395   0.517  1.00  0.00     0.167 HD
ATOM     51  C   UNL     1      -1.010  20.841  -0.764  1.00  0.00     0.074 A 
ATOM     52  C   UNL     1      -2.140  21.142  -1.617  1.00  0.00     0.031 C 
ATOM     53  C   UNL     1      -0.439  21.721   0.094  1.00  0.00     0.034 A 
BRANCH  40  54
ATOM     54  C   UNL     1       4.210  19.416   3.430  1.00  0.00     0.023 A 
ATOM     55  C   UNL     1       3.783  19.749   4.727  1.00  0.00     0.031 A 
ATOM     56  C   UNL     1       5.585  19.466   3.143  1.00  0.00     0.131 A 
ATOM     57  C   UNL     1       4.719  20.170   5.677  1.00  0.00     0.055 A 
ATOM     58  C   UNL     1       6.519  19.843   4.107  1.00  0.00     0.041 A 
ATOM     59  F   UNL     1       6.040  19.145   1.920  1.00  0.00    -0.206 F 
ATOM     60  C   UNL     1       6.085  20.215   5.376  1.00  0.00     0.022 A 
BRANCH  57  61
ATOM     61  S   UNL     1       4.191  20.729   7.317  1.00  0.00     0.124 S 
ATOM     62  O   UNL     1       4.994  19.883   8.197  1.00  0.00    -0.237 OA
ATOM     63  O   UNL     1       4.567  22.139   7.293  1.00  0.00    -0.237 OA
ATOM     64  O   UNL     1       2.758  20.456   7.337  1.00  0.00    -0.744 OA
ENDBRANCH  57  61
ENDBRANCH  40  54
BRANCH  41  65
ATOM     65  C   UNL     1      -2.582  17.419  -3.630  1.00  0.00     0.023 A 
ATOM     66  C   UNL     1      -3.525  16.395  -3.432  1.00  0.00     0.031 A 
ATOM     67  C   UNL     1      -2.547  18.055  -4.882  1.00  0.00     0.131 A 
ATOM     68  C   UNL     1      -4.344  15.989  -4.492  1.00  0.00     0.055 A 
ATOM     69  C   UNL     1      -3.410  17.691  -5.916  1.00  0.00     0.041 A 
ATOM     70  F   UNL     1      -1.661  19.035  -5.117  1.00  0.00    -0.206 F 
ATOM     71  C   UNL     1      -4.303  16.640  -5.729  1.00  0.00     0.022 A 
BRANCH  68  72
ATOM     72  S   UNL     1      -5.415  14.535  -4.327  1.00  0.00     0.124 S 
ATOM     73  O   UNL     1      -6.713  15.061  -4.738  1.00  0.00    -0.237 OA
ATOM     74  O   UNL     1      -4.788  13.602  -5.259  1.00  0.00    -0.237 OA
ATOM     75  O   UNL     1      -5.299  14.180  -2.917  1.00  0.00    -0.744 OA
ENDBRANCH  68  72
ENDBRANCH  41  65
BRANCH  53  76
ATOM     76  C   UNL     1      -0.977  23.129   0.168  1.00  0.00     0.023 A 
ATOM     77  C   UNL     1      -0.138  24.208  -0.172  1.00  0.00     0.031 A 
ATOM     78  C   UNL     1      -2.225  23.410   0.745  1.00  0.00     0.131 A 
ATOM     79  C   UNL     1      -0.532  25.517   0.125  1.00  0.00     0.055 A 
ATOM     80  C   UNL     1      -2.635  24.721   0.993  1.00  0.00     0.041 A 
ATOM     81  F   UNL     1      -3.056  22.415   1.092  1.00  0.00    -0.206 F 
ATOM     82  C   UNL     1      -1.779  25.780   0.700  1.00  0.00     0.022 A 
BRANCH  79  83
ATOM     83  S   UNL     1       0.592  26.914  -0.147  1.00  0.00     0.124 S 
ATOM     84  O   UNL     1      -0.215  27.793  -0.991  1.00  0.00    -0.237 OA
ATOM     85  O   UNL     1       0.821  27.393   1.213  1.00  0.00    -0.237 OA
ATOM     86  O   UNL     1       1.747  26.314  -0.807  1.00  0.00    -0.744 OA
ENDBRANCH  79  83
ENDBRANCH  53  76
ENDBRANCH  27  28
ENDBRANCH  19  22
ENDBRANCH  17  18
ENDBRANCH   1  17
TORSDOF 15
