REMARK SMILES Cc1ccc(Cl)c(Nc2ccccc2C(=O)NCC(=O)NCCCCNC(=O)c2ccc(-c3c4nc(c(-c5cc(S(=O)(=O)[O-])ccc5F)c5ccc([nH]5)c(-c5cc(S(=O)(=O)[O-])ccc5F)c5nc(c(-c6cc(S(=O)(=O)[O-])ccc6F)c6ccc3[nH]6)C=C5)C=C4)cc2)c1Cl
REMARK SMILES IDX 23 1 22 2 21 3 19 4 20 5 18 7 17 8 15 9 16 10 14 12 9 13
REMARK SMILES IDX 10 14 11 15 13 16 12 17 8 18 7 20 1 21 2 22 3 23 92 24 4 25
REMARK SMILES IDX 93 26 5 27 6 28 24 29 25 30 26 31 27 32 28 34 29 35 30 36
REMARK SMILES IDX 91 37 31 38 90 39 32 40 33 41 34 42 84 43 35 44 89 45 83 46
REMARK SMILES IDX 85 47 36 48 88 49 82 50 81 51 37 53 69 54 49 55 68 56 50 57
REMARK SMILES IDX 53 58 67 59 86 60 51 61 52 62 66 64 87 65 54 66 38 67 39 68
REMARK SMILES IDX 47 69 40 70 46 71 48 72 45 73 41 74 42 75 43 76 44 77 70 78
REMARK SMILES IDX 71 79 79 80 72 81 78 82 80 83 77 84 73 85 74 86 75 87 76 88
REMARK SMILES IDX 55 89 56 90 64 91 57 92 63 93 65 94 62 95 58 96 59 97 60 98
REMARK SMILES IDX 61 99
REMARK H PARENT 21 6 17 11 8 19 26 33 85 52 53 63
REMARK Flexibility Score: inf
ROOT
ATOM      1  C   UNL     1      -1.143  -3.719   3.975  1.00  0.00     0.023 C 
ENDROOT
BRANCH   1   2
ATOM      2  C   UNL     1      -1.645  -3.549   2.546  1.00  0.00     0.116 C 
BRANCH   2   3
ATOM      3  N   UNL     1      -2.547  -2.426   2.478  1.00  0.00    -0.355 N 
ATOM      4  C   UNL     1      -2.200  -1.114   2.362  1.00  0.00     0.239 C 
ATOM      5  O   UNL     1      -3.079  -0.257   2.466  1.00  0.00    -0.273 OA
ATOM      6  H   UNL     1      -3.510  -2.628   2.519  1.00  0.00     0.163 HD
BRANCH   4   7
ATOM      7  C   UNL     1      -0.815  -0.764   1.826  1.00  0.00     0.216 C 
BRANCH   7   8
ATOM      8  N   UNL     1       0.437  -1.221   2.390  1.00  0.00    -0.343 N 
ATOM      9  C   UNL     1       1.531  -1.827   1.814  1.00  0.00     0.253 C 
ATOM     10  O   UNL     1       2.606  -1.626   2.392  1.00  0.00    -0.269 OA
ATOM     11  H   UNL     1       0.521  -1.072   3.360  1.00  0.00     0.164 HD
BRANCH   9  12
ATOM     12  C   UNL     1       1.505  -2.860   0.716  1.00  0.00     0.063 A 
ATOM     13  C   UNL     1       0.809  -2.902  -0.515  1.00  0.00     0.051 A 
ATOM     14  C   UNL     1       0.912  -4.085  -1.297  1.00  0.00     0.027 A 
ATOM     15  C   UNL     1       1.724  -5.160  -0.939  1.00  0.00     0.002 A 
ATOM     16  C   UNL     1       2.335  -3.967   1.046  1.00  0.00     0.016 A 
ATOM     17  C   UNL     1       2.458  -5.091   0.229  1.00  0.00     0.001 A 
BRANCH  13  18
ATOM     18  N   UNL     1       0.108  -1.866  -1.170  1.00  0.00    -0.352 N 
ATOM     19  H   UNL     1      -0.630  -2.194  -1.733  1.00  0.00     0.167 HD
BRANCH  18  20
ATOM     20  C   UNL     1       0.241  -0.456  -1.191  1.00  0.00     0.077 A 
ATOM     21  C   UNL     1       2.695   2.286  -0.143  1.00  0.00     0.046 C 
ATOM     22  C   UNL     1       1.438   1.589  -0.582  1.00  0.00    -0.030 A 
ATOM     23  C   UNL     1       0.227   2.298  -0.596  1.00  0.00     0.006 A 
ATOM     24  C   UNL     1       1.445   0.222  -0.925  1.00  0.00     0.069 A 
ATOM     25  C   UNL     1      -0.954   1.675  -0.987  1.00  0.00     0.023 A 
ATOM     26  Cl  UNL     1       2.974  -0.582  -1.127  1.00  0.00    -0.082 Cl
ATOM     27  C   UNL     1      -0.943   0.317  -1.292  1.00  0.00     0.066 A 
ATOM     28  Cl  UNL     1      -2.460  -0.436  -1.675  1.00  0.00    -0.082 Cl
ENDBRANCH  18  20
ENDBRANCH  13  18
ENDBRANCH   9  12
ENDBRANCH   7   8
ENDBRANCH   4   7
ENDBRANCH   2   3
ENDBRANCH   1   2
BRANCH   1  29
ATOM     29  C   UNL     1      -2.266  -4.073   4.952  1.00  0.00     0.023 C 
BRANCH  29  30
ATOM     30  C   UNL     1      -3.034  -5.330   4.576  1.00  0.00     0.116 C 
BRANCH  30  31
ATOM     31  N   UNL     1      -2.164  -6.496   4.491  1.00  0.00    -0.352 N 
ATOM     32  C   UNL     1      -2.409  -7.765   4.950  1.00  0.00     0.251 C 
ATOM     33  H   UNL     1      -1.295  -6.356   4.050  1.00  0.00     0.163 HD
ATOM     34  O   UNL     1      -1.525  -8.600   4.978  1.00  0.00    -0.269 OA
BRANCH  32  35
ATOM     35  C   UNL     1      -3.770  -8.073   5.440  1.00  0.00     0.039 A 
ATOM     36  C   UNL     1      -3.923  -8.610   6.717  1.00  0.00     0.014 A 
ATOM     37  C   UNL     1      -4.883  -7.754   4.656  1.00  0.00     0.014 A 
ATOM     38  C   UNL     1      -5.207  -8.783   7.233  1.00  0.00     0.010 A 
ATOM     39  C   UNL     1      -6.156  -7.858   5.202  1.00  0.00     0.010 A 
ATOM     40  C   UNL     1      -6.332  -8.379   6.494  1.00  0.00    -0.014 A 
BRANCH  40  41
ATOM     41  C   UNL     1      -7.702  -8.506   7.050  1.00  0.00     0.031 A 
ATOM     42  C   UNL     1      -8.693  -9.422   6.383  1.00  0.00     0.074 A 
ATOM     43  C   UNL     1      -8.066  -7.756   8.109  1.00  0.00     0.049 A 
ATOM     44  N   UNL     1      -9.953  -9.623   6.668  1.00  0.00    -0.248 NA
ATOM     45  C   UNL     1      -8.211 -10.192   5.224  1.00  0.00     0.031 C 
ATOM     46  C   UNL     1      -7.201  -6.802   8.808  1.00  0.00     0.029 A 
ATOM     47  N   UNL     1      -9.261  -7.668   8.780  1.00  0.00    -0.354 N 
ATOM     48  C   UNL     1     -10.419 -10.521   5.714  1.00  0.00     0.074 A 
ATOM     49  C   UNL     1      -9.320 -10.789   4.813  1.00  0.00     0.031 C 
ATOM     50  C   UNL     1      -7.886  -6.246   9.822  1.00  0.00     0.029 A 
ATOM     51  C   UNL     1      -9.250  -6.763   9.818  1.00  0.00     0.049 A 
ATOM     52  H   UNL     1     -10.052  -8.203   8.541  1.00  0.00     0.167 HD
ATOM     53  C   UNL     1     -11.648 -11.083   5.613  1.00  0.00     0.034 A 
ATOM     54  C   UNL     1     -10.233  -6.386  10.660  1.00  0.00     0.034 A 
ATOM     55  C   UNL     1     -12.720 -10.832   6.542  1.00  0.00     0.049 A 
ATOM     56  C   UNL     1     -11.593  -7.028  10.517  1.00  0.00     0.074 A 
ATOM     57  C   UNL     1     -13.975 -11.414   6.583  1.00  0.00     0.029 A 
ATOM     58  N   UNL     1     -12.671  -9.921   7.588  1.00  0.00    -0.354 N 
ATOM     59  N   UNL     1     -11.993  -7.936   9.656  1.00  0.00    -0.248 NA
ATOM     60  C   UNL     1     -12.631  -6.605  11.467  1.00  0.00     0.031 C 
ATOM     61  C   UNL     1     -14.708 -10.803   7.604  1.00  0.00     0.029 A 
ATOM     62  C   UNL     1     -13.885  -9.899   8.256  1.00  0.00     0.049 A 
ATOM     63  H   UNL     1     -11.888  -9.371   7.822  1.00  0.00     0.167 HD
ATOM     64  C   UNL     1     -13.315  -8.220   9.991  1.00  0.00     0.074 A 
ATOM     65  C   UNL     1     -13.636  -7.402  11.141  1.00  0.00     0.031 C 
ATOM     66  C   UNL     1     -14.186  -9.080   9.405  1.00  0.00     0.034 A 
BRANCH  53  67
ATOM     67  C   UNL     1     -11.910 -12.004   4.447  1.00  0.00     0.023 A 
ATOM     68  C   UNL     1     -11.243 -13.232   4.304  1.00  0.00     0.031 A 
ATOM     69  C   UNL     1     -12.861 -11.651   3.473  1.00  0.00     0.131 A 
ATOM     70  C   UNL     1     -11.502 -14.042   3.187  1.00  0.00     0.055 A 
ATOM     71  C   UNL     1     -13.166 -12.494   2.403  1.00  0.00     0.041 A 
ATOM     72  F   UNL     1     -13.511 -10.479   3.546  1.00  0.00    -0.206 F 
ATOM     73  C   UNL     1     -12.478 -13.694   2.250  1.00  0.00     0.022 A 
BRANCH  70  74
ATOM     74  S   UNL     1     -10.471 -15.510   2.920  1.00  0.00     0.124 S 
ATOM     75  O   UNL     1      -9.145 -14.916   2.775  1.00  0.00    -0.237 OA
ATOM     76  O   UNL     1     -10.697 -16.280   4.138  1.00  0.00    -0.237 OA
ATOM     77  O   UNL     1     -11.021 -16.097   1.700  1.00  0.00    -0.744 OA
ENDBRANCH  70  74
ENDBRANCH  53  67
BRANCH  54  78
ATOM     78  C   UNL     1      -9.997  -5.345  11.704  1.00  0.00     0.023 A 
ATOM     79  C   UNL     1     -10.158  -5.641  13.068  1.00  0.00     0.031 A 
ATOM     80  C   UNL     1      -9.698  -4.016  11.353  1.00  0.00     0.131 A 
ATOM     81  C   UNL     1     -10.097  -4.613  14.021  1.00  0.00     0.055 A 
ATOM     82  C   UNL     1      -9.570  -3.009  12.312  1.00  0.00     0.041 A 
ATOM     83  F   UNL     1      -9.531  -3.674  10.065  1.00  0.00    -0.206 F 
ATOM     84  C   UNL     1      -9.791  -3.301  13.654  1.00  0.00     0.022 A 
BRANCH  81  85
ATOM     85  S   UNL     1     -10.563  -4.992  15.733  1.00  0.00     0.124 S 
ATOM     86  O   UNL     1     -11.889  -5.574  15.557  1.00  0.00    -0.237 OA
ATOM     87  O   UNL     1      -9.506  -5.912  16.137  1.00  0.00    -0.237 OA
ATOM     88  O   UNL     1     -10.537  -3.686  16.389  1.00  0.00    -0.744 OA
ENDBRANCH  81  85
ENDBRANCH  54  78
BRANCH  66  89
ATOM     89  C   UNL     1     -15.546  -9.221  10.042  1.00  0.00     0.023 A 
ATOM     90  C   UNL     1     -16.472  -8.163  10.056  1.00  0.00     0.031 A 
ATOM     91  C   UNL     1     -15.916 -10.433  10.651  1.00  0.00     0.131 A 
ATOM     92  C   UNL     1     -17.698  -8.318  10.720  1.00  0.00     0.055 A 
ATOM     93  C   UNL     1     -17.164 -10.603  11.252  1.00  0.00     0.041 A 
ATOM     94  F   UNL     1     -15.071 -11.476  10.667  1.00  0.00    -0.206 F 
ATOM     95  C   UNL     1     -18.057  -9.537  11.301  1.00  0.00     0.022 A 
BRANCH  92  96
ATOM     96  S   UNL     1     -18.781  -6.874  10.895  1.00  0.00     0.124 S 
ATOM     97  O   UNL     1     -17.921  -5.934  11.604  1.00  0.00    -0.237 OA
ATOM     98  O   UNL     1     -19.082  -6.540   9.506  1.00  0.00    -0.237 OA
ATOM     99  O   UNL     1     -19.913  -7.386  11.667  1.00  0.00    -0.744 OA
ENDBRANCH  92  96
ENDBRANCH  66  89
ENDBRANCH  40  41
ENDBRANCH  32  35
ENDBRANCH  30  31
ENDBRANCH  29  30
ENDBRANCH   1  29
TORSDOF 18
