REMARK SMILES O=C(NCCCCNC(=O)c1ccc([C@H]2CCC[N@@H+](CCN3CCCC3=O)C2)cc1)c1ccc(-c2c3nc(c(-c4cc(S(=O)(=O)[O-])ccc4F)c4ccc([nH]4)c(-c4cc(S(=O)(=O)[O-])ccc4F)c4nc(c(-c5cc(S(=O)(=O)[O-])ccc5F)c5ccc2[nH]5)C=C4)C=C3)cc1
REMARK SMILES IDX 6 1 5 2 4 3 3 4 1 5 2 6 31 8 32 9 93 10 33 11 92 12 34 13
REMARK SMILES IDX 35 14 36 15 86 16 37 17 91 18 85 19 87 20 38 21 90 22 84 23
REMARK SMILES IDX 83 24 39 26 71 27 51 28 70 29 52 30 55 31 69 32 88 33 53 34
REMARK SMILES IDX 54 35 68 37 89 38 56 39 40 40 41 41 49 42 42 43 48 44 50 45
REMARK SMILES IDX 47 46 43 47 44 48 45 49 46 50 72 51 73 52 81 53 74 54 80 55
REMARK SMILES IDX 82 56 79 57 75 58 76 59 77 60 78 61 57 62 58 63 66 64 59 65
REMARK SMILES IDX 65 66 67 67 64 68 60 69 61 70 62 71 63 72 7 73 8 74 9 75
REMARK SMILES IDX 10 77 11 78 12 79 30 80 13 81 29 82 14 83 15 84 16 85 28 86
REMARK SMILES IDX 17 87 19 88 18 89 20 91 21 92 22 93 23 94 26 95 24 96 25 97
REMARK SMILES IDX 27 98
REMARK H PARENT 3 7 87 25 55 36 8 76 19 90
REMARK Flexibility Score: inf
ROOT
ATOM      1  C   UNL     1       3.331 -11.094 -12.304  1.00  0.00     0.023 C 
ENDROOT
BRANCH   1   2
ATOM      2  C   UNL     1       3.158 -12.279 -13.251  1.00  0.00     0.023 C 
BRANCH   2   3
ATOM      3  C   UNL     1       1.882 -13.092 -13.063  1.00  0.00     0.116 C 
BRANCH   3   4
ATOM      4  N   UNL     1       0.666 -12.363 -13.408  1.00  0.00    -0.352 N 
ATOM      5  O   UNL     1      -1.214 -11.863 -14.549  1.00  0.00    -0.269 OA
ATOM      6  C   UNL     1      -0.310 -12.666 -14.335  1.00  0.00     0.251 C 
ATOM      7  H   UNL     1       0.520 -11.530 -12.905  1.00  0.00     0.163 HD
BRANCH   6   8
ATOM      8  C   UNL     1      -0.248 -13.938 -15.094  1.00  0.00     0.039 A 
ATOM      9  C   UNL     1       0.072 -15.133 -14.453  1.00  0.00     0.014 A 
ATOM     10  C   UNL     1      -0.477 -13.929 -16.474  1.00  0.00     0.014 A 
ATOM     11  C   UNL     1       0.374 -16.260 -15.209  1.00  0.00     0.010 A 
ATOM     12  C   UNL     1      -0.285 -15.100 -17.220  1.00  0.00     0.010 A 
ATOM     13  C   UNL     1       0.199 -16.263 -16.603  1.00  0.00    -0.014 A 
BRANCH  13  14
ATOM     14  C   UNL     1       0.519 -17.501 -17.371  1.00  0.00     0.031 A 
ATOM     15  C   UNL     1       1.594 -17.509 -18.428  1.00  0.00     0.074 A 
ATOM     16  C   UNL     1      -0.128 -18.644 -17.064  1.00  0.00     0.049 A 
ATOM     17  N   UNL     1       2.034 -18.511 -19.151  1.00  0.00    -0.248 NA
ATOM     18  C   UNL     1       2.253 -16.229 -18.723  1.00  0.00     0.031 C 
ATOM     19  C   UNL     1      -1.187 -18.764 -16.058  1.00  0.00     0.029 A 
ATOM     20  N   UNL     1       0.024 -19.923 -17.535  1.00  0.00    -0.354 N 
ATOM     21  C   UNL     1       3.004 -17.980 -19.997  1.00  0.00     0.074 A 
ATOM     22  C   UNL     1       3.058 -16.560 -19.723  1.00  0.00     0.031 C 
ATOM     23  C   UNL     1      -1.539 -20.052 -15.941  1.00  0.00     0.029 A 
ATOM     24  C   UNL     1      -0.797 -20.839 -16.918  1.00  0.00     0.049 A 
ATOM     25  H   UNL     1       0.660 -20.163 -18.247  1.00  0.00     0.167 HD
ATOM     26  C   UNL     1       3.781 -18.620 -20.909  1.00  0.00     0.034 A 
ATOM     27  C   UNL     1      -0.955 -22.160 -17.124  1.00  0.00     0.034 A 
ATOM     28  C   UNL     1       3.717 -20.041 -21.166  1.00  0.00     0.049 A 
ATOM     29  C   UNL     1      -0.116 -22.835 -18.176  1.00  0.00     0.074 A 
ATOM     30  C   UNL     1       4.483 -20.794 -22.041  1.00  0.00     0.029 A 
ATOM     31  N   UNL     1       2.829 -20.925 -20.564  1.00  0.00    -0.354 N 
ATOM     32  N   UNL     1       0.812 -22.320 -18.950  1.00  0.00    -0.248 NA
ATOM     33  C   UNL     1      -0.342 -24.270 -18.377  1.00  0.00     0.031 C 
ATOM     34  C   UNL     1       4.002 -22.107 -22.033  1.00  0.00     0.029 A 
ATOM     35  C   UNL     1       3.003 -22.203 -21.078  1.00  0.00     0.049 A 
ATOM     36  H   UNL     1       2.172 -20.680 -19.873  1.00  0.00     0.167 HD
ATOM     37  C   UNL     1       1.306 -23.381 -19.703  1.00  0.00     0.074 A 
ATOM     38  C   UNL     1       0.585 -24.563 -19.276  1.00  0.00     0.031 C 
ATOM     39  C   UNL     1       2.273 -23.378 -20.657  1.00  0.00     0.034 A 
BRANCH  26  40
ATOM     40  C   UNL     1       4.730 -17.779 -21.736  1.00  0.00     0.023 A 
ATOM     41  C   UNL     1       5.780 -17.046 -21.157  1.00  0.00     0.031 A 
ATOM     42  C   UNL     1       4.571 -17.700 -23.133  1.00  0.00     0.131 A 
ATOM     43  C   UNL     1       6.578 -16.210 -21.955  1.00  0.00     0.055 A 
ATOM     44  C   UNL     1       5.423 -16.935 -23.932  1.00  0.00     0.041 A 
ATOM     45  F   UNL     1       3.575 -18.358 -23.746  1.00  0.00    -0.206 F 
ATOM     46  C   UNL     1       6.425 -16.171 -23.342  1.00  0.00     0.022 A 
BRANCH  43  47
ATOM     47  S   UNL     1       7.713 -15.055 -21.137  1.00  0.00     0.124 S 
ATOM     48  O   UNL     1       6.803 -14.310 -20.268  1.00  0.00    -0.237 OA
ATOM     49  O   UNL     1       8.646 -15.951 -20.465  1.00  0.00    -0.237 OA
ATOM     50  O   UNL     1       8.274 -14.283 -22.244  1.00  0.00    -0.744 OA
ENDBRANCH  43  47
ENDBRANCH  26  40
BRANCH  27  51
ATOM     51  C   UNL     1      -1.962 -22.931 -16.338  1.00  0.00     0.023 A 
ATOM     52  C   UNL     1      -1.574 -23.992 -15.505  1.00  0.00     0.031 A 
ATOM     53  C   UNL     1      -3.336 -22.646 -16.445  1.00  0.00     0.131 A 
ATOM     54  C   UNL     1      -2.550 -24.761 -14.853  1.00  0.00     0.055 A 
ATOM     55  C   UNL     1      -4.298 -23.371 -15.742  1.00  0.00     0.041 A 
ATOM     56  F   UNL     1      -3.763 -21.642 -17.228  1.00  0.00    -0.206 F 
ATOM     57  C   UNL     1      -3.908 -24.447 -14.952  1.00  0.00     0.022 A 
BRANCH  54  58
ATOM     58  S   UNL     1      -2.026 -26.245 -13.954  1.00  0.00     0.124 S 
ATOM     59  O   UNL     1      -1.350 -27.002 -15.002  1.00  0.00    -0.237 OA
ATOM     60  O   UNL     1      -1.170 -25.683 -12.915  1.00  0.00    -0.237 OA
ATOM     61  O   UNL     1      -3.284 -26.818 -13.481  1.00  0.00    -0.744 OA
ENDBRANCH  54  58
ENDBRANCH  27  51
BRANCH  39  62
ATOM     62  C   UNL     1       2.646 -24.714 -21.258  1.00  0.00     0.023 A 
ATOM     63  C   UNL     1       1.732 -25.480 -22.003  1.00  0.00     0.031 A 
ATOM     64  C   UNL     1       3.931 -25.246 -21.048  1.00  0.00     0.131 A 
ATOM     65  C   UNL     1       2.089 -26.764 -22.443  1.00  0.00     0.055 A 
ATOM     66  C   UNL     1       4.306 -26.491 -21.555  1.00  0.00     0.041 A 
ATOM     67  F   UNL     1       4.846 -24.566 -20.339  1.00  0.00    -0.206 F 
ATOM     68  C   UNL     1       3.377 -27.266 -22.241  1.00  0.00     0.022 A 
BRANCH  65  69
ATOM     69  S   UNL     1       0.807 -27.824 -23.168  1.00  0.00     0.124 S 
ATOM     70  O   UNL     1      -0.199 -27.849 -22.110  1.00  0.00    -0.237 OA
ATOM     71  O   UNL     1       0.443 -27.092 -24.376  1.00  0.00    -0.237 OA
ATOM     72  O   UNL     1       1.498 -29.092 -23.395  1.00  0.00    -0.744 OA
ENDBRANCH  65  69
ENDBRANCH  39  62
ENDBRANCH  13  14
ENDBRANCH   6   8
ENDBRANCH   3   4
ENDBRANCH   2   3
ENDBRANCH   1   2
BRANCH   1  73
ATOM     73  C   UNL     1       3.328 -11.441 -10.815  1.00  0.00     0.116 C 
BRANCH  73  74
ATOM     74  N   UNL     1       4.438 -12.294 -10.416  1.00  0.00    -0.352 N 
ATOM     75  C   UNL     1       5.396 -12.075  -9.452  1.00  0.00     0.251 C 
ATOM     76  H   UNL     1       4.515 -13.146 -10.904  1.00  0.00     0.163 HD
ATOM     77  O   UNL     1       6.299 -12.876  -9.247  1.00  0.00    -0.269 OA
BRANCH  75  78
ATOM     78  C   UNL     1       5.330 -10.834  -8.665  1.00  0.00     0.039 A 
ATOM     79  C   UNL     1       6.225  -9.804  -8.937  1.00  0.00     0.014 A 
ATOM     80  C   UNL     1       4.336 -10.673  -7.704  1.00  0.00     0.014 A 
ATOM     81  C   UNL     1       6.007  -8.544  -8.375  1.00  0.00     0.005 A 
ATOM     82  C   UNL     1       4.144  -9.417  -7.127  1.00  0.00     0.005 A 
ATOM     83  C   UNL     1       4.885  -8.301  -7.559  1.00  0.00    -0.039 A 
BRANCH  83  84
ATOM     84  C   UNL     1       4.426  -6.847  -7.299  1.00  0.00     0.074 C 
ATOM     85  C   UNL     1       4.461  -6.069  -8.635  1.00  0.00     0.020 C 
ATOM     86  C   UNL     1       3.013  -6.755  -6.647  1.00  0.00     0.270 C 
ATOM     87  C   UNL     1       3.757  -4.727  -8.545  1.00  0.00     0.062 C 
ATOM     88  N   UNL     1       2.170  -5.576  -6.861  1.00  0.00    -0.333 N 
ATOM     89  C   UNL     1       2.301  -4.942  -8.168  1.00  0.00     0.262 C 
ATOM     90  H   UNL     1       2.526  -4.872  -6.213  1.00  0.00     0.348 HD
BRANCH  88  91
ATOM     91  C   UNL     1       0.750  -5.872  -6.524  1.00  0.00     0.284 C 
BRANCH  91  92
ATOM     92  C   UNL     1      -0.185  -6.583  -7.553  1.00  0.00     0.180 C 
BRANCH  92  93
ATOM     93  N   UNL     1      -0.032  -8.025  -7.741  1.00  0.00    -0.337 N 
ATOM     94  C   UNL     1       0.812  -8.631  -8.746  1.00  0.00     0.120 C 
ATOM     95  C   UNL     1      -0.788  -8.968  -7.054  1.00  0.00     0.222 C 
ATOM     96  C   UNL     1       0.260 -10.035  -8.897  1.00  0.00     0.031 C 
ATOM     97  C   UNL     1      -0.381 -10.334  -7.550  1.00  0.00     0.102 C 
ATOM     98  O   UNL     1      -1.607  -8.750  -6.182  1.00  0.00    -0.275 OA
ENDBRANCH  92  93
ENDBRANCH  91  92
ENDBRANCH  88  91
ENDBRANCH  83  84
ENDBRANCH  75  78
ENDBRANCH  73  74
ENDBRANCH   1  73
TORSDOF 18
