REMARK SMILES O=C(COc1ccccc1Br)Nc1cccc(C(=O)Nc2ccc(C(=O)NCCCCNC(=O)c3ccc(-c4c5nc(c(-c6cc(S(=O)(=O)[O-])ccc6F)c6ccc([nH]6)c(-c6cc(S(=O)(=O)[O-])ccc6F)c6nc(c(-c7cc(S(=O)(=O)[O-])ccc7F)c7ccc4[nH]7)C=C6)C=C5)cc3)cc2)c1
REMARK SMILES IDX 28 1 27 2 25 3 26 4 24 6 21 7 22 8 99 9 23 10 98 11 20 12
REMARK SMILES IDX 18 13 19 14 17 16 13 17 14 18 100 19 15 20 16 21 12 22 1 23
REMARK SMILES IDX 2 24 3 26 4 27 5 28 6 29 10 30 7 31 9 32 11 33 8 34 29 35
REMARK SMILES IDX 30 36 31 37 32 38 33 39 34 41 35 42 36 43 97 44 37 45 96 46
REMARK SMILES IDX 38 47 39 48 40 49 90 50 41 51 95 52 89 53 91 54 42 55 94 56
REMARK SMILES IDX 88 57 87 58 43 60 75 61 55 62 74 63 56 64 59 65 73 66 92 67
REMARK SMILES IDX 57 68 58 69 72 71 93 72 60 73 44 74 45 75 53 76 46 77 52 78
REMARK SMILES IDX 54 79 51 80 47 81 48 82 49 83 50 84 76 85 77 86 85 87 78 88
REMARK SMILES IDX 84 89 86 90 83 91 79 92 80 93 81 94 82 95 61 96 62 97 70 98
REMARK SMILES IDX 63 99 69 100 71 101 68 102 64 103 65 104 66 105 67 106
REMARK H PARENT 27 5 20 15 12 25 32 40 91 59 59 70
REMARK Flexibility Score: inf
ROOT
ATOM      1  C   UNL     1       3.931   2.536   0.963  1.00  0.00     0.116 C 
ENDROOT
BRANCH   1   2
ATOM      2  N   UNL     1       2.929   2.842   1.967  1.00  0.00    -0.352 N 
ATOM      3  C   UNL     1       1.613   3.229   1.886  1.00  0.00     0.251 C 
ATOM      4  O   UNL     1       1.002   3.400   2.942  1.00  0.00    -0.269 OA
ATOM      5  H   UNL     1       3.257   2.756   2.891  1.00  0.00     0.163 HD
BRANCH   3   6
ATOM      6  C   UNL     1       0.879   3.372   0.598  1.00  0.00     0.039 A 
ATOM      7  C   UNL     1      -0.544   3.129  -1.800  1.00  0.00     0.041 A 
ATOM      8  C   UNL     1      -1.209   2.957  -0.588  1.00  0.00     0.027 A 
ATOM      9  C   UNL     1       0.769   3.608  -1.809  1.00  0.00     0.027 A 
ATOM     10  C   UNL     1      -0.487   3.044   0.605  1.00  0.00     0.016 A 
ATOM     11  C   UNL     1       1.467   3.766  -0.606  1.00  0.00     0.016 A 
BRANCH   7  12
ATOM     12  N   UNL     1      -1.192   2.700  -2.967  1.00  0.00    -0.322 N 
ATOM     13  C   UNL     1      -0.702   1.916  -3.999  1.00  0.00     0.255 C 
ATOM     14  O   UNL     1      -1.355   1.818  -5.039  1.00  0.00    -0.269 OA
ATOM     15  H   UNL     1      -2.125   2.998  -3.068  1.00  0.00     0.170 HD
BRANCH  13  16
ATOM     16  C   UNL     1       0.538   1.089  -3.849  1.00  0.00     0.042 A 
ATOM     17  C   UNL     1       2.174  -0.083  -2.472  1.00  0.00     0.042 A 
ATOM     18  C   UNL     1       2.878  -0.436  -3.626  1.00  0.00     0.026 A 
ATOM     19  C   UNL     1       0.980   0.622  -2.604  1.00  0.00     0.040 A 
ATOM     20  C   UNL     1       2.388  -0.084  -4.886  1.00  0.00     0.003 A 
ATOM     21  C   UNL     1       1.228   0.687  -4.997  1.00  0.00     0.014 A 
BRANCH  17  22
ATOM     22  N   UNL     1       2.688  -0.504  -1.232  1.00  0.00    -0.323 N 
ATOM     23  O   UNL     1       1.068   0.218   0.292  1.00  0.00    -0.271 OA
ATOM     24  C   UNL     1       2.090  -0.401   0.015  1.00  0.00     0.262 C 
ATOM     25  H   UNL     1       3.579  -0.922  -1.252  1.00  0.00     0.170 HD
BRANCH  24  26
ATOM     26  C   UNL     1       2.856  -1.159   1.094  1.00  0.00     0.329 C 
BRANCH  26  27
ATOM     27  O   UNL     1       3.537  -2.273   0.503  1.00  0.00    -0.483 OA
BRANCH  27  28
ATOM     28  C   UNL     1       3.003  -3.451   0.950  1.00  0.00     0.134 A 
ATOM     29  C   UNL     1       3.553  -4.003   2.109  1.00  0.00     0.047 A 
ATOM     30  C   UNL     1       1.989  -4.127   0.262  1.00  0.00     0.060 A 
ATOM     31  C   UNL     1       3.062  -5.210   2.602  1.00  0.00     0.004 A 
ATOM     32  C   UNL     1       1.491  -5.327   0.770  1.00  0.00     0.019 A 
ATOM     33  Br  UNL     1       1.253  -3.517  -1.372  1.00  0.00    -0.047 Br
ATOM     34  C   UNL     1       2.027  -5.867   1.938  1.00  0.00     0.001 A 
ENDBRANCH  27  28
ENDBRANCH  26  27
ENDBRANCH  24  26
ENDBRANCH  17  22
ENDBRANCH  13  16
ENDBRANCH   7  12
ENDBRANCH   3   6
ENDBRANCH   1   2
BRANCH   1  35
ATOM     35  C   UNL     1       5.001   3.624   0.919  1.00  0.00     0.023 C 
BRANCH  35  36
ATOM     36  C   UNL     1       5.968   3.590   2.110  1.00  0.00     0.023 C 
BRANCH  36  37
ATOM     37  C   UNL     1       6.770   2.299   2.272  1.00  0.00     0.116 C 
BRANCH  37  38
ATOM     38  N   UNL     1       7.533   1.950   1.085  1.00  0.00    -0.352 N 
ATOM     39  C   UNL     1       8.839   1.524   0.982  1.00  0.00     0.251 C 
ATOM     40  H   UNL     1       7.047   2.031   0.232  1.00  0.00     0.163 HD
ATOM     41  O   UNL     1       9.354   1.405  -0.116  1.00  0.00    -0.269 OA
BRANCH  39  42
ATOM     42  C   UNL     1       9.612   1.248   2.215  1.00  0.00     0.039 A 
ATOM     43  C   UNL     1      10.886   1.805   2.349  1.00  0.00     0.014 A 
ATOM     44  C   UNL     1       9.074   0.463   3.238  1.00  0.00     0.014 A 
ATOM     45  C   UNL     1      11.592   1.634   3.542  1.00  0.00     0.010 A 
ATOM     46  C   UNL     1       9.752   0.348   4.450  1.00  0.00     0.010 A 
ATOM     47  C   UNL     1      11.015   0.938   4.617  1.00  0.00    -0.014 A 
BRANCH  47  48
ATOM     48  C   UNL     1      11.714   0.828   5.925  1.00  0.00     0.031 A 
ATOM     49  C   UNL     1      12.144  -0.517   6.443  1.00  0.00     0.074 A 
ATOM     50  C   UNL     1      11.906   1.933   6.673  1.00  0.00     0.049 A 
ATOM     51  N   UNL     1      12.698  -0.826   7.587  1.00  0.00    -0.248 NA
ATOM     52  C   UNL     1      11.888  -1.671   5.568  1.00  0.00     0.031 C 
ATOM     53  C   UNL     1      11.497   3.288   6.298  1.00  0.00     0.029 A 
ATOM     54  N   UNL     1      12.484   2.094   7.908  1.00  0.00    -0.354 N 
ATOM     55  C   UNL     1      12.851  -2.209   7.574  1.00  0.00     0.074 A 
ATOM     56  C   UNL     1      12.269  -2.681   6.335  1.00  0.00     0.031 C 
ATOM     57  C   UNL     1      11.857   4.142   7.270  1.00  0.00     0.029 A 
ATOM     58  C   UNL     1      12.480   3.395   8.357  1.00  0.00     0.049 A 
ATOM     59  H   UNL     1      12.867   1.348   8.424  1.00  0.00     0.167 HD
ATOM     60  C   UNL     1      13.444  -3.007   8.498  1.00  0.00     0.034 A 
ATOM     61  C   UNL     1      12.916   3.924   9.518  1.00  0.00     0.034 A 
ATOM     62  C   UNL     1      14.026  -2.519   9.725  1.00  0.00     0.049 A 
ATOM     63  C   UNL     1      13.545   3.013  10.543  1.00  0.00     0.074 A 
ATOM     64  C   UNL     1      14.692  -3.232  10.707  1.00  0.00     0.029 A 
ATOM     65  N   UNL     1      14.004  -1.194  10.146  1.00  0.00    -0.354 N 
ATOM     66  N   UNL     1      13.728   1.714  10.492  1.00  0.00    -0.248 NA
ATOM     67  C   UNL     1      14.039   3.643  11.774  1.00  0.00     0.031 C 
ATOM     68  C   UNL     1      15.011  -2.354  11.749  1.00  0.00     0.029 A 
ATOM     69  C   UNL     1      14.617  -1.077  11.385  1.00  0.00     0.049 A 
ATOM     70  H   UNL     1      13.611  -0.448   9.639  1.00  0.00     0.167 HD
ATOM     71  C   UNL     1      14.387   1.378  11.672  1.00  0.00     0.074 A 
ATOM     72  C   UNL     1      14.583   2.613  12.403  1.00  0.00     0.031 C 
ATOM     73  C   UNL     1      14.798   0.160  12.110  1.00  0.00     0.034 A 
BRANCH  60  74
ATOM     74  C   UNL     1      13.468  -4.492   8.218  1.00  0.00     0.023 A 
ATOM     75  C   UNL     1      14.138  -5.021   7.100  1.00  0.00     0.031 A 
ATOM     76  C   UNL     1      12.791  -5.389   9.062  1.00  0.00     0.131 A 
ATOM     77  C   UNL     1      14.046  -6.390   6.810  1.00  0.00     0.055 A 
ATOM     78  C   UNL     1      12.777  -6.764   8.816  1.00  0.00     0.041 A 
ATOM     79  F   UNL     1      12.115  -4.944  10.133  1.00  0.00    -0.206 F 
ATOM     80  C   UNL     1      13.393  -7.270   7.675  1.00  0.00     0.022 A 
BRANCH  77  81
ATOM     81  S   UNL     1      14.659  -6.977   5.207  1.00  0.00     0.124 S 
ATOM     82  O   UNL     1      13.858  -6.183   4.278  1.00  0.00    -0.237 OA
ATOM     83  O   UNL     1      16.078  -6.647   5.272  1.00  0.00    -0.237 OA
ATOM     84  O   UNL     1      14.347  -8.405   5.223  1.00  0.00    -0.744 OA
ENDBRANCH  77  81
ENDBRANCH  60  74
BRANCH  61  85
ATOM     85  C   UNL     1      12.768   5.384   9.787  1.00  0.00     0.023 A 
ATOM     86  C   UNL     1      13.893   6.208   9.948  1.00  0.00     0.031 A 
ATOM     87  C   UNL     1      11.497   5.968   9.935  1.00  0.00     0.131 A 
ATOM     88  C   UNL     1      13.728   7.557  10.298  1.00  0.00     0.055 A 
ATOM     89  C   UNL     1      11.337   7.323  10.227  1.00  0.00     0.041 A 
ATOM     90  F   UNL     1      10.387   5.226   9.787  1.00  0.00    -0.206 F 
ATOM     91  C   UNL     1      12.457   8.124  10.425  1.00  0.00     0.022 A 
BRANCH  88  92
ATOM     92  S   UNL     1      15.203   8.543  10.674  1.00  0.00     0.124 S 
ATOM     93  O   UNL     1      15.803   7.776  11.760  1.00  0.00    -0.237 OA
ATOM     94  O   UNL     1      15.915   8.519   9.401  1.00  0.00    -0.237 OA
ATOM     95  O   UNL     1      14.655   9.843  11.056  1.00  0.00    -0.744 OA
ENDBRANCH  88  92
ENDBRANCH  61  85
BRANCH  73  96
ATOM     96  C   UNL     1      15.544   0.118  13.422  1.00  0.00     0.023 A 
ATOM     97  C   UNL     1      14.921   0.441  14.640  1.00  0.00     0.031 A 
ATOM     98  C   UNL     1      16.904  -0.238  13.449  1.00  0.00     0.131 A 
ATOM     99  C   UNL     1      15.672   0.460  15.825  1.00  0.00     0.055 A 
ATOM    100  C   UNL     1      17.630  -0.279  14.640  1.00  0.00     0.041 A 
ATOM    101  F   UNL     1      17.551  -0.553  12.315  1.00  0.00    -0.206 F 
ATOM    102  C   UNL     1      17.018   0.084  15.835  1.00  0.00     0.022 A 
BRANCH  99 103
ATOM    103  S   UNL     1      14.891   1.074  17.343  1.00  0.00     0.124 S 
ATOM    104  O   UNL     1      14.491   2.423  16.953  1.00  0.00    -0.237 OA
ATOM    105  O   UNL     1      13.805   0.120  17.543  1.00  0.00    -0.237 OA
ATOM    106  O   UNL     1      15.964   1.007  18.333  1.00  0.00    -0.744 OA
ENDBRANCH  99 103
ENDBRANCH  73  96
ENDBRANCH  47  48
ENDBRANCH  39  42
ENDBRANCH  37  38
ENDBRANCH  36  37
ENDBRANCH  35  36
ENDBRANCH   1  35
TORSDOF 20
