REMARK SMILES CC(C)C[C@H](Nc1ncnc2scc(-c3ccccc3)c12)C(=O)NCCCCNC(=O)c1ccc(-c2c3nc(c(-c4cc(S(=O)(=O)[O-])ccc4F)c4ccc([nH]4)c(-c4cc(S(=O)(=O)[O-])ccc4F)c4nc(c(-c5cc(S(=O)(=O)[O-])ccc5F)c5ccc2[nH]5)C=C4)C=C3)cc1
REMARK SMILES IDX 26 1 25 2 24 3 22 4 23 5 5 7 4 8 2 9 1 10 3 11 6 12 7 14
REMARK SMILES IDX 8 15 21 16 9 17 11 18 14 19 10 20 12 21 13 22 15 23 16 24
REMARK SMILES IDX 20 25 17 26 19 27 18 28 27 29 28 30 29 31 30 32 31 34 32 35
REMARK SMILES IDX 33 36 94 37 34 38 93 39 35 40 36 41 37 42 87 43 38 44 92 45
REMARK SMILES IDX 86 46 88 47 39 48 91 49 85 50 84 51 40 53 72 54 52 55 71 56
REMARK SMILES IDX 53 57 56 58 70 59 89 60 54 61 55 62 69 64 90 65 57 66 41 67
REMARK SMILES IDX 42 68 50 69 43 70 49 71 51 72 48 73 44 74 45 75 46 76 47 77
REMARK SMILES IDX 73 78 74 79 82 80 75 81 81 82 83 83 80 84 76 85 77 86 78 87
REMARK SMILES IDX 79 88 58 89 59 90 67 91 60 92 66 93 68 94 65 95 61 96 62 97
REMARK SMILES IDX 63 98 64 99
REMARK H PARENT 24 6 6 13 29 33 88 52 56 63
REMARK Flexibility Score: inf
ROOT
ATOM      1  C   UNL     1      -3.989  -3.395  -0.687  1.00  0.00     0.023 C 
ENDROOT
BRANCH   1   2
ATOM      2  C   UNL     1      -3.482  -2.452  -1.770  1.00  0.00     0.116 C 
BRANCH   2   3
ATOM      3  N   UNL     1      -3.750  -1.079  -1.416  1.00  0.00    -0.354 N 
ATOM      4  C   UNL     1      -2.888  -0.065  -1.121  1.00  0.00     0.242 C 
ATOM      5  O   UNL     1      -3.392   1.010  -0.778  1.00  0.00    -0.273 OA
ATOM      6  H   UNL     1      -4.703  -0.837  -1.382  1.00  0.00     0.163 HD
BRANCH   4   7
ATOM      7  C   UNL     1      -1.355  -0.207  -1.277  1.00  0.00     0.170 C 
BRANCH   7   8
ATOM      8  C   UNL     1      -0.907  -0.453  -2.735  1.00  0.00     0.038 C 
BRANCH   8   9
ATOM      9  C   UNL     1      -1.568   0.422  -3.814  1.00  0.00    -0.015 C 
ATOM     10  C   UNL     1      -1.240   1.903  -3.638  1.00  0.00     0.007 C 
ATOM     11  C   UNL     1      -1.113  -0.053  -5.197  1.00  0.00     0.007 C 
ENDBRANCH   8   9
ENDBRANCH   7   8
BRANCH   7  12
ATOM     12  N   UNL     1      -0.798  -1.266  -0.413  1.00  0.00    -0.358 N 
ATOM     13  H   UNL     1      -1.372  -1.983  -0.059  1.00  0.00     0.162 HD
BRANCH  12  14
ATOM     14  C   UNL     1       0.552  -1.224  -0.112  1.00  0.00     0.139 A 
ATOM     15  N   UNL     1       1.132  -0.004  -0.007  1.00  0.00    -0.219 NA
ATOM     16  C   UNL     1       1.363  -2.371   0.066  1.00  0.00     0.062 A 
ATOM     17  C   UNL     1       2.427   0.091   0.306  1.00  0.00     0.225 A 
ATOM     18  C   UNL     1       2.696  -2.110   0.373  1.00  0.00     0.129 A 
ATOM     19  C   UNL     1       1.157  -3.803  -0.039  1.00  0.00     0.006 A 
ATOM     20  N   UNL     1       3.277  -0.908   0.515  1.00  0.00    -0.225 NA
ATOM     21  S   UNL     1       3.644  -3.511   0.559  1.00  0.00    -0.123 S 
ATOM     22  C   UNL     1       2.323  -4.514   0.197  1.00  0.00     0.076 A 
BRANCH  19  23
ATOM     23  C   UNL     1      -0.012  -4.579  -0.429  1.00  0.00    -0.017 A 
ATOM     24  C   UNL     1      -0.667  -5.374   0.522  1.00  0.00     0.009 A 
ATOM     25  C   UNL     1      -0.352  -4.697  -1.782  1.00  0.00     0.009 A 
ATOM     26  C   UNL     1      -1.619  -6.311   0.117  1.00  0.00     0.001 A 
ATOM     27  C   UNL     1      -1.303  -5.638  -2.184  1.00  0.00     0.001 A 
ATOM     28  C   UNL     1      -1.920  -6.457  -1.236  1.00  0.00     0.000 A 
ENDBRANCH  19  23
ENDBRANCH  12  14
ENDBRANCH   7  12
ENDBRANCH   4   7
ENDBRANCH   2   3
ENDBRANCH   1   2
BRANCH   1  29
ATOM     29  C   UNL     1      -5.439  -3.844  -0.832  1.00  0.00     0.023 C 
BRANCH  29  30
ATOM     30  C   UNL     1      -5.838  -4.381  -2.202  1.00  0.00     0.116 C 
BRANCH  30  31
ATOM     31  N   UNL     1      -5.016  -5.493  -2.661  1.00  0.00    -0.352 N 
ATOM     32  C   UNL     1      -5.408  -6.724  -3.143  1.00  0.00     0.251 C 
ATOM     33  H   UNL     1      -4.043  -5.345  -2.620  1.00  0.00     0.163 HD
ATOM     34  O   UNL     1      -4.576  -7.592  -3.370  1.00  0.00    -0.269 OA
BRANCH  32  35
ATOM     35  C   UNL     1      -6.850  -6.985  -3.339  1.00  0.00     0.039 A 
ATOM     36  C   UNL     1      -7.419  -8.141  -2.799  1.00  0.00     0.014 A 
ATOM     37  C   UNL     1      -7.647  -6.037  -3.982  1.00  0.00     0.014 A 
ATOM     38  C   UNL     1      -8.808  -8.293  -2.816  1.00  0.00     0.010 A 
ATOM     39  C   UNL     1      -9.030  -6.143  -3.907  1.00  0.00     0.010 A 
ATOM     40  C   UNL     1      -9.627  -7.269  -3.320  1.00  0.00    -0.014 A 
BRANCH  40  41
ATOM     41  C   UNL     1     -11.111  -7.337  -3.251  1.00  0.00     0.031 A 
ATOM     42  C   UNL     1     -11.915  -7.287  -4.522  1.00  0.00     0.074 A 
ATOM     43  C   UNL     1     -11.730  -7.336  -2.053  1.00  0.00     0.049 A 
ATOM     44  N   UNL     1     -13.208  -7.177  -4.684  1.00  0.00    -0.248 NA
ATOM     45  C   UNL     1     -11.153  -7.317  -5.781  1.00  0.00     0.031 C 
ATOM     46  C   UNL     1     -11.059  -7.334  -0.750  1.00  0.00     0.029 A 
ATOM     47  N   UNL     1     -13.065  -7.317  -1.732  1.00  0.00    -0.354 N 
ATOM     48  C   UNL     1     -13.411  -7.098  -6.058  1.00  0.00     0.074 A 
ATOM     49  C   UNL     1     -12.103  -7.102  -6.676  1.00  0.00     0.031 C 
ATOM     50  C   UNL     1     -11.983  -7.339   0.224  1.00  0.00     0.029 A 
ATOM     51  C   UNL     1     -13.311  -7.291  -0.378  1.00  0.00     0.049 A 
ATOM     52  H   UNL     1     -13.781  -7.322  -2.409  1.00  0.00     0.167 HD
ATOM     53  C   UNL     1     -14.582  -7.054  -6.742  1.00  0.00     0.034 A 
ATOM     54  C   UNL     1     -14.474  -7.220   0.300  1.00  0.00     0.034 A 
ATOM     55  C   UNL     1     -15.875  -7.076  -6.105  1.00  0.00     0.049 A 
ATOM     56  C   UNL     1     -15.764  -7.165  -0.480  1.00  0.00     0.074 A 
ATOM     57  C   UNL     1     -17.127  -7.097  -6.695  1.00  0.00     0.029 A 
ATOM     58  N   UNL     1     -16.085  -7.077  -4.731  1.00  0.00    -0.354 N 
ATOM     59  N   UNL     1     -15.942  -7.142  -1.782  1.00  0.00    -0.248 NA
ATOM     60  C   UNL     1     -17.009  -7.137   0.298  1.00  0.00     0.031 C 
ATOM     61  C   UNL     1     -18.090  -7.044  -5.682  1.00  0.00     0.029 A 
ATOM     62  C   UNL     1     -17.444  -7.071  -4.456  1.00  0.00     0.049 A 
ATOM     63  H   UNL     1     -15.372  -7.082  -4.052  1.00  0.00     0.167 HD
ATOM     64  C   UNL     1     -17.321  -7.131  -1.975  1.00  0.00     0.074 A 
ATOM     65  C   UNL     1     -17.924  -7.166  -0.659  1.00  0.00     0.031 C 
ATOM     66  C   UNL     1     -18.026  -7.100  -3.135  1.00  0.00     0.034 A 
BRANCH  53  67
ATOM     67  C   UNL     1     -14.504  -6.960  -8.248  1.00  0.00     0.023 A 
ATOM     68  C   UNL     1     -13.897  -7.966  -9.021  1.00  0.00     0.031 A 
ATOM     69  C   UNL     1     -15.011  -5.833  -8.920  1.00  0.00     0.131 A 
ATOM     70  C   UNL     1     -13.735  -7.788 -10.403  1.00  0.00     0.055 A 
ATOM     71  C   UNL     1     -14.927  -5.704 -10.308  1.00  0.00     0.041 A 
ATOM     72  F   UNL     1     -15.582  -4.829  -8.237  1.00  0.00    -0.206 F 
ATOM     73  C   UNL     1     -14.270  -6.676 -11.056  1.00  0.00     0.022 A 
BRANCH  70  74
ATOM     74  S   UNL     1     -12.679  -8.954 -11.306  1.00  0.00     0.124 S 
ATOM     75  O   UNL     1     -11.404  -8.795 -10.609  1.00  0.00    -0.237 OA
ATOM     76  O   UNL     1     -13.364 -10.224 -11.101  1.00  0.00    -0.237 OA
ATOM     77  O   UNL     1     -12.699  -8.445 -12.675  1.00  0.00    -0.744 OA
ENDBRANCH  70  74
ENDBRANCH  53  67
BRANCH  54  78
ATOM     78  C   UNL     1     -14.484  -7.190   1.792  1.00  0.00     0.023 A 
ATOM     79  C   UNL     1     -15.068  -8.232   2.531  1.00  0.00     0.031 A 
ATOM     80  C   UNL     1     -13.948  -6.102   2.503  1.00  0.00     0.131 A 
ATOM     81  C   UNL     1     -15.148  -8.142   3.929  1.00  0.00     0.055 A 
ATOM     82  C   UNL     1     -13.980  -6.043   3.898  1.00  0.00     0.041 A 
ATOM     83  F   UNL     1     -13.371  -5.080   1.849  1.00  0.00    -0.206 F 
ATOM     84  C   UNL     1     -14.595  -7.061   4.619  1.00  0.00     0.022 A 
BRANCH  81  85
ATOM     85  S   UNL     1     -16.066  -9.421   4.830  1.00  0.00     0.124 S 
ATOM     86  O   UNL     1     -17.381  -9.338   4.206  1.00  0.00    -0.237 OA
ATOM     87  O   UNL     1     -15.288 -10.619   4.531  1.00  0.00    -0.237 OA
ATOM     88  O   UNL     1     -16.003  -8.971   6.219  1.00  0.00    -0.744 OA
ENDBRANCH  81  85
ENDBRANCH  54  78
BRANCH  66  89
ATOM     89  C   UNL     1     -19.530  -7.154  -3.023  1.00  0.00     0.023 A 
ATOM     90  C   UNL     1     -20.269  -6.104  -2.454  1.00  0.00     0.031 A 
ATOM     91  C   UNL     1     -20.230  -8.282  -3.488  1.00  0.00     0.131 A 
ATOM     92  C   UNL     1     -21.659  -6.226  -2.311  1.00  0.00     0.055 A 
ATOM     93  C   UNL     1     -21.620  -8.371  -3.401  1.00  0.00     0.041 A 
ATOM     94  F   UNL     1     -19.574  -9.316  -4.039  1.00  0.00    -0.206 F 
ATOM     95  C   UNL     1     -22.341  -7.345  -2.797  1.00  0.00     0.022 A 
BRANCH  92  96
ATOM     96  S   UNL     1     -22.556  -4.944  -1.394  1.00  0.00     0.124 S 
ATOM     97  O   UNL     1     -21.894  -4.983  -0.094  1.00  0.00    -0.237 OA
ATOM     98  O   UNL     1     -22.309  -3.753  -2.200  1.00  0.00    -0.237 OA
ATOM     99  O   UNL     1     -23.938  -5.421  -1.401  1.00  0.00    -0.744 OA
ENDBRANCH  92  96
ENDBRANCH  66  89
ENDBRANCH  40  41
ENDBRANCH  32  35
ENDBRANCH  30  31
ENDBRANCH  29  30
ENDBRANCH   1  29
TORSDOF 19
