REMARK SMILES C[C@H]1[C@H](C(=O)NCCCCNC(=O)c2ccc(-c3c4nc(c(-c5cc(S(=O)(=O)[O-])ccc5F)c5ccc([nH]5)c(-c5cc(S(=O)(=O)[O-])ccc5F)c5nc(c(-c6cc(S(=O)(=O)[O-])ccc6F)c6ccc3[nH]6)C=C5)C=C4)cc2)CCN1C(=O)COc1ccccc1F
REMARK SMILES IDX 8 1 7 2 6 3 4 4 5 5 3 7 1 8 2 9 79 10 77 11 78 12 80 13
REMARK SMILES IDX 81 14 82 15 83 16 84 17 85 18 89 19 86 20 88 21 90 22 87 23
REMARK SMILES IDX 9 24 10 25 11 26 12 27 13 29 14 30 15 31 76 32 16 33 75 34
REMARK SMILES IDX 17 35 18 36 19 37 69 38 20 39 74 40 68 41 70 42 21 43 73 44
REMARK SMILES IDX 67 45 66 46 22 48 54 49 34 50 53 51 35 52 38 53 52 54 71 55
REMARK SMILES IDX 36 56 37 57 51 59 72 60 39 61 23 62 24 63 32 64 25 65 31 66
REMARK SMILES IDX 33 67 30 68 26 69 27 70 28 71 29 72 55 73 56 74 64 75 57 76
REMARK SMILES IDX 63 77 65 78 62 79 58 80 59 81 60 82 61 83 40 84 41 85 49 86
REMARK SMILES IDX 42 87 48 88 50 89 47 90 43 91 44 92 45 93 46 94
REMARK H PARENT 6 6 11 28 70 47 38 58
REMARK Flexibility Score: inf
ROOT
ATOM      1  C   UNL     1       0.006  -0.074   3.920  1.00  0.00     0.023 C 
ENDROOT
BRANCH   1   2
ATOM      2  C   UNL     1      -0.983   0.583   2.961  1.00  0.00     0.116 C 
BRANCH   2   3
ATOM      3  N   UNL     1      -0.500   1.866   2.484  1.00  0.00    -0.356 N 
ATOM      4  C   UNL     1      -0.075   2.261   1.255  1.00  0.00     0.225 C 
ATOM      5  O   UNL     1       0.319   3.424   1.132  1.00  0.00    -0.275 OA
ATOM      6  H   UNL     1      -0.477   2.573   3.169  1.00  0.00     0.163 HD
BRANCH   4   7
ATOM      7  C   UNL     1      -0.075   1.336   0.051  1.00  0.00     0.102 C 
ATOM      8  C   UNL     1       1.970   0.194  -0.829  1.00  0.00     0.032 C 
ATOM      9  C   UNL     1       0.858   0.119   0.219  1.00  0.00     0.094 C 
ATOM     10  N   UNL     1      -0.028  -1.038   0.062  1.00  0.00    -0.336 N 
ATOM     11  C   UNL     1      -1.461   0.805  -0.319  1.00  0.00     0.037 C 
ATOM     12  C   UNL     1      -1.259  -0.667  -0.607  1.00  0.00     0.121 C 
BRANCH  10  13
ATOM     13  C   UNL     1       0.093  -2.304   0.600  1.00  0.00     0.260 C 
ATOM     14  O   UNL     1      -0.896  -3.030   0.756  1.00  0.00    -0.271 OA
BRANCH  13  15
ATOM     15  C   UNL     1       1.469  -2.823   1.037  1.00  0.00     0.329 C 
BRANCH  15  16
ATOM     16  O   UNL     1       2.633  -2.651   0.256  1.00  0.00    -0.481 OA
BRANCH  16  17
ATOM     17  C   UNL     1       2.760  -3.301  -0.940  1.00  0.00     0.155 A 
ATOM     18  C   UNL     1       4.088  -3.537  -1.317  1.00  0.00     0.049 A 
ATOM     19  C   UNL     1       1.753  -3.635  -1.845  1.00  0.00     0.165 A 
ATOM     20  C   UNL     1       4.396  -4.091  -2.564  1.00  0.00     0.004 A 
ATOM     21  C   UNL     1       2.054  -4.174  -3.096  1.00  0.00     0.043 A 
ATOM     22  F   UNL     1       0.461  -3.410  -1.594  1.00  0.00    -0.203 F 
ATOM     23  C   UNL     1       3.377  -4.402  -3.460  1.00  0.00     0.003 A 
ENDBRANCH  16  17
ENDBRANCH  15  16
ENDBRANCH  13  15
ENDBRANCH  10  13
ENDBRANCH   4   7
ENDBRANCH   2   3
ENDBRANCH   1   2
BRANCH   1  24
ATOM     24  C   UNL     1       0.134   0.625   5.274  1.00  0.00     0.023 C 
BRANCH  24  25
ATOM     25  C   UNL     1      -1.173   0.797   6.040  1.00  0.00     0.116 C 
BRANCH  25  26
ATOM     26  N   UNL     1      -1.870  -0.458   6.272  1.00  0.00    -0.352 N 
ATOM     27  C   UNL     1      -2.527  -0.875   7.405  1.00  0.00     0.251 C 
ATOM     28  H   UNL     1      -1.871  -1.092   5.519  1.00  0.00     0.163 HD
ATOM     29  O   UNL     1      -2.958  -2.022   7.479  1.00  0.00    -0.269 OA
BRANCH  27  30
ATOM     30  C   UNL     1      -2.671   0.057   8.542  1.00  0.00     0.039 A 
ATOM     31  C   UNL     1      -2.315  -0.377   9.821  1.00  0.00     0.014 A 
ATOM     32  C   UNL     1      -3.112   1.368   8.338  1.00  0.00     0.014 A 
ATOM     33  C   UNL     1      -2.330   0.527  10.884  1.00  0.00     0.010 A 
ATOM     34  C   UNL     1      -3.058   2.284   9.384  1.00  0.00     0.010 A 
ATOM     35  C   UNL     1      -2.663   1.874  10.666  1.00  0.00    -0.014 A 
BRANCH  35  36
ATOM     36  C   UNL     1      -2.601   2.871  11.766  1.00  0.00     0.031 A 
ATOM     37  C   UNL     1      -3.856   3.558  12.229  1.00  0.00     0.074 A 
ATOM     38  C   UNL     1      -1.408   3.206  12.296  1.00  0.00     0.049 A 
ATOM     39  N   UNL     1      -4.001   4.513  13.110  1.00  0.00    -0.248 NA
ATOM     40  C   UNL     1      -5.110   3.134  11.588  1.00  0.00     0.031 C 
ATOM     41  C   UNL     1      -0.116   2.642  11.896  1.00  0.00     0.029 A 
ATOM     42  N   UNL     1      -1.083   4.110  13.276  1.00  0.00    -0.354 N 
ATOM     43  C   UNL     1      -5.358   4.817  13.120  1.00  0.00     0.074 A 
ATOM     44  C   UNL     1      -5.980   3.985  12.111  1.00  0.00     0.031 C 
ATOM     45  C   UNL     1       0.855   3.197  12.638  1.00  0.00     0.029 A 
ATOM     46  C   UNL     1       0.266   4.185  13.535  1.00  0.00     0.049 A 
ATOM     47  H   UNL     1      -1.754   4.655  13.749  1.00  0.00     0.167 HD
ATOM     48  C   UNL     1      -6.026   5.691  13.914  1.00  0.00     0.034 A 
ATOM     49  C   UNL     1       0.951   4.970  14.391  1.00  0.00     0.034 A 
ATOM     50  C   UNL     1      -5.392   6.500  14.925  1.00  0.00     0.049 A 
ATOM     51  C   UNL     1       0.188   5.941  15.256  1.00  0.00     0.074 A 
ATOM     52  C   UNL     1      -5.978   7.373  15.825  1.00  0.00     0.029 A 
ATOM     53  N   UNL     1      -4.024   6.541  15.169  1.00  0.00    -0.354 N 
ATOM     54  N   UNL     1      -1.103   6.179  15.290  1.00  0.00    -0.248 NA
ATOM     55  C   UNL     1       0.974   6.741  16.203  1.00  0.00     0.031 C 
ATOM     56  C   UNL     1      -4.963   7.987  16.568  1.00  0.00     0.029 A 
ATOM     57  C   UNL     1      -3.747   7.445  16.183  1.00  0.00     0.049 A 
ATOM     58  H   UNL     1      -3.350   6.006  14.690  1.00  0.00     0.167 HD
ATOM     59  C   UNL     1      -1.285   7.136  16.285  1.00  0.00     0.074 A 
ATOM     60  C   UNL     1       0.026   7.418  16.833  1.00  0.00     0.031 C 
ATOM     61  C   UNL     1      -2.432   7.724  16.711  1.00  0.00     0.034 A 
BRANCH  48  62
ATOM     62  C   UNL     1      -7.515   5.825  13.695  1.00  0.00     0.023 A 
ATOM     63  C   UNL     1      -8.390   4.743  13.895  1.00  0.00     0.031 A 
ATOM     64  C   UNL     1      -8.063   7.040  13.248  1.00  0.00     0.131 A 
ATOM     65  C   UNL     1      -9.749   4.872  13.570  1.00  0.00     0.055 A 
ATOM     66  C   UNL     1      -9.431   7.186  13.007  1.00  0.00     0.041 A 
ATOM     67  F   UNL     1      -7.276   8.103  13.021  1.00  0.00    -0.206 F 
ATOM     68  C   UNL     1     -10.280   6.093  13.152  1.00  0.00     0.022 A 
BRANCH  65  69
ATOM     69  S   UNL     1     -10.780   3.380  13.560  1.00  0.00     0.124 S 
ATOM     70  O   UNL     1     -10.088   2.550  12.576  1.00  0.00    -0.237 OA
ATOM     71  O   UNL     1     -10.700   2.930  14.945  1.00  0.00    -0.237 OA
ATOM     72  O   UNL     1     -12.090   3.871  13.138  1.00  0.00    -0.744 OA
ENDBRANCH  65  69
ENDBRANCH  48  62
BRANCH  49  73
ATOM     73  C   UNL     1       2.436   4.881  14.474  1.00  0.00     0.023 A 
ATOM     74  C   UNL     1       3.069   4.427  15.642  1.00  0.00     0.031 A 
ATOM     75  C   UNL     1       3.247   5.287  13.399  1.00  0.00     0.131 A 
ATOM     76  C   UNL     1       4.470   4.432  15.726  1.00  0.00     0.055 A 
ATOM     77  C   UNL     1       4.641   5.244  13.470  1.00  0.00     0.041 A 
ATOM     78  F   UNL     1       2.692   5.722  12.257  1.00  0.00    -0.206 F 
ATOM     79  C   UNL     1       5.260   4.827  14.644  1.00  0.00     0.022 A 
BRANCH  76  80
ATOM     80  S   UNL     1       5.246   3.990  17.304  1.00  0.00     0.124 S 
ATOM     81  O   UNL     1       4.659   4.970  18.210  1.00  0.00    -0.237 OA
ATOM     82  O   UNL     1       4.808   2.609  17.480  1.00  0.00    -0.237 OA
ATOM     83  O   UNL     1       6.674   4.160  17.040  1.00  0.00    -0.744 OA
ENDBRANCH  76  80
ENDBRANCH  49  73
BRANCH  61  84
ATOM     84  C   UNL     1      -2.314   8.700  17.855  1.00  0.00     0.023 A 
ATOM     85  C   UNL     1      -1.657   9.934  17.710  1.00  0.00     0.031 A 
ATOM     86  C   UNL     1      -2.857   8.382  19.112  1.00  0.00     0.131 A 
ATOM     87  C   UNL     1      -1.511  10.782  18.819  1.00  0.00     0.055 A 
ATOM     88  C   UNL     1      -2.759   9.254  20.197  1.00  0.00     0.041 A 
ATOM     89  F   UNL     1      -3.493   7.215  19.306  1.00  0.00    -0.206 F 
ATOM     90  C   UNL     1      -2.072  10.456  20.057  1.00  0.00     0.022 A 
BRANCH  87  91
ATOM     91  S   UNL     1      -0.501  12.278  18.646  1.00  0.00     0.124 S 
ATOM     92  O   UNL     1       0.791  11.728  18.249  1.00  0.00    -0.237 OA
ATOM     93  O   UNL     1      -1.220  13.023  17.617  1.00  0.00    -0.237 OA
ATOM     94  O   UNL     1      -0.538  12.874  19.980  1.00  0.00    -0.744 OA
ENDBRANCH  87  91
ENDBRANCH  61  84
ENDBRANCH  35  36
ENDBRANCH  27  30
ENDBRANCH  25  26
ENDBRANCH  24  25
ENDBRANCH   1  24
TORSDOF 18
