REMARK SMILES COc1cc2c(cc1OC)[C@H](C(=O)NCCCCNC(=O)c1ccc(-c3c4nc(c(-c5cc(S(=O)(=O)[O-])ccc5F)c5ccc([nH]5)c(-c5cc(S(=O)(=O)[O-])ccc5F)c5nc(c(-c6cc(S(=O)(=O)[O-])ccc6F)c6ccc3[nH]6)C=C5)C=C4)cc1)[C@H](c1cccc(Cl)c1)N(C)C2=O
REMARK SMILES IDX 17 1 16 2 15 3 14 4 12 5 13 6 11 8 3 9 4 10 8 11 5 12 7 13
REMARK SMILES IDX 6 14 95 15 93 16 96 17 85 18 94 19 2 20 1 21 9 22 10 23
REMARK SMILES IDX 86 24 87 25 92 26 88 27 90 28 89 29 91 30 18 31 19 32 20 33
REMARK SMILES IDX 21 35 22 36 23 37 84 38 24 39 83 40 25 41 26 42 27 43 77 44
REMARK SMILES IDX 28 45 82 46 76 47 78 48 29 49 81 50 75 51 74 52 30 54 62 55
REMARK SMILES IDX 42 56 61 57 43 58 46 59 60 60 79 61 44 62 45 63 59 65 80 66
REMARK SMILES IDX 47 67 31 68 32 69 40 70 33 71 39 72 41 73 38 74 34 75 35 76
REMARK SMILES IDX 36 77 37 78 63 79 64 80 72 81 65 82 71 83 73 84 70 85 66 86
REMARK SMILES IDX 67 87 68 88 69 89 48 90 49 91 57 92 50 93 56 94 58 95 55 96
REMARK SMILES IDX 51 97 52 98 53 99 54 100
REMARK H PARENT 14 7 19 34 78 53 46 64
REMARK Flexibility Score: inf
ROOT
ATOM      1  C   UNL     1      -0.077  -8.965   0.294  1.00  0.00     0.023 C 
ENDROOT
BRANCH   1   2
ATOM      2  C   UNL     1       1.184  -8.343  -0.304  1.00  0.00     0.023 C 
BRANCH   2   3
ATOM      3  C   UNL     1       1.469  -8.715  -1.756  1.00  0.00     0.116 C 
BRANCH   3   4
ATOM      4  N   UNL     1       0.857  -7.822  -2.701  1.00  0.00    -0.355 N 
ATOM      5  C   UNL     1       1.204  -6.649  -3.258  1.00  0.00     0.230 C 
ATOM      6  O   UNL     1       0.463  -6.341  -4.211  1.00  0.00    -0.274 OA
ATOM      7  H   UNL     1      -0.019  -8.145  -3.014  1.00  0.00     0.163 HD
BRANCH   5   8
ATOM      8  C   UNL     1       2.277  -5.625  -2.832  1.00  0.00     0.136 C 
ATOM      9  C   UNL     1       0.969  -2.072  -0.718  1.00  0.00     0.161 A 
ATOM     10  C   UNL     1       2.184  -2.107  -1.419  1.00  0.00     0.064 A 
ATOM     11  C   UNL     1       0.123  -3.197  -0.755  1.00  0.00     0.161 A 
ATOM     12  C   UNL     1       2.570  -3.259  -2.114  1.00  0.00     0.048 A 
ATOM     13  C   UNL     1       0.530  -4.356  -1.433  1.00  0.00     0.056 A 
ATOM     14  C   UNL     1       1.754  -4.403  -2.101  1.00  0.00    -0.016 A 
ATOM     15  C   UNL     1       3.885  -3.294  -2.846  1.00  0.00     0.254 C 
ATOM     16  N   UNL     1       4.434  -4.566  -3.091  1.00  0.00    -0.333 N 
ATOM     17  O   UNL     1       4.438  -2.244  -3.158  1.00  0.00    -0.269 OA
ATOM     18  C   UNL     1       3.797  -5.787  -2.492  1.00  0.00     0.132 C 
ATOM     19  C   UNL     1       5.705  -4.693  -3.778  1.00  0.00     0.147 C 
BRANCH   9  20
ATOM     20  O   UNL     1       0.586  -1.011   0.060  1.00  0.00    -0.493 OA
ATOM     21  C   UNL     1       1.256   0.227  -0.126  1.00  0.00     0.278 C 
ENDBRANCH   9  20
BRANCH  11  22
ATOM     22  O   UNL     1      -1.108  -3.347  -0.169  1.00  0.00    -0.493 OA
ATOM     23  C   UNL     1      -1.830  -2.178   0.190  1.00  0.00     0.278 C 
ENDBRANCH  11  22
BRANCH  18  24
ATOM     24  C   UNL     1       4.271  -5.902  -1.018  1.00  0.00    -0.023 A 
ATOM     25  C   UNL     1       4.139  -7.092  -0.305  1.00  0.00     0.006 A 
ATOM     26  C   UNL     1       4.935  -4.860  -0.329  1.00  0.00     0.026 A 
ATOM     27  C   UNL     1       4.457  -7.198   1.057  1.00  0.00     0.002 A 
ATOM     28  C   UNL     1       5.311  -4.973   1.015  1.00  0.00     0.041 A 
ATOM     29  C   UNL     1       5.032  -6.128   1.726  1.00  0.00     0.020 A 
ATOM     30  Cl  UNL     1       6.149  -3.679   1.781  1.00  0.00    -0.084 Cl
ENDBRANCH  18  24
ENDBRANCH   5   8
ENDBRANCH   3   4
ENDBRANCH   2   3
ENDBRANCH   1   2
BRANCH   1  31
ATOM     31  C   UNL     1      -0.055 -10.488   0.423  1.00  0.00     0.116 C 
BRANCH  31  32
ATOM     32  N   UNL     1       1.087 -11.022   1.161  1.00  0.00    -0.352 N 
ATOM     33  C   UNL     1       1.130 -12.111   2.006  1.00  0.00     0.251 C 
ATOM     34  H   UNL     1       1.937 -10.541   1.041  1.00  0.00     0.163 HD
ATOM     35  O   UNL     1       2.170 -12.394   2.595  1.00  0.00    -0.269 OA
BRANCH  33  36
ATOM     36  C   UNL     1      -0.105 -12.891   2.231  1.00  0.00     0.039 A 
ATOM     37  C   UNL     1      -0.541 -13.113   3.539  1.00  0.00     0.014 A 
ATOM     38  C   UNL     1      -0.883 -13.295   1.146  1.00  0.00     0.014 A 
ATOM     39  C   UNL     1      -1.818 -13.635   3.756  1.00  0.00     0.010 A 
ATOM     40  C   UNL     1      -2.185 -13.726   1.365  1.00  0.00     0.010 A 
ATOM     41  C   UNL     1      -2.675 -13.883   2.671  1.00  0.00    -0.014 A 
BRANCH  41  42
ATOM     42  C   UNL     1      -4.094 -14.285   2.863  1.00  0.00     0.031 A 
ATOM     43  C   UNL     1      -4.583 -15.584   2.286  1.00  0.00     0.074 A 
ATOM     44  C   UNL     1      -4.960 -13.433   3.449  1.00  0.00     0.049 A 
ATOM     45  N   UNL     1      -5.804 -16.042   2.188  1.00  0.00    -0.248 NA
ATOM     46  C   UNL     1      -3.562 -16.460   1.693  1.00  0.00     0.031 C 
ATOM     47  C   UNL     1      -4.618 -12.117   3.997  1.00  0.00     0.029 A 
ATOM     48  N   UNL     1      -6.311 -13.537   3.667  1.00  0.00    -0.354 N 
ATOM     49  C   UNL     1      -5.702 -17.243   1.494  1.00  0.00     0.074 A 
ATOM     50  C   UNL     1      -4.308 -17.403   1.139  1.00  0.00     0.031 C 
ATOM     51  C   UNL     1      -5.723 -11.551   4.509  1.00  0.00     0.029 A 
ATOM     52  C   UNL     1      -6.861 -12.437   4.285  1.00  0.00     0.049 A 
ATOM     53  H   UNL     1      -6.839 -14.326   3.406  1.00  0.00     0.167 HD
ATOM     54  C   UNL     1      -6.676 -18.141   1.203  1.00  0.00     0.034 A 
ATOM     55  C   UNL     1      -8.138 -12.166   4.619  1.00  0.00     0.034 A 
ATOM     56  C   UNL     1      -8.053 -17.981   1.599  1.00  0.00     0.049 A 
ATOM     57  C   UNL     1      -9.203 -13.184   4.298  1.00  0.00     0.074 A 
ATOM     58  C   UNL     1      -9.110 -18.857   1.423  1.00  0.00     0.029 A 
ATOM     59  N   UNL     1      -8.565 -16.868   2.254  1.00  0.00    -0.354 N 
ATOM     60  N   UNL     1      -9.083 -14.337   3.681  1.00  0.00    -0.248 NA
ATOM     61  C   UNL     1     -10.572 -12.866   4.723  1.00  0.00     0.031 C 
ATOM     62  C   UNL     1     -10.268 -18.253   1.925  1.00  0.00     0.029 A 
ATOM     63  C   UNL     1      -9.924 -17.026   2.471  1.00  0.00     0.049 A 
ATOM     64  H   UNL     1      -8.038 -16.082   2.526  1.00  0.00     0.167 HD
ATOM     65  C   UNL     1     -10.358 -14.894   3.669  1.00  0.00     0.074 A 
ATOM     66  C   UNL     1     -11.227 -13.956   4.351  1.00  0.00     0.031 C 
ATOM     67  C   UNL     1     -10.774 -16.075   3.147  1.00  0.00     0.034 A 
BRANCH  54  68
ATOM     68  C   UNL     1      -6.274 -19.361   0.408  1.00  0.00     0.023 A 
ATOM     69  C   UNL     1      -5.334 -20.283   0.901  1.00  0.00     0.031 A 
ATOM     70  C   UNL     1      -6.793 -19.578  -0.881  1.00  0.00     0.131 A 
ATOM     71  C   UNL     1      -4.869 -21.319   0.077  1.00  0.00     0.055 A 
ATOM     72  C   UNL     1      -6.394 -20.665  -1.661  1.00  0.00     0.041 A 
ATOM     73  F   UNL     1      -7.679 -18.723  -1.414  1.00  0.00    -0.206 F 
ATOM     74  C   UNL     1      -5.411 -21.532  -1.191  1.00  0.00     0.022 A 
BRANCH  71  75
ATOM     75  S   UNL     1      -3.430 -22.275   0.627  1.00  0.00     0.124 S 
ATOM     76  O   UNL     1      -2.416 -21.231   0.754  1.00  0.00    -0.237 OA
ATOM     77  O   UNL     1      -3.899 -22.864   1.875  1.00  0.00    -0.237 OA
ATOM     78  O   UNL     1      -3.208 -23.219  -0.466  1.00  0.00    -0.744 OA
ENDBRANCH  71  75
ENDBRANCH  54  68
BRANCH  55  79
ATOM     79  C   UNL     1      -8.491 -10.883   5.291  1.00  0.00     0.023 A 
ATOM     80  C   UNL     1      -8.969 -10.871   6.611  1.00  0.00     0.031 A 
ATOM     81  C   UNL     1      -8.393  -9.655   4.613  1.00  0.00     0.131 A 
ATOM     82  C   UNL     1      -9.374  -9.662   7.198  1.00  0.00     0.055 A 
ATOM     83  C   UNL     1      -8.753  -8.449   5.218  1.00  0.00     0.041 A 
ATOM     84  F   UNL     1      -7.934  -9.611   3.352  1.00  0.00    -0.206 F 
ATOM     85  C   UNL     1      -9.259  -8.450   6.514  1.00  0.00     0.022 A 
BRANCH  82  86
ATOM     86  S   UNL     1     -10.127  -9.708   8.848  1.00  0.00     0.124 S 
ATOM     87  O   UNL     1     -11.264 -10.596   8.632  1.00  0.00    -0.237 OA
ATOM     88  O   UNL     1      -9.040 -10.243   9.661  1.00  0.00    -0.237 OA
ATOM     89  O   UNL     1     -10.466  -8.311   9.106  1.00  0.00    -0.744 OA
ENDBRANCH  82  86
ENDBRANCH  55  79
BRANCH  67  90
ATOM     90  C   UNL     1     -12.226 -16.431   3.336  1.00  0.00     0.023 A 
ATOM     91  C   UNL     1     -13.249 -15.737   2.667  1.00  0.00     0.031 A 
ATOM     92  C   UNL     1     -12.587 -17.478   4.201  1.00  0.00     0.131 A 
ATOM     93  C   UNL     1     -14.590 -16.070   2.909  1.00  0.00     0.055 A 
ATOM     94  C   UNL     1     -13.920 -17.840   4.398  1.00  0.00     0.041 A 
ATOM     95  F   UNL     1     -11.648 -18.171   4.864  1.00  0.00    -0.206 F 
ATOM     96  C   UNL     1     -14.931 -17.127   3.758  1.00  0.00     0.022 A 
BRANCH  93  97
ATOM     97  S   UNL     1     -15.889 -15.059   2.151  1.00  0.00     0.124 S 
ATOM     98  O   UNL     1     -15.618 -13.742   2.717  1.00  0.00    -0.237 OA
ATOM     99  O   UNL     1     -15.612 -15.209   0.726  1.00  0.00    -0.237 OA
ATOM    100  O   UNL     1     -17.126 -15.689   2.609  1.00  0.00    -0.744 OA
ENDBRANCH  93  97
ENDBRANCH  67  90
ENDBRANCH  41  42
ENDBRANCH  33  36
ENDBRANCH  31  32
ENDBRANCH   1  31
TORSDOF 17
