REMARK SMILES CS(=O)(=O)c1ccc(C2=NN(c3ccc(C(=O)NCCCCNC(=O)c4ccc(-c5c6nc(c(-c7cc(S(=O)(=O)[O-])ccc7F)c7ccc([nH]7)c(-c7cc(S(=O)(=O)[O-])ccc7F)c7nc(c(-c8cc(S(=O)(=O)[O-])ccc8F)c8ccc5[nH]8)C=C7)C=C6)cc4)cc3)[C@H](c3ccc(Cl)cc3)C2)cc1
REMARK SMILES IDX 20 1 19 2 18 3 16 4 17 5 15 7 12 8 13 9 90 10 14 11 89 12
REMARK SMILES IDX 11 13 9 14 10 15 99 16 91 17 8 18 5 19 6 20 101 21 7 22
REMARK SMILES IDX 100 23 2 24 1 25 3 26 4 27 92 28 93 29 98 30 94 31 97 32
REMARK SMILES IDX 95 33 96 34 21 35 22 36 23 37 24 38 25 40 26 41 27 42 88 43
REMARK SMILES IDX 28 44 87 45 29 46 30 47 31 48 81 49 32 50 86 51 80 52 82 53
REMARK SMILES IDX 33 54 85 55 79 56 78 57 34 59 66 60 46 61 65 62 47 63 50 64
REMARK SMILES IDX 64 65 83 66 48 67 49 68 63 70 84 71 51 72 35 73 36 74 44 75
REMARK SMILES IDX 37 76 43 77 45 78 42 79 38 80 39 81 40 82 41 83 67 84 68 85
REMARK SMILES IDX 76 86 69 87 75 88 77 89 74 90 70 91 71 92 72 93 73 94 52 95
REMARK SMILES IDX 53 96 61 97 54 98 60 99 62 100 59 101 55 102 56 103 57 104
REMARK SMILES IDX 58 105
REMARK H PARENT 18 6 23 39 82 58 50 69
REMARK Flexibility Score: inf
ROOT
ATOM      1  C   UNL     1       6.896   4.357  12.419  1.00  0.00     0.023 C 
ENDROOT
BRANCH   1   2
ATOM      2  C   UNL     1       6.815   5.784  11.872  1.00  0.00     0.116 C 
BRANCH   2   3
ATOM      3  N   UNL     1       7.813   6.010  10.842  1.00  0.00    -0.352 N 
ATOM      4  C   UNL     1       7.699   6.031   9.473  1.00  0.00     0.251 C 
ATOM      5  O   UNL     1       8.676   6.358   8.801  1.00  0.00    -0.269 OA
ATOM      6  H   UNL     1       8.723   6.175  11.180  1.00  0.00     0.163 HD
BRANCH   4   7
ATOM      7  C   UNL     1       6.417   5.727   8.784  1.00  0.00     0.039 A 
ATOM      8  C   UNL     1       3.986   5.283   7.430  1.00  0.00     0.060 A 
ATOM      9  C   UNL     1       4.905   6.221   6.948  1.00  0.00     0.029 A 
ATOM     10  C   UNL     1       4.325   4.530   8.555  1.00  0.00     0.029 A 
ATOM     11  C   UNL     1       6.112   6.443   7.619  1.00  0.00     0.016 A 
ATOM     12  C   UNL     1       5.535   4.735   9.213  1.00  0.00     0.016 A 
BRANCH   8  13
ATOM     13  N   UNL     1       2.756   5.071   6.828  1.00  0.00    -0.257 N 
ATOM     14  C   UNL     1       1.644   4.651   5.071  1.00  0.00     0.071 C 
ATOM     15  N   UNL     1       2.719   4.316   5.708  1.00  0.00    -0.176 NA
ATOM     16  C   UNL     1       0.829   5.755   5.685  1.00  0.00     0.091 C 
ATOM     17  C   UNL     1       1.647   6.020   6.962  1.00  0.00     0.144 C 
BRANCH  14  18
ATOM     18  C   UNL     1       1.249   3.970   3.830  1.00  0.00    -0.002 A 
ATOM     19  C   UNL     1       0.619   2.581   1.505  1.00  0.00     0.067 A 
ATOM     20  C   UNL     1       1.064   1.876   2.624  1.00  0.00     0.021 A 
ATOM     21  C   UNL     1       0.496   3.979   1.543  1.00  0.00     0.021 A 
ATOM     22  C   UNL     1       1.391   2.577   3.783  1.00  0.00     0.011 A 
ATOM     23  C   UNL     1       0.801   4.677   2.715  1.00  0.00     0.011 A 
BRANCH  19  24
ATOM     24  S   UNL     1       0.216   1.752  -0.014  1.00  0.00     0.175 S 
ATOM     25  C   UNL     1       0.975   0.152   0.046  1.00  0.00     0.163 C 
ATOM     26  O   UNL     1       0.864   2.494  -1.076  1.00  0.00    -0.224 OA
ATOM     27  O   UNL     1      -1.224   1.563  -0.001  1.00  0.00    -0.224 OA
ENDBRANCH  19  24
ENDBRANCH  14  18
BRANCH  17  28
ATOM     28  C   UNL     1       0.963   5.832   8.315  1.00  0.00    -0.023 A 
ATOM     29  C   UNL     1      -0.173   5.032   8.515  1.00  0.00     0.007 A 
ATOM     30  C   UNL     1       1.550   6.433   9.449  1.00  0.00     0.007 A 
ATOM     31  C   UNL     1      -0.711   4.857   9.798  1.00  0.00     0.021 A 
ATOM     32  C   UNL     1       1.029   6.238  10.732  1.00  0.00     0.021 A 
ATOM     33  C   UNL     1      -0.105   5.454  10.900  1.00  0.00     0.041 A 
ATOM     34  Cl  UNL     1      -0.753   5.207  12.473  1.00  0.00    -0.084 Cl
ENDBRANCH  17  28
ENDBRANCH   8  13
ENDBRANCH   4   7
ENDBRANCH   2   3
ENDBRANCH   1   2
BRANCH   1  35
ATOM     35  C   UNL     1       8.035   4.117  13.408  1.00  0.00     0.023 C 
BRANCH  35  36
ATOM     36  C   UNL     1       7.941   4.916  14.700  1.00  0.00     0.116 C 
BRANCH  36  37
ATOM     37  N   UNL     1       6.712   4.671  15.438  1.00  0.00    -0.352 N 
ATOM     38  C   UNL     1       6.529   4.643  16.800  1.00  0.00     0.251 C 
ATOM     39  H   UNL     1       5.909   4.505  14.893  1.00  0.00     0.163 HD
ATOM     40  O   UNL     1       5.446   4.306  17.267  1.00  0.00    -0.269 OA
BRANCH  38  41
ATOM     41  C   UNL     1       7.664   4.974  17.686  1.00  0.00     0.039 A 
ATOM     42  C   UNL     1       7.976   4.108  18.736  1.00  0.00     0.014 A 
ATOM     43  C   UNL     1       8.447   6.107  17.447  1.00  0.00     0.014 A 
ATOM     44  C   UNL     1       9.118   4.342  19.504  1.00  0.00     0.010 A 
ATOM     45  C   UNL     1       9.623   6.296  18.163  1.00  0.00     0.010 A 
ATOM     46  C   UNL     1       9.971   5.416  19.199  1.00  0.00    -0.014 A 
BRANCH  46  47
ATOM     47  C   UNL     1      11.226   5.643  19.959  1.00  0.00     0.031 A 
ATOM     48  C   UNL     1      11.390   6.891  20.780  1.00  0.00     0.074 A 
ATOM     49  C   UNL     1      12.237   4.758  19.859  1.00  0.00     0.049 A 
ATOM     50  N   UNL     1      12.428   7.308  21.458  1.00  0.00    -0.248 NA
ATOM     51  C   UNL     1      10.242   7.808  20.812  1.00  0.00     0.031 C 
ATOM     52  C   UNL     1      12.210   3.529  19.063  1.00  0.00     0.029 A 
ATOM     53  N   UNL     1      13.486   4.756  20.426  1.00  0.00    -0.354 N 
ATOM     54  C   UNL     1      12.061   8.539  21.992  1.00  0.00     0.074 A 
ATOM     55  C   UNL     1      10.735   8.831  21.491  1.00  0.00     0.031 C 
ATOM     56  C   UNL     1      13.372   2.876  19.222  1.00  0.00     0.029 A 
ATOM     57  C   UNL     1      14.244   3.659  20.092  1.00  0.00     0.049 A 
ATOM     58  H   UNL     1      13.809   5.474  21.018  1.00  0.00     0.167 HD
ATOM     59  C   UNL     1      12.752   9.336  22.845  1.00  0.00     0.034 A 
ATOM     60  C   UNL     1      15.501   3.326  20.444  1.00  0.00     0.034 A 
ATOM     61  C   UNL     1      14.074   9.026  23.335  1.00  0.00     0.049 A 
ATOM     62  C   UNL     1      16.270   4.248  21.355  1.00  0.00     0.074 A 
ATOM     63  C   UNL     1      14.853   9.738  24.230  1.00  0.00     0.029 A 
ATOM     64  N   UNL     1      14.819   7.914  22.960  1.00  0.00    -0.354 N 
ATOM     65  N   UNL     1      15.894   5.387  21.889  1.00  0.00    -0.248 NA
ATOM     66  C   UNL     1      17.631   3.832  21.717  1.00  0.00     0.031 C 
ATOM     67  C   UNL     1      16.090   9.092  24.348  1.00  0.00     0.029 A 
ATOM     68  C   UNL     1      16.058   7.936  23.584  1.00  0.00     0.049 A 
ATOM     69  H   UNL     1      14.512   7.212  22.343  1.00  0.00     0.167 HD
ATOM     70  C   UNL     1      16.961   5.806  22.679  1.00  0.00     0.074 A 
ATOM     71  C   UNL     1      17.989   4.791  22.558  1.00  0.00     0.031 C 
ATOM     72  C   UNL     1      17.078   6.923  23.442  1.00  0.00     0.034 A 
BRANCH  59  73
ATOM     73  C   UNL     1      12.087  10.625  23.271  1.00  0.00     0.023 A 
ATOM     74  C   UNL     1      10.860  10.625  23.961  1.00  0.00     0.031 A 
ATOM     75  C   UNL     1      12.646  11.868  22.931  1.00  0.00     0.131 A 
ATOM     76  C   UNL     1      10.186  11.833  24.194  1.00  0.00     0.055 A 
ATOM     77  C   UNL     1      12.015  13.073  23.252  1.00  0.00     0.041 A 
ATOM     78  F   UNL     1      13.804  11.937  22.255  1.00  0.00    -0.206 F 
ATOM     79  C   UNL     1      10.767  13.059  23.868  1.00  0.00     0.022 A 
BRANCH  76  80
ATOM     80  S   UNL     1       8.463  11.763  24.759  1.00  0.00     0.124 S 
ATOM     81  O   UNL     1       7.838  10.973  23.701  1.00  0.00    -0.237 OA
ATOM     82  O   UNL     1       8.584  11.111  26.058  1.00  0.00    -0.237 OA
ATOM     83  O   UNL     1       8.059  13.166  24.799  1.00  0.00    -0.744 OA
ENDBRANCH  76  80
ENDBRANCH  59  73
BRANCH  60  84
ATOM     84  C   UNL     1      16.114   2.061  19.949  1.00  0.00     0.023 A 
ATOM     85  C   UNL     1      16.439   1.025  20.840  1.00  0.00     0.031 A 
ATOM     86  C   UNL     1      16.418   1.881  18.588  1.00  0.00     0.131 A 
ATOM     87  C   UNL     1      17.087  -0.126  20.368  1.00  0.00     0.055 A 
ATOM     88  C   UNL     1      17.019   0.713  18.116  1.00  0.00     0.041 A 
ATOM     89  F   UNL     1      16.122   2.838  17.694  1.00  0.00    -0.206 F 
ATOM     90  C   UNL     1      17.368  -0.294  19.010  1.00  0.00     0.022 A 
BRANCH  87  91
ATOM     91  S   UNL     1      17.625  -1.373  21.570  1.00  0.00     0.124 S 
ATOM     92  O   UNL     1      18.521  -0.598  22.421  1.00  0.00    -0.237 OA
ATOM     93  O   UNL     1      16.359  -1.778  22.172  1.00  0.00    -0.237 OA
ATOM     94  O   UNL     1      18.271  -2.388  20.741  1.00  0.00    -0.744 OA
ENDBRANCH  87  91
ENDBRANCH  60  84
BRANCH  72  95
ATOM     95  C   UNL     1      18.350   7.072  24.242  1.00  0.00     0.023 A 
ATOM     96  C   UNL     1      19.596   7.273  23.623  1.00  0.00     0.031 A 
ATOM     97  C   UNL     1      18.313   6.991  25.646  1.00  0.00     0.131 A 
ATOM     98  C   UNL     1      20.762   7.329  24.403  1.00  0.00     0.055 A 
ATOM     99  C   UNL     1      19.468   7.108  26.419  1.00  0.00     0.041 A 
ATOM    100  F   UNL     1      17.151   6.797  26.289  1.00  0.00    -0.206 F 
ATOM    101  C   UNL     1      20.704   7.264  25.797  1.00  0.00     0.022 A 
BRANCH  98 102
ATOM    102  S   UNL     1      22.369   7.394  23.564  1.00  0.00     0.124 S 
ATOM    103  O   UNL     1      22.342   6.176  22.761  1.00  0.00    -0.237 OA
ATOM    104  O   UNL     1      22.284   8.649  22.823  1.00  0.00    -0.237 OA
ATOM    105  O   UNL     1      23.331   7.390  24.665  1.00  0.00    -0.744 OA
ENDBRANCH  98 102
ENDBRANCH  72  95
ENDBRANCH  46  47
ENDBRANCH  38  41
ENDBRANCH  36  37
ENDBRANCH  35  36
ENDBRANCH   1  35
TORSDOF 18
