REMARK SMILES O=C(NCCCCNC(=O)[C@@H]1CSc2ccccc21)c1ccc(-c2c3nc(c(-c4cc(S(=O)(=O)[O-])ccc4F)c4ccc([nH]4)c(-c4cc(S(=O)(=O)[O-])ccc4F)c4nc(c(-c5cc(S(=O)(=O)[O-])ccc5F)c5ccc2[nH]5)C=C4)C=C3)cc1
REMARK SMILES IDX 4 1 3 2 1 3 2 4 20 6 21 7 82 8 22 9 81 10 23 11 24 12 25 13
REMARK SMILES IDX 75 14 26 15 80 16 74 17 76 18 27 19 79 20 73 21 72 22 28 24
REMARK SMILES IDX 60 25 40 26 59 27 41 28 44 29 58 30 77 31 42 32 43 33 57 35
REMARK SMILES IDX 78 36 45 37 29 38 30 39 38 40 31 41 37 42 39 43 36 44 32 45
REMARK SMILES IDX 33 46 34 47 35 48 61 49 62 50 70 51 63 52 69 53 71 54 68 55
REMARK SMILES IDX 64 56 65 57 66 58 67 59 46 60 47 61 55 62 48 63 54 64 56 65
REMARK SMILES IDX 53 66 49 67 50 68 51 69 52 70 5 71 6 72 7 73 8 74 9 75 10 77
REMARK SMILES IDX 11 78 12 79 19 80 13 81 14 82 18 83 15 84 17 85 16 86
REMARK H PARENT 3 5 76 23 44 34 8 76
REMARK Flexibility Score: inf
ROOT
ATOM      1  C   UNL     1       1.202   8.096   4.889  1.00  0.00     0.116 C 
ENDROOT
BRANCH   1   2
ATOM      2  N   UNL     1       1.545   9.510   4.835  1.00  0.00    -0.352 N 
ATOM      3  O   UNL     1       1.120  11.727   4.879  1.00  0.00    -0.269 OA
ATOM      4  C   UNL     1       0.739  10.584   5.114  1.00  0.00     0.251 C 
ATOM      5  H   UNL     1       2.468   9.721   4.565  1.00  0.00     0.163 HD
BRANCH   4   6
ATOM      6  C   UNL     1      -0.600  10.342   5.687  1.00  0.00     0.039 A 
ATOM      7  C   UNL     1      -1.704  10.995   5.137  1.00  0.00     0.014 A 
ATOM      8  C   UNL     1      -0.757   9.455   6.756  1.00  0.00     0.014 A 
ATOM      9  C   UNL     1      -2.976  10.738   5.648  1.00  0.00     0.010 A 
ATOM     10  C   UNL     1      -2.031   9.136   7.204  1.00  0.00     0.010 A 
ATOM     11  C   UNL     1      -3.149   9.799   6.678  1.00  0.00    -0.014 A 
BRANCH  11  12
ATOM     12  C   UNL     1      -4.481   9.534   7.269  1.00  0.00     0.031 A 
ATOM     13  C   UNL     1      -4.729   9.867   8.713  1.00  0.00     0.074 A 
ATOM     14  C   UNL     1      -5.438   8.937   6.534  1.00  0.00     0.049 A 
ATOM     15  N   UNL     1      -5.793   9.648   9.438  1.00  0.00    -0.248 NA
ATOM     16  C   UNL     1      -3.622  10.501   9.448  1.00  0.00     0.031 C 
ATOM     17  C   UNL     1      -5.289   8.536   5.136  1.00  0.00     0.029 A 
ATOM     18  N   UNL     1      -6.714   8.553   6.861  1.00  0.00    -0.354 N 
ATOM     19  C   UNL     1      -5.474  10.091  10.716  1.00  0.00     0.074 A 
ATOM     20  C   UNL     1      -4.100  10.533  10.682  1.00  0.00     0.031 C 
ATOM     21  C   UNL     1      -6.437   7.985   4.717  1.00  0.00     0.029 A 
ATOM     22  C   UNL     1      -7.386   7.942   5.829  1.00  0.00     0.049 A 
ATOM     23  H   UNL     1      -7.111   8.701   7.750  1.00  0.00     0.167 HD
ATOM     24  C   UNL     1      -6.269  10.147  11.809  1.00  0.00     0.034 A 
ATOM     25  C   UNL     1      -8.620   7.396   5.784  1.00  0.00     0.034 A 
ATOM     26  C   UNL     1      -7.649   9.737  11.805  1.00  0.00     0.049 A 
ATOM     27  C   UNL     1      -9.492   7.465   7.011  1.00  0.00     0.074 A 
ATOM     28  C   UNL     1      -8.570   9.848  12.829  1.00  0.00     0.029 A 
ATOM     29  N   UNL     1      -8.303   9.133  10.740  1.00  0.00    -0.354 N 
ATOM     30  N   UNL     1      -9.220   7.990   8.183  1.00  0.00    -0.248 NA
ATOM     31  C   UNL     1     -10.836   6.879   6.917  1.00  0.00     0.031 C 
ATOM     32  C   UNL     1      -9.750   9.230  12.418  1.00  0.00     0.029 A 
ATOM     33  C   UNL     1      -9.601   8.816  11.103  1.00  0.00     0.049 A 
ATOM     34  H   UNL     1      -7.902   8.956   9.858  1.00  0.00     0.167 HD
ATOM     35  C   UNL     1     -10.360   7.810   8.962  1.00  0.00     0.074 A 
ATOM     36  C   UNL     1     -11.335   7.149   8.119  1.00  0.00     0.031 C 
ATOM     37  C   UNL     1     -10.572   8.157  10.257  1.00  0.00     0.034 A 
BRANCH  24  38
ATOM     38  C   UNL     1      -5.693  10.675  13.101  1.00  0.00     0.023 A 
ATOM     39  C   UNL     1      -5.682   9.854  14.244  1.00  0.00     0.031 A 
ATOM     40  C   UNL     1      -5.266  12.008  13.238  1.00  0.00     0.131 A 
ATOM     41  C   UNL     1      -5.285  10.383  15.478  1.00  0.00     0.055 A 
ATOM     42  C   UNL     1      -4.820  12.515  14.459  1.00  0.00     0.041 A 
ATOM     43  F   UNL     1      -5.264  12.837  12.181  1.00  0.00    -0.206 F 
ATOM     44  C   UNL     1      -4.842  11.704  15.589  1.00  0.00     0.022 A 
BRANCH  41  45
ATOM     45  S   UNL     1      -5.406   9.403  16.999  1.00  0.00     0.124 S 
ATOM     46  O   UNL     1      -4.013   9.358  17.436  1.00  0.00    -0.237 OA
ATOM     47  O   UNL     1      -6.292  10.224  17.820  1.00  0.00    -0.237 OA
ATOM     48  O   UNL     1      -5.960   8.129  16.553  1.00  0.00    -0.744 OA
ENDBRANCH  41  45
ENDBRANCH  24  38
BRANCH  25  49
ATOM     49  C   UNL     1      -9.087   6.808   4.495  1.00  0.00     0.023 A 
ATOM     50  C   UNL     1      -8.411   5.718   3.916  1.00  0.00     0.031 A 
ATOM     51  C   UNL     1     -10.093   7.438   3.744  1.00  0.00     0.131 A 
ATOM     52  C   UNL     1      -8.674   5.363   2.587  1.00  0.00     0.055 A 
ATOM     53  C   UNL     1     -10.408   7.027   2.448  1.00  0.00     0.041 A 
ATOM     54  F   UNL     1     -10.758   8.488   4.250  1.00  0.00    -0.206 F 
ATOM     55  C   UNL     1      -9.680   6.000   1.854  1.00  0.00     0.022 A 
BRANCH  52  56
ATOM     56  S   UNL     1      -7.607   4.181   1.716  1.00  0.00     0.124 S 
ATOM     57  O   UNL     1      -8.570   3.197   1.230  1.00  0.00    -0.237 OA
ATOM     58  O   UNL     1      -7.001   5.030   0.694  1.00  0.00    -0.237 OA
ATOM     59  O   UNL     1      -6.694   3.710   2.752  1.00  0.00    -0.744 OA
ENDBRANCH  52  56
ENDBRANCH  25  49
BRANCH  37  60
ATOM     60  C   UNL     1     -11.901   7.828  10.896  1.00  0.00     0.023 A 
ATOM     61  C   UNL     1     -12.713   8.864  11.400  1.00  0.00     0.031 A 
ATOM     62  C   UNL     1     -12.260   6.501  11.187  1.00  0.00     0.131 A 
ATOM     63  C   UNL     1     -13.800   8.557  12.229  1.00  0.00     0.055 A 
ATOM     64  C   UNL     1     -13.379   6.199  11.964  1.00  0.00     0.041 A 
ATOM     65  F   UNL     1     -11.513   5.479  10.738  1.00  0.00    -0.206 F 
ATOM     66  C   UNL     1     -14.142   7.230  12.507  1.00  0.00     0.022 A 
BRANCH  63  67
ATOM     67  S   UNL     1     -14.735   9.867  13.068  1.00  0.00     0.124 S 
ATOM     68  O   UNL     1     -16.094   9.620  12.592  1.00  0.00    -0.237 OA
ATOM     69  O   UNL     1     -14.501   9.556  14.476  1.00  0.00    -0.237 OA
ATOM     70  O   UNL     1     -14.123  11.101  12.586  1.00  0.00    -0.744 OA
ENDBRANCH  63  67
ENDBRANCH  37  60
ENDBRANCH  11  12
ENDBRANCH   4   6
ENDBRANCH   1   2
BRANCH   1  71
ATOM     71  C   UNL     1       1.815   7.295   3.750  1.00  0.00     0.023 C 
BRANCH  71  72
ATOM     72  C   UNL     1       3.337   7.372   3.667  1.00  0.00     0.023 C 
BRANCH  72  73
ATOM     73  C   UNL     1       4.066   6.856   4.909  1.00  0.00     0.116 C 
BRANCH  73  74
ATOM     74  N   UNL     1       4.191   5.411   4.898  1.00  0.00    -0.356 N 
ATOM     75  C   UNL     1       5.233   4.608   4.541  1.00  0.00     0.228 C 
ATOM     76  H   UNL     1       3.387   4.928   5.199  1.00  0.00     0.163 HD
ATOM     77  O   UNL     1       5.047   3.388   4.599  1.00  0.00    -0.274 OA
BRANCH  75  78
ATOM     78  C   UNL     1       6.616   5.140   4.169  1.00  0.00     0.120 C 
ATOM     79  C   UNL     1       7.374   5.577   5.433  1.00  0.00     0.093 C 
ATOM     80  C   UNL     1       6.639   6.263   3.165  1.00  0.00    -0.021 A 
ATOM     81  S   UNL     1       7.967   7.288   5.214  1.00  0.00    -0.125 SA
ATOM     82  C   UNL     1       7.242   7.440   3.611  1.00  0.00     0.011 A 
ATOM     83  C   UNL     1       6.059   6.210   1.899  1.00  0.00     0.006 A 
ATOM     84  C   UNL     1       7.173   8.605   2.862  1.00  0.00     0.015 A 
ATOM     85  C   UNL     1       5.995   7.377   1.134  1.00  0.00     0.000 A 
ATOM     86  C   UNL     1       6.527   8.575   1.625  1.00  0.00     0.001 A 
ENDBRANCH  75  78
ENDBRANCH  73  74
ENDBRANCH  72  73
ENDBRANCH  71  72
ENDBRANCH   1  71
TORSDOF 14
