REMARK SMILES O=C(COc1ccc(NC(=O)c2ccc(Br)cc2)cc1-c1nc2ccccc2o1)NCCCCNC(=O)c1ccc(-c2c3nc(c(-c4cc(S(=O)(=O)[O-])ccc4F)c4ccc([nH]4)c(-c4cc(S(=O)(=O)[O-])ccc4F)c4nc(c(-c5cc(S(=O)(=O)[O-])ccc5F)c5ccc2[nH]5)C=C4)C=C3)cc1
REMARK SMILES IDX 32 1 31 2 30 3 1 4 2 5 3 7 4 8 5 9 6 10 20 11 7 12 19 13
REMARK SMILES IDX 8 14 21 15 22 16 29 17 23 18 28 19 24 20 27 21 25 22 26 23
REMARK SMILES IDX 9 24 10 25 11 27 12 28 13 29 18 30 14 31 17 32 15 33 16 34
REMARK SMILES IDX 33 35 34 36 35 37 36 38 37 40 38 41 39 42 100 43 40 44 99 45
REMARK SMILES IDX 41 46 42 47 43 48 93 49 44 50 98 51 92 52 94 53 45 54 97 55
REMARK SMILES IDX 91 56 90 57 46 59 78 60 58 61 77 62 59 63 62 64 76 65 95 66
REMARK SMILES IDX 60 67 61 68 75 70 96 71 63 72 47 73 48 74 56 75 49 76 55 77
REMARK SMILES IDX 57 78 54 79 50 80 51 81 52 82 53 83 79 84 80 85 88 86 81 87
REMARK SMILES IDX 87 88 89 89 86 90 82 91 83 92 84 93 85 94 64 95 65 96 73 97
REMARK SMILES IDX 66 98 72 99 74 100 71 101 67 102 68 103 69 104 70 105
REMARK H PARENT 30 6 9 26 35 39 94 58 62 69
REMARK Flexibility Score: inf
ROOT
ATOM      1  C   UNL     1       3.334   2.899  -1.508  1.00  0.00     0.023 C 
ENDROOT
BRANCH   1   2
ATOM      2  C   UNL     1       3.762   1.442  -1.559  1.00  0.00     0.116 C 
BRANCH   2   3
ATOM      3  N   UNL     1       4.796   1.076  -0.605  1.00  0.00    -0.353 N 
ATOM      4  O   UNL     1       4.261   1.431   1.605  1.00  0.00    -0.271 OA
ATOM      5  C   UNL     1       4.415   0.655   0.667  1.00  0.00     0.257 C 
ATOM      6  H   UNL     1       5.747   1.126  -0.853  1.00  0.00     0.163 HD
BRANCH   5   7
ATOM      7  C   UNL     1       4.261  -0.869   0.788  1.00  0.00     0.329 C 
BRANCH   7   8
ATOM      8  O   UNL     1       3.981  -1.317  -0.537  1.00  0.00    -0.483 OA
BRANCH   8   9
ATOM      9  C   UNL     1       3.054  -2.300  -0.724  1.00  0.00     0.132 A 
ATOM     10  C   UNL     1       3.639  -3.470  -1.190  1.00  0.00     0.049 A 
ATOM     11  C   UNL     1       1.666  -2.064  -0.862  1.00  0.00     0.081 A 
ATOM     12  C   UNL     1       2.872  -4.407  -1.857  1.00  0.00     0.030 A 
ATOM     13  C   UNL     1       0.903  -3.034  -1.548  1.00  0.00     0.043 A 
ATOM     14  C   UNL     1       1.501  -4.215  -2.034  1.00  0.00     0.042 A 
BRANCH  11  15
ATOM     15  C   UNL     1       1.067  -0.844  -0.306  1.00  0.00     0.231 A 
ATOM     16  N   UNL     1       1.464  -0.198   0.772  1.00  0.00    -0.209 NA
ATOM     17  O   UNL     1       0.083  -0.191  -1.019  1.00  0.00    -0.436 OA
ATOM     18  C   UNL     1       0.857   1.020   0.687  1.00  0.00     0.110 A 
ATOM     19  C   UNL     1      -0.023   1.028  -0.383  1.00  0.00     0.155 A 
ATOM     20  C   UNL     1       1.058   2.186   1.435  1.00  0.00     0.032 A 
ATOM     21  C   UNL     1      -0.790   2.135  -0.737  1.00  0.00     0.049 A 
ATOM     22  C   UNL     1       0.353   3.337   1.067  1.00  0.00     0.003 A 
ATOM     23  C   UNL     1      -0.567   3.304   0.013  1.00  0.00     0.004 A 
ENDBRANCH  11  15
BRANCH  14  24
ATOM     24  N   UNL     1       0.717  -5.143  -2.752  1.00  0.00    -0.322 N 
ATOM     25  C   UNL     1       0.988  -6.456  -3.106  1.00  0.00     0.255 C 
ATOM     26  H   UNL     1      -0.159  -4.806  -3.049  1.00  0.00     0.170 HD
ATOM     27  O   UNL     1       0.367  -6.997  -4.019  1.00  0.00    -0.269 OA
BRANCH  25  28
ATOM     28  C   UNL     1       1.970  -7.267  -2.338  1.00  0.00     0.040 A 
ATOM     29  C   UNL     1       2.922  -8.029  -3.027  1.00  0.00     0.015 A 
ATOM     30  C   UNL     1       1.966  -7.251  -0.936  1.00  0.00     0.015 A 
ATOM     31  C   UNL     1       3.910  -8.717  -2.314  1.00  0.00     0.016 A 
ATOM     32  C   UNL     1       2.960  -7.929  -0.227  1.00  0.00     0.016 A 
ATOM     33  C   UNL     1       3.932  -8.651  -0.920  1.00  0.00     0.018 A 
ATOM     34  Br  UNL     1       5.296  -9.538   0.043  1.00  0.00    -0.051 Br
ENDBRANCH  25  28
ENDBRANCH  14  24
ENDBRANCH   8   9
ENDBRANCH   7   8
ENDBRANCH   5   7
ENDBRANCH   2   3
ENDBRANCH   1   2
BRANCH   1  35
ATOM     35  C   UNL     1       4.453   3.881  -1.819  1.00  0.00     0.023 C 
BRANCH  35  36
ATOM     36  C   UNL     1       5.066   3.709  -3.197  1.00  0.00     0.116 C 
BRANCH  36  37
ATOM     37  N   UNL     1       4.204   4.170  -4.281  1.00  0.00    -0.352 N 
ATOM     38  C   UNL     1       4.630   4.715  -5.472  1.00  0.00     0.251 C 
ATOM     39  H   UNL     1       3.232   4.084  -4.150  1.00  0.00     0.163 HD
ATOM     40  O   UNL     1       3.841   5.194  -6.278  1.00  0.00    -0.269 OA
BRANCH  38  41
ATOM     41  C   UNL     1       6.088   4.739  -5.716  1.00  0.00     0.039 A 
ATOM     42  C   UNL     1       6.744   5.965  -5.831  1.00  0.00     0.014 A 
ATOM     43  C   UNL     1       6.808   3.543  -5.628  1.00  0.00     0.014 A 
ATOM     44  C   UNL     1       8.139   5.996  -5.787  1.00  0.00     0.010 A 
ATOM     45  C   UNL     1       8.189   3.590  -5.490  1.00  0.00     0.010 A 
ATOM     46  C   UNL     1       8.871   4.815  -5.574  1.00  0.00    -0.014 A 
BRANCH  46  47
ATOM     47  C   UNL     1      10.354   4.828  -5.471  1.00  0.00     0.031 A 
ATOM     48  C   UNL     1      11.167   4.065  -6.482  1.00  0.00     0.074 A 
ATOM     49  C   UNL     1      10.961   5.458  -4.445  1.00  0.00     0.049 A 
ATOM     50  N   UNL     1      12.458   3.863  -6.530  1.00  0.00    -0.248 NA
ATOM     51  C   UNL     1      10.416   3.400  -7.559  1.00  0.00     0.031 C 
ATOM     52  C   UNL     1      10.277   6.180  -3.368  1.00  0.00     0.029 A 
ATOM     53  N   UNL     1      12.292   5.589  -4.133  1.00  0.00    -0.354 N 
ATOM     54  C   UNL     1      12.668   3.034  -7.628  1.00  0.00     0.074 A 
ATOM     55  C   UNL     1      11.365   2.704  -8.161  1.00  0.00     0.031 C 
ATOM     56  C   UNL     1      11.193   6.701  -2.535  1.00  0.00     0.029 A 
ATOM     57  C   UNL     1      12.526   6.321  -2.990  1.00  0.00     0.049 A 
ATOM     58  H   UNL     1      13.012   5.195  -4.676  1.00  0.00     0.167 HD
ATOM     59  C   UNL     1      13.841   2.617  -8.165  1.00  0.00     0.034 A 
ATOM     60  C   UNL     1      13.685   6.643  -2.381  1.00  0.00     0.034 A 
ATOM     61  C   UNL     1      15.131   2.982  -7.636  1.00  0.00     0.049 A 
ATOM     62  C   UNL     1      14.981   6.177  -2.999  1.00  0.00     0.074 A 
ATOM     63  C   UNL     1      16.386   2.664  -8.123  1.00  0.00     0.029 A 
ATOM     64  N   UNL     1      15.330   3.751  -6.495  1.00  0.00    -0.354 N 
ATOM     65  N   UNL     1      15.166   5.437  -4.069  1.00  0.00    -0.248 NA
ATOM     66  C   UNL     1      16.222   6.601  -2.339  1.00  0.00     0.031 C 
ATOM     67  C   UNL     1      17.341   3.193  -7.247  1.00  0.00     0.029 A 
ATOM     68  C   UNL     1      16.686   3.901  -6.252  1.00  0.00     0.049 A 
ATOM     69  H   UNL     1      14.612   4.134  -5.941  1.00  0.00     0.167 HD
ATOM     70  C   UNL     1      16.546   5.333  -4.225  1.00  0.00     0.074 A 
ATOM     71  C   UNL     1      17.142   6.101  -3.151  1.00  0.00     0.031 C 
ATOM     72  C   UNL     1      17.257   4.668  -5.171  1.00  0.00     0.034 A 
BRANCH  59  73
ATOM     73  C   UNL     1      13.764   1.716  -9.375  1.00  0.00     0.023 A 
ATOM     74  C   UNL     1      13.161   2.143 -10.573  1.00  0.00     0.031 A 
ATOM     75  C   UNL     1      14.248   0.398  -9.319  1.00  0.00     0.131 A 
ATOM     76  C   UNL     1      12.971   1.236 -11.625  1.00  0.00     0.055 A 
ATOM     77  C   UNL     1      14.139  -0.473 -10.405  1.00  0.00     0.041 A 
ATOM     78  F   UNL     1      14.814  -0.076  -8.198  1.00  0.00    -0.206 F 
ATOM     79  C   UNL     1      13.480  -0.062 -11.561  1.00  0.00     0.022 A 
BRANCH  76  80
ATOM     80  S   UNL     1      11.906   1.730 -13.008  1.00  0.00     0.124 S 
ATOM     81  O   UNL     1      10.640   1.985 -12.326  1.00  0.00    -0.237 OA
ATOM     82  O   UNL     1      12.596   2.901 -13.536  1.00  0.00    -0.237 OA
ATOM     83  O   UNL     1      11.911   0.557 -13.880  1.00  0.00    -0.744 OA
ENDBRANCH  76  80
ENDBRANCH  59  73
BRANCH  60  84
ATOM     84  C   UNL     1      13.687   7.445  -1.122  1.00  0.00     0.023 A 
ATOM     85  C   UNL     1      14.255   8.729  -1.079  1.00  0.00     0.031 A 
ATOM     86  C   UNL     1      13.158   6.921   0.071  1.00  0.00     0.131 A 
ATOM     87  C   UNL     1      14.325   9.426   0.138  1.00  0.00     0.055 A 
ATOM     88  C   UNL     1      13.183   7.640   1.269  1.00  0.00     0.041 A 
ATOM     89  F   UNL     1      12.598   5.701   0.088  1.00  0.00    -0.206 F 
ATOM     90  C   UNL     1      13.782   8.895   1.309  1.00  0.00     0.022 A 
BRANCH  87  91
ATOM     91  S   UNL     1      15.216  11.006   0.186  1.00  0.00     0.124 S 
ATOM     92  O   UNL     1      16.538  10.617  -0.291  1.00  0.00    -0.237 OA
ATOM     93  O   UNL     1      14.422  11.828  -0.722  1.00  0.00    -0.237 OA
ATOM     94  O   UNL     1      15.149  11.392   1.594  1.00  0.00    -0.744 OA
ENDBRANCH  87  91
ENDBRANCH  60  84
BRANCH  72  95
ATOM     95  C   UNL     1      18.760   4.784  -5.104  1.00  0.00     0.023 A 
ATOM     96  C   UNL     1      19.499   4.217  -4.053  1.00  0.00     0.031 A 
ATOM     97  C   UNL     1      19.458   5.476  -6.110  1.00  0.00     0.131 A 
ATOM     98  C   UNL     1      20.890   4.397  -4.002  1.00  0.00     0.055 A 
ATOM     99  C   UNL     1      20.847   5.600  -6.085  1.00  0.00     0.041 A 
ATOM    100  F   UNL     1      18.800   6.037  -7.137  1.00  0.00    -0.206 F 
ATOM    101  C   UNL     1      21.570   5.070  -5.020  1.00  0.00     0.022 A 
BRANCH  98 102
ATOM    102  S   UNL     1      21.789   3.812  -2.540  1.00  0.00     0.124 S 
ATOM    103  O   UNL     1      21.135   4.552  -1.466  1.00  0.00    -0.237 OA
ATOM    104  O   UNL     1      21.536   2.376  -2.571  1.00  0.00    -0.237 OA
ATOM    105  O   UNL     1      23.172   4.203  -2.809  1.00  0.00    -0.744 OA
ENDBRANCH  98 102
ENDBRANCH  72  95
ENDBRANCH  46  47
ENDBRANCH  38  41
ENDBRANCH  36  37
ENDBRANCH  35  36
ENDBRANCH   1  35
TORSDOF 19
