REMARK SMILES CN(C)C(=O)c1cccc(N2CCC3(CC2)[C@H](C(=O)NCCCCNC(=O)c2ccc(-c4c5nc(c(-c6cc(S(=O)(=O)[O-])ccc6F)c6ccc([nH]6)c(-c6cc(S(=O)(=O)[O-])ccc6F)c6nc(c(-c7cc(S(=O)(=O)[O-])ccc7F)c7ccc4[nH]7)C=C6)C=C5)cc2)CC(=O)N3C)n1
REMARK SMILES IDX 23 1 22 2 21 3 20 4 18 5 19 6 17 8 11 9 12 10 16 11 13 12
REMARK SMILES IDX 15 13 14 14 94 15 91 16 92 17 95 18 93 19 10 20 6 21 7 22
REMARK SMILES IDX 96 23 8 24 9 25 4 26 1 27 2 28 3 29 5 30 24 31 25 32 26 33
REMARK SMILES IDX 27 35 28 36 29 37 90 38 30 39 89 40 31 41 32 42 33 43 83 44
REMARK SMILES IDX 34 45 88 46 82 47 84 48 35 49 87 50 81 51 80 52 36 54 68 55
REMARK SMILES IDX 48 56 67 57 49 58 52 59 66 60 85 61 50 62 51 63 65 65 86 66
REMARK SMILES IDX 53 67 37 68 38 69 46 70 39 71 45 72 47 73 44 74 40 75 41 76
REMARK SMILES IDX 42 77 43 78 69 79 70 80 78 81 71 82 77 83 79 84 76 85 72 86
REMARK SMILES IDX 73 87 74 88 75 89 54 90 55 91 63 92 56 93 62 94 64 95 61 96
REMARK SMILES IDX 57 97 58 98 59 99 60 100
REMARK H PARENT 20 7 25 34 84 53 52 64
REMARK Flexibility Score: inf
ROOT
ATOM      1  C   UNL     1       5.618  -2.413   8.893  1.00  0.00     0.023 C 
ENDROOT
BRANCH   1   2
ATOM      2  C   UNL     1       5.340  -3.828   8.402  1.00  0.00     0.023 C 
BRANCH   2   3
ATOM      3  C   UNL     1       4.884  -4.795   9.504  1.00  0.00     0.116 C 
BRANCH   3   4
ATOM      4  N   UNL     1       3.635  -4.432  10.161  1.00  0.00    -0.356 N 
ATOM      5  C   UNL     1       2.389  -4.977  10.158  1.00  0.00     0.226 C 
ATOM      6  O   UNL     1       1.542  -4.430  10.874  1.00  0.00    -0.275 OA
ATOM      7  H   UNL     1       3.708  -3.627  10.723  1.00  0.00     0.163 HD
BRANCH   5   8
ATOM      8  C   UNL     1       1.972  -6.200   9.332  1.00  0.00     0.113 C 
ATOM      9  N   UNL     1       1.122  -5.031   5.267  1.00  0.00    -0.356 N 
ATOM     10  C   UNL     1       2.281  -4.415   5.867  1.00  0.00     0.120 C 
ATOM     11  C   UNL     1       0.787  -6.417   5.563  1.00  0.00     0.120 C 
ATOM     12  C   UNL     1       2.141  -4.634   7.356  1.00  0.00     0.051 C 
ATOM     13  C   UNL     1       0.871  -6.727   7.072  1.00  0.00     0.051 C 
ATOM     14  C   UNL     1       2.115  -6.114   7.781  1.00  0.00     0.058 C 
ATOM     15  N   UNL     1       3.293  -6.979   7.558  1.00  0.00    -0.339 N 
ATOM     16  C   UNL     1       2.706  -7.453   9.791  1.00  0.00     0.116 C 
ATOM     17  C   UNL     1       3.604  -7.794   8.645  1.00  0.00     0.223 C 
ATOM     18  C   UNL     1       4.050  -7.145   6.331  1.00  0.00     0.147 C 
ATOM     19  O   UNL     1       4.480  -8.643   8.687  1.00  0.00    -0.275 OA
BRANCH   9  20
ATOM     20  C   UNL     1       0.332  -4.195   4.513  1.00  0.00     0.129 A 
ATOM     21  C   UNL     1       0.142  -2.619   2.811  1.00  0.00     0.130 A 
ATOM     22  C   UNL     1      -1.205  -2.411   3.079  1.00  0.00     0.034 A 
ATOM     23  N   UNL     1       0.910  -3.486   3.521  1.00  0.00    -0.226 NA
ATOM     24  C   UNL     1      -1.776  -3.097   4.142  1.00  0.00     0.006 A 
ATOM     25  C   UNL     1      -1.003  -4.006   4.854  1.00  0.00     0.047 A 
BRANCH  21  26
ATOM     26  C   UNL     1       0.791  -1.984   1.615  1.00  0.00     0.272 C 
ATOM     27  C   UNL     1       1.061  -0.135   0.046  1.00  0.00     0.146 C 
ATOM     28  N   UNL     1       0.554  -0.632   1.313  1.00  0.00    -0.343 N 
ATOM     29  C   UNL     1      -0.004   0.348   2.232  1.00  0.00     0.146 C 
ATOM     30  O   UNL     1       1.488  -2.689   0.882  1.00  0.00    -0.267 OA
ENDBRANCH  21  26
ENDBRANCH   9  20
ENDBRANCH   5   8
ENDBRANCH   3   4
ENDBRANCH   2   3
ENDBRANCH   1   2
BRANCH   1  31
ATOM     31  C   UNL     1       6.752  -2.365   9.899  1.00  0.00     0.116 C 
BRANCH  31  32
ATOM     32  N   UNL     1       7.953  -3.015   9.383  1.00  0.00    -0.352 N 
ATOM     33  C   UNL     1       9.212  -2.500   9.234  1.00  0.00     0.251 C 
ATOM     34  H   UNL     1       7.841  -3.953   9.105  1.00  0.00     0.163 HD
ATOM     35  O   UNL     1      10.037  -3.079   8.532  1.00  0.00    -0.269 OA
BRANCH  33  36
ATOM     36  C   UNL     1       9.541  -1.243   9.923  1.00  0.00     0.039 A 
ATOM     37  C   UNL     1      10.277  -0.265   9.259  1.00  0.00     0.014 A 
ATOM     38  C   UNL     1       9.073  -1.031  11.223  1.00  0.00     0.014 A 
ATOM     39  C   UNL     1      10.509   0.952   9.894  1.00  0.00     0.010 A 
ATOM     40  C   UNL     1       9.191   0.222  11.797  1.00  0.00     0.010 A 
ATOM     41  C   UNL     1       9.944   1.212  11.155  1.00  0.00    -0.014 A 
BRANCH  41  42
ATOM     42  C   UNL     1      10.183   2.497  11.849  1.00  0.00     0.031 A 
ATOM     43  C   UNL     1      10.900   2.505  13.171  1.00  0.00     0.074 A 
ATOM     44  C   UNL     1       9.724   3.639  11.306  1.00  0.00     0.049 A 
ATOM     45  N   UNL     1      11.207   3.516  13.941  1.00  0.00    -0.248 NA
ATOM     46  C   UNL     1      11.283   1.195  13.722  1.00  0.00     0.031 C 
ATOM     47  C   UNL     1       8.966   3.738  10.057  1.00  0.00     0.029 A 
ATOM     48  N   UNL     1       9.842   4.937  11.727  1.00  0.00    -0.354 N 
ATOM     49  C   UNL     1      11.812   2.961  15.065  1.00  0.00     0.074 A 
ATOM     50  C   UNL     1      11.724   1.525  14.923  1.00  0.00     0.031 C 
ATOM     51  C   UNL     1       8.744   5.032   9.780  1.00  0.00     0.029 A 
ATOM     52  C   UNL     1       9.302   5.849  10.852  1.00  0.00     0.049 A 
ATOM     53  H   UNL     1      10.272   5.192  12.575  1.00  0.00     0.167 HD
ATOM     54  C   UNL     1      12.425   3.590  16.098  1.00  0.00     0.034 A 
ATOM     55  C   UNL     1       9.277   7.194  10.907  1.00  0.00     0.034 A 
ATOM     56  C   UNL     1      12.497   5.026  16.214  1.00  0.00     0.049 A 
ATOM     57  C   UNL     1       9.936   7.877  12.077  1.00  0.00     0.074 A 
ATOM     58  C   UNL     1      13.112   5.786  17.192  1.00  0.00     0.029 A 
ATOM     59  N   UNL     1      11.921   5.922  15.318  1.00  0.00    -0.354 N 
ATOM     60  N   UNL     1      10.553   7.347  13.108  1.00  0.00    -0.248 NA
ATOM     61  C   UNL     1       9.910   9.343  12.075  1.00  0.00     0.031 C 
ATOM     62  C   UNL     1      12.844   7.135  16.930  1.00  0.00     0.029 A 
ATOM     63  C   UNL     1      12.141   7.225  15.738  1.00  0.00     0.049 A 
ATOM     64  H   UNL     1      11.429   5.668  14.505  1.00  0.00     0.167 HD
ATOM     65  C   UNL     1      11.023   8.419  13.861  1.00  0.00     0.074 A 
ATOM     66  C   UNL     1      10.629   9.621  13.152  1.00  0.00     0.031 C 
ATOM     67  C   UNL     1      11.723   8.414  15.027  1.00  0.00     0.034 A 
BRANCH  54  68
ATOM     68  C   UNL     1      13.027   2.713  17.174  1.00  0.00     0.023 A 
ATOM     69  C   UNL     1      14.010   1.749  16.875  1.00  0.00     0.031 A 
ATOM     70  C   UNL     1      12.555   2.773  18.496  1.00  0.00     0.131 A 
ATOM     71  C   UNL     1      14.394   0.812  17.846  1.00  0.00     0.055 A 
ATOM     72  C   UNL     1      13.024   1.906  19.487  1.00  0.00     0.041 A 
ATOM     73  F   UNL     1      11.602   3.652  18.844  1.00  0.00    -0.206 F 
ATOM     74  C   UNL     1      13.931   0.902  19.159  1.00  0.00     0.022 A 
BRANCH  71  75
ATOM     75  S   UNL     1      15.336  -0.645  17.312  1.00  0.00     0.124 S 
ATOM     76  O   UNL     1      14.453  -1.209  16.293  1.00  0.00    -0.237 OA
ATOM     77  O   UNL     1      16.579  -0.058  16.828  1.00  0.00    -0.237 OA
ATOM     78  O   UNL     1      15.454  -1.442  18.532  1.00  0.00    -0.744 OA
ENDBRANCH  71  75
ENDBRANCH  54  68
BRANCH  55  79
ATOM     79  C   UNL     1       8.644   7.978   9.810  1.00  0.00     0.023 A 
ATOM     80  C   UNL     1       9.414   8.813   8.986  1.00  0.00     0.031 A 
ATOM     81  C   UNL     1       7.259   7.916   9.577  1.00  0.00     0.131 A 
ATOM     82  C   UNL     1       8.791   9.584   7.993  1.00  0.00     0.055 A 
ATOM     83  C   UNL     1       6.650   8.645   8.555  1.00  0.00     0.041 A 
ATOM     84  F   UNL     1       6.478   7.125  10.330  1.00  0.00    -0.206 F 
ATOM     85  C   UNL     1       7.417   9.495   7.763  1.00  0.00     0.022 A 
BRANCH  82  86
ATOM     86  S   UNL     1       9.797  10.760   7.046  1.00  0.00     0.124 S 
ATOM     87  O   UNL     1      10.306  11.630   8.100  1.00  0.00    -0.237 OA
ATOM     88  O   UNL     1      10.773   9.881   6.410  1.00  0.00    -0.237 OA
ATOM     89  O   UNL     1       8.832  11.376   6.138  1.00  0.00    -0.744 OA
ENDBRANCH  82  86
ENDBRANCH  55  79
BRANCH  67  90
ATOM     90  C   UNL     1      12.143   9.758  15.573  1.00  0.00     0.023 A 
ATOM     91  C   UNL     1      11.203  10.723  15.977  1.00  0.00     0.031 A 
ATOM     92  C   UNL     1      13.507  10.094  15.652  1.00  0.00     0.131 A 
ATOM     93  C   UNL     1      11.634  12.002  16.358  1.00  0.00     0.055 A 
ATOM     94  C   UNL     1      13.933  11.341  16.109  1.00  0.00     0.041 A 
ATOM     95  F   UNL     1      14.451   9.215  15.277  1.00  0.00    -0.206 F 
ATOM     96  C   UNL     1      12.994  12.311  16.445  1.00  0.00     0.022 A 
BRANCH  93  97
ATOM     97  S   UNL     1      10.391  13.301  16.597  1.00  0.00     0.124 S 
ATOM     98  O   UNL     1       9.681  13.278  15.322  1.00  0.00    -0.237 OA
ATOM     99  O   UNL     1       9.645  12.809  17.750  1.00  0.00    -0.237 OA
ATOM    100  O   UNL     1      11.190  14.500  16.840  1.00  0.00    -0.744 OA
ENDBRANCH  93  97
ENDBRANCH  67  90
ENDBRANCH  41  42
ENDBRANCH  33  36
ENDBRANCH  31  32
ENDBRANCH   1  31
TORSDOF 16
