REMARK SMILES O=C(NCCCCNC(=O)[C@@H]1C[C@@H](O)CN1C(=O)c1ccccc1)c1ccc(-c2c3nc(c(-c4cc(S(=O)(=O)[O-])ccc4F)c4ccc([nH]4)c(-c4cc(S(=O)(=O)[O-])ccc4F)c4nc(c(-c5cc(S(=O)(=O)[O-])ccc5F)c5ccc2[nH]5)C=C4)C=C3)cc1
REMARK SMILES IDX 5 1 4 2 3 3 1 4 2 5 25 7 26 8 87 9 27 10 86 11 28 12 29 13
REMARK SMILES IDX 30 14 80 15 31 16 85 17 79 18 81 19 32 20 84 21 78 22 77 23
REMARK SMILES IDX 33 25 65 26 45 27 64 28 46 29 49 30 63 31 82 32 47 33 48 34
REMARK SMILES IDX 62 36 83 37 50 38 34 39 35 40 43 41 36 42 42 43 44 44 41 45
REMARK SMILES IDX 37 46 38 47 39 48 40 49 66 50 67 51 75 52 68 53 74 54 76 55
REMARK SMILES IDX 73 56 69 57 70 58 71 59 72 60 51 61 52 62 60 63 53 64 59 65
REMARK SMILES IDX 61 66 58 67 54 68 55 69 56 70 57 71 6 72 7 73 8 74 9 75
REMARK SMILES IDX 10 77 11 78 12 79 16 80 13 81 15 82 17 83 18 84 19 85 20 86
REMARK SMILES IDX 24 87 21 88 23 89 22 90 14 91
REMARK H PARENT 3 6 81 24 49 35 8 76 14 92
REMARK Flexibility Score: inf
ROOT
ATOM      1  C   UNL     1      10.134  -7.006   1.754  1.00  0.00     0.023 C 
ENDROOT
BRANCH   1   2
ATOM      2  C   UNL     1      10.571  -8.415   1.363  1.00  0.00     0.116 C 
BRANCH   2   3
ATOM      3  N   UNL     1      11.854  -8.443   0.669  1.00  0.00    -0.352 N 
ATOM      4  O   UNL     1      14.069  -8.751   0.394  1.00  0.00    -0.269 OA
ATOM      5  C   UNL     1      13.069  -8.957   1.066  1.00  0.00     0.251 C 
ATOM      6  H   UNL     1      11.851  -8.028  -0.224  1.00  0.00     0.163 HD
BRANCH   5   7
ATOM      7  C   UNL     1      13.166  -9.738   2.321  1.00  0.00     0.039 A 
ATOM      8  C   UNL     1      12.236 -10.737   2.611  1.00  0.00     0.014 A 
ATOM      9  C   UNL     1      14.203  -9.465   3.219  1.00  0.00     0.014 A 
ATOM     10  C   UNL     1      12.236 -11.336   3.866  1.00  0.00     0.010 A 
ATOM     11  C   UNL     1      14.253 -10.135   4.446  1.00  0.00     0.010 A 
ATOM     12  C   UNL     1      13.242 -11.042   4.800  1.00  0.00    -0.014 A 
BRANCH  12  13
ATOM     13  C   UNL     1      13.220 -11.708   6.130  1.00  0.00     0.031 A 
ATOM     14  C   UNL     1      13.016 -10.911   7.391  1.00  0.00     0.074 A 
ATOM     15  C   UNL     1      13.342 -13.048   6.191  1.00  0.00     0.049 A 
ATOM     16  N   UNL     1      12.943 -11.328   8.630  1.00  0.00    -0.248 NA
ATOM     17  C   UNL     1      12.891  -9.455   7.241  1.00  0.00     0.031 C 
ATOM     18  C   UNL     1      13.544 -13.925   5.035  1.00  0.00     0.029 A 
ATOM     19  N   UNL     1      13.292 -13.908   7.256  1.00  0.00    -0.354 N 
ATOM     20  C   UNL     1      12.784 -10.187   9.411  1.00  0.00     0.074 A 
ATOM     21  C   UNL     1      12.811  -9.059   8.503  1.00  0.00     0.031 C 
ATOM     22  C   UNL     1      13.546 -15.201   5.448  1.00  0.00     0.029 A 
ATOM     23  C   UNL     1      13.413 -15.231   6.900  1.00  0.00     0.049 A 
ATOM     24  H   UNL     1      13.181 -13.608   8.187  1.00  0.00     0.167 HD
ATOM     25  C   UNL     1      12.623 -10.092  10.756  1.00  0.00     0.034 A 
ATOM     26  C   UNL     1      13.428 -16.345   7.656  1.00  0.00     0.034 A 
ATOM     27  C   UNL     1      12.591 -11.232  11.645  1.00  0.00     0.049 A 
ATOM     28  C   UNL     1      13.282 -16.213   9.146  1.00  0.00     0.074 A 
ATOM     29  C   UNL     1      12.397 -11.254  13.016  1.00  0.00     0.029 A 
ATOM     30  N   UNL     1      12.768 -12.554  11.253  1.00  0.00    -0.354 N 
ATOM     31  N   UNL     1      13.122 -15.128   9.867  1.00  0.00    -0.248 NA
ATOM     32  C   UNL     1      13.316 -17.458   9.922  1.00  0.00     0.031 C 
ATOM     33  C   UNL     1      12.523 -12.577  13.459  1.00  0.00     0.029 A 
ATOM     34  C   UNL     1      12.721 -13.393  12.357  1.00  0.00     0.049 A 
ATOM     35  H   UNL     1      12.907 -12.852  10.325  1.00  0.00     0.167 HD
ATOM     36  C   UNL     1      13.016 -15.563  11.184  1.00  0.00     0.074 A 
ATOM     37  C   UNL     1      13.114 -17.009  11.152  1.00  0.00     0.031 C 
ATOM     38  C   UNL     1      12.845 -14.833  12.316  1.00  0.00     0.034 A 
BRANCH  25  39
ATOM     39  C   UNL     1      12.523  -8.702  11.346  1.00  0.00     0.023 A 
ATOM     40  C   UNL     1      11.472  -7.827  11.018  1.00  0.00     0.031 A 
ATOM     41  C   UNL     1      13.521  -8.228  12.217  1.00  0.00     0.131 A 
ATOM     42  C   UNL     1      11.488  -6.503  11.486  1.00  0.00     0.055 A 
ATOM     43  C   UNL     1      13.487  -6.936  12.747  1.00  0.00     0.041 A 
ATOM     44  F   UNL     1      14.561  -9.008  12.554  1.00  0.00    -0.206 F 
ATOM     45  C   UNL     1      12.476  -6.059  12.367  1.00  0.00     0.022 A 
BRANCH  42  46
ATOM     46  S   UNL     1      10.294  -5.324  10.794  1.00  0.00     0.124 S 
ATOM     47  O   UNL     1      10.550  -5.448   9.361  1.00  0.00    -0.237 OA
ATOM     48  O   UNL     1       9.020  -5.854  11.264  1.00  0.00    -0.237 OA
ATOM     49  O   UNL     1      10.694  -4.047  11.380  1.00  0.00    -0.744 OA
ENDBRANCH  42  46
ENDBRANCH  25  39
BRANCH  26  50
ATOM     50  C   UNL     1      13.606 -17.676   7.013  1.00  0.00     0.023 A 
ATOM     51  C   UNL     1      12.573 -18.625   7.016  1.00  0.00     0.031 A 
ATOM     52  C   UNL     1      14.817 -18.015   6.383  1.00  0.00     0.131 A 
ATOM     53  C   UNL     1      12.779 -19.880   6.423  1.00  0.00     0.055 A 
ATOM     54  C   UNL     1      15.001 -19.246   5.755  1.00  0.00     0.041 A 
ATOM     55  F   UNL     1      15.832 -17.136   6.346  1.00  0.00    -0.206 F 
ATOM     56  C   UNL     1      13.980 -20.191   5.780  1.00  0.00     0.022 A 
BRANCH  53  57
ATOM     57  S   UNL     1      11.467 -21.125   6.545  1.00  0.00     0.124 S 
ATOM     58  O   UNL     1      11.345 -21.290   7.989  1.00  0.00    -0.237 OA
ATOM     59  O   UNL     1      10.352 -20.459   5.879  1.00  0.00    -0.237 OA
ATOM     60  O   UNL     1      12.019 -22.273   5.829  1.00  0.00    -0.744 OA
ENDBRANCH  53  57
ENDBRANCH  26  50
BRANCH  38  61
ATOM     61  C   UNL     1      12.717 -15.605  13.606  1.00  0.00     0.023 A 
ATOM     62  C   UNL     1      13.796 -16.327  14.147  1.00  0.00     0.031 A 
ATOM     63  C   UNL     1      11.486 -15.646  14.284  1.00  0.00     0.131 A 
ATOM     64  C   UNL     1      13.607 -17.108  15.297  1.00  0.00     0.055 A 
ATOM     65  C   UNL     1      11.319 -16.379  15.459  1.00  0.00     0.041 A 
ATOM     66  F   UNL     1      10.422 -14.979  13.809  1.00  0.00    -0.206 F 
ATOM     67  C   UNL     1      12.379 -17.127  15.964  1.00  0.00     0.022 A 
BRANCH  64  68
ATOM     68  S   UNL     1      14.959 -18.180  15.855  1.00  0.00     0.124 S 
ATOM     69  O   UNL     1      15.191 -19.014  14.680  1.00  0.00    -0.237 OA
ATOM     70  O   UNL     1      16.010 -17.219  16.172  1.00  0.00    -0.237 OA
ATOM     71  O   UNL     1      14.391 -18.878  17.007  1.00  0.00    -0.744 OA
ENDBRANCH  64  68
ENDBRANCH  38  61
ENDBRANCH  12  13
ENDBRANCH   5   7
ENDBRANCH   2   3
ENDBRANCH   1   2
BRANCH   1  72
ATOM     72  C   UNL     1       9.915  -6.037   0.595  1.00  0.00     0.023 C 
BRANCH  72  73
ATOM     73  C   UNL     1       8.915  -6.492  -0.460  1.00  0.00     0.116 C 
BRANCH  73  74
ATOM     74  N   UNL     1       7.544  -6.582   0.015  1.00  0.00    -0.354 N 
ATOM     75  C   UNL     1       6.414  -6.757  -0.751  1.00  0.00     0.242 C 
ATOM     76  H   UNL     1       7.410  -6.509   0.988  1.00  0.00     0.163 HD
ATOM     77  O   UNL     1       5.334  -6.974  -0.200  1.00  0.00    -0.273 OA
BRANCH  75  78
ATOM     78  C   UNL     1       6.563  -6.702  -2.286  1.00  0.00     0.177 C 
ATOM     79  C   UNL     1       5.415  -5.876  -2.891  1.00  0.00     0.069 C 
ATOM     80  N   UNL     1       6.487  -7.967  -3.027  1.00  0.00    -0.324 N 
ATOM     81  C   UNL     1       5.409  -6.314  -4.347  1.00  0.00     0.136 C 
ATOM     82  C   UNL     1       5.733  -7.810  -4.270  1.00  0.00     0.152 C 
BRANCH  80  83
ATOM     83  C   UNL     1       7.168  -9.091  -2.602  1.00  0.00     0.254 C 
ATOM     84  O   UNL     1       7.714  -9.189  -1.508  1.00  0.00    -0.269 OA
BRANCH  83  85
ATOM     85  C   UNL     1       7.283 -10.255  -3.495  1.00  0.00     0.040 A 
ATOM     86  C   UNL     1       6.771 -11.486  -3.075  1.00  0.00     0.014 A 
ATOM     87  C   UNL     1       8.075 -10.169  -4.644  1.00  0.00     0.014 A 
ATOM     88  C   UNL     1       7.029 -12.632  -3.828  1.00  0.00     0.001 A 
ATOM     89  C   UNL     1       8.329 -11.317  -5.393  1.00  0.00     0.001 A 
ATOM     90  C   UNL     1       7.808 -12.546  -4.984  1.00  0.00     0.000 A 
ENDBRANCH  83  85
ENDBRANCH  80  83
BRANCH  81  91
ATOM     91  O   UNL     1       6.412  -5.599  -5.075  1.00  0.00    -0.391 OA
ATOM     92  H   UNL     1       7.276  -5.738  -4.656  1.00  0.00     0.211 HD
ENDBRANCH  81  91
ENDBRANCH  75  78
ENDBRANCH  73  74
ENDBRANCH  72  73
ENDBRANCH   1  72
TORSDOF 17
