REMARK SMILES O=C(NCCCCNC(=O)C1(Cc2ccccc2Cl)CCN(c2ncnc3[nH]ccc23)CC1)c1ccc(-c2c3nc(c(-c4cc(S(=O)(=O)[O-])ccc4F)c4ccc([nH]4)c(-c4cc(S(=O)(=O)[O-])ccc4F)c4nc(c(-c5cc(S(=O)(=O)[O-])ccc5F)c5ccc2[nH]5)C=C4)C=C3)cc1
REMARK SMILES IDX 5 1 4 2 3 3 1 4 2 5 34 7 35 8 96 9 36 10 95 11 37 12 38 13
REMARK SMILES IDX 39 14 89 15 40 16 94 17 88 18 90 19 41 20 93 21 87 22 86 23
REMARK SMILES IDX 42 25 74 26 54 27 73 28 55 29 58 30 72 31 91 32 56 33 57 34
REMARK SMILES IDX 71 36 92 37 59 38 43 39 44 40 52 41 45 42 51 43 53 44 50 45
REMARK SMILES IDX 46 46 47 47 48 48 49 49 75 50 76 51 84 52 77 53 83 54 85 55
REMARK SMILES IDX 82 56 78 57 79 58 80 59 81 60 60 61 61 62 69 63 62 64 68 65
REMARK SMILES IDX 70 66 67 67 63 68 64 69 65 70 66 71 6 72 7 73 8 74 9 75
REMARK SMILES IDX 10 77 11 78 20 79 33 80 21 81 32 82 22 83 12 84 13 85 14 86
REMARK SMILES IDX 18 87 15 88 17 89 19 90 16 91 23 92 24 93 31 94 25 95 27 96
REMARK SMILES IDX 30 97 26 98 28 99 29 100
REMARK H PARENT 3 6 90 24 58 35 8 76 28 101
REMARK Flexibility Score: inf
ROOT
ATOM      1  C   UNL     1       4.862   1.221  -2.187  1.00  0.00     0.023 C 
ENDROOT
BRANCH   1   2
ATOM      2  C   UNL     1       4.454   0.853  -0.775  1.00  0.00     0.116 C 
BRANCH   2   3
ATOM      3  N   UNL     1       3.012   0.823  -0.572  1.00  0.00    -0.352 N 
ATOM      4  O   UNL     1       1.035  -0.081   0.061  1.00  0.00    -0.269 OA
ATOM      5  C   UNL     1       2.261  -0.148   0.055  1.00  0.00     0.251 C 
ATOM      6  H   UNL     1       2.511   1.592  -0.927  1.00  0.00     0.163 HD
BRANCH   5   7
ATOM      7  C   UNL     1       2.960  -1.285   0.687  1.00  0.00     0.039 A 
ATOM      8  C   UNL     1       4.083  -1.049   1.480  1.00  0.00     0.014 A 
ATOM      9  C   UNL     1       2.541  -2.591   0.422  1.00  0.00     0.014 A 
ATOM     10  C   UNL     1       4.894  -2.111   1.845  1.00  0.00     0.010 A 
ATOM     11  C   UNL     1       3.296  -3.667   0.900  1.00  0.00     0.010 A 
ATOM     12  C   UNL     1       4.497  -3.434   1.587  1.00  0.00    -0.014 A 
BRANCH  12  13
ATOM     13  C   UNL     1       5.333  -4.535   2.129  1.00  0.00     0.031 A 
ATOM     14  C   UNL     1       6.031  -5.514   1.226  1.00  0.00     0.074 A 
ATOM     15  C   UNL     1       5.508  -4.587   3.465  1.00  0.00     0.049 A 
ATOM     16  N   UNL     1       6.826  -6.503   1.548  1.00  0.00    -0.248 NA
ATOM     17  C   UNL     1       5.803  -5.376  -0.220  1.00  0.00     0.031 C 
ATOM     18  C   UNL     1       4.867  -3.684   4.428  1.00  0.00     0.029 A 
ATOM     19  N   UNL     1       6.295  -5.391   4.244  1.00  0.00    -0.354 N 
ATOM     20  C   UNL     1       7.180  -7.118   0.353  1.00  0.00     0.074 A 
ATOM     21  C   UNL     1       6.492  -6.403  -0.702  1.00  0.00     0.031 C 
ATOM     22  C   UNL     1       5.345  -3.934   5.654  1.00  0.00     0.029 A 
ATOM     23  C   UNL     1       6.252  -5.070   5.581  1.00  0.00     0.049 A 
ATOM     24  H   UNL     1       6.839  -6.128   3.882  1.00  0.00     0.167 HD
ATOM     25  C   UNL     1       8.005  -8.178   0.160  1.00  0.00     0.034 A 
ATOM     26  C   UNL     1       6.858  -5.640   6.639  1.00  0.00     0.034 A 
ATOM     27  C   UNL     1       8.686  -8.870   1.231  1.00  0.00     0.049 A 
ATOM     28  C   UNL     1       7.759  -6.816   6.392  1.00  0.00     0.074 A 
ATOM     29  C   UNL     1       9.545  -9.954   1.151  1.00  0.00     0.029 A 
ATOM     30  N   UNL     1       8.587  -8.546   2.580  1.00  0.00    -0.354 N 
ATOM     31  N   UNL     1       8.069  -7.392   5.253  1.00  0.00    -0.248 NA
ATOM     32  C   UNL     1       8.389  -7.420   7.570  1.00  0.00     0.031 C 
ATOM     33  C   UNL     1       9.920 -10.317   2.450  1.00  0.00     0.029 A 
ATOM     34  C   UNL     1       9.350  -9.421   3.340  1.00  0.00     0.049 A 
ATOM     35  H   UNL     1       8.052  -7.803   2.943  1.00  0.00     0.167 HD
ATOM     36  C   UNL     1       8.932  -8.430   5.581  1.00  0.00     0.074 A 
ATOM     37  C   UNL     1       9.127  -8.369   7.016  1.00  0.00     0.031 C 
ATOM     38  C   UNL     1       9.504  -9.360   4.774  1.00  0.00     0.034 A 
BRANCH  25  39
ATOM     39  C   UNL     1       8.180  -8.684  -1.252  1.00  0.00     0.023 A 
ATOM     40  C   UNL     1       8.832  -7.925  -2.239  1.00  0.00     0.031 A 
ATOM     41  C   UNL     1       7.691  -9.953  -1.613  1.00  0.00     0.131 A 
ATOM     42  C   UNL     1       8.935  -8.421  -3.549  1.00  0.00     0.055 A 
ATOM     43  C   UNL     1       7.854 -10.468  -2.901  1.00  0.00     0.041 A 
ATOM     44  F   UNL     1       7.042 -10.715  -0.718  1.00  0.00    -0.206 F 
ATOM     45  C   UNL     1       8.472  -9.697  -3.881  1.00  0.00     0.022 A 
BRANCH  42  46
ATOM     46  S   UNL     1       9.597  -7.335  -4.843  1.00  0.00     0.124 S 
ATOM     47  O   UNL     1       8.636  -6.236  -4.827  1.00  0.00    -0.237 OA
ATOM     48  O   UNL     1      10.932  -7.024  -4.344  1.00  0.00    -0.237 OA
ATOM     49  O   UNL     1       9.560  -8.169  -6.044  1.00  0.00    -0.744 OA
ENDBRANCH  42  46
ENDBRANCH  25  39
BRANCH  26  50
ATOM     50  C   UNL     1       6.594  -5.139   8.016  1.00  0.00     0.023 A 
ATOM     51  C   UNL     1       7.622  -4.604   8.807  1.00  0.00     0.031 A 
ATOM     52  C   UNL     1       5.303  -5.214   8.574  1.00  0.00     0.131 A 
ATOM     53  C   UNL     1       7.352  -4.205  10.125  1.00  0.00     0.055 A 
ATOM     54  C   UNL     1       5.028  -4.761   9.863  1.00  0.00     0.041 A 
ATOM     55  F   UNL     1       4.282  -5.713   7.859  1.00  0.00    -0.206 F 
ATOM     56  C   UNL     1       6.060  -4.266  10.653  1.00  0.00     0.022 A 
BRANCH  53  57
ATOM     57  S   UNL     1       8.738  -3.695  11.177  1.00  0.00     0.124 S 
ATOM     58  O   UNL     1       9.637  -4.837  11.063  1.00  0.00    -0.237 OA
ATOM     59  O   UNL     1       9.175  -2.466  10.523  1.00  0.00    -0.237 OA
ATOM     60  O   UNL     1       8.120  -3.515  12.489  1.00  0.00    -0.744 OA
ENDBRANCH  53  57
ENDBRANCH  26  50
BRANCH  38  61
ATOM     61  C   UNL     1      10.396 -10.367   5.451  1.00  0.00     0.023 A 
ATOM     62  C   UNL     1       9.874 -11.317   6.348  1.00  0.00     0.031 A 
ATOM     63  C   UNL     1      11.786 -10.338   5.248  1.00  0.00     0.131 A 
ATOM     64  C   UNL     1      10.744 -12.150   7.065  1.00  0.00     0.055 A 
ATOM     65  C   UNL     1      12.642 -11.211   5.920  1.00  0.00     0.041 A 
ATOM     66  F   UNL     1      12.335  -9.449   4.405  1.00  0.00    -0.206 F 
ATOM     67  C   UNL     1      12.123 -12.112   6.847  1.00  0.00     0.022 A 
BRANCH  64  68
ATOM     68  S   UNL     1      10.056 -13.202   8.372  1.00  0.00     0.124 S 
ATOM     69  O   UNL     1       9.407 -12.224   9.240  1.00  0.00    -0.237 OA
ATOM     70  O   UNL     1       9.164 -14.083   7.626  1.00  0.00    -0.237 OA
ATOM     71  O   UNL     1      11.233 -13.853   8.944  1.00  0.00    -0.744 OA
ENDBRANCH  64  68
ENDBRANCH  38  61
ENDBRANCH  12  13
ENDBRANCH   5   7
ENDBRANCH   2   3
ENDBRANCH   1   2
BRANCH   1  72
ATOM     72  C   UNL     1       4.352   2.567  -2.665  1.00  0.00     0.023 C 
BRANCH  72  73
ATOM     73  C   UNL     1       4.714   3.772  -1.796  1.00  0.00     0.116 C 
BRANCH  73  74
ATOM     74  N   UNL     1       6.135   4.094  -1.700  1.00  0.00    -0.356 N 
ATOM     75  C   UNL     1       6.918   5.096  -2.213  1.00  0.00     0.226 C 
ATOM     76  H   UNL     1       6.640   3.454  -1.149  1.00  0.00     0.163 HD
ATOM     77  O   UNL     1       8.091   5.138  -1.833  1.00  0.00    -0.274 OA
BRANCH  75  78
ATOM     78  C   UNL     1       6.375   6.147  -3.197  1.00  0.00     0.057 C 
ATOM     79  C   UNL     1       7.496   7.149  -3.664  1.00  0.00     0.039 C 
ATOM     80  C   UNL     1       5.275   6.974  -2.462  1.00  0.00     0.039 C 
ATOM     81  C   UNL     1       7.935   8.214  -2.648  1.00  0.00     0.119 C 
ATOM     82  C   UNL     1       5.869   7.850  -1.359  1.00  0.00     0.119 C 
ATOM     83  N   UNL     1       6.758   8.764  -2.022  1.00  0.00    -0.356 N 
BRANCH  78  84
ATOM     84  C   UNL     1       5.818   5.432  -4.475  1.00  0.00     0.054 C 
BRANCH  84  85
ATOM     85  C   UNL     1       6.814   4.960  -5.535  1.00  0.00    -0.028 A 
ATOM     86  C   UNL     1       6.927   5.736  -6.707  1.00  0.00     0.005 A 
ATOM     87  C   UNL     1       7.626   3.814  -5.445  1.00  0.00     0.044 A 
ATOM     88  C   UNL     1       7.833   5.407  -7.720  1.00  0.00     0.000 A 
ATOM     89  C   UNL     1       8.543   3.496  -6.456  1.00  0.00     0.021 A 
ATOM     90  Cl  UNL     1       7.557   2.680  -4.157  1.00  0.00    -0.084 Cl
ATOM     91  C   UNL     1       8.651   4.292  -7.590  1.00  0.00     0.002 A 
ENDBRANCH  84  85
ENDBRANCH  78  84
BRANCH  83  92
ATOM     92  C   UNL     1       6.547  10.104  -1.843  1.00  0.00     0.141 A 
ATOM     93  N   UNL     1       6.896  10.692  -0.676  1.00  0.00    -0.219 NA
ATOM     94  C   UNL     1       5.790  10.854  -2.761  1.00  0.00     0.061 A 
ATOM     95  C   UNL     1       6.518  11.967  -0.458  1.00  0.00     0.226 A 
ATOM     96  C   UNL     1       5.457  12.147  -2.392  1.00  0.00     0.142 A 
ATOM     97  C   UNL     1       5.184  10.622  -4.029  1.00  0.00     0.033 A 
ATOM     98  N   UNL     1       5.794  12.775  -1.256  1.00  0.00    -0.218 NA
ATOM     99  N   UNL     1       4.681  12.685  -3.382  1.00  0.00    -0.346 N 
ATOM    100  C   UNL     1       4.502  11.766  -4.386  1.00  0.00     0.085 A 
ATOM    101  H   UNL     1       4.307  13.596  -3.376  1.00  0.00     0.167 HD
ENDBRANCH  83  92
ENDBRANCH  75  78
ENDBRANCH  73  74
ENDBRANCH  72  73
ENDBRANCH   1  72
TORSDOF 17
