REMARK SMILES C[C@H]1CN(C(=O)N2CC[NH+]([C@@H](C)C(=O)NCCCCNC(=O)c3ccc(-c4c5nc(c(-c6cc(S(=O)(=O)[O-])ccc6F)c6ccc([nH]6)c(-c6cc(S(=O)(=O)[O-])ccc6F)c6nc(c(-c7cc(S(=O)(=O)[O-])ccc7F)c7ccc4[nH]7)C=C6)C=C5)cc3)CC2)C[C@@H]1C
REMARK SMILES IDX 18 1 17 2 16 3 15 4 13 5 14 6 11 8 12 9 10 10 1 11 2 12 3 13
REMARK SMILES IDX 89 14 4 15 88 16 90 17 5 18 6 19 7 20 8 21 87 22 9 23 86 24
REMARK SMILES IDX 19 26 20 27 21 28 22 30 23 31 24 32 85 33 25 34 84 35 26 36
REMARK SMILES IDX 27 37 28 38 78 39 29 40 83 41 77 42 79 43 30 44 82 45 76 46
REMARK SMILES IDX 75 47 31 49 63 50 43 51 62 52 44 53 47 54 61 55 80 56 45 57
REMARK SMILES IDX 46 58 60 60 81 61 48 62 32 63 33 64 41 65 34 66 40 67 42 68
REMARK SMILES IDX 39 69 35 70 36 71 37 72 38 73 64 74 65 75 73 76 66 77 72 78
REMARK SMILES IDX 74 79 71 80 67 81 68 82 69 83 70 84 49 85 50 86 58 87 51 88
REMARK SMILES IDX 57 89 59 90 56 91 52 92 53 93 54 94 55 95
REMARK H PARENT 15 7 10 25 20 29 79 48 47 59
REMARK Flexibility Score: inf
ROOT
ATOM      1  C   UNL     1       7.169   5.556   6.015  1.00  0.00     0.023 C 
ENDROOT
BRANCH   1   2
ATOM      2  C   UNL     1       5.784   5.093   5.591  1.00  0.00     0.023 C 
BRANCH   2   3
ATOM      3  C   UNL     1       4.650   5.463   6.556  1.00  0.00     0.116 C 
BRANCH   3   4
ATOM      4  N   UNL     1       4.025   6.710   6.164  1.00  0.00    -0.351 N 
ATOM      5  C   UNL     1       2.828   6.988   5.574  1.00  0.00     0.278 C 
ATOM      6  O   UNL     1       2.668   8.159   5.203  1.00  0.00    -0.268 OA
ATOM      7  H   UNL     1       4.568   7.508   6.360  1.00  0.00     0.163 HD
BRANCH   5   8
ATOM      8  C   UNL     1       1.680   5.954   5.397  1.00  0.00     0.271 C 
ATOM      9  C   UNL     1       1.295   5.231   6.687  1.00  0.00     0.086 C 
BRANCH   8  10
ATOM     10  N   UNL     1       1.742   5.211   4.113  1.00  0.00    -0.322 N 
ATOM     11  C   UNL     1      -1.112  -0.463   1.053  1.00  0.00     0.010 C 
ATOM     12  C   UNL     1       0.417  -0.449   1.078  1.00  0.00     0.010 C 
ATOM     13  C   UNL     1       0.929   0.731   1.902  1.00  0.00     0.125 C 
ATOM     14  C   UNL     1       0.998  -1.667   1.823  1.00  0.00     0.010 C 
ATOM     15  N   UNL     1       1.069   0.209   3.253  1.00  0.00    -0.324 N 
ATOM     16  C   UNL     1       0.942  -1.237   3.291  1.00  0.00     0.125 C 
ATOM     17  C   UNL     1       2.441  -1.955   1.400  1.00  0.00     0.010 C 
ATOM     18  C   UNL     1       1.582   0.911   4.316  1.00  0.00     0.320 C 
ATOM     19  O   UNL     1       2.023   0.377   5.330  1.00  0.00    -0.248 OA
ATOM     20  N   UNL     1       1.631   2.276   4.121  1.00  0.00    -0.313 N 
ATOM     21  C   UNL     1       2.847   2.962   4.511  1.00  0.00     0.183 C 
ATOM     22  C   UNL     1       0.401   3.042   4.303  1.00  0.00     0.183 C 
ATOM     23  C   UNL     1       2.899   4.350   3.861  1.00  0.00     0.284 C 
ATOM     24  C   UNL     1       0.508   4.483   3.760  1.00  0.00     0.284 C 
ATOM     25  H   UNL     1       1.862   6.010   3.491  1.00  0.00     0.348 HD
ENDBRANCH   8  10
ENDBRANCH   5   8
ENDBRANCH   3   4
ENDBRANCH   2   3
ENDBRANCH   1   2
BRANCH   1  26
ATOM     26  C   UNL     1       7.701   4.881   7.266  1.00  0.00     0.116 C 
BRANCH  26  27
ATOM     27  N   UNL     1       7.833   3.436   7.146  1.00  0.00    -0.352 N 
ATOM     28  C   UNL     1       8.829   2.632   7.666  1.00  0.00     0.251 C 
ATOM     29  H   UNL     1       7.130   2.977   6.633  1.00  0.00     0.163 HD
ATOM     30  O   UNL     1       8.865   1.442   7.412  1.00  0.00    -0.269 OA
BRANCH  28  31
ATOM     31  C   UNL     1       9.877   3.272   8.492  1.00  0.00     0.039 A 
ATOM     32  C   UNL     1      11.218   3.061   8.170  1.00  0.00     0.014 A 
ATOM     33  C   UNL     1       9.519   4.164   9.505  1.00  0.00     0.014 A 
ATOM     34  C   UNL     1      12.202   3.811   8.817  1.00  0.00     0.010 A 
ATOM     35  C   UNL     1      10.487   4.984  10.065  1.00  0.00     0.010 A 
ATOM     36  C   UNL     1      11.841   4.807   9.739  1.00  0.00    -0.014 A 
BRANCH  36  37
ATOM     37  C   UNL     1      12.860   5.650  10.414  1.00  0.00     0.031 A 
ATOM     38  C   UNL     1      12.973   5.608  11.914  1.00  0.00     0.074 A 
ATOM     39  C   UNL     1      13.610   6.509   9.698  1.00  0.00     0.049 A 
ATOM     40  N   UNL     1      13.709   6.334  12.714  1.00  0.00    -0.248 NA
ATOM     41  C   UNL     1      12.090   4.658  12.608  1.00  0.00     0.031 C 
ATOM     42  C   UNL     1      13.534   6.697   8.247  1.00  0.00     0.029 A 
ATOM     43  N   UNL     1      14.576   7.397  10.097  1.00  0.00    -0.354 N 
ATOM     44  C   UNL     1      13.350   5.954  14.003  1.00  0.00     0.074 A 
ATOM     45  C   UNL     1      12.271   4.999  13.872  1.00  0.00     0.031 C 
ATOM     46  C   UNL     1      14.435   7.622   7.876  1.00  0.00     0.029 A 
ATOM     47  C   UNL     1      15.128   8.116   9.062  1.00  0.00     0.049 A 
ATOM     48  H   UNL     1      14.849   7.510  11.036  1.00  0.00     0.167 HD
ATOM     49  C   UNL     1      13.894   6.336  15.186  1.00  0.00     0.034 A 
ATOM     50  C   UNL     1      16.084   9.065   9.072  1.00  0.00     0.034 A 
ATOM     51  C   UNL     1      14.996   7.261  15.287  1.00  0.00     0.049 A 
ATOM     52  C   UNL     1      16.717   9.440  10.386  1.00  0.00     0.074 A 
ATOM     53  C   UNL     1      15.681   7.671  16.416  1.00  0.00     0.029 A 
ATOM     54  N   UNL     1      15.575   7.922  14.210  1.00  0.00    -0.354 N 
ATOM     55  N   UNL     1      16.418   9.024  11.596  1.00  0.00    -0.248 NA
ATOM     56  C   UNL     1      17.831  10.395  10.334  1.00  0.00     0.031 C 
ATOM     57  C   UNL     1      16.639   8.617  16.029  1.00  0.00     0.029 A 
ATOM     58  C   UNL     1      16.597   8.748  14.649  1.00  0.00     0.049 A 
ATOM     59  H   UNL     1      15.299   7.818  13.270  1.00  0.00     0.167 HD
ATOM     60  C   UNL     1      17.326   9.647  12.447  1.00  0.00     0.074 A 
ATOM     61  C   UNL     1      18.189  10.456  11.609  1.00  0.00     0.031 C 
ATOM     62  C   UNL     1      17.441   9.555  13.797  1.00  0.00     0.034 A 
BRANCH  49  63
ATOM     63  C   UNL     1      13.280   5.760  16.442  1.00  0.00     0.023 A 
ATOM     64  C   UNL     1      13.233   4.372  16.670  1.00  0.00     0.031 A 
ATOM     65  C   UNL     1      12.655   6.597  17.382  1.00  0.00     0.131 A 
ATOM     66  C   UNL     1      12.474   3.859  17.732  1.00  0.00     0.055 A 
ATOM     67  C   UNL     1      11.989   6.083  18.498  1.00  0.00     0.041 A 
ATOM     68  F   UNL     1      12.649   7.929  17.216  1.00  0.00    -0.206 F 
ATOM     69  C   UNL     1      11.874   4.706  18.665  1.00  0.00     0.022 A 
BRANCH  66  70
ATOM     70  S   UNL     1      12.117   2.080  17.755  1.00  0.00     0.124 S 
ATOM     71  O   UNL     1      11.461   1.897  16.461  1.00  0.00    -0.237 OA
ATOM     72  O   UNL     1      13.445   1.493  17.887  1.00  0.00    -0.237 OA
ATOM     73  O   UNL     1      11.243   1.921  18.915  1.00  0.00    -0.744 OA
ENDBRANCH  66  70
ENDBRANCH  49  63
BRANCH  50  74
ATOM     74  C   UNL     1      16.512   9.708   7.800  1.00  0.00     0.023 A 
ATOM     75  C   UNL     1      17.782   9.461   7.255  1.00  0.00     0.031 A 
ATOM     76  C   UNL     1      15.655  10.584   7.110  1.00  0.00     0.131 A 
ATOM     77  C   UNL     1      18.174  10.110   6.073  1.00  0.00     0.055 A 
ATOM     78  C   UNL     1      16.035  11.195   5.914  1.00  0.00     0.041 A 
ATOM     79  F   UNL     1      14.425  10.840   7.582  1.00  0.00    -0.206 F 
ATOM     80  C   UNL     1      17.305  10.966   5.393  1.00  0.00     0.022 A 
BRANCH  77  81
ATOM     81  S   UNL     1      19.859   9.848   5.454  1.00  0.00     0.124 S 
ATOM     82  O   UNL     1      20.664  10.363   6.555  1.00  0.00    -0.237 OA
ATOM     83  O   UNL     1      19.890   8.402   5.259  1.00  0.00    -0.237 OA
ATOM     84  O   UNL     1      19.898  10.640   4.227  1.00  0.00    -0.744 OA
ENDBRANCH  77  81
ENDBRANCH  50  74
BRANCH  62  85
ATOM     85  C   UNL     1      18.573  10.317  14.439  1.00  0.00     0.023 A 
ATOM     86  C   UNL     1      18.596  11.722  14.472  1.00  0.00     0.031 A 
ATOM     87  C   UNL     1      19.649   9.621  15.018  1.00  0.00     0.131 A 
ATOM     88  C   UNL     1      19.700  12.388  15.023  1.00  0.00     0.055 A 
ATOM     89  C   UNL     1      20.718  10.289  15.615  1.00  0.00     0.041 A 
ATOM     90  F   UNL     1      19.678   8.279  15.012  1.00  0.00    -0.206 F 
ATOM     91  C   UNL     1      20.754  11.681  15.609  1.00  0.00     0.022 A 
BRANCH  88  92
ATOM     92  S   UNL     1      19.786  14.194  14.884  1.00  0.00     0.124 S 
ATOM     93  O   UNL     1      19.703  14.392  13.440  1.00  0.00    -0.237 OA
ATOM     94  O   UNL     1      18.623  14.622  15.654  1.00  0.00    -0.237 OA
ATOM     95  O   UNL     1      21.079  14.523  15.480  1.00  0.00    -0.744 OA
ENDBRANCH  88  92
ENDBRANCH  62  85
ENDBRANCH  36  37
ENDBRANCH  28  31
ENDBRANCH  26  27
ENDBRANCH   1  26
TORSDOF 15
