REMARK SMILES Cc1cc(C(=O)NCCCCNC(=O)c2ccc(-c3c4nc(c(-c5cc(S(=O)(=O)[O-])ccc5F)c5ccc([nH]5)c(-c5cc(S(=O)(=O)[O-])ccc5F)c5nc(c(-c6cc(S(=O)(=O)[O-])ccc6F)c6ccc3[nH]6)C=C5)C=C4)cc2)ccc1-c1ccc(C(=O)N2CCCCC2)cc1
REMARK SMILES IDX 10 1 9 2 8 3 7 4 5 5 6 6 4 8 1 9 2 10 3 11 80 12 79 13 78 14
REMARK SMILES IDX 81 15 82 16 94 17 83 18 93 19 84 20 85 21 86 22 87 23 88 24
REMARK SMILES IDX 92 25 89 26 91 27 90 28 11 29 12 30 13 31 14 33 15 34 16 35
REMARK SMILES IDX 77 36 17 37 76 38 18 39 19 40 20 41 70 42 21 43 75 44 69 45
REMARK SMILES IDX 71 46 22 47 74 48 68 49 67 50 23 52 55 53 35 54 54 55 36 56
REMARK SMILES IDX 39 57 53 58 72 59 37 60 38 61 52 63 73 64 40 65 24 66 25 67
REMARK SMILES IDX 33 68 26 69 32 70 34 71 31 72 27 73 28 74 29 75 30 76 56 77
REMARK SMILES IDX 57 78 65 79 58 80 64 81 66 82 63 83 59 84 60 85 61 86 62 87
REMARK SMILES IDX 41 88 42 89 50 90 43 91 49 92 51 93 48 94 44 95 45 96 46 97
REMARK SMILES IDX 47 98
REMARK H PARENT 7 7 12 32 71 51 39 62
REMARK Flexibility Score: inf
ROOT
ATOM      1  C   UNL     1      -5.697  -1.837  -2.030  1.00  0.00     0.023 C 
ENDROOT
BRANCH   1   2
ATOM      2  C   UNL     1      -4.916  -0.819  -1.195  1.00  0.00     0.023 C 
BRANCH   2   3
ATOM      3  C   UNL     1      -4.356  -1.367   0.129  1.00  0.00     0.116 C 
BRANCH   3   4
ATOM      4  N   UNL     1      -3.300  -2.348  -0.088  1.00  0.00    -0.352 N 
ATOM      5  C   UNL     1      -1.936  -2.251  -0.193  1.00  0.00     0.251 C 
ATOM      6  O   UNL     1      -1.313  -3.307  -0.340  1.00  0.00    -0.269 OA
ATOM      7  H   UNL     1      -3.634  -3.269  -0.178  1.00  0.00     0.163 HD
BRANCH   5   8
ATOM      8  C   UNL     1      -1.168  -0.970  -0.139  1.00  0.00     0.040 A 
ATOM      9  C   UNL     1       2.531  -0.146   0.302  1.00  0.00     0.045 C 
ATOM     10  C   UNL     1       1.054   0.072   0.101  1.00  0.00    -0.042 A 
ATOM     11  C   UNL     1       0.221  -1.066   0.066  1.00  0.00     0.018 A 
ATOM     12  C   UNL     1       0.486   1.348  -0.096  1.00  0.00    -0.015 A 
ATOM     13  C   UNL     1      -0.897   1.436  -0.298  1.00  0.00     0.010 A 
ATOM     14  C   UNL     1      -1.706   0.298  -0.326  1.00  0.00     0.014 A 
BRANCH  12  15
ATOM     15  C   UNL     1       1.267   2.590  -0.112  1.00  0.00    -0.018 A 
ATOM     16  C   UNL     1       2.203   2.830  -1.126  1.00  0.00     0.009 A 
ATOM     17  C   UNL     1       1.087   3.563   0.883  1.00  0.00     0.009 A 
ATOM     18  C   UNL     1       2.982   3.987  -1.114  1.00  0.00     0.014 A 
ATOM     19  C   UNL     1       1.850   4.734   0.885  1.00  0.00     0.014 A 
ATOM     20  C   UNL     1       2.806   4.951  -0.113  1.00  0.00     0.040 A 
BRANCH  20  21
ATOM     21  C   UNL     1       3.752   6.092   0.036  1.00  0.00     0.253 C 
ATOM     22  O   UNL     1       4.005   6.494   1.171  1.00  0.00    -0.269 OA
ATOM     23  N   UNL     1       4.423   6.574  -1.083  1.00  0.00    -0.339 N 
ATOM     24  C   UNL     1       5.807   6.996  -0.921  1.00  0.00     0.120 C 
ATOM     25  C   UNL     1       3.840   6.713  -2.417  1.00  0.00     0.120 C 
ATOM     26  C   UNL     1       6.038   8.404  -1.447  1.00  0.00     0.022 C 
ATOM     27  C   UNL     1       4.064   8.121  -2.972  1.00  0.00     0.022 C 
ATOM     28  C   UNL     1       5.533   8.533  -2.881  1.00  0.00     0.004 C 
ENDBRANCH  20  21
ENDBRANCH  12  15
ENDBRANCH   5   8
ENDBRANCH   3   4
ENDBRANCH   2   3
ENDBRANCH   1   2
BRANCH   1  29
ATOM     29  C   UNL     1      -7.025  -2.235  -1.400  1.00  0.00     0.116 C 
BRANCH  29  30
ATOM     30  N   UNL     1      -8.203  -1.583  -1.956  1.00  0.00    -0.352 N 
ATOM     31  C   UNL     1      -9.517  -1.660  -1.511  1.00  0.00     0.251 C 
ATOM     32  H   UNL     1      -8.049  -1.016  -2.746  1.00  0.00     0.163 HD
ATOM     33  O   UNL     1     -10.439  -1.176  -2.145  1.00  0.00    -0.269 OA
BRANCH  31  34
ATOM     34  C   UNL     1      -9.769  -2.251  -0.172  1.00  0.00     0.039 A 
ATOM     35  C   UNL     1     -10.410  -1.442   0.774  1.00  0.00     0.014 A 
ATOM     36  C   UNL     1      -9.150  -3.437   0.214  1.00  0.00     0.014 A 
ATOM     37  C   UNL     1     -10.212  -1.693   2.130  1.00  0.00     0.010 A 
ATOM     38  C   UNL     1      -8.866  -3.625   1.554  1.00  0.00     0.010 A 
ATOM     39  C   UNL     1      -9.336  -2.712   2.506  1.00  0.00    -0.014 A 
BRANCH  39  40
ATOM     40  C   UNL     1      -8.707  -2.762   3.824  1.00  0.00     0.031 A 
ATOM     41  C   UNL     1      -8.992  -3.853   4.779  1.00  0.00     0.074 A 
ATOM     42  C   UNL     1      -7.783  -1.831   4.151  1.00  0.00     0.049 A 
ATOM     43  N   UNL     1      -8.836  -3.765   6.058  1.00  0.00    -0.248 NA
ATOM     44  C   UNL     1      -9.532  -5.138   4.357  1.00  0.00     0.031 C 
ATOM     45  C   UNL     1      -6.846  -1.863   5.270  1.00  0.00     0.029 A 
ATOM     46  N   UNL     1      -7.682  -0.535   3.654  1.00  0.00    -0.354 N 
ATOM     47  C   UNL     1      -8.934  -5.035   6.580  1.00  0.00     0.074 A 
ATOM     48  C   UNL     1      -9.461  -5.831   5.497  1.00  0.00     0.031 C 
ATOM     49  C   UNL     1      -6.452  -0.609   5.541  1.00  0.00     0.029 A 
ATOM     50  C   UNL     1      -7.226   0.283   4.699  1.00  0.00     0.049 A 
ATOM     51  H   UNL     1      -7.892  -0.246   2.736  1.00  0.00     0.167 HD
ATOM     52  C   UNL     1      -8.410  -5.295   7.815  1.00  0.00     0.034 A 
ATOM     53  C   UNL     1      -7.974   1.335   5.143  1.00  0.00     0.034 A 
ATOM     54  C   UNL     1      -7.920  -4.074   8.464  1.00  0.00     0.049 A 
ATOM     55  C   UNL     1      -8.386   1.218   6.593  1.00  0.00     0.074 A 
ATOM     56  C   UNL     1      -6.651  -3.556   8.665  1.00  0.00     0.029 A 
ATOM     57  N   UNL     1      -8.812  -3.054   8.787  1.00  0.00    -0.354 N 
ATOM     58  N   UNL     1      -8.298   0.119   7.291  1.00  0.00    -0.248 NA
ATOM     59  C   UNL     1      -8.946   2.321   7.367  1.00  0.00     0.031 C 
ATOM     60  C   UNL     1      -6.784  -2.196   9.049  1.00  0.00     0.029 A 
ATOM     61  C   UNL     1      -8.133  -1.894   9.111  1.00  0.00     0.049 A 
ATOM     62  H   UNL     1      -9.792  -3.147   8.784  1.00  0.00     0.167 HD
ATOM     63  C   UNL     1      -8.789   0.329   8.555  1.00  0.00     0.074 A 
ATOM     64  C   UNL     1      -9.156   1.735   8.559  1.00  0.00     0.031 C 
ATOM     65  C   UNL     1      -8.858  -0.681   9.476  1.00  0.00     0.034 A 
BRANCH  52  66
ATOM     66  C   UNL     1      -8.034  -6.690   8.294  1.00  0.00     0.023 A 
ATOM     67  C   UNL     1      -6.975  -6.842   9.216  1.00  0.00     0.031 A 
ATOM     68  C   UNL     1      -8.608  -7.896   7.849  1.00  0.00     0.131 A 
ATOM     69  C   UNL     1      -6.456  -8.110   9.546  1.00  0.00     0.055 A 
ATOM     70  C   UNL     1      -8.055  -9.155   8.125  1.00  0.00     0.041 A 
ATOM     71  F   UNL     1      -9.767  -7.923   7.182  1.00  0.00    -0.206 F 
ATOM     72  C   UNL     1      -6.959  -9.267   8.964  1.00  0.00     0.022 A 
BRANCH  69  73
ATOM     73  S   UNL     1      -5.106  -8.228  10.754  1.00  0.00     0.124 S 
ATOM     74  O   UNL     1      -4.062  -7.420  10.134  1.00  0.00    -0.237 OA
ATOM     75  O   UNL     1      -5.721  -7.679  11.957  1.00  0.00    -0.237 OA
ATOM     76  O   UNL     1      -4.825  -9.663  10.808  1.00  0.00    -0.744 OA
ENDBRANCH  69  73
ENDBRANCH  52  66
BRANCH  53  77
ATOM     77  C   UNL     1      -8.753   1.995   4.057  1.00  0.00     0.023 A 
ATOM     78  C   UNL     1      -8.014   2.506   2.969  1.00  0.00     0.031 A 
ATOM     79  C   UNL     1     -10.123   1.772   3.873  1.00  0.00     0.131 A 
ATOM     80  C   UNL     1      -8.600   2.610   1.700  1.00  0.00     0.055 A 
ATOM     81  C   UNL     1     -10.725   1.952   2.619  1.00  0.00     0.041 A 
ATOM     82  F   UNL     1     -10.871   1.254   4.857  1.00  0.00    -0.206 F 
ATOM     83  C   UNL     1      -9.953   2.328   1.515  1.00  0.00     0.022 A 
BRANCH  80  84
ATOM     84  S   UNL     1      -7.503   2.833   0.266  1.00  0.00     0.124 S 
ATOM     85  O   UNL     1      -7.363   4.283   0.210  1.00  0.00    -0.237 OA
ATOM     86  O   UNL     1      -6.304   2.092   0.658  1.00  0.00    -0.237 OA
ATOM     87  O   UNL     1      -8.248   2.225  -0.833  1.00  0.00    -0.744 OA
ENDBRANCH  80  84
ENDBRANCH  53  77
BRANCH  65  88
ATOM     88  C   UNL     1      -9.531  -0.608  10.834  1.00  0.00     0.023 A 
ATOM     89  C   UNL     1     -10.469   0.373  11.188  1.00  0.00     0.031 A 
ATOM     90  C   UNL     1      -9.291  -1.603  11.816  1.00  0.00     0.131 A 
ATOM     91  C   UNL     1     -11.056   0.395  12.468  1.00  0.00     0.055 A 
ATOM     92  C   UNL     1      -9.932  -1.623  13.058  1.00  0.00     0.041 A 
ATOM     93  F   UNL     1      -8.426  -2.607  11.609  1.00  0.00    -0.206 F 
ATOM     94  C   UNL     1     -10.811  -0.610  13.400  1.00  0.00     0.022 A 
BRANCH  91  95
ATOM     95  S   UNL     1     -12.103   1.807  12.912  1.00  0.00     0.124 S 
ATOM     96  O   UNL     1     -11.162   2.919  12.823  1.00  0.00    -0.237 OA
ATOM     97  O   UNL     1     -13.136   1.767  11.881  1.00  0.00    -0.237 OA
ATOM     98  O   UNL     1     -12.561   1.488  14.262  1.00  0.00    -0.744 OA
ENDBRANCH  91  95
ENDBRANCH  65  88
ENDBRANCH  39  40
ENDBRANCH  31  34
ENDBRANCH  29  30
ENDBRANCH   1  29
TORSDOF 16
