REMARK SMILES Nc1ccc(C(=O)N2Cc3nc[nH]c3C[C@H]2C(=O)NCCCCNC(=O)c2ccc(-c3c4nc(c(-c5cc(S(=O)(=O)[O-])ccc5F)c5ccc([nH]5)c(-c5cc(S(=O)(=O)[O-])ccc5F)c5nc(c(-c6cc(S(=O)(=O)[O-])ccc6F)c6ccc3[nH]6)C=C5)C=C4)cc2)cc1
REMARK SMILES IDX 21 1 20 2 19 3 17 4 18 5 16 7 8 8 9 9 10 10 15 11 11 12
REMARK SMILES IDX 14 13 12 14 13 15 6 17 7 18 5 19 2 20 3 21 91 22 4 23 90 24
REMARK SMILES IDX 1 25 22 28 23 29 24 30 25 31 26 33 27 34 28 35 89 36 29 37
REMARK SMILES IDX 88 38 30 39 31 40 32 41 82 42 33 43 87 44 81 45 83 46 34 47
REMARK SMILES IDX 86 48 80 49 79 50 35 52 67 53 47 54 66 55 48 56 51 57 65 58
REMARK SMILES IDX 84 59 49 60 50 61 64 63 85 64 52 65 36 66 37 67 45 68 38 69
REMARK SMILES IDX 44 70 46 71 43 72 39 73 40 74 41 75 42 76 68 77 69 78 77 79
REMARK SMILES IDX 70 80 76 81 78 82 75 83 71 84 72 85 73 86 74 87 53 88 54 89
REMARK SMILES IDX 62 90 55 91 61 92 63 93 60 94 56 95 57 96 58 97 59 98
REMARK H PARENT 19 6 13 16 1 26 1 27 24 32 83 51 51 62
REMARK Flexibility Score: inf
ROOT
ATOM      1  C   UNL     1      -4.617   4.308   2.123  1.00  0.00     0.023 C 
ENDROOT
BRANCH   1   2
ATOM      2  C   UNL     1      -4.544   4.638   0.633  1.00  0.00     0.116 C 
BRANCH   2   3
ATOM      3  N   UNL     1      -3.295   4.283  -0.010  1.00  0.00    -0.354 N 
ATOM      4  C   UNL     1      -2.996   3.341  -0.944  1.00  0.00     0.243 C 
ATOM      5  O   UNL     1      -1.990   3.582  -1.629  1.00  0.00    -0.273 OA
ATOM      6  H   UNL     1      -2.524   4.821   0.281  1.00  0.00     0.163 HD
BRANCH   4   7
ATOM      7  C   UNL     1      -3.808   2.047  -1.243  1.00  0.00     0.181 C 
ATOM      8  N   UNL     1      -4.122   1.115  -0.101  1.00  0.00    -0.320 N 
ATOM      9  C   UNL     1      -5.445   1.147   0.563  1.00  0.00     0.178 C 
ATOM     10  C   UNL     1      -6.440   1.956  -0.178  1.00  0.00     0.081 A 
ATOM     11  C   UNL     1      -4.998   2.337  -2.210  1.00  0.00     0.091 C 
ATOM     12  N   UNL     1      -7.598   2.447   0.368  1.00  0.00    -0.240 NA
ATOM     13  C   UNL     1      -6.242   2.485  -1.429  1.00  0.00     0.042 A 
ATOM     14  C   UNL     1      -8.099   3.249  -0.549  1.00  0.00     0.197 A 
ATOM     15  N   UNL     1      -7.324   3.279  -1.681  1.00  0.00    -0.348 N 
ATOM     16  H   UNL     1      -7.511   3.774  -2.511  1.00  0.00     0.167 HD
BRANCH   8  17
ATOM     17  C   UNL     1      -3.290   0.070   0.332  1.00  0.00     0.254 C 
ATOM     18  O   UNL     1      -3.727  -0.882   0.983  1.00  0.00    -0.269 OA
BRANCH  17  19
ATOM     19  C   UNL     1      -1.823   0.064   0.089  1.00  0.00     0.040 A 
ATOM     20  C   UNL     1       0.997  -0.076  -0.043  1.00  0.00     0.031 A 
ATOM     21  C   UNL     1       0.221  -1.227  -0.189  1.00  0.00     0.026 A 
ATOM     22  C   UNL     1       0.351   1.130   0.230  1.00  0.00     0.026 A 
ATOM     23  C   UNL     1      -1.178  -1.159  -0.142  1.00  0.00     0.016 A 
ATOM     24  C   UNL     1      -1.044   1.195   0.321  1.00  0.00     0.016 A 
BRANCH  20  25
ATOM     25  N   UNL     1       2.381  -0.152   0.008  1.00  0.00    -0.399 N 
ATOM     26  H   UNL     1       2.835  -1.004  -0.185  1.00  0.00     0.156 HD
ATOM     27  H   UNL     1       2.910   0.646   0.237  1.00  0.00     0.156 HD
ENDBRANCH  20  25
ENDBRANCH  17  19
ENDBRANCH   8  17
ENDBRANCH   4   7
ENDBRANCH   2   3
ENDBRANCH   1   2
BRANCH   1  28
ATOM     28  C   UNL     1      -4.239   5.451   3.075  1.00  0.00     0.023 C 
BRANCH  28  29
ATOM     29  C   UNL     1      -5.101   6.712   2.983  1.00  0.00     0.116 C 
BRANCH  29  30
ATOM     30  N   UNL     1      -6.505   6.507   3.332  1.00  0.00    -0.352 N 
ATOM     31  C   UNL     1      -7.553   7.388   3.099  1.00  0.00     0.251 C 
ATOM     32  H   UNL     1      -6.731   5.658   3.777  1.00  0.00     0.163 HD
ATOM     33  O   UNL     1      -8.562   7.372   3.778  1.00  0.00    -0.269 OA
BRANCH  31  34
ATOM     34  C   UNL     1      -7.399   8.344   1.984  1.00  0.00     0.039 A 
ATOM     35  C   UNL     1      -7.607   9.712   2.161  1.00  0.00     0.014 A 
ATOM     36  C   UNL     1      -6.930   7.837   0.774  1.00  0.00     0.014 A 
ATOM     37  C   UNL     1      -7.226  10.582   1.139  1.00  0.00     0.010 A 
ATOM     38  C   UNL     1      -6.446   8.703  -0.180  1.00  0.00     0.010 A 
ATOM     39  C   UNL     1      -6.604  10.079  -0.019  1.00  0.00    -0.014 A 
BRANCH  39  40
ATOM     40  C   UNL     1      -5.990  10.995  -0.986  1.00  0.00     0.031 A 
ATOM     41  C   UNL     1      -5.114  12.050  -0.400  1.00  0.00     0.074 A 
ATOM     42  C   UNL     1      -6.017  10.828  -2.326  1.00  0.00     0.049 A 
ATOM     43  N   UNL     1      -5.344  13.320  -0.350  1.00  0.00    -0.248 NA
ATOM     44  C   UNL     1      -3.901  11.645   0.327  1.00  0.00     0.031 C 
ATOM     45  C   UNL     1      -6.578   9.715  -3.099  1.00  0.00     0.029 A 
ATOM     46  N   UNL     1      -5.436  11.595  -3.292  1.00  0.00    -0.354 N 
ATOM     47  C   UNL     1      -4.208  13.908   0.201  1.00  0.00     0.074 A 
ATOM     48  C   UNL     1      -3.446  12.824   0.762  1.00  0.00     0.031 C 
ATOM     49  C   UNL     1      -6.105   9.756  -4.364  1.00  0.00     0.029 A 
ATOM     50  C   UNL     1      -5.361  10.990  -4.542  1.00  0.00     0.049 A 
ATOM     51  H   UNL     1      -5.097  12.503  -3.118  1.00  0.00     0.167 HD
ATOM     52  C   UNL     1      -3.900  15.214  -0.045  1.00  0.00     0.034 A 
ATOM     53  C   UNL     1      -4.734  11.456  -5.653  1.00  0.00     0.034 A 
ATOM     54  C   UNL     1      -5.040  15.920  -0.592  1.00  0.00     0.049 A 
ATOM     55  C   UNL     1      -4.658  12.931  -5.506  1.00  0.00     0.074 A 
ATOM     56  C   UNL     1      -6.340  16.127  -0.167  1.00  0.00     0.029 A 
ATOM     57  N   UNL     1      -5.056  16.195  -1.942  1.00  0.00    -0.354 N 
ATOM     58  N   UNL     1      -5.716  13.697  -5.473  1.00  0.00    -0.248 NA
ATOM     59  C   UNL     1      -3.465  13.502  -4.898  1.00  0.00     0.031 C 
ATOM     60  C   UNL     1      -7.133  15.957  -1.341  1.00  0.00     0.029 A 
ATOM     61  C   UNL     1      -6.269  15.761  -2.421  1.00  0.00     0.049 A 
ATOM     62  H   UNL     1      -4.337  16.621  -2.463  1.00  0.00     0.167 HD
ATOM     63  C   UNL     1      -5.459  14.621  -4.472  1.00  0.00     0.074 A 
ATOM     64  C   UNL     1      -4.021  14.515  -4.226  1.00  0.00     0.031 C 
ATOM     65  C   UNL     1      -6.466  15.184  -3.739  1.00  0.00     0.034 A 
BRANCH  52  66
ATOM     66  C   UNL     1      -2.499  15.787  -0.131  1.00  0.00     0.023 A 
ATOM     67  C   UNL     1      -2.382  17.163  -0.419  1.00  0.00     0.031 A 
ATOM     68  C   UNL     1      -1.307  15.038  -0.240  1.00  0.00     0.131 A 
ATOM     69  C   UNL     1      -1.179  17.703  -0.907  1.00  0.00     0.055 A 
ATOM     70  C   UNL     1      -0.093  15.596  -0.656  1.00  0.00     0.041 A 
ATOM     71  F   UNL     1      -1.262  13.716  -0.046  1.00  0.00    -0.206 F 
ATOM     72  C   UNL     1      -0.032  16.927  -1.029  1.00  0.00     0.022 A 
BRANCH  69  73
ATOM     73  S   UNL     1      -1.204  19.389  -1.571  1.00  0.00     0.124 S 
ATOM     74  O   UNL     1      -2.299  19.308  -2.532  1.00  0.00    -0.237 OA
ATOM     75  O   UNL     1      -1.456  20.180  -0.371  1.00  0.00    -0.237 OA
ATOM     76  O   UNL     1       0.128  19.543  -2.152  1.00  0.00    -0.744 OA
ENDBRANCH  69  73
ENDBRANCH  52  66
BRANCH  53  77
ATOM     77  C   UNL     1      -3.950  10.661  -6.640  1.00  0.00     0.023 A 
ATOM     78  C   UNL     1      -3.609  11.141  -7.922  1.00  0.00     0.031 A 
ATOM     79  C   UNL     1      -3.316   9.466  -6.224  1.00  0.00     0.131 A 
ATOM     80  C   UNL     1      -2.675  10.437  -8.722  1.00  0.00     0.055 A 
ATOM     81  C   UNL     1      -2.398   8.776  -7.018  1.00  0.00     0.041 A 
ATOM     82  F   UNL     1      -3.505   8.970  -4.991  1.00  0.00    -0.206 F 
ATOM     83  C   UNL     1      -2.066   9.264  -8.270  1.00  0.00     0.022 A 
BRANCH  80  84
ATOM     84  S   UNL     1      -2.164  11.091 -10.346  1.00  0.00     0.124 S 
ATOM     85  O   UNL     1      -3.372  10.918 -11.144  1.00  0.00    -0.237 OA
ATOM     86  O   UNL     1      -1.787  12.464 -10.026  1.00  0.00    -0.237 OA
ATOM     87  O   UNL     1      -1.047  10.225 -10.727  1.00  0.00    -0.744 OA
ENDBRANCH  80  84
ENDBRANCH  53  77
BRANCH  65  88
ATOM     88  C   UNL     1      -7.903  15.013  -4.200  1.00  0.00     0.023 A 
ATOM     89  C   UNL     1      -8.540  13.772  -4.434  1.00  0.00     0.031 A 
ATOM     90  C   UNL     1      -8.699  16.172  -4.270  1.00  0.00     0.131 A 
ATOM     91  C   UNL     1      -9.918  13.729  -4.732  1.00  0.00     0.055 A 
ATOM     92  C   UNL     1     -10.066  16.124  -4.541  1.00  0.00     0.041 A 
ATOM     93  F   UNL     1      -8.163  17.381  -4.034  1.00  0.00    -0.206 F 
ATOM     94  C   UNL     1     -10.680  14.901  -4.778  1.00  0.00     0.022 A 
BRANCH  91  95
ATOM     95  S   UNL     1     -10.748  12.143  -5.080  1.00  0.00     0.124 S 
ATOM     96  O   UNL     1      -9.862  11.495  -6.040  1.00  0.00    -0.237 OA
ATOM     97  O   UNL     1     -10.820  11.524  -3.760  1.00  0.00    -0.237 OA
ATOM     98  O   UNL     1     -12.043  12.551  -5.629  1.00  0.00    -0.744 OA
ENDBRANCH  91  95
ENDBRANCH  65  88
ENDBRANCH  39  40
ENDBRANCH  31  34
ENDBRANCH  29  30
ENDBRANCH  28  29
ENDBRANCH   1  28
TORSDOF 17
