REMARK SMILES C[C@H](Nc1ccc2c(c1)OCCO2)[C@H](C)C(=O)NCCCCNC(=O)c1ccc(-c2c3nc(c(-c4cc(S(=O)(=O)[O-])ccc4F)c4ccc([nH]4)c(-c4cc(S(=O)(=O)[O-])ccc4F)c4nc(c(-c5cc(S(=O)(=O)[O-])ccc5F)c5ccc2[nH]5)C=C4)C=C3)cc1
REMARK SMILES IDX 20 1 19 2 18 3 16 4 17 5 14 7 15 8 2 9 1 10 3 11 4 13 5 14
REMARK SMILES IDX 9 15 6 16 8 17 7 18 10 19 13 20 11 21 12 22 21 23 22 24
REMARK SMILES IDX 23 25 24 26 25 28 26 29 27 30 88 31 28 32 87 33 29 34 30 35
REMARK SMILES IDX 31 36 81 37 32 38 86 39 80 40 82 41 33 42 85 43 79 44 78 45
REMARK SMILES IDX 34 47 66 48 46 49 65 50 47 51 50 52 64 53 83 54 48 55 49 56
REMARK SMILES IDX 63 58 84 59 51 60 35 61 36 62 44 63 37 64 43 65 45 66 42 67
REMARK SMILES IDX 38 68 39 69 40 70 41 71 67 72 68 73 76 74 69 75 75 76 77 77
REMARK SMILES IDX 74 78 70 79 71 80 72 81 73 82 52 83 53 84 61 85 54 86 60 87
REMARK SMILES IDX 62 88 59 89 55 90 56 91 57 92 58 93
REMARK H PARENT 18 6 3 12 23 27 82 46 50 57
REMARK Flexibility Score: inf
ROOT
ATOM      1  C   UNL     1      -0.121   4.475  -2.785  1.00  0.00     0.023 C 
ENDROOT
BRANCH   1   2
ATOM      2  C   UNL     1      -1.299   3.876  -2.017  1.00  0.00     0.116 C 
BRANCH   2   3
ATOM      3  N   UNL     1      -1.842   2.708  -2.687  1.00  0.00    -0.356 N 
ATOM      4  C   UNL     1      -1.860   1.383  -2.427  1.00  0.00     0.224 C 
ATOM      5  O   UNL     1      -2.378   0.692  -3.320  1.00  0.00    -0.275 OA
ATOM      6  H   UNL     1      -2.303   2.934  -3.527  1.00  0.00     0.163 HD
BRANCH   4   7
ATOM      7  C   UNL     1      -1.349   0.653  -1.174  1.00  0.00     0.097 C 
ATOM      8  C   UNL     1      -0.398  -0.493  -1.573  1.00  0.00     0.020 C 
BRANCH   7   9
ATOM      9  C   UNL     1      -0.971   1.302   0.159  1.00  0.00     0.088 C 
ATOM     10  C   UNL     1      -2.094   2.183   0.740  1.00  0.00     0.031 C 
BRANCH   9  11
ATOM     11  N   UNL     1       0.349   1.909   0.399  1.00  0.00    -0.382 N 
ATOM     12  H   UNL     1       0.453   2.196   1.335  1.00  0.00     0.160 HD
BRANCH  11  13
ATOM     13  C   UNL     1       1.474   2.177  -0.343  1.00  0.00     0.038 A 
ATOM     14  C   UNL     1       2.621   2.647   0.328  1.00  0.00     0.030 A 
ATOM     15  C   UNL     1       1.572   2.087  -1.726  1.00  0.00     0.076 A 
ATOM     16  C   UNL     1       3.758   3.100  -0.356  1.00  0.00     0.052 A 
ATOM     17  C   UNL     1       2.670   2.600  -2.428  1.00  0.00     0.163 A 
ATOM     18  C   UNL     1       3.748   3.135  -1.740  1.00  0.00     0.161 A 
ATOM     19  O   UNL     1       2.546   2.640  -3.793  1.00  0.00    -0.486 OA
ATOM     20  O   UNL     1       4.780   3.766  -2.381  1.00  0.00    -0.486 OA
ATOM     21  C   UNL     1       3.566   3.398  -4.453  1.00  0.00     0.271 C 
ATOM     22  C   UNL     1       4.253   4.412  -3.549  1.00  0.00     0.271 C 
ENDBRANCH  11  13
ENDBRANCH   9  11
ENDBRANCH   7   9
ENDBRANCH   4   7
ENDBRANCH   2   3
ENDBRANCH   1   2
BRANCH   1  23
ATOM     23  C   UNL     1      -0.434   5.672  -3.661  1.00  0.00     0.023 C 
BRANCH  23  24
ATOM     24  C   UNL     1      -0.925   6.887  -2.892  1.00  0.00     0.116 C 
BRANCH  24  25
ATOM     25  N   UNL     1       0.093   7.498  -2.040  1.00  0.00    -0.352 N 
ATOM     26  C   UNL     1       0.753   8.703  -2.158  1.00  0.00     0.251 C 
ATOM     27  H   UNL     1       0.350   6.962  -1.254  1.00  0.00     0.163 HD
ATOM     28  O   UNL     1       1.649   8.995  -1.370  1.00  0.00    -0.269 OA
BRANCH  26  29
ATOM     29  C   UNL     1       0.424   9.607  -3.281  1.00  0.00     0.039 A 
ATOM     30  C   UNL     1       1.453  10.142  -4.058  1.00  0.00     0.014 A 
ATOM     31  C   UNL     1      -0.903   9.827  -3.636  1.00  0.00     0.014 A 
ATOM     32  C   UNL     1       1.147  10.764  -5.272  1.00  0.00     0.010 A 
ATOM     33  C   UNL     1      -1.194  10.300  -4.908  1.00  0.00     0.010 A 
ATOM     34  C   UNL     1      -0.173  10.767  -5.751  1.00  0.00    -0.014 A 
BRANCH  34  35
ATOM     35  C   UNL     1      -0.532  11.237  -7.119  1.00  0.00     0.031 A 
ATOM     36  C   UNL     1      -1.613  12.275  -7.287  1.00  0.00     0.074 A 
ATOM     37  C   UNL     1       0.013  10.654  -8.207  1.00  0.00     0.049 A 
ATOM     38  N   UNL     1      -2.236  12.661  -8.371  1.00  0.00    -0.248 NA
ATOM     39  C   UNL     1      -2.104  12.911  -6.055  1.00  0.00     0.031 C 
ATOM     40  C   UNL     1       1.028   9.597  -8.192  1.00  0.00     0.029 A 
ATOM     41  N   UNL     1      -0.221  10.859  -9.546  1.00  0.00    -0.354 N 
ATOM     42  C   UNL     1      -3.222  13.544  -7.942  1.00  0.00     0.074 A 
ATOM     43  C   UNL     1      -3.166  13.563  -6.497  1.00  0.00     0.031 C 
ATOM     44  C   UNL     1       1.362   9.283  -9.454  1.00  0.00     0.029 A 
ATOM     45  C   UNL     1       0.541  10.064 -10.372  1.00  0.00     0.049 A 
ATOM     46  H   UNL     1      -0.873  11.515  -9.883  1.00  0.00     0.167 HD
ATOM     47  C   UNL     1      -4.071  14.300  -8.683  1.00  0.00     0.034 A 
ATOM     48  C   UNL     1       0.566   9.965 -11.716  1.00  0.00     0.034 A 
ATOM     49  C   UNL     1      -4.071  14.313 -10.124  1.00  0.00     0.049 A 
ATOM     50  C   UNL     1      -0.381  10.815 -12.525  1.00  0.00     0.074 A 
ATOM     51  C   UNL     1      -4.825  15.095 -10.981  1.00  0.00     0.029 A 
ATOM     52  N   UNL     1      -3.268  13.509 -10.923  1.00  0.00    -0.354 N 
ATOM     53  N   UNL     1      -1.285  11.671 -12.106  1.00  0.00    -0.248 NA
ATOM     54  C   UNL     1      -0.307  10.682 -13.986  1.00  0.00     0.031 C 
ATOM     55  C   UNL     1      -4.516  14.727 -12.296  1.00  0.00     0.029 A 
ATOM     56  C   UNL     1      -3.524  13.760 -12.262  1.00  0.00     0.049 A 
ATOM     57  H   UNL     1      -2.612  12.856 -10.588  1.00  0.00     0.167 HD
ATOM     58  C   UNL     1      -1.868  12.197 -13.255  1.00  0.00     0.074 A 
ATOM     59  C   UNL     1      -1.206  11.572 -14.381  1.00  0.00     0.031 C 
ATOM     60  C   UNL     1      -2.857  13.119 -13.370  1.00  0.00     0.034 A 
BRANCH  47  61
ATOM     61  C   UNL     1      -5.061  15.161  -7.933  1.00  0.00     0.023 A 
ATOM     62  C   UNL     1      -4.637  16.158  -7.037  1.00  0.00     0.031 A 
ATOM     63  C   UNL     1      -6.444  14.940  -8.059  1.00  0.00     0.131 A 
ATOM     64  C   UNL     1      -5.571  16.809  -6.218  1.00  0.00     0.055 A 
ATOM     65  C   UNL     1      -7.377  15.667  -7.315  1.00  0.00     0.041 A 
ATOM     66  F   UNL     1      -6.913  13.993  -8.887  1.00  0.00    -0.206 F 
ATOM     67  C   UNL     1      -6.941  16.591  -6.370  1.00  0.00     0.022 A 
BRANCH  64  68
ATOM     68  S   UNL     1      -4.952  17.797  -4.828  1.00  0.00     0.124 S 
ATOM     69  O   UNL     1      -4.192  16.799  -4.076  1.00  0.00    -0.237 OA
ATOM     70  O   UNL     1      -4.166  18.826  -5.497  1.00  0.00    -0.237 OA
ATOM     71  O   UNL     1      -6.170  18.266  -4.172  1.00  0.00    -0.744 OA
ENDBRANCH  64  68
ENDBRANCH  47  61
BRANCH  48  72
ATOM     72  C   UNL     1       1.512   9.031 -12.392  1.00  0.00     0.023 A 
ATOM     73  C   UNL     1       2.553   9.525 -13.194  1.00  0.00     0.031 A 
ATOM     74  C   UNL     1       1.373   7.637 -12.276  1.00  0.00     0.131 A 
ATOM     75  C   UNL     1       3.391   8.634 -13.882  1.00  0.00     0.055 A 
ATOM     76  C   UNL     1       2.239   6.753 -12.926  1.00  0.00     0.041 A 
ATOM     77  F   UNL     1       0.399   7.112 -11.515  1.00  0.00    -0.206 F 
ATOM     78  C   UNL     1       3.248   7.251 -13.744  1.00  0.00     0.022 A 
BRANCH  75  79
ATOM     79  S   UNL     1       4.632   9.311 -15.018  1.00  0.00     0.124 S 
ATOM     80  O   UNL     1       3.800  10.052 -15.959  1.00  0.00    -0.237 OA
ATOM     81  O   UNL     1       5.458  10.113 -14.122  1.00  0.00    -0.237 OA
ATOM     82  O   UNL     1       5.281   8.120 -15.562  1.00  0.00    -0.744 OA
ENDBRANCH  75  79
ENDBRANCH  48  72
BRANCH  60  83
ATOM     83  C   UNL     1      -3.249  13.531 -14.765  1.00  0.00     0.023 A 
ATOM     84  C   UNL     1      -3.930  12.657 -15.628  1.00  0.00     0.031 A 
ATOM     85  C   UNL     1      -2.942  14.822 -15.230  1.00  0.00     0.131 A 
ATOM     86  C   UNL     1      -4.247  13.071 -16.930  1.00  0.00     0.055 A 
ATOM     87  C   UNL     1      -3.306  15.246 -16.508  1.00  0.00     0.041 A 
ATOM     88  F   UNL     1      -2.292  15.695 -14.443  1.00  0.00    -0.206 F 
ATOM     89  C   UNL     1      -3.954  14.366 -17.369  1.00  0.00     0.022 A 
BRANCH  86  90
ATOM     90  S   UNL     1      -4.996  11.874 -18.068  1.00  0.00     0.124 S 
ATOM     91  O   UNL     1      -3.959  10.851 -18.156  1.00  0.00    -0.237 OA
ATOM     92  O   UNL     1      -6.213  11.489 -17.361  1.00  0.00    -0.237 OA
ATOM     93  O   UNL     1      -5.209  12.649 -19.289  1.00  0.00    -0.744 OA
ENDBRANCH  86  90
ENDBRANCH  60  83
ENDBRANCH  34  35
ENDBRANCH  26  29
ENDBRANCH  24  25
ENDBRANCH  23  24
ENDBRANCH   1  23
TORSDOF 17
