REMARK SMILES Cc1ccccc1OC1(C(=O)NCCCCNC(=O)c2ccc(-c3c4nc(c(-c5cc(S(=O)(=O)[O-])ccc5F)c5ccc([nH]5)c(-c5cc(S(=O)(=O)[O-])ccc5F)c5nc(c(-c6cc(S(=O)(=O)[O-])ccc6F)c6ccc3[nH]6)C=C5)C=C4)cc2)CCN(C(=O)[C@H]2CCCCO2)CC1
REMARK SMILES IDX 15 1 14 2 13 3 12 4 10 5 11 6 9 8 83 9 95 10 84 11 94 12
REMARK SMILES IDX 85 13 86 14 87 15 8 16 7 17 1 18 2 19 3 20 4 21 6 22 5 23
REMARK SMILES IDX 88 24 89 25 93 26 90 27 92 28 91 29 16 30 17 31 18 32 19 34
REMARK SMILES IDX 20 35 21 36 82 37 22 38 81 39 23 40 24 41 25 42 75 43 26 44
REMARK SMILES IDX 80 45 74 46 76 47 27 48 79 49 73 50 72 51 28 53 60 54 40 55
REMARK SMILES IDX 59 56 41 57 44 58 58 59 77 60 42 61 43 62 57 64 78 65 45 66
REMARK SMILES IDX 29 67 30 68 38 69 31 70 37 71 39 72 36 73 32 74 33 75 34 76
REMARK SMILES IDX 35 77 61 78 62 79 70 80 63 81 69 82 71 83 68 84 64 85 65 86
REMARK SMILES IDX 66 87 67 88 46 89 47 90 55 91 48 92 54 93 56 94 53 95 49 96
REMARK SMILES IDX 50 97 51 98 52 99
REMARK H PARENT 12 7 17 33 76 52 44 63
REMARK Flexibility Score: inf
ROOT
ATOM      1  C   UNL     1      10.337  -4.635  -3.266  1.00  0.00     0.023 C 
ENDROOT
BRANCH   1   2
ATOM      2  C   UNL     1       9.174  -4.316  -2.335  1.00  0.00     0.023 C 
BRANCH   2   3
ATOM      3  C   UNL     1       7.800  -4.226  -3.012  1.00  0.00     0.116 C 
BRANCH   3   4
ATOM      4  N   UNL     1       7.210  -5.522  -3.308  1.00  0.00    -0.353 N 
ATOM      5  C   UNL     1       6.220  -6.264  -2.727  1.00  0.00     0.264 C 
ATOM      6  O   UNL     1       5.944  -7.301  -3.351  1.00  0.00    -0.270 OA
ATOM      7  H   UNL     1       7.609  -5.959  -4.094  1.00  0.00     0.163 HD
BRANCH   5   8
ATOM      8  C   UNL     1       5.492  -5.890  -1.369  1.00  0.00     0.190 C 
ATOM      9  C   UNL     1       6.535  -5.934  -0.256  1.00  0.00     0.080 C 
ATOM     10  C   UNL     1       4.660  -4.616  -1.570  1.00  0.00     0.080 C 
ATOM     11  C   UNL     1       6.962  -4.586   0.293  1.00  0.00     0.124 C 
ATOM     12  C   UNL     1       5.112  -3.357  -0.826  1.00  0.00     0.124 C 
ATOM     13  N   UNL     1       5.898  -3.606   0.381  1.00  0.00    -0.340 N 
ATOM     14  C   UNL     1       5.918  -2.769   1.504  1.00  0.00     0.251 C 
ATOM     15  O   UNL     1       6.638  -3.031   2.475  1.00  0.00    -0.272 OA
BRANCH   8  16
ATOM     16  O   UNL     1       4.593  -7.038  -1.239  1.00  0.00    -0.477 OA
BRANCH  16  17
ATOM     17  C   UNL     1       3.672  -7.420  -0.312  1.00  0.00     0.123 A 
ATOM     18  C   UNL     1       3.921  -5.747   1.648  1.00  0.00     0.048 C 
ATOM     19  C   UNL     1       3.322  -6.921   0.951  1.00  0.00    -0.009 A 
ATOM     20  C   UNL     1       2.327  -7.586   1.713  1.00  0.00     0.007 A 
ATOM     21  C   UNL     1       1.657  -8.704   1.237  1.00  0.00     0.001 A 
ATOM     22  C   UNL     1       2.975  -8.559  -0.769  1.00  0.00     0.047 A 
ATOM     23  C   UNL     1       1.979  -9.192  -0.016  1.00  0.00     0.004 A 
ENDBRANCH  16  17
ENDBRANCH   8  16
BRANCH  14  24
ATOM     24  C   UNL     1       4.923  -1.591   1.562  1.00  0.00     0.207 C 
ATOM     25  C   UNL     1       3.604  -2.138   2.133  1.00  0.00     0.042 C 
ATOM     26  O   UNL     1       5.436  -0.572   2.425  1.00  0.00    -0.368 OA
ATOM     27  C   UNL     1       2.618  -1.037   2.503  1.00  0.00     0.006 C 
ATOM     28  C   UNL     1       4.552   0.531   2.555  1.00  0.00     0.161 C 
ATOM     29  C   UNL     1       3.304   0.072   3.290  1.00  0.00     0.029 C 
ENDBRANCH  14  24
ENDBRANCH   5   8
ENDBRANCH   3   4
ENDBRANCH   2   3
ENDBRANCH   1   2
BRANCH   1  30
ATOM     30  C   UNL     1      10.692  -3.491  -4.209  1.00  0.00     0.116 C 
BRANCH  30  31
ATOM     31  N   UNL     1      11.802  -2.650  -3.780  1.00  0.00    -0.352 N 
ATOM     32  C   UNL     1      12.400  -1.599  -4.466  1.00  0.00     0.251 C 
ATOM     33  H   UNL     1      12.176  -2.851  -2.892  1.00  0.00     0.163 HD
ATOM     34  O   UNL     1      13.404  -1.045  -4.047  1.00  0.00    -0.269 OA
BRANCH  32  35
ATOM     35  C   UNL     1      11.710  -1.060  -5.666  1.00  0.00     0.039 A 
ATOM     36  C   UNL     1      11.360   0.295  -5.643  1.00  0.00     0.014 A 
ATOM     37  C   UNL     1      11.167  -1.912  -6.621  1.00  0.00     0.014 A 
ATOM     38  C   UNL     1      10.271   0.729  -6.395  1.00  0.00     0.010 A 
ATOM     39  C   UNL     1      10.017  -1.516  -7.273  1.00  0.00     0.010 A 
ATOM     40  C   UNL     1       9.528  -0.215  -7.101  1.00  0.00    -0.014 A 
BRANCH  40  41
ATOM     41  C   UNL     1       8.159   0.023  -7.548  1.00  0.00     0.031 A 
ATOM     42  C   UNL     1       7.838   0.115  -8.985  1.00  0.00     0.074 A 
ATOM     43  C   UNL     1       7.163   0.086  -6.638  1.00  0.00     0.049 A 
ATOM     44  N   UNL     1       6.785   0.684  -9.465  1.00  0.00    -0.248 NA
ATOM     45  C   UNL     1       8.735  -0.386 -10.016  1.00  0.00     0.031 C 
ATOM     46  C   UNL     1       5.725   0.034  -6.883  1.00  0.00     0.029 A 
ATOM     47  N   UNL     1       7.269   0.467  -5.305  1.00  0.00    -0.354 N 
ATOM     48  C   UNL     1       6.702   0.361 -10.800  1.00  0.00     0.074 A 
ATOM     49  C   UNL     1       7.987  -0.219 -11.109  1.00  0.00     0.031 C 
ATOM     50  C   UNL     1       5.086   0.599  -5.847  1.00  0.00     0.029 A 
ATOM     51  C   UNL     1       6.096   1.160  -4.969  1.00  0.00     0.049 A 
ATOM     52  H   UNL     1       8.029   0.284  -4.707  1.00  0.00     0.167 HD
ATOM     53  C   UNL     1       5.503   0.488 -11.440  1.00  0.00     0.034 A 
ATOM     54  C   UNL     1       6.150   2.462  -4.561  1.00  0.00     0.034 A 
ATOM     55  C   UNL     1       4.515   1.163 -10.588  1.00  0.00     0.049 A 
ATOM     56  C   UNL     1       5.420   3.414  -5.480  1.00  0.00     0.074 A 
ATOM     57  C   UNL     1       3.431   0.712  -9.851  1.00  0.00     0.029 A 
ATOM     58  N   UNL     1       4.742   2.475 -10.181  1.00  0.00    -0.354 N 
ATOM     59  N   UNL     1       5.018   3.106  -6.683  1.00  0.00    -0.248 NA
ATOM     60  C   UNL     1       5.091   4.788  -5.119  1.00  0.00     0.031 C 
ATOM     61  C   UNL     1       3.058   1.740  -8.943  1.00  0.00     0.029 A 
ATOM     62  C   UNL     1       3.889   2.828  -9.151  1.00  0.00     0.049 A 
ATOM     63  H   UNL     1       5.418   3.073 -10.574  1.00  0.00     0.167 HD
ATOM     64  C   UNL     1       4.418   4.194  -7.265  1.00  0.00     0.074 A 
ATOM     65  C   UNL     1       4.461   5.212  -6.229  1.00  0.00     0.031 C 
ATOM     66  C   UNL     1       3.953   4.158  -8.553  1.00  0.00     0.034 A 
BRANCH  53  67
ATOM     67  C   UNL     1       5.127  -0.272 -12.705  1.00  0.00     0.023 A 
ATOM     68  C   UNL     1       3.765  -0.549 -12.961  1.00  0.00     0.031 A 
ATOM     69  C   UNL     1       6.024  -0.816 -13.645  1.00  0.00     0.131 A 
ATOM     70  C   UNL     1       3.366  -1.406 -14.007  1.00  0.00     0.055 A 
ATOM     71  C   UNL     1       5.636  -1.711 -14.653  1.00  0.00     0.041 A 
ATOM     72  F   UNL     1       7.313  -0.466 -13.686  1.00  0.00    -0.206 F 
ATOM     73  C   UNL     1       4.300  -2.023 -14.831  1.00  0.00     0.022 A 
BRANCH  70  74
ATOM     74  S   UNL     1       1.598  -1.710 -14.281  1.00  0.00     0.124 S 
ATOM     75  O   UNL     1       1.184  -2.294 -13.010  1.00  0.00    -0.237 OA
ATOM     76  O   UNL     1       1.097  -0.372 -14.574  1.00  0.00    -0.237 OA
ATOM     77  O   UNL     1       1.585  -2.633 -15.416  1.00  0.00    -0.744 OA
ENDBRANCH  70  74
ENDBRANCH  53  67
BRANCH  54  78
ATOM     78  C   UNL     1       7.370   2.765  -3.758  1.00  0.00     0.023 A 
ATOM     79  C   UNL     1       7.557   1.980  -2.600  1.00  0.00     0.031 A 
ATOM     80  C   UNL     1       8.485   3.419  -4.297  1.00  0.00     0.131 A 
ATOM     81  C   UNL     1       8.849   1.693  -2.146  1.00  0.00     0.055 A 
ATOM     82  C   UNL     1       9.769   3.210  -3.772  1.00  0.00     0.041 A 
ATOM     83  F   UNL     1       8.375   4.151  -5.415  1.00  0.00    -0.206 F 
ATOM     84  C   UNL     1       9.962   2.302  -2.727  1.00  0.00     0.022 A 
BRANCH  81  85
ATOM     85  S   UNL     1       9.072   0.287  -1.010  1.00  0.00     0.124 S 
ATOM     86  O   UNL     1       9.132   0.960   0.280  1.00  0.00    -0.237 OA
ATOM     87  O   UNL     1       7.883  -0.531  -1.258  1.00  0.00    -0.237 OA
ATOM     88  O   UNL     1      10.315  -0.324  -1.476  1.00  0.00    -0.744 OA
ENDBRANCH  81  85
ENDBRANCH  54  78
BRANCH  66  89
ATOM     89  C   UNL     1       3.442   5.346  -9.348  1.00  0.00     0.023 A 
ATOM     90  C   UNL     1       3.671   6.682  -8.989  1.00  0.00     0.031 A 
ATOM     91  C   UNL     1       2.746   5.158 -10.569  1.00  0.00     0.131 A 
ATOM     92  C   UNL     1       3.155   7.746  -9.754  1.00  0.00     0.055 A 
ATOM     93  C   UNL     1       2.307   6.216 -11.372  1.00  0.00     0.041 A 
ATOM     94  F   UNL     1       2.466   3.935 -11.044  1.00  0.00    -0.206 F 
ATOM     95  C   UNL     1       2.494   7.523 -10.957  1.00  0.00     0.022 A 
BRANCH  92  96
ATOM     96  S   UNL     1       3.311   9.428  -9.098  1.00  0.00     0.124 S 
ATOM     97  O   UNL     1       2.537   9.341  -7.862  1.00  0.00    -0.237 OA
ATOM     98  O   UNL     1       4.754   9.568  -8.932  1.00  0.00    -0.237 OA
ATOM     99  O   UNL     1       2.721  10.263 -10.142  1.00  0.00    -0.744 OA
ENDBRANCH  92  96
ENDBRANCH  66  89
ENDBRANCH  40  41
ENDBRANCH  32  35
ENDBRANCH  30  31
ENDBRANCH   1  30
TORSDOF 17
