REMARK SMILES O=C(NCCCCNC(=O)[C@]1(NC(=O)C2CCN(C(=O)C3CC3)CC2)CCCc2ccccc21)c1ccc(-c2c3nc(c(-c4cc(S(=O)(=O)[O-])ccc4F)c4ccc([nH]4)c(-c4cc(S(=O)(=O)[O-])ccc4F)c4nc(c(-c5cc(S(=O)(=O)[O-])ccc5F)c5ccc2[nH]5)C=C4)C=C3)cc1
REMARK SMILES IDX 5 1 4 2 3 3 1 4 2 5 35 7 36 8 97 9 37 10 96 11 38 12 39 13
REMARK SMILES IDX 40 14 90 15 41 16 95 17 89 18 91 19 42 20 94 21 88 22 87 23
REMARK SMILES IDX 43 25 75 26 55 27 74 28 56 29 59 30 73 31 92 32 57 33 58 34
REMARK SMILES IDX 72 36 93 37 60 38 44 39 45 40 53 41 46 42 52 43 54 44 51 45
REMARK SMILES IDX 47 46 48 47 49 48 50 49 76 50 77 51 85 52 78 53 84 54 86 55
REMARK SMILES IDX 83 56 79 57 80 58 81 59 82 60 61 61 62 62 70 63 63 64 69 65
REMARK SMILES IDX 71 66 68 67 64 68 65 69 66 70 67 71 6 72 7 73 8 74 9 75
REMARK SMILES IDX 10 77 11 78 26 79 34 80 27 81 29 82 33 83 28 84 30 85 32 86
REMARK SMILES IDX 31 87 12 88 13 89 14 91 15 92 16 93 25 94 17 95 24 96 18 97
REMARK SMILES IDX 19 98 20 99 21 100 22 101 23 102
REMARK H PARENT 3 6 91 24 59 35 8 76 12 90
REMARK Flexibility Score: inf
ROOT
ATOM      1  C   UNL     1       5.169  -0.058  -2.699  1.00  0.00     0.023 C 
ENDROOT
BRANCH   1   2
ATOM      2  C   UNL     1       4.681  -0.190  -1.264  1.00  0.00     0.116 C 
BRANCH   2   3
ATOM      3  N   UNL     1       3.267   0.104  -1.069  1.00  0.00    -0.352 N 
ATOM      4  O   UNL     1       1.293  -0.019   0.044  1.00  0.00    -0.269 OA
ATOM      5  C   UNL     1       2.492  -0.241   0.022  1.00  0.00     0.251 C 
ATOM      6  H   UNL     1       2.817   0.601  -1.790  1.00  0.00     0.163 HD
BRANCH   5   7
ATOM      7  C   UNL     1       3.162  -0.937   1.143  1.00  0.00     0.039 A 
ATOM      8  C   UNL     1       4.312  -0.383   1.702  1.00  0.00     0.014 A 
ATOM      9  C   UNL     1       2.709  -2.196   1.542  1.00  0.00     0.014 A 
ATOM     10  C   UNL     1       5.112  -1.164   2.521  1.00  0.00     0.010 A 
ATOM     11  C   UNL     1       3.468  -2.941   2.451  1.00  0.00     0.010 A 
ATOM     12  C   UNL     1       4.699  -2.450   2.911  1.00  0.00    -0.014 A 
BRANCH  12  13
ATOM     13  C   UNL     1       5.576  -3.224   3.827  1.00  0.00     0.031 A 
ATOM     14  C   UNL     1       6.234  -4.504   3.389  1.00  0.00     0.074 A 
ATOM     15  C   UNL     1       5.840  -2.702   5.041  1.00  0.00     0.049 A 
ATOM     16  N   UNL     1       7.076  -5.262   4.045  1.00  0.00    -0.248 NA
ATOM     17  C   UNL     1       5.899  -5.004   2.047  1.00  0.00     0.031 C 
ATOM     18  C   UNL     1       5.246  -1.469   5.569  1.00  0.00     0.029 A 
ATOM     19  N   UNL     1       6.696  -3.106   6.031  1.00  0.00    -0.354 N 
ATOM     20  C   UNL     1       7.360  -6.336   3.208  1.00  0.00     0.074 A 
ATOM     21  C   UNL     1       6.576  -6.144   2.005  1.00  0.00     0.031 C 
ATOM     22  C   UNL     1       5.807  -1.181   6.750  1.00  0.00     0.029 A 
ATOM     23  C   UNL     1       6.741  -2.243   7.101  1.00  0.00     0.049 A 
ATOM     24  H   UNL     1       7.226  -3.933   5.981  1.00  0.00     0.167 HD
ATOM     25  C   UNL     1       8.200  -7.380   3.424  1.00  0.00     0.034 A 
ATOM     26  C   UNL     1       7.446  -2.303   8.246  1.00  0.00     0.034 A 
ATOM     27  C   UNL     1       8.976  -7.551   4.632  1.00  0.00     0.049 A 
ATOM     28  C   UNL     1       8.376  -3.465   8.454  1.00  0.00     0.074 A 
ATOM     29  C   UNL     1       9.848  -8.575   4.963  1.00  0.00     0.029 A 
ATOM     30  N   UNL     1       8.975  -6.673   5.710  1.00  0.00    -0.354 N 
ATOM     31  N   UNL     1       8.615  -4.481   7.657  1.00  0.00    -0.248 NA
ATOM     32  C   UNL     1       9.131  -3.486   9.710  1.00  0.00     0.031 C 
ATOM     33  C   UNL     1      10.334  -8.342   6.256  1.00  0.00     0.029 A 
ATOM     34  C   UNL     1       9.816  -7.139   6.709  1.00  0.00     0.049 A 
ATOM     35  H   UNL     1       8.452  -5.840   5.757  1.00  0.00     0.167 HD
ATOM     36  C   UNL     1       9.546  -5.269   8.323  1.00  0.00     0.074 A 
ATOM     37  C   UNL     1       9.858  -4.583   9.562  1.00  0.00     0.031 C 
ATOM     38  C   UNL     1      10.085  -6.458   7.953  1.00  0.00     0.034 A 
BRANCH  25  39
ATOM     39  C   UNL     1       8.288  -8.439   2.350  1.00  0.00     0.023 A 
ATOM     40  C   UNL     1       8.828  -8.166   1.081  1.00  0.00     0.031 A 
ATOM     41  C   UNL     1       7.816  -9.742   2.597  1.00  0.00     0.131 A 
ATOM     42  C   UNL     1       8.831  -9.162   0.091  1.00  0.00     0.055 A 
ATOM     43  C   UNL     1       7.886 -10.748   1.631  1.00  0.00     0.041 A 
ATOM     44  F   UNL     1       7.271 -10.057   3.783  1.00  0.00    -0.206 F 
ATOM     45  C   UNL     1       8.386 -10.458   0.365  1.00  0.00     0.022 A 
BRANCH  42  46
ATOM     46  S   UNL     1       9.318  -8.710  -1.597  1.00  0.00     0.124 S 
ATOM     47  O   UNL     1       8.334  -7.680  -1.923  1.00  0.00    -0.237 OA
ATOM     48  O   UNL     1      10.689  -8.248  -1.418  1.00  0.00    -0.237 OA
ATOM     49  O   UNL     1       9.172  -9.958  -2.343  1.00  0.00    -0.744 OA
ENDBRANCH  42  46
ENDBRANCH  25  39
BRANCH  26  50
ATOM     50  C   UNL     1       7.263  -1.257   9.290  1.00  0.00     0.023 A 
ATOM     51  C   UNL     1       8.313  -0.403   9.660  1.00  0.00     0.031 A 
ATOM     52  C   UNL     1       6.026  -1.106   9.943  1.00  0.00     0.131 A 
ATOM     53  C   UNL     1       8.115   0.541  10.679  1.00  0.00     0.055 A 
ATOM     54  C   UNL     1       5.819  -0.130  10.917  1.00  0.00     0.041 A 
ATOM     55  F   UNL     1       4.987  -1.893   9.619  1.00  0.00    -0.206 F 
ATOM     56  C   UNL     1       6.872   0.693  11.299  1.00  0.00     0.022 A 
BRANCH  53  57
ATOM     57  S   UNL     1       9.533   1.523  11.241  1.00  0.00     0.124 S 
ATOM     58  O   UNL     1      10.497   0.485  11.588  1.00  0.00    -0.237 OA
ATOM     59  O   UNL     1       9.841   2.314  10.054  1.00  0.00    -0.237 OA
ATOM     60  O   UNL     1       8.996   2.279  12.370  1.00  0.00    -0.744 OA
ENDBRANCH  53  57
ENDBRANCH  26  50
BRANCH  38  61
ATOM     61  C   UNL     1      11.065  -7.072   8.920  1.00  0.00     0.023 A 
ATOM     62  C   UNL     1      10.650  -7.538  10.180  1.00  0.00     0.031 A 
ATOM     63  C   UNL     1      12.432  -7.137   8.604  1.00  0.00     0.131 A 
ATOM     64  C   UNL     1      11.603  -7.981  11.108  1.00  0.00     0.055 A 
ATOM     65  C   UNL     1      13.370  -7.634   9.511  1.00  0.00     0.041 A 
ATOM     66  F   UNL     1      12.881  -6.703   7.415  1.00  0.00    -0.206 F 
ATOM     67  C   UNL     1      12.959  -8.043  10.777  1.00  0.00     0.022 A 
BRANCH  64  68
ATOM     68  S   UNL     1      11.058  -8.366  12.794  1.00  0.00     0.124 S 
ATOM     69  O   UNL     1      10.429  -7.114  13.204  1.00  0.00    -0.237 OA
ATOM     70  O   UNL     1      10.155  -9.492  12.580  1.00  0.00    -0.237 OA
ATOM     71  O   UNL     1      12.301  -8.693  13.490  1.00  0.00    -0.744 OA
ENDBRANCH  64  68
ENDBRANCH  38  61
ENDBRANCH  12  13
ENDBRANCH   5   7
ENDBRANCH   2   3
ENDBRANCH   1   2
BRANCH   1  72
ATOM     72  C   UNL     1       4.870   1.285  -3.361  1.00  0.00     0.023 C 
BRANCH  72  73
ATOM     73  C   UNL     1       5.429   2.516  -2.649  1.00  0.00     0.116 C 
BRANCH  73  74
ATOM     74  N   UNL     1       6.775   2.857  -3.065  1.00  0.00    -0.354 N 
ATOM     75  C   UNL     1       7.272   3.633  -4.068  1.00  0.00     0.250 C 
ATOM     76  H   UNL     1       7.473   2.444  -2.507  1.00  0.00     0.163 HD
ATOM     77  O   UNL     1       8.501   3.802  -4.012  1.00  0.00    -0.272 OA
BRANCH  75  78
ATOM     78  C   UNL     1       6.456   4.191  -5.301  1.00  0.00     0.145 C 
ATOM     79  C   UNL     1       7.011   5.642  -5.510  1.00  0.00     0.044 C 
ATOM     80  C   UNL     1       4.937   4.346  -5.111  1.00  0.00    -0.010 A 
ATOM     81  C   UNL     1       6.716   6.539  -4.311  1.00  0.00     0.008 C 
ATOM     82  C   UNL     1       4.396   5.469  -4.440  1.00  0.00    -0.042 A 
ATOM     83  C   UNL     1       4.037   3.368  -5.582  1.00  0.00     0.007 A 
ATOM     84  C   UNL     1       5.220   6.680  -4.075  1.00  0.00     0.036 C 
ATOM     85  C   UNL     1       3.019   5.520  -4.156  1.00  0.00     0.004 A 
ATOM     86  C   UNL     1       2.670   3.437  -5.299  1.00  0.00     0.000 A 
ATOM     87  C   UNL     1       2.165   4.499  -4.562  1.00  0.00     0.000 A 
BRANCH  78  88
ATOM     88  N   UNL     1       6.758   3.506  -6.598  1.00  0.00    -0.338 N 
ATOM     89  C   UNL     1       7.018   2.215  -6.941  1.00  0.00     0.224 C 
ATOM     90  H   UNL     1       6.772   4.121  -7.367  1.00  0.00     0.164 HD
ATOM     91  O   UNL     1       6.613   1.843  -8.046  1.00  0.00    -0.275 OA
BRANCH  89  92
ATOM     92  C   UNL     1       7.890   1.320  -6.068  1.00  0.00     0.082 C 
ATOM     93  C   UNL     1       9.355   1.776  -6.150  1.00  0.00     0.035 C 
ATOM     94  C   UNL     1       7.754  -0.173  -6.423  1.00  0.00     0.035 C 
ATOM     95  C   UNL     1      10.039   1.316  -7.434  1.00  0.00     0.120 C 
ATOM     96  C   UNL     1       8.542  -0.585  -7.669  1.00  0.00     0.120 C 
ATOM     97  N   UNL     1       9.926  -0.132  -7.583  1.00  0.00    -0.342 N 
ATOM     98  C   UNL     1      11.111  -0.872  -7.621  1.00  0.00     0.225 C 
ATOM     99  O   UNL     1      12.203  -0.302  -7.570  1.00  0.00    -0.275 OA
BRANCH  98 100
ATOM    100  C   UNL     1      11.190  -2.359  -7.740  1.00  0.00     0.079 C 
ATOM    101  C   UNL     1      10.233  -3.373  -7.186  1.00  0.00     0.014 C 
ATOM    102  C   UNL     1      10.351  -3.181  -8.679  1.00  0.00     0.014 C 
ENDBRANCH  98 100
ENDBRANCH  89  92
ENDBRANCH  78  88
ENDBRANCH  75  78
ENDBRANCH  73  74
ENDBRANCH  72  73
ENDBRANCH   1  72
TORSDOF 17
