REMARK SMILES CC(C)C(=O)Nc1ccc2c([C@H](C(=O)NCCCCNC(=O)c3ccc(-c4c5nc(c(-c6cc(S(=O)(=O)[O-])ccc6F)c6ccc([nH]6)c(-c6cc(S(=O)(=O)[O-])ccc6F)c6nc(c(-c7cc(S(=O)(=O)[O-])ccc7F)c7ccc4[nH]7)C=C6)C=C5)cc3)[NH+]3CC[NH+](CC(=O)N(C)C)CC3)c[nH]c2c1
REMARK SMILES IDX 17 1 16 2 15 3 13 4 14 5 12 7 11 8 7 9 8 10 101 11 9 12
REMARK SMILES IDX 100 13 10 14 99 15 98 16 6 18 4 19 5 20 2 22 1 23 3 24 86 25
REMARK SMILES IDX 87 26 97 27 88 29 96 30 89 31 90 33 91 34 92 35 93 36 94 37
REMARK SMILES IDX 95 38 18 39 19 40 20 41 21 42 22 44 23 45 24 46 85 47 25 48
REMARK SMILES IDX 84 49 26 50 27 51 28 52 78 53 29 54 83 55 77 56 79 57 30 58
REMARK SMILES IDX 82 59 76 60 75 61 31 63 63 64 43 65 62 66 44 67 47 68 61 69
REMARK SMILES IDX 80 70 45 71 46 72 60 74 81 75 48 76 32 77 33 78 41 79 34 80
REMARK SMILES IDX 40 81 42 82 39 83 35 84 36 85 37 86 38 87 64 88 65 89 73 90
REMARK SMILES IDX 66 91 72 92 74 93 71 94 67 95 68 96 69 97 70 98 49 99 50 100
REMARK SMILES IDX 58 101 51 102 57 103 59 104 56 105 52 106 53 107 54 108
REMARK SMILES IDX 55 109
REMARK H PARENT 15 6 99 17 6 21 86 28 89 32 20 43 79 62 47 73
REMARK Flexibility Score: inf
ROOT
ATOM      1  C   UNL     1       2.343  -2.856   1.035  1.00  0.00     0.023 C 
ENDROOT
BRANCH   1   2
ATOM      2  C   UNL     1       1.817  -2.055   2.256  1.00  0.00     0.116 C 
BRANCH   2   3
ATOM      3  N   UNL     1       0.624  -2.577   2.926  1.00  0.00    -0.351 N 
ATOM      4  C   UNL     1       0.333  -3.009   4.203  1.00  0.00     0.283 C 
ATOM      5  O   UNL     1      -0.875  -3.197   4.410  1.00  0.00    -0.268 OA
ATOM      6  H   UNL     1      -0.153  -2.632   2.324  1.00  0.00     0.163 HD
BRANCH   4   7
ATOM      7  C   UNL     1       1.420  -3.284   5.301  1.00  0.00     0.308 C 
BRANCH   7   8
ATOM      8  C   UNL     1       0.992  -3.032   6.747  1.00  0.00     0.044 A 
ATOM      9  C   UNL     1       3.211  -2.808  10.311  1.00  0.00     0.043 A 
ATOM     10  C   UNL     1       3.953  -2.986   9.153  1.00  0.00     0.027 A 
ATOM     11  C   UNL     1       1.816  -2.922  10.295  1.00  0.00     0.052 A 
ATOM     12  C   UNL     1       3.327  -3.055   7.913  1.00  0.00     0.013 A 
ATOM     13  C   UNL     1       1.200  -2.972   9.036  1.00  0.00     0.048 A 
ATOM     14  C   UNL     1       1.923  -2.988   7.845  1.00  0.00     0.009 A 
ATOM     15  N   UNL     1      -0.129  -3.022   8.687  1.00  0.00    -0.361 N 
ATOM     16  C   UNL     1      -0.266  -3.026   7.323  1.00  0.00     0.094 A 
ATOM     17  H   UNL     1      -0.877  -3.052   9.326  1.00  0.00     0.166 HD
BRANCH   9  18
ATOM     18  N   UNL     1       3.843  -2.494  11.515  1.00  0.00    -0.326 N 
ATOM     19  C   UNL     1       4.798  -1.544  11.757  1.00  0.00     0.226 C 
ATOM     20  O   UNL     1       5.333  -1.546  12.873  1.00  0.00    -0.274 OA
ATOM     21  H   UNL     1       3.565  -3.026  12.295  1.00  0.00     0.169 HD
BRANCH  19  22
ATOM     22  C   UNL     1       5.148  -0.423  10.757  1.00  0.00     0.072 C 
ATOM     23  C   UNL     1       6.147  -0.797   9.668  1.00  0.00     0.018 C 
ATOM     24  C   UNL     1       3.937   0.330  10.206  1.00  0.00     0.018 C 
ENDBRANCH  19  22
ENDBRANCH   9  18
ENDBRANCH   7   8
BRANCH   7  25
ATOM     25  N   UNL     1       1.902  -4.690   5.403  1.00  0.00    -0.312 N 
ATOM     26  C   UNL     1       0.906  -5.752   5.231  1.00  0.00     0.325 C 
ATOM     27  C   UNL     1       3.113  -5.008   4.675  1.00  0.00     0.325 C 
ATOM     28  H   UNL     1       2.142  -4.690   6.394  1.00  0.00     0.349 HD
ATOM     29  C   UNL     1       0.577  -6.122   3.766  1.00  0.00     0.325 C 
ATOM     30  C   UNL     1       2.780  -5.187   3.208  1.00  0.00     0.325 C 
ATOM     31  N   UNL     1       1.682  -6.054   2.795  1.00  0.00    -0.318 N 
ATOM     32  H   UNL     1       1.276  -5.583   1.986  1.00  0.00     0.348 HD
BRANCH  31  33
ATOM     33  C   UNL     1       2.107  -7.355   2.269  1.00  0.00     0.364 C 
BRANCH  33  34
ATOM     34  C   UNL     1       2.992  -8.099   3.271  1.00  0.00     0.277 C 
ATOM     35  O   UNL     1       2.472  -8.806   4.140  1.00  0.00    -0.268 OA
ATOM     36  N   UNL     1       4.364  -7.846   3.260  1.00  0.00    -0.344 N 
ATOM     37  C   UNL     1       5.139  -7.308   2.148  1.00  0.00     0.146 C 
ATOM     38  C   UNL     1       5.117  -8.212   4.444  1.00  0.00     0.146 C 
ENDBRANCH  33  34
ENDBRANCH  31  33
ENDBRANCH   7  25
ENDBRANCH   4   7
ENDBRANCH   2   3
ENDBRANCH   1   2
BRANCH   1  39
ATOM     39  C   UNL     1       1.305  -3.353   0.037  1.00  0.00     0.023 C 
BRANCH  39  40
ATOM     40  C   UNL     1       0.782  -2.246  -0.854  1.00  0.00     0.116 C 
BRANCH  40  41
ATOM     41  N   UNL     1       1.873  -1.539  -1.527  1.00  0.00    -0.352 N 
ATOM     42  C   UNL     1       2.101  -1.353  -2.864  1.00  0.00     0.251 C 
ATOM     43  H   UNL     1       2.543  -1.137  -0.928  1.00  0.00     0.163 HD
ATOM     44  O   UNL     1       3.208  -0.985  -3.252  1.00  0.00    -0.269 OA
BRANCH  42  45
ATOM     45  C   UNL     1       1.004  -1.601  -3.810  1.00  0.00     0.039 A 
ATOM     46  C   UNL     1       1.266  -2.207  -5.038  1.00  0.00     0.014 A 
ATOM     47  C   UNL     1      -0.300  -1.256  -3.447  1.00  0.00     0.014 A 
ATOM     48  C   UNL     1       0.199  -2.522  -5.877  1.00  0.00     0.010 A 
ATOM     49  C   UNL     1      -1.361  -1.697  -4.213  1.00  0.00     0.010 A 
ATOM     50  C   UNL     1      -1.122  -2.305  -5.451  1.00  0.00    -0.014 A 
BRANCH  50  51
ATOM     51  C   UNL     1      -2.284  -2.654  -6.298  1.00  0.00     0.031 A 
ATOM     52  C   UNL     1      -3.247  -1.571  -6.704  1.00  0.00     0.074 A 
ATOM     53  C   UNL     1      -2.507  -3.942  -6.621  1.00  0.00     0.049 A 
ATOM     54  N   UNL     1      -4.379  -1.669  -7.348  1.00  0.00    -0.248 NA
ATOM     55  C   UNL     1      -2.916  -0.198  -6.284  1.00  0.00     0.031 C 
ATOM     56  C   UNL     1      -1.666  -5.073  -6.221  1.00  0.00     0.029 A 
ATOM     57  N   UNL     1      -3.510  -4.518  -7.354  1.00  0.00    -0.354 N 
ATOM     58  C   UNL     1      -4.902  -0.381  -7.387  1.00  0.00     0.074 A 
ATOM     59  C   UNL     1      -4.009   0.462  -6.626  1.00  0.00     0.031 C 
ATOM     60  C   UNL     1      -2.166  -6.201  -6.750  1.00  0.00     0.029 A 
ATOM     61  C   UNL     1      -3.390  -5.883  -7.475  1.00  0.00     0.049 A 
ATOM     62  H   UNL     1      -4.247  -4.004  -7.755  1.00  0.00     0.167 HD
ATOM     63  C   UNL     1      -6.008   0.062  -8.031  1.00  0.00     0.034 A 
ATOM     64  C   UNL     1      -4.188  -6.774  -8.095  1.00  0.00     0.034 A 
ATOM     65  C   UNL     1      -6.863  -0.801  -8.806  1.00  0.00     0.049 A 
ATOM     66  C   UNL     1      -5.417  -6.260  -8.801  1.00  0.00     0.074 A 
ATOM     67  C   UNL     1      -7.973  -0.464  -9.558  1.00  0.00     0.029 A 
ATOM     68  N   UNL     1      -6.704  -2.177  -8.922  1.00  0.00    -0.354 N 
ATOM     69  N   UNL     1      -5.867  -5.027  -8.886  1.00  0.00    -0.248 NA
ATOM     70  C   UNL     1      -6.237  -7.251  -9.505  1.00  0.00     0.031 C 
ATOM     71  C   UNL     1      -8.529  -1.643 -10.064  1.00  0.00     0.029 A 
ATOM     72  C   UNL     1      -7.715  -2.708  -9.705  1.00  0.00     0.049 A 
ATOM     73  H   UNL     1      -5.978  -2.698  -8.508  1.00  0.00     0.167 HD
ATOM     74  C   UNL     1      -7.008  -5.094  -9.681  1.00  0.00     0.074 A 
ATOM     75  C   UNL     1      -7.162  -6.484 -10.063  1.00  0.00     0.031 C 
ATOM     76  C   UNL     1      -7.851  -4.101 -10.065  1.00  0.00     0.034 A 
BRANCH  63  77
ATOM     77  C   UNL     1      -6.351   1.527  -7.902  1.00  0.00     0.023 A 
ATOM     78  C   UNL     1      -5.474   2.536  -8.342  1.00  0.00     0.031 A 
ATOM     79  C   UNL     1      -7.554   1.926  -7.295  1.00  0.00     0.131 A 
ATOM     80  C   UNL     1      -5.771   3.884  -8.091  1.00  0.00     0.055 A 
ATOM     81  C   UNL     1      -7.888   3.272  -7.132  1.00  0.00     0.041 A 
ATOM     82  F   UNL     1      -8.421   1.012  -6.830  1.00  0.00    -0.206 F 
ATOM     83  C   UNL     1      -6.986   4.261  -7.515  1.00  0.00     0.022 A 
BRANCH  80  84
ATOM     84  S   UNL     1      -4.478   5.123  -8.379  1.00  0.00     0.124 S 
ATOM     85  O   UNL     1      -3.412   4.645  -7.502  1.00  0.00    -0.237 OA
ATOM     86  O   UNL     1      -4.232   4.996  -9.811  1.00  0.00    -0.237 OA
ATOM     87  O   UNL     1      -5.104   6.376  -7.961  1.00  0.00    -0.744 OA
ENDBRANCH  80  84
ENDBRANCH  63  77
BRANCH  64  88
ATOM     88  C   UNL     1      -3.857  -8.227  -8.079  1.00  0.00     0.023 A 
ATOM     89  C   UNL     1      -3.569  -8.918  -9.266  1.00  0.00     0.031 A 
ATOM     90  C   UNL     1      -3.856  -8.958  -6.877  1.00  0.00     0.131 A 
ATOM     91  C   UNL     1      -3.344 -10.303  -9.235  1.00  0.00     0.055 A 
ATOM     92  C   UNL     1      -3.572 -10.325  -6.843  1.00  0.00     0.041 A 
ATOM     93  F   UNL     1      -4.117  -8.348  -5.710  1.00  0.00    -0.206 F 
ATOM     94  C   UNL     1      -3.328 -11.008  -8.030  1.00  0.00     0.022 A 
BRANCH  91  95
ATOM     95  S   UNL     1      -3.164 -11.188 -10.808  1.00  0.00     0.124 S 
ATOM     96  O   UNL     1      -4.413 -10.852 -11.482  1.00  0.00    -0.237 OA
ATOM     97  O   UNL     1      -1.955 -10.586 -11.358  1.00  0.00    -0.237 OA
ATOM     98  O   UNL     1      -3.032 -12.585 -10.398  1.00  0.00    -0.744 OA
ENDBRANCH  91  95
ENDBRANCH  64  88
BRANCH  76  99
ATOM     99  C   UNL     1      -8.985  -4.483 -10.983  1.00  0.00     0.023 A 
ATOM    100  C   UNL     1     -10.022  -5.334 -10.564  1.00  0.00     0.031 A 
ATOM    101  C   UNL     1      -9.024  -3.988 -12.299  1.00  0.00     0.131 A 
ATOM    102  C   UNL     1     -11.021  -5.713 -11.472  1.00  0.00     0.055 A 
ATOM    103  C   UNL     1     -10.060  -4.311 -13.175  1.00  0.00     0.041 A 
ATOM    104  F   UNL     1      -8.057  -3.174 -12.752  1.00  0.00    -0.206 F 
ATOM    105  C   UNL     1     -11.058  -5.190 -12.768  1.00  0.00     0.022 A 
BRANCH 102 106
ATOM    106  S   UNL     1     -12.213  -6.984 -10.970  1.00  0.00     0.124 S 
ATOM    107  O   UNL     1     -11.339  -8.105 -10.642  1.00  0.00    -0.237 OA
ATOM    108  O   UNL     1     -12.888  -6.350  -9.842  1.00  0.00    -0.237 OA
ATOM    109  O   UNL     1     -13.039  -7.168 -12.162  1.00  0.00    -0.744 OA
ENDBRANCH 102 106
ENDBRANCH  76  99
ENDBRANCH  50  51
ENDBRANCH  42  45
ENDBRANCH  40  41
ENDBRANCH  39  40
ENDBRANCH   1  39
TORSDOF 20
