REMARK SMILES O=C(CSc1nnc2sc3ccccc3n12)N[C@H](Cc1c[nH]c2ccccc12)C(=O)NCCCCNC(=O)c1ccc(-c2c3nc(c(-c4cc(S(=O)(=O)[O-])ccc4F)c4ccc([nH]4)c(-c4cc(S(=O)(=O)[O-])ccc4F)c4nc(c(-c5cc(S(=O)(=O)[O-])ccc5F)c5ccc2[nH]5)C=C4)C=C3)cc1
REMARK SMILES IDX 33 1 32 2 31 3 29 4 30 5 18 7 17 8 1 9 2 10 3 12 4 13 5 14
REMARK SMILES IDX 6 15 16 16 7 17 8 18 15 19 9 20 10 21 14 22 11 23 13 24
REMARK SMILES IDX 12 25 19 26 20 27 21 28 28 29 22 30 23 31 27 32 24 34 26 35
REMARK SMILES IDX 25 36 34 37 35 38 36 39 37 40 38 42 39 43 40 44 101 45 41 46
REMARK SMILES IDX 100 47 42 48 43 49 44 50 94 51 45 52 99 53 93 54 95 55 46 56
REMARK SMILES IDX 98 57 92 58 91 59 47 61 79 62 59 63 78 64 60 65 63 66 77 67
REMARK SMILES IDX 96 68 61 69 62 70 76 72 97 73 64 74 48 75 49 76 57 77 50 78
REMARK SMILES IDX 56 79 58 80 55 81 51 82 52 83 53 84 54 85 80 86 81 87 89 88
REMARK SMILES IDX 82 89 88 90 90 91 87 92 83 93 84 94 85 95 86 96 65 97 66 98
REMARK SMILES IDX 74 99 67 100 73 101 75 102 72 103 68 104 69 105 70 106
REMARK SMILES IDX 71 107
REMARK H PARENT 31 6 17 11 22 33 36 41 95 60 63 71
REMARK Flexibility Score: inf
ROOT
ATOM      1  C   UNL     1       6.474   0.588  -2.946  1.00  0.00     0.023 C 
ENDROOT
BRANCH   1   2
ATOM      2  C   UNL     1       5.431   1.674  -2.759  1.00  0.00     0.116 C 
BRANCH   2   3
ATOM      3  N   UNL     1       4.228   1.481  -3.540  1.00  0.00    -0.354 N 
ATOM      4  C   UNL     1       2.930   1.712  -3.184  1.00  0.00     0.242 C 
ATOM      5  O   UNL     1       2.089   1.812  -4.085  1.00  0.00    -0.273 OA
ATOM      6  H   UNL     1       4.364   1.136  -4.452  1.00  0.00     0.163 HD
BRANCH   4   7
ATOM      7  C   UNL     1       2.527   2.007  -1.725  1.00  0.00     0.175 C 
BRANCH   7   8
ATOM      8  N   UNL     1       3.001   3.376  -1.461  1.00  0.00    -0.343 N 
ATOM      9  O   UNL     1       4.524   3.060   0.209  1.00  0.00    -0.274 OA
ATOM     10  C   UNL     1       4.068   3.754  -0.697  1.00  0.00     0.231 C 
ATOM     11  H   UNL     1       2.489   4.103  -1.884  1.00  0.00     0.164 HD
BRANCH  10  12
ATOM     12  C   UNL     1       4.718   5.090  -1.040  1.00  0.00     0.178 C 
BRANCH  12  13
ATOM     13  S   UNL     1       3.941   6.000  -2.406  1.00  0.00    -0.076 SA
BRANCH  13  14
ATOM     14  C   UNL     1       4.899   5.517  -3.764  1.00  0.00     0.197 A 
ATOM     15  N   UNL     1       4.658   4.466  -4.527  1.00  0.00    -0.122 NA
ATOM     16  N   UNL     1       5.894   6.259  -4.334  1.00  0.00    -0.260 N 
ATOM     17  N   UNL     1       5.496   4.528  -5.638  1.00  0.00    -0.118 NA
ATOM     18  C   UNL     1       6.210   5.609  -5.489  1.00  0.00     0.217 A 
ATOM     19  C   UNL     1       6.576   7.449  -4.108  1.00  0.00     0.068 A 
ATOM     20  S   UNL     1       7.397   6.429  -6.442  1.00  0.00    -0.094 S 
ATOM     21  C   UNL     1       7.431   7.719  -5.192  1.00  0.00     0.055 A 
ATOM     22  C   UNL     1       6.462   8.300  -3.025  1.00  0.00     0.028 A 
ATOM     23  C   UNL     1       8.162   8.893  -5.224  1.00  0.00     0.021 A 
ATOM     24  C   UNL     1       7.206   9.479  -3.056  1.00  0.00     0.002 A 
ATOM     25  C   UNL     1       8.038   9.780  -4.149  1.00  0.00     0.002 A 
ENDBRANCH  13  14
ENDBRANCH  12  13
ENDBRANCH  10  12
ENDBRANCH   7   8
BRANCH   7  26
ATOM     26  C   UNL     1       2.814   0.876  -0.728  1.00  0.00     0.072 C 
BRANCH  26  27
ATOM     27  C   UNL     1       2.307  -0.501  -1.106  1.00  0.00    -0.020 A 
ATOM     28  C   UNL     1       2.953  -1.674  -0.750  1.00  0.00     0.087 A 
ATOM     29  C   UNL     1       1.143  -0.898  -1.860  1.00  0.00     0.003 A 
ATOM     30  N   UNL     1       2.259  -2.736  -1.259  1.00  0.00    -0.361 N 
ATOM     31  C   UNL     1       1.153  -2.295  -1.942  1.00  0.00     0.046 A 
ATOM     32  C   UNL     1       0.084  -0.224  -2.508  1.00  0.00     0.010 A 
ATOM     33  H   UNL     1       2.516  -3.680  -1.151  1.00  0.00     0.166 HD
ATOM     34  C   UNL     1       0.180  -3.031  -2.632  1.00  0.00     0.026 A 
ATOM     35  C   UNL     1      -0.885  -0.942  -3.221  1.00  0.00     0.001 A 
ATOM     36  C   UNL     1      -0.836  -2.328  -3.280  1.00  0.00     0.002 A 
ENDBRANCH  26  27
ENDBRANCH   7  26
ENDBRANCH   4   7
ENDBRANCH   2   3
ENDBRANCH   1   2
BRANCH   1  37
ATOM     37  C   UNL     1       7.129   0.534  -4.324  1.00  0.00     0.023 C 
BRANCH  37  38
ATOM     38  C   UNL     1       7.662   1.864  -4.860  1.00  0.00     0.116 C 
BRANCH  38  39
ATOM     39  N   UNL     1       8.572   2.575  -3.982  1.00  0.00    -0.352 N 
ATOM     40  C   UNL     1       9.936   2.616  -3.863  1.00  0.00     0.251 C 
ATOM     41  H   UNL     1       8.110   3.151  -3.331  1.00  0.00     0.163 HD
ATOM     42  O   UNL     1      10.394   3.578  -3.239  1.00  0.00    -0.269 OA
BRANCH  40  43
ATOM     43  C   UNL     1      10.857   1.544  -4.330  1.00  0.00     0.039 A 
ATOM     44  C   UNL     1      10.482   0.451  -5.106  1.00  0.00     0.014 A 
ATOM     45  C   UNL     1      12.183   1.605  -3.855  1.00  0.00     0.014 A 
ATOM     46  C   UNL     1      11.351  -0.620  -5.273  1.00  0.00     0.010 A 
ATOM     47  C   UNL     1      13.070   0.549  -4.048  1.00  0.00     0.010 A 
ATOM     48  C   UNL     1      12.632  -0.589  -4.710  1.00  0.00    -0.014 A 
BRANCH  48  49
ATOM     49  C   UNL     1      13.514  -1.716  -5.007  1.00  0.00     0.031 A 
ATOM     50  C   UNL     1      13.757  -1.884  -6.467  1.00  0.00     0.074 A 
ATOM     51  C   UNL     1      14.100  -2.512  -4.089  1.00  0.00     0.049 A 
ATOM     52  N   UNL     1      13.289  -2.808  -7.238  1.00  0.00    -0.248 NA
ATOM     53  C   UNL     1      14.423  -0.787  -7.186  1.00  0.00     0.031 C 
ATOM     54  C   UNL     1      14.188  -2.303  -2.642  1.00  0.00     0.029 A 
ATOM     55  N   UNL     1      14.824  -3.656  -4.271  1.00  0.00    -0.354 N 
ATOM     56  C   UNL     1      13.786  -2.534  -8.511  1.00  0.00     0.074 A 
ATOM     57  C   UNL     1      14.313  -1.195  -8.450  1.00  0.00     0.031 C 
ATOM     58  C   UNL     1      15.115  -3.143  -2.122  1.00  0.00     0.029 A 
ATOM     59  C   UNL     1      15.565  -4.053  -3.163  1.00  0.00     0.049 A 
ATOM     60  H   UNL     1      14.821  -4.159  -5.118  1.00  0.00     0.167 HD
ATOM     61  C   UNL     1      13.926  -3.522  -9.440  1.00  0.00     0.034 A 
ATOM     62  C   UNL     1      16.516  -5.024  -3.114  1.00  0.00     0.034 A 
ATOM     63  C   UNL     1      13.197  -4.696  -9.042  1.00  0.00     0.049 A 
ATOM     64  C   UNL     1      16.334  -5.906  -4.286  1.00  0.00     0.074 A 
ATOM     65  C   UNL     1      11.869  -5.020  -8.871  1.00  0.00     0.029 A 
ATOM     66  N   UNL     1      13.924  -5.661  -8.393  1.00  0.00    -0.354 N 
ATOM     67  N   UNL     1      15.340  -6.732  -4.432  1.00  0.00    -0.248 NA
ATOM     68  C   UNL     1      17.057  -5.569  -5.501  1.00  0.00     0.031 C 
ATOM     69  C   UNL     1      11.848  -5.939  -7.785  1.00  0.00     0.029 A 
ATOM     70  C   UNL     1      13.165  -6.194  -7.391  1.00  0.00     0.049 A 
ATOM     71  H   UNL     1      14.846  -5.926  -8.613  1.00  0.00     0.167 HD
ATOM     72  C   UNL     1      15.010  -6.624  -5.772  1.00  0.00     0.074 A 
ATOM     73  C   UNL     1      16.175  -6.006  -6.402  1.00  0.00     0.031 C 
ATOM     74  C   UNL     1      13.718  -6.772  -6.182  1.00  0.00     0.034 A 
BRANCH  61  75
ATOM     75  C   UNL     1      15.046  -3.583 -10.461  1.00  0.00     0.023 A 
ATOM     76  C   UNL     1      16.107  -2.662 -10.505  1.00  0.00     0.031 A 
ATOM     77  C   UNL     1      15.206  -4.735 -11.264  1.00  0.00     0.131 A 
ATOM     78  C   UNL     1      17.255  -2.895 -11.274  1.00  0.00     0.055 A 
ATOM     79  C   UNL     1      16.378  -5.000 -11.983  1.00  0.00     0.041 A 
ATOM     80  F   UNL     1      14.255  -5.681 -11.319  1.00  0.00    -0.206 F 
ATOM     81  C   UNL     1      17.416  -4.080 -11.984  1.00  0.00     0.022 A 
BRANCH  78  82
ATOM     82  S   UNL     1      18.584  -1.662 -11.336  1.00  0.00     0.124 S 
ATOM     83  O   UNL     1      19.738  -2.433 -10.902  1.00  0.00    -0.237 OA
ATOM     84  O   UNL     1      18.564  -1.281 -12.745  1.00  0.00    -0.237 OA
ATOM     85  O   UNL     1      18.128  -0.623 -10.409  1.00  0.00    -0.744 OA
ENDBRANCH  78  82
ENDBRANCH  61  75
BRANCH  62  86
ATOM     86  C   UNL     1      17.823  -4.986  -2.410  1.00  0.00     0.023 A 
ATOM     87  C   UNL     1      18.456  -3.749  -2.202  1.00  0.00     0.031 A 
ATOM     88  C   UNL     1      18.614  -6.146  -2.284  1.00  0.00     0.131 A 
ATOM     89  C   UNL     1      19.835  -3.689  -1.959  1.00  0.00     0.055 A 
ATOM     90  C   UNL     1      19.988  -6.084  -2.016  1.00  0.00     0.041 A 
ATOM     91  F   UNL     1      18.086  -7.359  -2.507  1.00  0.00    -0.206 F 
ATOM     92  C   UNL     1      20.609  -4.848  -1.871  1.00  0.00     0.022 A 
BRANCH  89  93
ATOM     93  S   UNL     1      20.676  -2.085  -1.872  1.00  0.00     0.124 S 
ATOM     94  O   UNL     1      21.486  -2.226  -0.664  1.00  0.00    -0.237 OA
ATOM     95  O   UNL     1      21.418  -2.071  -3.128  1.00  0.00    -0.237 OA
ATOM     96  O   UNL     1      19.578  -1.129  -1.770  1.00  0.00    -0.744 OA
ENDBRANCH  89  93
ENDBRANCH  62  86
BRANCH  74  97
ATOM     97  C   UNL     1      12.720  -7.401  -5.240  1.00  0.00     0.023 A 
ATOM     98  C   UNL     1      11.936  -8.434  -5.782  1.00  0.00     0.031 A 
ATOM     99  C   UNL     1      12.361  -6.904  -3.973  1.00  0.00     0.131 A 
ATOM    100  C   UNL     1      10.797  -8.886  -5.113  1.00  0.00     0.055 A 
ATOM    101  C   UNL     1      11.269  -7.422  -3.266  1.00  0.00     0.041 A 
ATOM    102  F   UNL     1      12.989  -5.855  -3.423  1.00  0.00    -0.206 F 
ATOM    103  C   UNL     1      10.466  -8.400  -3.847  1.00  0.00     0.022 A 
BRANCH 100 104
ATOM    104  S   UNL     1       9.624  -9.969  -5.968  1.00  0.00     0.124 S 
ATOM    105  O   UNL     1       9.727 -11.204  -5.197  1.00  0.00    -0.237 OA
ATOM    106  O   UNL     1       8.365  -9.241  -5.822  1.00  0.00    -0.237 OA
ATOM    107  O   UNL     1      10.137 -10.040  -7.334  1.00  0.00    -0.744 OA
ENDBRANCH 100 104
ENDBRANCH  74  97
ENDBRANCH  48  49
ENDBRANCH  40  43
ENDBRANCH  38  39
ENDBRANCH  37  38
ENDBRANCH   1  37
TORSDOF 20
