REMARK SMILES CCn1cc(S(=O)(=O)Nc2c(C)cc(C)cc2C(=O)NCCCCNC(=O)c2ccc(-c3c4nc(c(-c5cc(S(=O)(=O)[O-])ccc5F)c5ccc([nH]5)c(-c5cc(S(=O)(=O)[O-])ccc5F)c5nc(c(-c6cc(S(=O)(=O)[O-])ccc6F)c6ccc3[nH]6)C=C5)C=C4)cc2)cn1
REMARK SMILES IDX 22 1 21 2 20 3 18 4 19 5 17 7 10 8 11 9 12 10 13 11 16 12
REMARK SMILES IDX 14 13 15 14 9 15 6 17 7 18 8 19 5 20 3 21 4 22 92 23 91 24
REMARK SMILES IDX 2 25 1 26 23 27 24 28 25 29 26 30 27 32 28 33 29 34 90 35
REMARK SMILES IDX 30 36 89 37 31 38 32 39 33 40 83 41 34 42 88 43 82 44 84 45
REMARK SMILES IDX 35 46 87 47 81 48 80 49 36 51 68 52 48 53 67 54 49 55 52 56
REMARK SMILES IDX 66 57 85 58 50 59 51 60 65 62 86 63 53 64 37 65 38 66 46 67
REMARK SMILES IDX 39 68 45 69 47 70 44 71 40 72 41 73 42 74 43 75 69 76 70 77
REMARK SMILES IDX 78 78 71 79 77 80 79 81 76 82 72 83 73 84 74 85 75 86 54 87
REMARK SMILES IDX 55 88 63 89 56 90 62 91 64 92 61 93 57 94 58 95 59 96 60 97
REMARK H PARENT 20 6 9 16 25 31 84 50 52 61
REMARK Flexibility Score: inf
ROOT
ATOM      1  C   UNL     1       3.994   5.922   3.605  1.00  0.00     0.023 C 
ENDROOT
BRANCH   1   2
ATOM      2  C   UNL     1       2.517   5.753   3.252  1.00  0.00     0.116 C 
BRANCH   2   3
ATOM      3  N   UNL     1       2.021   6.531   2.151  1.00  0.00    -0.352 N 
ATOM      4  C   UNL     1       1.019   6.247   1.256  1.00  0.00     0.253 C 
ATOM      5  O   UNL     1       0.801   7.117   0.405  1.00  0.00    -0.269 OA
ATOM      6  H   UNL     1       2.467   7.399   2.018  1.00  0.00     0.163 HD
BRANCH   4   7
ATOM      7  C   UNL     1       0.216   4.971   1.161  1.00  0.00     0.064 A 
ATOM      8  C   UNL     1      -0.361   4.186   2.196  1.00  0.00     0.065 A 
ATOM      9  C   UNL     1      -1.362   3.231   1.859  1.00  0.00    -0.026 A 
ATOM     10  C   UNL     1      -2.185   2.465   2.865  1.00  0.00     0.046 C 
ATOM     11  C   UNL     1      -1.623   2.930   0.509  1.00  0.00     0.009 A 
ATOM     12  C   UNL     1      -0.105   4.645  -0.183  1.00  0.00     0.019 A 
ATOM     13  C   UNL     1      -0.995   3.622  -0.520  1.00  0.00    -0.050 A 
ATOM     14  C   UNL     1      -1.306   3.291  -1.950  1.00  0.00     0.044 C 
BRANCH   8  15
ATOM     15  N   UNL     1      -0.031   4.408   3.577  1.00  0.00    -0.278 N 
ATOM     16  H   UNL     1      -0.182   5.298   3.970  1.00  0.00     0.180 HD
BRANCH  15  17
ATOM     17  S   UNL     1       0.618   3.165   4.554  1.00  0.00     0.265 S 
ATOM     18  O   UNL     1      -0.435   2.766   5.455  1.00  0.00    -0.201 OA
ATOM     19  O   UNL     1       1.897   3.608   5.076  1.00  0.00    -0.201 OA
BRANCH  17  20
ATOM     20  C   UNL     1       1.025   1.711   3.745  1.00  0.00     0.125 A 
ATOM     21  N   UNL     1       1.234   0.067   2.327  1.00  0.00    -0.272 N 
ATOM     22  C   UNL     1       1.234   1.433   2.411  1.00  0.00     0.131 A 
ATOM     23  N   UNL     1       1.317  -0.533   3.534  1.00  0.00    -0.180 NA
ATOM     24  C   UNL     1       1.171   0.477   4.398  1.00  0.00     0.157 A 
BRANCH  21  25
ATOM     25  C   UNL     1       0.895  -0.753   1.178  1.00  0.00     0.141 C 
ATOM     26  C   UNL     1       1.270  -0.185  -0.180  1.00  0.00     0.029 C 
ENDBRANCH  21  25
ENDBRANCH  17  20
ENDBRANCH  15  17
ENDBRANCH   8  15
ENDBRANCH   4   7
ENDBRANCH   2   3
ENDBRANCH   1   2
BRANCH   1  27
ATOM     27  C   UNL     1       4.451   7.257   4.199  1.00  0.00     0.023 C 
BRANCH  27  28
ATOM     28  C   UNL     1       3.619   7.806   5.349  1.00  0.00     0.116 C 
BRANCH  28  29
ATOM     29  N   UNL     1       3.566   6.961   6.538  1.00  0.00    -0.352 N 
ATOM     30  C   UNL     1       2.973   7.287   7.749  1.00  0.00     0.251 C 
ATOM     31  H   UNL     1       3.991   6.075   6.474  1.00  0.00     0.163 HD
ATOM     32  O   UNL     1       3.207   6.650   8.768  1.00  0.00    -0.269 OA
BRANCH  30  33
ATOM     33  C   UNL     1       2.072   8.459   7.773  1.00  0.00     0.039 A 
ATOM     34  C   UNL     1       2.311   9.526   8.638  1.00  0.00     0.014 A 
ATOM     35  C   UNL     1       1.082   8.540   6.796  1.00  0.00     0.014 A 
ATOM     36  C   UNL     1       1.642  10.731   8.418  1.00  0.00     0.010 A 
ATOM     37  C   UNL     1       0.505   9.763   6.514  1.00  0.00     0.010 A 
ATOM     38  C   UNL     1       0.778  10.873   7.316  1.00  0.00    -0.014 A 
BRANCH  38  39
ATOM     39  C   UNL     1       0.293  12.208   6.937  1.00  0.00     0.031 A 
ATOM     40  C   UNL     1       1.312  13.302   6.898  1.00  0.00     0.074 A 
ATOM     41  C   UNL     1      -0.930  12.488   6.437  1.00  0.00     0.049 A 
ATOM     42  N   UNL     1       1.391  14.337   7.668  1.00  0.00    -0.248 NA
ATOM     43  C   UNL     1       2.417  13.201   5.935  1.00  0.00     0.031 C 
ATOM     44  C   UNL     1      -2.011  11.563   6.090  1.00  0.00     0.029 A 
ATOM     45  N   UNL     1      -1.424  13.697   6.035  1.00  0.00    -0.354 N 
ATOM     46  C   UNL     1       2.424  15.131   7.173  1.00  0.00     0.074 A 
ATOM     47  C   UNL     1       3.108  14.312   6.205  1.00  0.00     0.031 C 
ATOM     48  C   UNL     1      -2.926  12.201   5.328  1.00  0.00     0.029 A 
ATOM     49  C   UNL     1      -2.596  13.614   5.297  1.00  0.00     0.049 A 
ATOM     50  H   UNL     1      -0.986  14.552   6.251  1.00  0.00     0.167 HD
ATOM     51  C   UNL     1       2.516  16.458   7.481  1.00  0.00     0.034 A 
ATOM     52  C   UNL     1      -3.277  14.625   4.706  1.00  0.00     0.034 A 
ATOM     53  C   UNL     1       1.676  16.787   8.613  1.00  0.00     0.049 A 
ATOM     54  C   UNL     1      -2.940  15.865   5.440  1.00  0.00     0.074 A 
ATOM     55  C   UNL     1       1.579  16.333   9.916  1.00  0.00     0.029 A 
ATOM     56  N   UNL     1       0.498  17.462   8.382  1.00  0.00    -0.354 N 
ATOM     57  N   UNL     1      -3.256  16.063   6.691  1.00  0.00    -0.248 NA
ATOM     58  C   UNL     1      -1.884  16.722   4.929  1.00  0.00     0.031 C 
ATOM     59  C   UNL     1       0.177  16.285  10.181  1.00  0.00     0.029 A 
ATOM     60  C   UNL     1      -0.486  16.781   9.056  1.00  0.00     0.049 A 
ATOM     61  H   UNL     1       0.383  18.275   7.839  1.00  0.00     0.167 HD
ATOM     62  C   UNL     1      -2.170  16.729   7.233  1.00  0.00     0.074 A 
ATOM     63  C   UNL     1      -1.423  17.222   6.079  1.00  0.00     0.031 C 
ATOM     64  C   UNL     1      -1.832  16.582   8.550  1.00  0.00     0.034 A 
BRANCH  51  65
ATOM     65  C   UNL     1       3.113  17.543   6.603  1.00  0.00     0.023 A 
ATOM     66  C   UNL     1       3.095  18.867   7.095  1.00  0.00     0.031 A 
ATOM     67  C   UNL     1       3.438  17.411   5.235  1.00  0.00     0.131 A 
ATOM     68  C   UNL     1       3.277  19.969   6.239  1.00  0.00     0.055 A 
ATOM     69  C   UNL     1       3.691  18.509   4.402  1.00  0.00     0.041 A 
ATOM     70  F   UNL     1       3.441  16.232   4.604  1.00  0.00    -0.206 F 
ATOM     71  C   UNL     1       3.578  19.798   4.893  1.00  0.00     0.022 A 
BRANCH  68  72
ATOM     72  S   UNL     1       2.913  21.628   6.877  1.00  0.00     0.124 S 
ATOM     73  O   UNL     1       1.584  21.439   7.448  1.00  0.00    -0.237 OA
ATOM     74  O   UNL     1       4.002  21.829   7.828  1.00  0.00    -0.237 OA
ATOM     75  O   UNL     1       2.965  22.469   5.683  1.00  0.00    -0.744 OA
ENDBRANCH  68  72
ENDBRANCH  51  65
BRANCH  52  76
ATOM     76  C   UNL     1      -4.004  14.577   3.416  1.00  0.00     0.023 A 
ATOM     77  C   UNL     1      -5.010  15.499   3.076  1.00  0.00     0.031 A 
ATOM     78  C   UNL     1      -3.537  13.729   2.386  1.00  0.00     0.131 A 
ATOM     79  C   UNL     1      -5.508  15.547   1.754  1.00  0.00     0.055 A 
ATOM     80  C   UNL     1      -4.037  13.775   1.084  1.00  0.00     0.041 A 
ATOM     81  F   UNL     1      -2.516  12.882   2.594  1.00  0.00    -0.206 F 
ATOM     82  C   UNL     1      -5.022  14.694   0.760  1.00  0.00     0.022 A 
BRANCH  79  83
ATOM     83  S   UNL     1      -6.731  16.812   1.286  1.00  0.00     0.124 S 
ATOM     84  O   UNL     1      -7.939  16.334   1.947  1.00  0.00    -0.237 OA
ATOM     85  O   UNL     1      -6.138  18.034   1.818  1.00  0.00    -0.237 OA
ATOM     86  O   UNL     1      -6.757  16.734  -0.176  1.00  0.00    -0.744 OA
ENDBRANCH  79  83
ENDBRANCH  52  76
BRANCH  64  87
ATOM     87  C   UNL     1      -2.834  15.940   9.492  1.00  0.00     0.023 A 
ATOM     88  C   UNL     1      -3.411  14.663   9.306  1.00  0.00     0.031 A 
ATOM     89  C   UNL     1      -3.121  16.611  10.695  1.00  0.00     0.131 A 
ATOM     90  C   UNL     1      -4.252  14.114  10.295  1.00  0.00     0.055 A 
ATOM     91  C   UNL     1      -3.936  16.056  11.681  1.00  0.00     0.041 A 
ATOM     92  F   UNL     1      -2.582  17.816  10.949  1.00  0.00    -0.206 F 
ATOM     93  C   UNL     1      -4.511  14.807  11.482  1.00  0.00     0.022 A 
BRANCH  90  94
ATOM     94  S   UNL     1      -5.043  12.492  10.046  1.00  0.00     0.124 S 
ATOM     95  O   UNL     1      -5.570  12.569   8.688  1.00  0.00    -0.237 OA
ATOM     96  O   UNL     1      -3.933  11.564  10.248  1.00  0.00    -0.237 OA
ATOM     97  O   UNL     1      -6.067  12.449  11.092  1.00  0.00    -0.744 OA
ENDBRANCH  90  94
ENDBRANCH  64  87
ENDBRANCH  38  39
ENDBRANCH  30  33
ENDBRANCH  28  29
ENDBRANCH  27  28
ENDBRANCH   1  27
TORSDOF 18
