REMARK SMILES CC(C)[C@@H]1C(=O)Nc2ccccc2N1C(=O)N[C@H](Cc1ccccc1)C(=O)NCCCCNC(=O)c1ccc(-c2c3nc(c(-c4cc(S(=O)(=O)[O-])ccc4F)c4ccc([nH]4)c(-c4cc(S(=O)(=O)[O-])ccc4F)c4nc(c(-c5cc(S(=O)(=O)[O-])ccc5F)c5ccc2[nH]5)C=C4)C=C3)cc1
REMARK SMILES IDX 30 1 29 2 28 3 26 4 27 5 18 7 17 8 15 9 16 10 14 12 4 13
REMARK SMILES IDX 5 14 6 15 7 16 13 17 8 18 12 20 9 21 11 22 10 23 2 24 1 25
REMARK SMILES IDX 3 26 19 27 20 28 21 29 25 30 22 31 24 32 23 33 31 34 32 35
REMARK SMILES IDX 33 36 34 37 35 39 36 40 37 41 98 42 38 43 97 44 39 45 40 46
REMARK SMILES IDX 41 47 91 48 42 49 96 50 90 51 92 52 43 53 95 54 89 55 88 56
REMARK SMILES IDX 44 58 76 59 56 60 75 61 57 62 60 63 74 64 93 65 58 66 59 67
REMARK SMILES IDX 73 69 94 70 61 71 45 72 46 73 54 74 47 75 53 76 55 77 52 78
REMARK SMILES IDX 48 79 49 80 50 81 51 82 77 83 78 84 86 85 79 86 85 87 87 88
REMARK SMILES IDX 84 89 80 90 81 91 82 92 83 93 62 94 63 95 71 96 64 97 70 98
REMARK SMILES IDX 72 99 69 100 65 101 66 102 67 103 68 104
REMARK H PARENT 28 6 17 11 7 19 33 38 92 57 60 68
REMARK Flexibility Score: inf
ROOT
ATOM      1  C   UNL     1       5.285   1.892   1.683  1.00  0.00     0.023 C 
ENDROOT
BRANCH   1   2
ATOM      2  C   UNL     1       4.471   0.610   1.980  1.00  0.00     0.116 C 
BRANCH   2   3
ATOM      3  N   UNL     1       3.074   0.814   2.315  1.00  0.00    -0.354 N 
ATOM      4  C   UNL     1       2.040  -0.067   2.225  1.00  0.00     0.242 C 
ATOM      5  O   UNL     1       1.362  -0.176   3.259  1.00  0.00    -0.273 OA
ATOM      6  H   UNL     1       2.843   1.709   2.652  1.00  0.00     0.163 HD
BRANCH   4   7
ATOM      7  C   UNL     1       1.531  -0.758   0.915  1.00  0.00     0.177 C 
BRANCH   7   8
ATOM      8  N   UNL     1       2.303  -0.890  -0.328  1.00  0.00    -0.326 N 
ATOM      9  C   UNL     1       3.064  -0.310  -1.256  1.00  0.00     0.323 C 
ATOM     10  O   UNL     1       3.445  -1.140  -2.099  1.00  0.00    -0.248 OA
ATOM     11  H   UNL     1       2.222  -1.834  -0.597  1.00  0.00     0.166 HD
BRANCH   9  12
ATOM     12  N   UNL     1       3.502   0.980  -1.300  1.00  0.00    -0.280 N 
ATOM     13  C   UNL     1       2.815   2.243  -0.884  1.00  0.00     0.184 C 
ATOM     14  C   UNL     1       3.375   3.558  -1.483  1.00  0.00     0.247 C 
ATOM     15  O   UNL     1       2.900   4.666  -1.216  1.00  0.00    -0.272 OA
ATOM     16  N   UNL     1       4.501   3.514  -2.228  1.00  0.00    -0.322 N 
ATOM     17  C   UNL     1       4.892   1.173  -1.735  1.00  0.00     0.070 A 
ATOM     18  C   UNL     1       5.327   2.402  -2.242  1.00  0.00     0.065 A 
ATOM     19  H   UNL     1       4.741   4.295  -2.777  1.00  0.00     0.170 HD
ATOM     20  C   UNL     1       5.886   0.195  -1.529  1.00  0.00     0.028 A 
ATOM     21  C   UNL     1       6.654   2.620  -2.633  1.00  0.00     0.028 A 
ATOM     22  C   UNL     1       7.239   0.453  -1.803  1.00  0.00     0.002 A 
ATOM     23  C   UNL     1       7.620   1.659  -2.375  1.00  0.00     0.002 A 
BRANCH  13  24
ATOM     24  C   UNL     1       1.283   2.419  -1.050  1.00  0.00     0.015 C 
ATOM     25  C   UNL     1       0.618   1.449  -2.003  1.00  0.00     0.010 C 
ATOM     26  C   UNL     1       0.637   2.698   0.314  1.00  0.00     0.010 C 
ENDBRANCH  13  24
ENDBRANCH   9  12
ENDBRANCH   7   8
BRANCH   7  27
ATOM     27  C   UNL     1      -0.046  -0.571   0.874  1.00  0.00     0.070 C 
BRANCH  27  28
ATOM     28  C   UNL     1      -1.056  -0.862  -0.228  1.00  0.00    -0.045 A 
ATOM     29  C   UNL     1      -1.962   0.165  -0.584  1.00  0.00     0.004 A 
ATOM     30  C   UNL     1      -1.292  -2.126  -0.775  1.00  0.00     0.004 A 
ATOM     31  C   UNL     1      -3.002  -0.023  -1.496  1.00  0.00     0.000 A 
ATOM     32  C   UNL     1      -2.371  -2.331  -1.661  1.00  0.00     0.000 A 
ATOM     33  C   UNL     1      -3.215  -1.281  -2.031  1.00  0.00     0.000 A 
ENDBRANCH  27  28
ENDBRANCH   7  27
ENDBRANCH   4   7
ENDBRANCH   2   3
ENDBRANCH   1   2
BRANCH   1  34
ATOM     34  C   UNL     1       4.755   3.239   2.202  1.00  0.00     0.023 C 
BRANCH  34  35
ATOM     35  C   UNL     1       5.673   4.426   1.855  1.00  0.00     0.116 C 
BRANCH  35  36
ATOM     36  N   UNL     1       5.876   4.633   0.419  1.00  0.00    -0.352 N 
ATOM     37  C   UNL     1       6.941   5.181  -0.269  1.00  0.00     0.251 C 
ATOM     38  H   UNL     1       5.130   4.332  -0.149  1.00  0.00     0.163 HD
ATOM     39  O   UNL     1       6.807   5.517  -1.446  1.00  0.00    -0.269 OA
BRANCH  37  40
ATOM     40  C   UNL     1       8.207   5.453   0.437  1.00  0.00     0.039 A 
ATOM     41  C   UNL     1       8.795   6.714   0.307  1.00  0.00     0.014 A 
ATOM     42  C   UNL     1       8.714   4.530   1.347  1.00  0.00     0.014 A 
ATOM     43  C   UNL     1       9.756   7.115   1.234  1.00  0.00     0.010 A 
ATOM     44  C   UNL     1       9.563   4.977   2.348  1.00  0.00     0.010 A 
ATOM     45  C   UNL     1      10.056   6.290   2.330  1.00  0.00    -0.014 A 
BRANCH  45  46
ATOM     46  C   UNL     1      10.805   6.819   3.501  1.00  0.00     0.031 A 
ATOM     47  C   UNL     1      12.075   6.154   3.951  1.00  0.00     0.074 A 
ATOM     48  C   UNL     1      10.279   7.846   4.204  1.00  0.00     0.049 A 
ATOM     49  N   UNL     1      12.843   6.442   4.969  1.00  0.00    -0.248 NA
ATOM     50  C   UNL     1      12.512   4.978   3.183  1.00  0.00     0.031 C 
ATOM     51  C   UNL     1       8.998   8.502   3.915  1.00  0.00     0.029 A 
ATOM     52  N   UNL     1      10.748   8.528   5.299  1.00  0.00    -0.354 N 
ATOM     53  C   UNL     1      13.845   5.478   4.969  1.00  0.00     0.074 A 
ATOM     54  C   UNL     1      13.530   4.546   3.909  1.00  0.00     0.031 C 
ATOM     55  C   UNL     1       8.819   9.525   4.764  1.00  0.00     0.029 A 
ATOM     56  C   UNL     1       9.943   9.576   5.690  1.00  0.00     0.049 A 
ATOM     57  H   UNL     1      11.584   8.290   5.763  1.00  0.00     0.167 HD
ATOM     58  C   UNL     1      14.948   5.402   5.754  1.00  0.00     0.034 A 
ATOM     59  C   UNL     1      10.101  10.481   6.676  1.00  0.00     0.034 A 
ATOM     60  C   UNL     1      15.241   6.355   6.796  1.00  0.00     0.049 A 
ATOM     61  C   UNL     1      11.349  10.396   7.518  1.00  0.00     0.074 A 
ATOM     62  C   UNL     1      16.337   6.411   7.638  1.00  0.00     0.029 A 
ATOM     63  N   UNL     1      14.423   7.428   7.138  1.00  0.00    -0.354 N 
ATOM     64  N   UNL     1      12.325   9.517   7.460  1.00  0.00    -0.248 NA
ATOM     65  C   UNL     1      11.528  11.431   8.542  1.00  0.00     0.031 C 
ATOM     66  C   UNL     1      16.154   7.480   8.523  1.00  0.00     0.029 A 
ATOM     67  C   UNL     1      14.982   8.139   8.187  1.00  0.00     0.049 A 
ATOM     68  H   UNL     1      13.570   7.648   6.698  1.00  0.00     0.167 HD
ATOM     69  C   UNL     1      13.251   9.916   8.418  1.00  0.00     0.074 A 
ATOM     70  C   UNL     1      12.724  11.125   9.021  1.00  0.00     0.031 C 
ATOM     71  C   UNL     1      14.430   9.341   8.770  1.00  0.00     0.034 A 
BRANCH  58  72
ATOM     72  C   UNL     1      15.889   4.244   5.509  1.00  0.00     0.023 A 
ATOM     73  C   UNL     1      16.517   4.060   4.263  1.00  0.00     0.031 A 
ATOM     74  C   UNL     1      16.108   3.273   6.501  1.00  0.00     0.131 A 
ATOM     75  C   UNL     1      17.241   2.887   4.007  1.00  0.00     0.055 A 
ATOM     76  C   UNL     1      16.911   2.153   6.270  1.00  0.00     0.041 A 
ATOM     77  F   UNL     1      15.521   3.377   7.703  1.00  0.00    -0.206 F 
ATOM     78  C   UNL     1      17.466   1.944   5.010  1.00  0.00     0.022 A 
BRANCH  75  79
ATOM     79  S   UNL     1      17.730   2.531   2.296  1.00  0.00     0.124 S 
ATOM     80  O   UNL     1      16.433   2.482   1.625  1.00  0.00    -0.237 OA
ATOM     81  O   UNL     1      18.578   3.670   1.965  1.00  0.00    -0.237 OA
ATOM     82  O   UNL     1      18.420   1.246   2.397  1.00  0.00    -0.744 OA
ENDBRANCH  75  79
ENDBRANCH  58  72
BRANCH  59  83
ATOM     83  C   UNL     1       9.085  11.552   6.908  1.00  0.00     0.023 A 
ATOM     84  C   UNL     1       9.409  12.910   6.743  1.00  0.00     0.031 A 
ATOM     85  C   UNL     1       7.781  11.240   7.334  1.00  0.00     0.131 A 
ATOM     86  C   UNL     1       8.464  13.903   7.049  1.00  0.00     0.055 A 
ATOM     87  C   UNL     1       6.827  12.229   7.585  1.00  0.00     0.041 A 
ATOM     88  F   UNL     1       7.409   9.961   7.502  1.00  0.00    -0.206 F 
ATOM     89  C   UNL     1       7.171  13.571   7.457  1.00  0.00     0.022 A 
BRANCH  86  90
ATOM     90  S   UNL     1       8.977  15.643   6.992  1.00  0.00     0.124 S 
ATOM     91  O   UNL     1      10.110  15.649   7.910  1.00  0.00    -0.237 OA
ATOM     92  O   UNL     1       9.295  15.818   5.579  1.00  0.00    -0.237 OA
ATOM     93  O   UNL     1       7.793  16.363   7.457  1.00  0.00    -0.744 OA
ENDBRANCH  86  90
ENDBRANCH  59  83
BRANCH  71  94
ATOM     94  C   UNL     1      15.241  10.050   9.825  1.00  0.00     0.023 A 
ATOM     95  C   UNL     1      14.789  10.168  11.150  1.00  0.00     0.031 A 
ATOM     96  C   UNL     1      16.476  10.633   9.491  1.00  0.00     0.131 A 
ATOM     97  C   UNL     1      15.533  10.911  12.077  1.00  0.00     0.055 A 
ATOM     98  C   UNL     1      17.246  11.312  10.435  1.00  0.00     0.041 A 
ATOM     99  F   UNL     1      16.955  10.550   8.239  1.00  0.00    -0.206 F 
ATOM    100  C   UNL     1      16.767  11.468  11.733  1.00  0.00     0.022 A 
BRANCH  97 101
ATOM    101  S   UNL     1      14.812  11.234  13.709  1.00  0.00     0.124 S 
ATOM    102  O   UNL     1      13.556  11.891  13.360  1.00  0.00    -0.237 OA
ATOM    103  O   UNL     1      14.694   9.891  14.268  1.00  0.00    -0.237 OA
ATOM    104  O   UNL     1      15.802  12.092  14.357  1.00  0.00    -0.744 OA
ENDBRANCH  97 101
ENDBRANCH  71  94
ENDBRANCH  45  46
ENDBRANCH  37  40
ENDBRANCH  35  36
ENDBRANCH  34  35
ENDBRANCH   1  34
TORSDOF 19
