REMARK SMILES COc1ccc([C@H]2CC(c3ccc(S(C)(=O)=O)cc3)=NN2c2ccc(C(=O)NCCCCNC(=O)c3ccc(-c4c5nc(c(-c6cc(S(=O)(=O)[O-])ccc6F)c6ccc([nH]6)c(-c6cc(S(=O)(=O)[O-])ccc6F)c6nc(c(-c7cc(S(=O)(=O)[O-])ccc7F)c7ccc4[nH]7)C=C6)C=C5)cc3)cc2)cc1
REMARK SMILES IDX 30 1 29 2 28 3 26 4 27 5 25 7 22 8 23 9 100 10 24 11 99 12
REMARK SMILES IDX 21 13 7 14 8 15 9 16 20 17 6 18 3 19 4 20 102 21 5 22 101 23
REMARK SMILES IDX 2 24 1 25 10 26 11 27 19 28 12 29 18 30 13 31 14 32 15 33
REMARK SMILES IDX 16 34 17 35 31 36 32 37 33 38 34 39 35 41 36 42 37 43 98 44
REMARK SMILES IDX 38 45 97 46 39 47 40 48 41 49 91 50 42 51 96 52 90 53 92 54
REMARK SMILES IDX 43 55 95 56 89 57 88 58 44 60 76 61 56 62 75 63 57 64 60 65
REMARK SMILES IDX 74 66 93 67 58 68 59 69 73 71 94 72 61 73 45 74 46 75 54 76
REMARK SMILES IDX 47 77 53 78 55 79 52 80 48 81 49 82 50 83 51 84 77 85 78 86
REMARK SMILES IDX 86 87 79 88 85 89 87 90 84 91 80 92 81 93 82 94 83 95 62 96
REMARK SMILES IDX 63 97 71 98 64 99 70 100 72 101 69 102 65 103 66 104 67 105
REMARK SMILES IDX 68 106
REMARK H PARENT 28 6 33 40 92 59 60 70
REMARK Flexibility Score: inf
ROOT
ATOM      1  C   UNL     1       0.427   2.611 -10.371  1.00  0.00     0.023 C 
ENDROOT
BRANCH   1   2
ATOM      2  C   UNL     1       0.287   1.676  -9.167  1.00  0.00     0.116 C 
BRANCH   2   3
ATOM      3  N   UNL     1       1.446   0.815  -9.065  1.00  0.00    -0.352 N 
ATOM      4  C   UNL     1       2.614   0.933  -8.356  1.00  0.00     0.251 C 
ATOM      5  O   UNL     1       3.444   0.030  -8.467  1.00  0.00    -0.269 OA
ATOM      6  H   UNL     1       1.385  -0.007  -9.604  1.00  0.00     0.163 HD
BRANCH   4   7
ATOM      7  C   UNL     1       2.888   2.057  -7.416  1.00  0.00     0.039 A 
ATOM      8  C   UNL     1       3.375   3.997  -5.424  1.00  0.00     0.060 A 
ATOM      9  C   UNL     1       4.033   2.765  -5.394  1.00  0.00     0.029 A 
ATOM     10  C   UNL     1       2.543   4.282  -6.504  1.00  0.00     0.029 A 
ATOM     11  C   UNL     1       3.777   1.795  -6.365  1.00  0.00     0.016 A 
ATOM     12  C   UNL     1       2.336   3.337  -7.510  1.00  0.00     0.016 A 
BRANCH   8  13
ATOM     13  N   UNL     1       3.523   4.886  -4.378  1.00  0.00    -0.257 N 
ATOM     14  C   UNL     1       2.442   5.255  -3.466  1.00  0.00     0.144 C 
ATOM     15  C   UNL     1       3.132   6.264  -2.537  1.00  0.00     0.091 C 
ATOM     16  C   UNL     1       4.454   6.402  -3.244  1.00  0.00     0.071 C 
ATOM     17  N   UNL     1       4.646   5.625  -4.261  1.00  0.00    -0.176 NA
BRANCH  14  18
ATOM     18  C   UNL     1       1.885   4.035  -2.752  1.00  0.00    -0.023 A 
ATOM     19  C   UNL     1       0.881   1.665  -1.597  1.00  0.00     0.118 A 
ATOM     20  C   UNL     1       0.047   2.496  -2.345  1.00  0.00     0.047 A 
ATOM     21  C   UNL     1       2.221   2.007  -1.436  1.00  0.00     0.047 A 
ATOM     22  C   UNL     1       0.538   3.676  -2.912  1.00  0.00     0.010 A 
ATOM     23  C   UNL     1       2.717   3.184  -2.006  1.00  0.00     0.010 A 
BRANCH  19  24
ATOM     24  O   UNL     1       0.300   0.520  -1.127  1.00  0.00    -0.497 OA
ATOM     25  C   UNL     1       0.843   0.014   0.087  1.00  0.00     0.278 C 
ENDBRANCH  19  24
ENDBRANCH  14  18
BRANCH  16  26
ATOM     26  C   UNL     1       5.461   7.375  -2.815  1.00  0.00    -0.002 A 
ATOM     27  C   UNL     1       5.995   8.246  -3.772  1.00  0.00     0.011 A 
ATOM     28  C   UNL     1       5.921   7.381  -1.498  1.00  0.00     0.011 A 
ATOM     29  C   UNL     1       6.994   9.146  -3.405  1.00  0.00     0.021 A 
ATOM     30  C   UNL     1       6.941   8.263  -1.135  1.00  0.00     0.021 A 
ATOM     31  C   UNL     1       7.473   9.137  -2.091  1.00  0.00     0.067 A 
BRANCH  31  32
ATOM     32  S   UNL     1       8.768  10.266  -1.637  1.00  0.00     0.175 S 
ATOM     33  C   UNL     1      10.134   9.807  -2.671  1.00  0.00     0.163 C 
ATOM     34  O   UNL     1       8.322  11.590  -2.022  1.00  0.00    -0.224 OA
ATOM     35  O   UNL     1       9.143   9.975  -0.265  1.00  0.00    -0.224 OA
ENDBRANCH  31  32
ENDBRANCH  16  26
ENDBRANCH   8  13
ENDBRANCH   4   7
ENDBRANCH   2   3
ENDBRANCH   1   2
BRANCH   1  36
ATOM     36  C   UNL     1       0.111   1.943 -11.709  1.00  0.00     0.023 C 
BRANCH  36  37
ATOM     37  C   UNL     1      -1.328   1.466 -11.846  1.00  0.00     0.116 C 
BRANCH  37  38
ATOM     38  N   UNL     1      -2.303   2.540 -11.710  1.00  0.00    -0.352 N 
ATOM     39  C   UNL     1      -3.515   2.654 -12.351  1.00  0.00     0.251 C 
ATOM     40  H   UNL     1      -2.068   3.267 -11.088  1.00  0.00     0.163 HD
ATOM     41  O   UNL     1      -4.192   3.668 -12.239  1.00  0.00    -0.269 OA
BRANCH  39  42
ATOM     42  C   UNL     1      -3.946   1.536 -13.213  1.00  0.00     0.039 A 
ATOM     43  C   UNL     1      -4.222   1.782 -14.558  1.00  0.00     0.014 A 
ATOM     44  C   UNL     1      -3.948   0.234 -12.707  1.00  0.00     0.014 A 
ATOM     45  C   UNL     1      -4.423   0.704 -15.421  1.00  0.00     0.010 A 
ATOM     46  C   UNL     1      -4.068  -0.837 -13.582  1.00  0.00     0.010 A 
ATOM     47  C   UNL     1      -4.300  -0.614 -14.950  1.00  0.00    -0.014 A 
BRANCH  47  48
ATOM     48  C   UNL     1      -4.407  -1.784 -15.859  1.00  0.00     0.031 A 
ATOM     49  C   UNL     1      -5.497  -2.796 -15.638  1.00  0.00     0.074 A 
ATOM     50  C   UNL     1      -3.478  -1.983 -16.815  1.00  0.00     0.049 A 
ATOM     51  N   UNL     1      -5.684  -3.954 -16.216  1.00  0.00    -0.248 NA
ATOM     52  C   UNL     1      -6.487  -2.475 -14.598  1.00  0.00     0.031 C 
ATOM     53  C   UNL     1      -2.356  -1.087 -17.106  1.00  0.00     0.029 A 
ATOM     54  N   UNL     1      -3.317  -3.013 -17.709  1.00  0.00    -0.354 N 
ATOM     55  C   UNL     1      -6.799  -4.508 -15.599  1.00  0.00     0.074 A 
ATOM     56  C   UNL     1      -7.204  -3.587 -14.558  1.00  0.00     0.031 C 
ATOM     57  C   UNL     1      -1.637  -1.597 -18.119  1.00  0.00     0.029 A 
ATOM     58  C   UNL     1      -2.206  -2.882 -18.512  1.00  0.00     0.049 A 
ATOM     59  H   UNL     1      -3.938  -3.774 -17.771  1.00  0.00     0.167 HD
ATOM     60  C   UNL     1      -7.438  -5.669 -15.887  1.00  0.00     0.034 A 
ATOM     61  C   UNL     1      -1.691  -3.713 -19.441  1.00  0.00     0.034 A 
ATOM     62  C   UNL     1      -7.021  -6.569 -16.935  1.00  0.00     0.049 A 
ATOM     63  C   UNL     1      -2.394  -5.020 -19.718  1.00  0.00     0.074 A 
ATOM     64  C   UNL     1      -7.622  -7.746 -17.347  1.00  0.00     0.029 A 
ATOM     65  N   UNL     1      -5.894  -6.400 -17.729  1.00  0.00    -0.354 N 
ATOM     66  N   UNL     1      -3.471  -5.514 -19.152  1.00  0.00    -0.248 NA
ATOM     67  C   UNL     1      -1.818  -5.876 -20.763  1.00  0.00     0.031 C 
ATOM     68  C   UNL     1      -6.817  -8.328 -18.330  1.00  0.00     0.029 A 
ATOM     69  C   UNL     1      -5.764  -7.468 -18.604  1.00  0.00     0.049 A 
ATOM     70  H   UNL     1      -5.277  -5.635 -17.678  1.00  0.00     0.167 HD
ATOM     71  C   UNL     1      -3.724  -6.719 -19.804  1.00  0.00     0.074 A 
ATOM     72  C   UNL     1      -2.689  -6.873 -20.805  1.00  0.00     0.031 C 
ATOM     73  C   UNL     1      -4.727  -7.611 -19.600  1.00  0.00     0.034 A 
BRANCH  60  74
ATOM     74  C   UNL     1      -8.629  -6.037 -15.035  1.00  0.00     0.023 A 
ATOM     75  C   UNL     1      -9.776  -5.226 -14.974  1.00  0.00     0.031 A 
ATOM     76  C   UNL     1      -8.606  -7.200 -14.244  1.00  0.00     0.131 A 
ATOM     77  C   UNL     1     -10.811  -5.541 -14.081  1.00  0.00     0.055 A 
ATOM     78  C   UNL     1      -9.680  -7.557 -13.427  1.00  0.00     0.041 A 
ATOM     79  F   UNL     1      -7.530  -8.003 -14.239  1.00  0.00    -0.206 F 
ATOM     80  C   UNL     1     -10.785  -6.716 -13.328  1.00  0.00     0.022 A 
BRANCH  77  81
ATOM     81  S   UNL     1     -12.112  -4.309 -13.799  1.00  0.00     0.124 S 
ATOM     82  O   UNL     1     -11.334  -3.157 -13.347  1.00  0.00    -0.237 OA
ATOM     83  O   UNL     1     -12.725  -4.189 -15.116  1.00  0.00    -0.237 OA
ATOM     84  O   UNL     1     -12.950  -4.925 -12.772  1.00  0.00    -0.744 OA
ENDBRANCH  77  81
ENDBRANCH  60  74
BRANCH  61  85
ATOM     85  C   UNL     1      -0.438  -3.353 -20.166  1.00  0.00     0.023 A 
ATOM     86  C   UNL     1      -0.438  -3.150 -21.556  1.00  0.00     0.031 A 
ATOM     87  C   UNL     1       0.789  -3.245 -19.486  1.00  0.00     0.131 A 
ATOM     88  C   UNL     1       0.769  -2.900 -22.227  1.00  0.00     0.055 A 
ATOM     89  C   UNL     1       1.978  -2.937 -20.151  1.00  0.00     0.041 A 
ATOM     90  F   UNL     1       0.847  -3.427 -18.157  1.00  0.00    -0.206 F 
ATOM     91  C   UNL     1       1.974  -2.776 -21.532  1.00  0.00     0.022 A 
BRANCH  88  92
ATOM     92  S   UNL     1       0.756  -2.829 -24.040  1.00  0.00     0.124 S 
ATOM     93  O   UNL     1       0.225  -4.143 -24.383  1.00  0.00    -0.237 OA
ATOM     94  O   UNL     1      -0.125  -1.694 -24.293  1.00  0.00    -0.237 OA
ATOM     95  O   UNL     1       2.160  -2.614 -24.382  1.00  0.00    -0.744 OA
ENDBRANCH  88  92
ENDBRANCH  61  85
BRANCH  73  96
ATOM     96  C   UNL     1      -4.799  -8.800 -20.528  1.00  0.00     0.023 A 
ATOM     97  C   UNL     1      -3.821  -9.809 -20.532  1.00  0.00     0.031 A 
ATOM     98  C   UNL     1      -5.884  -8.928 -21.415  1.00  0.00     0.131 A 
ATOM     99  C   UNL     1      -3.924 -10.877 -21.437  1.00  0.00     0.055 A 
ATOM    100  C   UNL     1      -6.014 -10.025 -22.267  1.00  0.00     0.041 A 
ATOM    101  F   UNL     1      -6.846  -7.992 -21.458  1.00  0.00    -0.206 F 
ATOM    102  C   UNL     1      -5.024 -11.002 -22.289  1.00  0.00     0.022 A 
BRANCH  99 103
ATOM    103  S   UNL     1      -2.555 -12.063 -21.548  1.00  0.00     0.124 S 
ATOM    104  O   UNL     1      -1.433 -11.198 -21.897  1.00  0.00    -0.237 OA
ATOM    105  O   UNL     1      -2.527 -12.635 -20.206  1.00  0.00    -0.237 OA
ATOM    106  O   UNL     1      -2.982 -12.981 -22.603  1.00  0.00    -0.744 OA
ENDBRANCH  99 103
ENDBRANCH  73  96
ENDBRANCH  47  48
ENDBRANCH  39  42
ENDBRANCH  37  38
ENDBRANCH  36  37
ENDBRANCH   1  36
TORSDOF 19
