REMARK SMILES Cc1ccc(Oc2cc(C(=O)NCCCCNC(=O)c3ccc(-c4c5nc(c(-c6cc(S(=O)(=O)[O-])ccc6F)c6ccc([nH]6)c(-c6cc(S(=O)(=O)[O-])ccc6F)c6nc(c(-c7cc(S(=O)(=O)[O-])ccc7F)c7ccc4[nH]7)C=C6)C=C5)cc3)nc3ccccc23)cc1
REMARK SMILES IDX 15 1 14 2 13 3 12 4 10 5 11 6 9 8 7 9 8 10 89 11 84 12 88 13
REMARK SMILES IDX 83 14 85 15 87 16 86 17 6 18 5 19 1 20 2 21 3 22 91 23 4 24
REMARK SMILES IDX 90 25 16 26 17 27 18 28 19 30 20 31 21 32 82 33 22 34 81 35
REMARK SMILES IDX 23 36 24 37 25 38 75 39 26 40 80 41 74 42 76 43 27 44 79 45
REMARK SMILES IDX 73 46 72 47 28 49 60 50 40 51 59 52 41 53 44 54 58 55 77 56
REMARK SMILES IDX 42 57 43 58 57 60 78 61 45 62 29 63 30 64 38 65 31 66 37 67
REMARK SMILES IDX 39 68 36 69 32 70 33 71 34 72 35 73 61 74 62 75 70 76 63 77
REMARK SMILES IDX 69 78 71 79 68 80 64 81 65 82 66 83 67 84 46 85 47 86 55 87
REMARK SMILES IDX 48 88 54 89 56 90 53 91 49 92 50 93 51 94 52 95
REMARK H PARENT 12 7 17 29 76 48 44 59
REMARK Flexibility Score: inf
ROOT
ATOM      1  C   UNL     1      -9.466   5.573   0.327  1.00  0.00     0.023 C 
ENDROOT
BRANCH   1   2
ATOM      2  C   UNL     1      -8.020   5.450  -0.171  1.00  0.00     0.023 C 
BRANCH   2   3
ATOM      3  C   UNL     1      -6.956   5.455   0.938  1.00  0.00     0.116 C 
BRANCH   3   4
ATOM      4  N   UNL     1      -7.053   4.292   1.819  1.00  0.00    -0.351 N 
ATOM      5  C   UNL     1      -6.417   3.069   1.773  1.00  0.00     0.270 C 
ATOM      6  O   UNL     1      -6.657   2.258   2.671  1.00  0.00    -0.268 OA
ATOM      7  H   UNL     1      -7.679   4.400   2.571  1.00  0.00     0.163 HD
BRANCH   5   8
ATOM      8  C   UNL     1      -5.452   2.694   0.686  1.00  0.00     0.132 A 
ATOM      9  C   UNL     1      -3.818   1.215  -0.211  1.00  0.00     0.139 A 
ATOM     10  C   UNL     1      -4.716   1.528   0.807  1.00  0.00     0.082 A 
ATOM     11  C   UNL     1      -3.699   2.042  -1.353  1.00  0.00     0.043 A 
ATOM     12  C   UNL     1      -4.475   3.217  -1.353  1.00  0.00     0.075 A 
ATOM     13  C   UNL     1      -2.856   1.785  -2.461  1.00  0.00     0.014 A 
ATOM     14  N   UNL     1      -5.341   3.515  -0.378  1.00  0.00    -0.242 NA
ATOM     15  C   UNL     1      -4.337   4.120  -2.396  1.00  0.00     0.029 A 
ATOM     16  C   UNL     1      -2.733   2.706  -3.500  1.00  0.00     0.001 A 
ATOM     17  C   UNL     1      -3.466   3.884  -3.459  1.00  0.00     0.002 A 
BRANCH   9  18
ATOM     18  O   UNL     1      -3.116   0.038  -0.051  1.00  0.00    -0.457 OA
BRANCH  18  19
ATOM     19  C   UNL     1      -1.741   0.090   0.065  1.00  0.00     0.127 A 
ATOM     20  C   UNL     1       2.566  -0.097   0.091  1.00  0.00     0.044 C 
ATOM     21  C   UNL     1       1.068  -0.032   0.106  1.00  0.00    -0.051 A 
ATOM     22  C   UNL     1       0.311  -1.195  -0.078  1.00  0.00     0.007 A 
ATOM     23  C   UNL     1       0.406   1.181   0.322  1.00  0.00     0.007 A 
ATOM     24  C   UNL     1      -1.084  -1.132  -0.100  1.00  0.00     0.047 A 
ATOM     25  C   UNL     1      -0.992   1.242   0.315  1.00  0.00     0.047 A 
ENDBRANCH  18  19
ENDBRANCH   9  18
ENDBRANCH   5   8
ENDBRANCH   3   4
ENDBRANCH   2   3
ENDBRANCH   1   2
BRANCH   1  26
ATOM     26  C   UNL     1      -9.783   6.902   1.008  1.00  0.00     0.116 C 
BRANCH  26  27
ATOM     27  N   UNL     1     -10.453   7.897   0.182  1.00  0.00    -0.352 N 
ATOM     28  C   UNL     1     -10.783   9.208   0.501  1.00  0.00     0.251 C 
ATOM     29  H   UNL     1     -10.704   7.602  -0.723  1.00  0.00     0.163 HD
ATOM     30  O   UNL     1     -11.477   9.885  -0.242  1.00  0.00    -0.269 OA
BRANCH  28  31
ATOM     31  C   UNL     1     -10.185   9.826   1.714  1.00  0.00     0.039 A 
ATOM     32  C   UNL     1      -9.512  11.045   1.556  1.00  0.00     0.014 A 
ATOM     33  C   UNL     1     -10.081   9.121   2.909  1.00  0.00     0.014 A 
ATOM     34  C   UNL     1      -8.544  11.420   2.486  1.00  0.00     0.010 A 
ATOM     35  C   UNL     1      -9.052   9.434   3.776  1.00  0.00     0.010 A 
ATOM     36  C   UNL     1      -8.236  10.544   3.524  1.00  0.00    -0.014 A 
BRANCH  36  37
ATOM     37  C   UNL     1      -6.992  10.607   4.287  1.00  0.00     0.031 A 
ATOM     38  C   UNL     1      -6.986  10.964   5.719  1.00  0.00     0.074 A 
ATOM     39  C   UNL     1      -5.842  10.206   3.701  1.00  0.00     0.049 A 
ATOM     40  N   UNL     1      -5.942  11.340   6.377  1.00  0.00    -0.248 NA
ATOM     41  C   UNL     1      -8.199  10.963   6.523  1.00  0.00     0.031 C 
ATOM     42  C   UNL     1      -4.575   9.883   4.350  1.00  0.00     0.029 A 
ATOM     43  N   UNL     1      -5.532  10.259   2.343  1.00  0.00    -0.354 N 
ATOM     44  C   UNL     1      -6.261  11.329   7.715  1.00  0.00     0.074 A 
ATOM     45  C   UNL     1      -7.697  11.172   7.742  1.00  0.00     0.031 C 
ATOM     46  C   UNL     1      -3.584  10.029   3.458  1.00  0.00     0.029 A 
ATOM     47  C   UNL     1      -4.165  10.594   2.255  1.00  0.00     0.049 A 
ATOM     48  H   UNL     1      -6.148  10.096   1.592  1.00  0.00     0.167 HD
ATOM     49  C   UNL     1      -5.256  11.317   8.640  1.00  0.00     0.034 A 
ATOM     50  C   UNL     1      -3.784  11.766   1.665  1.00  0.00     0.034 A 
ATOM     51  C   UNL     1      -3.939  11.500   8.016  1.00  0.00     0.049 A 
ATOM     52  C   UNL     1      -3.093  12.740   2.603  1.00  0.00     0.074 A 
ATOM     53  C   UNL     1      -2.871  10.668   7.721  1.00  0.00     0.029 A 
ATOM     54  N   UNL     1      -3.680  12.690   7.356  1.00  0.00    -0.354 N 
ATOM     55  N   UNL     1      -2.876  12.524   3.872  1.00  0.00    -0.248 NA
ATOM     56  C   UNL     1      -2.669  14.079   2.192  1.00  0.00     0.031 C 
ATOM     57  C   UNL     1      -1.992  11.367   6.838  1.00  0.00     0.029 A 
ATOM     58  C   UNL     1      -2.514  12.628   6.617  1.00  0.00     0.049 A 
ATOM     59  H   UNL     1      -4.258  13.485   7.407  1.00  0.00     0.167 HD
ATOM     60  C   UNL     1      -2.378  13.661   4.452  1.00  0.00     0.074 A 
ATOM     61  C   UNL     1      -2.256  14.606   3.356  1.00  0.00     0.031 C 
ATOM     62  C   UNL     1      -2.146  13.772   5.795  1.00  0.00     0.034 A 
BRANCH  49  63
ATOM     63  C   UNL     1      -5.433  10.882  10.083  1.00  0.00     0.023 A 
ATOM     64  C   UNL     1      -4.328  10.344  10.777  1.00  0.00     0.031 A 
ATOM     65  C   UNL     1      -6.637  10.906  10.815  1.00  0.00     0.131 A 
ATOM     66  C   UNL     1      -4.465   9.772  12.057  1.00  0.00     0.055 A 
ATOM     67  C   UNL     1      -6.791  10.281  12.060  1.00  0.00     0.041 A 
ATOM     68  F   UNL     1      -7.706  11.594  10.400  1.00  0.00    -0.206 F 
ATOM     69  C   UNL     1      -5.704   9.695  12.684  1.00  0.00     0.022 A 
BRANCH  66  70
ATOM     70  S   UNL     1      -2.994   9.132  12.901  1.00  0.00     0.124 S 
ATOM     71  O   UNL     1      -2.517   8.117  11.967  1.00  0.00    -0.237 OA
ATOM     72  O   UNL     1      -2.171  10.329  13.033  1.00  0.00    -0.237 OA
ATOM     73  O   UNL     1      -3.526   8.609  14.160  1.00  0.00    -0.744 OA
ENDBRANCH  66  70
ENDBRANCH  49  63
BRANCH  50  74
ATOM     74  C   UNL     1      -4.661  12.127   0.512  1.00  0.00     0.023 A 
ATOM     75  C   UNL     1      -4.758  11.186  -0.538  1.00  0.00     0.031 A 
ATOM     76  C   UNL     1      -5.662  13.102   0.612  1.00  0.00     0.131 A 
ATOM     77  C   UNL     1      -5.911  11.129  -1.333  1.00  0.00     0.055 A 
ATOM     78  C   UNL     1      -6.777  13.088  -0.235  1.00  0.00     0.041 A 
ATOM     79  F   UNL     1      -5.650  13.998   1.611  1.00  0.00    -0.206 F 
ATOM     80  C   UNL     1      -6.929  12.071  -1.179  1.00  0.00     0.022 A 
BRANCH  77  81
ATOM     81  S   UNL     1      -6.194   9.655  -2.363  1.00  0.00     0.124 S 
ATOM     82  O   UNL     1      -5.603  10.056  -3.635  1.00  0.00    -0.237 OA
ATOM     83  O   UNL     1      -5.487   8.602  -1.637  1.00  0.00    -0.237 OA
ATOM     84  O   UNL     1      -7.648   9.514  -2.358  1.00  0.00    -0.744 OA
ENDBRANCH  77  81
ENDBRANCH  50  74
BRANCH  62  85
ATOM     85  C   UNL     1      -1.573  15.015   6.428  1.00  0.00     0.023 A 
ATOM     86  C   UNL     1      -0.549  15.753   5.812  1.00  0.00     0.031 A 
ATOM     87  C   UNL     1      -1.985  15.461   7.703  1.00  0.00     0.131 A 
ATOM     88  C   UNL     1      -0.039  16.917   6.414  1.00  0.00     0.055 A 
ATOM     89  C   UNL     1      -1.412  16.566   8.339  1.00  0.00     0.041 A 
ATOM     90  F   UNL     1      -2.990  14.872   8.366  1.00  0.00    -0.206 F 
ATOM     91  C   UNL     1      -0.442  17.312   7.688  1.00  0.00     0.022 A 
BRANCH  88  92
ATOM     92  S   UNL     1       1.099  17.957   5.463  1.00  0.00     0.124 S 
ATOM     93  O   UNL     1       2.143  17.016   5.073  1.00  0.00    -0.237 OA
ATOM     94  O   UNL     1       0.234  18.429   4.385  1.00  0.00    -0.237 OA
ATOM     95  O   UNL     1       1.511  18.983   6.419  1.00  0.00    -0.744 OA
ENDBRANCH  88  92
ENDBRANCH  62  85
ENDBRANCH  36  37
ENDBRANCH  28  31
ENDBRANCH  26  27
ENDBRANCH   1  26
TORSDOF 16
