REMARK SMILES O=C(NCCCCNC(=O)[C@@H]1CCn2c(C(=O)c3ccccc3)ccc21)c1ccc(-c2c3nc(c(-c4cc(S(=O)(=O)[O-])ccc4F)c4ccc([nH]4)c(-c4cc(S(=O)(=O)[O-])ccc4F)c4nc(c(-c5cc(S(=O)(=O)[O-])ccc5F)c5ccc2[nH]5)C=C4)C=C3)cc1
REMARK SMILES IDX 5 1 4 2 3 3 1 4 2 5 27 7 28 8 89 9 29 10 88 11 30 12 31 13
REMARK SMILES IDX 32 14 82 15 33 16 87 17 81 18 83 19 34 20 86 21 80 22 79 23
REMARK SMILES IDX 35 25 67 26 47 27 66 28 48 29 51 30 65 31 84 32 49 33 50 34
REMARK SMILES IDX 64 36 85 37 52 38 36 39 37 40 45 41 38 42 44 43 46 44 43 45
REMARK SMILES IDX 39 46 40 47 41 48 42 49 68 50 69 51 77 52 70 53 76 54 78 55
REMARK SMILES IDX 75 56 71 57 72 58 73 59 74 60 53 61 54 62 62 63 55 64 61 65
REMARK SMILES IDX 63 66 60 67 56 68 57 69 58 70 59 71 6 72 7 73 8 74 9 75
REMARK SMILES IDX 10 77 11 78 12 79 26 80 13 81 14 82 25 83 15 84 24 85 16 86
REMARK SMILES IDX 17 87 18 88 19 89 23 90 20 91 22 92 21 93
REMARK H PARENT 3 6 83 24 51 35 8 76
REMARK Flexibility Score: inf
ROOT
ATOM      1  C   UNL     1       4.934  -2.140  -1.590  1.00  0.00     0.023 C 
ENDROOT
BRANCH   1   2
ATOM      2  C   UNL     1       4.585  -0.725  -1.146  1.00  0.00     0.116 C 
BRANCH   2   3
ATOM      3  N   UNL     1       3.151  -0.475  -1.087  1.00  0.00    -0.352 N 
ATOM      4  O   UNL     1       1.161  -0.011  -0.135  1.00  0.00    -0.269 OA
ATOM      5  C   UNL     1       2.380  -0.060  -0.024  1.00  0.00     0.251 C 
ATOM      6  H   UNL     1       2.663  -0.625  -1.929  1.00  0.00     0.163 HD
BRANCH   5   7
ATOM      7  C   UNL     1       3.030   0.295   1.257  1.00  0.00     0.039 A 
ATOM      8  C   UNL     1       4.157   1.118   1.276  1.00  0.00     0.014 A 
ATOM      9  C   UNL     1       2.520  -0.225   2.450  1.00  0.00     0.014 A 
ATOM     10  C   UNL     1       4.872   1.277   2.457  1.00  0.00     0.010 A 
ATOM     11  C   UNL     1       3.189   0.016   3.654  1.00  0.00     0.010 A 
ATOM     12  C   UNL     1       4.395   0.735   3.662  1.00  0.00    -0.014 A 
BRANCH  12  13
ATOM     13  C   UNL     1       5.162   0.968   4.914  1.00  0.00     0.031 A 
ATOM     14  C   UNL     1       5.793  -0.173   5.665  1.00  0.00     0.074 A 
ATOM     15  C   UNL     1       5.325   2.235   5.343  1.00  0.00     0.049 A 
ATOM     16  N   UNL     1       6.514  -0.142   6.758  1.00  0.00    -0.248 NA
ATOM     17  C   UNL     1       5.577  -1.524   5.128  1.00  0.00     0.031 C 
ATOM     18  C   UNL     1       4.755   3.420   4.696  1.00  0.00     0.029 A 
ATOM     19  N   UNL     1       6.033   2.745   6.400  1.00  0.00    -0.354 N 
ATOM     20  C   UNL     1       6.824  -1.467   7.051  1.00  0.00     0.074 A 
ATOM     21  C   UNL     1       6.183  -2.277   6.036  1.00  0.00     0.031 C 
ATOM     22  C   UNL     1       5.180   4.519   5.336  1.00  0.00     0.029 A 
ATOM     23  C   UNL     1       5.992   4.117   6.478  1.00  0.00     0.049 A 
ATOM     24  H   UNL     1       6.523   2.182   7.043  1.00  0.00     0.167 HD
ATOM     25  C   UNL     1       7.579  -1.956   8.068  1.00  0.00     0.034 A 
ATOM     26  C   UNL     1       6.531   4.962   7.378  1.00  0.00     0.034 A 
ATOM     27  C   UNL     1       8.218  -1.130   9.066  1.00  0.00     0.049 A 
ATOM     28  C   UNL     1       7.341   4.391   8.508  1.00  0.00     0.074 A 
ATOM     29  C   UNL     1       9.027  -1.520  10.121  1.00  0.00     0.029 A 
ATOM     30  N   UNL     1       8.118   0.254   9.139  1.00  0.00    -0.354 N 
ATOM     31  N   UNL     1       7.628   3.136   8.766  1.00  0.00    -0.248 NA
ATOM     32  C   UNL     1       7.901   5.351   9.466  1.00  0.00     0.031 C 
ATOM     33  C   UNL     1       9.363  -0.381  10.864  1.00  0.00     0.029 A 
ATOM     34  C   UNL     1       8.824   0.729  10.235  1.00  0.00     0.049 A 
ATOM     35  H   UNL     1       7.618   0.817   8.504  1.00  0.00     0.167 HD
ATOM     36  C   UNL     1       8.414   3.158   9.913  1.00  0.00     0.074 A 
ATOM     37  C   UNL     1       8.575   4.551  10.279  1.00  0.00     0.031 C 
ATOM     38  C   UNL     1       8.953   2.120  10.602  1.00  0.00     0.034 A 
BRANCH  25  39
ATOM     39  C   UNL     1       7.712  -3.458   8.176  1.00  0.00     0.023 A 
ATOM     40  C   UNL     1       8.364  -4.220   7.191  1.00  0.00     0.031 A 
ATOM     41  C   UNL     1       7.161  -4.141   9.276  1.00  0.00     0.131 A 
ATOM     42  C   UNL     1       8.391  -5.621   7.291  1.00  0.00     0.055 A 
ATOM     43  C   UNL     1       7.255  -5.528   9.407  1.00  0.00     0.041 A 
ATOM     44  F   UNL     1       6.509  -3.470  10.239  1.00  0.00    -0.206 F 
ATOM     45  C   UNL     1       7.861  -6.278   8.403  1.00  0.00     0.022 A 
BRANCH  42  46
ATOM     46  S   UNL     1       9.008  -6.580   5.880  1.00  0.00     0.124 S 
ATOM     47  O   UNL     1       8.127  -6.127   4.806  1.00  0.00    -0.237 OA
ATOM     48  O   UNL     1      10.398  -6.150   5.791  1.00  0.00    -0.237 OA
ATOM     49  O   UNL     1       8.809  -7.967   6.295  1.00  0.00    -0.744 OA
ENDBRANCH  42  46
ENDBRANCH  25  39
BRANCH  26  50
ATOM     50  C   UNL     1       6.293   6.427   7.261  1.00  0.00     0.023 A 
ATOM     51  C   UNL     1       7.347   7.316   7.005  1.00  0.00     0.031 A 
ATOM     52  C   UNL     1       5.001   6.960   7.419  1.00  0.00     0.131 A 
ATOM     53  C   UNL     1       7.097   8.696   6.945  1.00  0.00     0.055 A 
ATOM     54  C   UNL     1       4.748   8.327   7.309  1.00  0.00     0.041 A 
ATOM     55  F   UNL     1       3.957   6.150   7.659  1.00  0.00    -0.206 F 
ATOM     56  C   UNL     1       5.803   9.206   7.082  1.00  0.00     0.022 A 
BRANCH  53  57
ATOM     57  S   UNL     1       8.501   9.826   6.753  1.00  0.00     0.124 S 
ATOM     58  O   UNL     1       9.321   9.482   7.909  1.00  0.00    -0.237 OA
ATOM     59  O   UNL     1       9.030   9.432   5.451  1.00  0.00    -0.237 OA
ATOM     60  O   UNL     1       7.882  11.149   6.797  1.00  0.00    -0.744 OA
ENDBRANCH  53  57
ENDBRANCH  26  50
BRANCH  38  61
ATOM     61  C   UNL     1       9.789   2.474  11.806  1.00  0.00     0.023 A 
ATOM     62  C   UNL     1       9.215   3.040  12.958  1.00  0.00     0.031 A 
ATOM     63  C   UNL     1      11.181   2.281  11.783  1.00  0.00     0.131 A 
ATOM     64  C   UNL     1      10.038   3.450  14.018  1.00  0.00     0.055 A 
ATOM     65  C   UNL     1      11.988   2.638  12.864  1.00  0.00     0.041 A 
ATOM     66  F   UNL     1      11.779   1.748  10.706  1.00  0.00    -0.206 F 
ATOM     67  C   UNL     1      11.419   3.240  13.983  1.00  0.00     0.022 A 
BRANCH  64  68
ATOM     68  S   UNL     1       9.291   4.354  15.401  1.00  0.00     0.124 S 
ATOM     69  O   UNL     1       8.696   5.503  14.727  1.00  0.00    -0.237 OA
ATOM     70  O   UNL     1       8.352   3.376  15.942  1.00  0.00    -0.237 OA
ATOM     71  O   UNL     1      10.429   4.662  16.265  1.00  0.00    -0.744 OA
ENDBRANCH  64  68
ENDBRANCH  38  61
ENDBRANCH  12  13
ENDBRANCH   5   7
ENDBRANCH   2   3
ENDBRANCH   1   2
BRANCH   1  72
ATOM     72  C   UNL     1       4.447  -2.534  -2.981  1.00  0.00     0.023 C 
BRANCH  72  73
ATOM     73  C   UNL     1       4.757  -1.539  -4.093  1.00  0.00     0.116 C 
BRANCH  73  74
ATOM     74  N   UNL     1       6.170  -1.276  -4.267  1.00  0.00    -0.356 N 
ATOM     75  C   UNL     1       6.939  -1.229  -5.391  1.00  0.00     0.229 C 
ATOM     76  H   UNL     1       6.660  -1.102  -3.431  1.00  0.00     0.163 HD
ATOM     77  O   UNL     1       8.112  -0.864  -5.254  1.00  0.00    -0.274 OA
BRANCH  75  78
ATOM     78  C   UNL     1       6.418  -1.601  -6.778  1.00  0.00     0.127 C 
ATOM     79  C   UNL     1       5.140  -0.876  -7.248  1.00  0.00     0.042 C 
ATOM     80  C   UNL     1       6.057  -3.037  -6.871  1.00  0.00     0.031 A 
ATOM     81  C   UNL     1       4.108  -1.967  -7.609  1.00  0.00     0.124 C 
ATOM     82  N   UNL     1       4.781  -3.222  -7.320  1.00  0.00    -0.341 N 
ATOM     83  C   UNL     1       6.630  -4.256  -6.651  1.00  0.00     0.025 A 
ATOM     84  C   UNL     1       4.445  -4.545  -7.321  1.00  0.00     0.090 A 
ATOM     85  C   UNL     1       5.616  -5.206  -6.935  1.00  0.00     0.032 A 
BRANCH  84  86
ATOM     86  C   UNL     1       3.180  -5.208  -7.600  1.00  0.00     0.209 C 
ATOM     87  O   UNL     1       3.035  -6.429  -7.530  1.00  0.00    -0.287 OA
BRANCH  86  88
ATOM     88  C   UNL     1       1.967  -4.441  -7.935  1.00  0.00     0.024 A 
ATOM     89  C   UNL     1       0.871  -4.516  -7.069  1.00  0.00     0.012 A 
ATOM     90  C   UNL     1       1.878  -3.725  -9.131  1.00  0.00     0.012 A 
ATOM     91  C   UNL     1      -0.301  -3.826  -7.377  1.00  0.00     0.001 A 
ATOM     92  C   UNL     1       0.709  -3.024  -9.427  1.00  0.00     0.001 A 
ATOM     93  C   UNL     1      -0.377  -3.072  -8.549  1.00  0.00     0.000 A 
ENDBRANCH  86  88
ENDBRANCH  84  86
ENDBRANCH  75  78
ENDBRANCH  73  74
ENDBRANCH  72  73
ENDBRANCH   1  72
TORSDOF 16
