REMARK SMILES O=C(NCCCCNC(=O)[C@H]1CC[C@H]2CCCC[C@@H]2N1C(=O)c1ccn[nH]1)c1ccc(-c2c3nc(c(-c4cc(S(=O)(=O)[O-])ccc4F)c4ccc([nH]4)c(-c4cc(S(=O)(=O)[O-])ccc4F)c4nc(c(-c5cc(S(=O)(=O)[O-])ccc5F)c5ccc2[nH]5)C=C4)C=C3)cc1
REMARK SMILES IDX 5 1 4 2 3 3 1 4 2 5 28 7 29 8 90 9 30 10 89 11 31 12 32 13
REMARK SMILES IDX 33 14 83 15 34 16 88 17 82 18 84 19 35 20 87 21 81 22 80 23
REMARK SMILES IDX 36 25 68 26 48 27 67 28 49 29 52 30 66 31 85 32 50 33 51 34
REMARK SMILES IDX 65 36 86 37 53 38 37 39 38 40 46 41 39 42 45 43 47 44 44 45
REMARK SMILES IDX 40 46 41 47 42 48 43 49 69 50 70 51 78 52 71 53 77 54 79 55
REMARK SMILES IDX 76 56 72 57 73 58 74 59 75 60 54 61 55 62 63 63 56 64 62 65
REMARK SMILES IDX 64 66 61 67 57 68 58 69 59 70 60 71 6 72 7 73 8 74 9 75
REMARK SMILES IDX 10 77 11 78 12 79 20 80 13 81 19 82 14 83 18 84 15 85 17 86
REMARK SMILES IDX 16 87 21 88 22 89 23 90 24 91 27 92 25 93 26 94
REMARK H PARENT 3 6 84 24 52 35 8 76 27 95
REMARK Flexibility Score: inf
ROOT
ATOM      1  C   UNL     1       4.749  -2.773  -1.474  1.00  0.00     0.023 C 
ENDROOT
BRANCH   1   2
ATOM      2  C   UNL     1       4.602  -1.367  -0.887  1.00  0.00     0.116 C 
BRANCH   2   3
ATOM      3  N   UNL     1       3.230  -0.883  -0.885  1.00  0.00    -0.352 N 
ATOM      4  O   UNL     1       1.358   0.098  -0.119  1.00  0.00    -0.269 OA
ATOM      5  C   UNL     1       2.550  -0.144   0.056  1.00  0.00     0.251 C 
ATOM      6  H   UNL     1       2.705  -1.121  -1.684  1.00  0.00     0.163 HD
BRANCH   5   7
ATOM      7  C   UNL     1       3.223   0.326   1.290  1.00  0.00     0.039 A 
ATOM      8  C   UNL     1       4.479   0.936   1.243  1.00  0.00     0.014 A 
ATOM      9  C   UNL     1       2.567   0.169   2.518  1.00  0.00     0.014 A 
ATOM     10  C   UNL     1       5.133   1.271   2.429  1.00  0.00     0.010 A 
ATOM     11  C   UNL     1       3.211   0.530   3.704  1.00  0.00     0.010 A 
ATOM     12  C   UNL     1       4.514   1.046   3.668  1.00  0.00    -0.014 A 
BRANCH  12  13
ATOM     13  C   UNL     1       5.254   1.327   4.920  1.00  0.00     0.031 A 
ATOM     14  C   UNL     1       5.832   0.196   5.723  1.00  0.00     0.074 A 
ATOM     15  C   UNL     1       5.417   2.597   5.330  1.00  0.00     0.049 A 
ATOM     16  N   UNL     1       6.549   0.242   6.816  1.00  0.00    -0.248 NA
ATOM     17  C   UNL     1       5.561  -1.164   5.233  1.00  0.00     0.031 C 
ATOM     18  C   UNL     1       4.880   3.780   4.655  1.00  0.00     0.029 A 
ATOM     19  N   UNL     1       6.083   3.102   6.416  1.00  0.00    -0.354 N 
ATOM     20  C   UNL     1       6.809  -1.080   7.154  1.00  0.00     0.074 A 
ATOM     21  C   UNL     1       6.157  -1.905   6.157  1.00  0.00     0.031 C 
ATOM     22  C   UNL     1       5.239   4.876   5.345  1.00  0.00     0.029 A 
ATOM     23  C   UNL     1       6.051   4.472   6.490  1.00  0.00     0.049 A 
ATOM     24  H   UNL     1       6.541   2.536   7.079  1.00  0.00     0.167 HD
ATOM     25  C   UNL     1       7.528  -1.564   8.195  1.00  0.00     0.034 A 
ATOM     26  C   UNL     1       6.625   5.306   7.375  1.00  0.00     0.034 A 
ATOM     27  C   UNL     1       8.190  -0.750   9.181  1.00  0.00     0.049 A 
ATOM     28  C   UNL     1       7.451   4.748   8.497  1.00  0.00     0.074 A 
ATOM     29  C   UNL     1       8.975  -1.149  10.249  1.00  0.00     0.029 A 
ATOM     30  N   UNL     1       8.140   0.635   9.221  1.00  0.00    -0.354 N 
ATOM     31  N   UNL     1       7.695   3.495   8.799  1.00  0.00    -0.248 NA
ATOM     32  C   UNL     1       8.081   5.724   9.396  1.00  0.00     0.031 C 
ATOM     33  C   UNL     1       9.386  -0.003  10.946  1.00  0.00     0.029 A 
ATOM     34  C   UNL     1       8.873   1.108  10.298  1.00  0.00     0.049 A 
ATOM     35  H   UNL     1       7.654   1.201   8.578  1.00  0.00     0.167 HD
ATOM     36  C   UNL     1       8.506   3.532   9.926  1.00  0.00     0.074 A 
ATOM     37  C   UNL     1       8.708   4.930  10.254  1.00  0.00     0.031 C 
ATOM     38  C   UNL     1       9.044   2.501  10.623  1.00  0.00     0.034 A 
BRANCH  25  39
ATOM     39  C   UNL     1       7.590  -3.058   8.329  1.00  0.00     0.023 A 
ATOM     40  C   UNL     1       8.366  -3.840   7.457  1.00  0.00     0.031 A 
ATOM     41  C   UNL     1       6.820  -3.707   9.308  1.00  0.00     0.131 A 
ATOM     42  C   UNL     1       8.320  -5.238   7.554  1.00  0.00     0.055 A 
ATOM     43  C   UNL     1       6.814  -5.096   9.429  1.00  0.00     0.041 A 
ATOM     44  F   UNL     1       6.041  -2.999  10.141  1.00  0.00    -0.206 F 
ATOM     45  C   UNL     1       7.560  -5.870   8.543  1.00  0.00     0.022 A 
BRANCH  42  46
ATOM     46  S   UNL     1       9.176  -6.222   6.293  1.00  0.00     0.124 S 
ATOM     47  O   UNL     1       8.595  -5.702   5.058  1.00  0.00    -0.237 OA
ATOM     48  O   UNL     1      10.575  -5.888   6.533  1.00  0.00    -0.237 OA
ATOM     49  O   UNL     1       8.798  -7.596   6.618  1.00  0.00    -0.744 OA
ENDBRANCH  42  46
ENDBRANCH  25  39
BRANCH  26  50
ATOM     50  C   UNL     1       6.419   6.766   7.245  1.00  0.00     0.023 A 
ATOM     51  C   UNL     1       7.316   7.563   6.519  1.00  0.00     0.031 A 
ATOM     52  C   UNL     1       5.305   7.373   7.845  1.00  0.00     0.131 A 
ATOM     53  C   UNL     1       7.081   8.941   6.408  1.00  0.00     0.055 A 
ATOM     54  C   UNL     1       5.073   8.743   7.731  1.00  0.00     0.041 A 
ATOM     55  F   UNL     1       4.427   6.636   8.543  1.00  0.00    -0.206 F 
ATOM     56  C   UNL     1       5.963   9.536   7.006  1.00  0.00     0.022 A 
BRANCH  53  57
ATOM     57  S   UNL     1       8.255   9.943   5.451  1.00  0.00     0.124 S 
ATOM     58  O   UNL     1       9.465   9.842   6.259  1.00  0.00    -0.237 OA
ATOM     59  O   UNL     1       8.280   9.244   4.170  1.00  0.00    -0.237 OA
ATOM     60  O   UNL     1       7.632  11.264   5.421  1.00  0.00    -0.744 OA
ENDBRANCH  53  57
ENDBRANCH  26  50
BRANCH  38  61
ATOM     61  C   UNL     1       9.911   2.861  11.794  1.00  0.00     0.023 A 
ATOM     62  C   UNL     1       9.353   3.165  13.047  1.00  0.00     0.031 A 
ATOM     63  C   UNL     1      11.307   2.917  11.648  1.00  0.00     0.131 A 
ATOM     64  C   UNL     1      10.191   3.533  14.110  1.00  0.00     0.055 A 
ATOM     65  C   UNL     1      12.138   3.268  12.712  1.00  0.00     0.041 A 
ATOM     66  F   UNL     1      11.880   2.643  10.465  1.00  0.00    -0.206 F 
ATOM     67  C   UNL     1      11.581   3.583  13.950  1.00  0.00     0.022 A 
BRANCH  64  68
ATOM     68  S   UNL     1       9.441   3.994  15.698  1.00  0.00     0.124 S 
ATOM     69  O   UNL     1       8.540   5.075  15.312  1.00  0.00    -0.237 OA
ATOM     70  O   UNL     1       8.804   2.749  16.115  1.00  0.00    -0.237 OA
ATOM     71  O   UNL     1      10.585   4.405  16.511  1.00  0.00    -0.744 OA
ENDBRANCH  64  68
ENDBRANCH  38  61
ENDBRANCH  12  13
ENDBRANCH   5   7
ENDBRANCH   2   3
ENDBRANCH   1   2
BRANCH   1  72
ATOM     72  C   UNL     1       4.229  -2.987  -2.901  1.00  0.00     0.023 C 
BRANCH  72  73
ATOM     73  C   UNL     1       4.657  -1.956  -3.942  1.00  0.00     0.116 C 
BRANCH  73  74
ATOM     74  N   UNL     1       6.095  -1.854  -4.079  1.00  0.00    -0.354 N 
ATOM     75  C   UNL     1       6.867  -1.689  -5.194  1.00  0.00     0.242 C 
ATOM     76  H   UNL     1       6.596  -1.912  -3.233  1.00  0.00     0.163 HD
ATOM     77  O   UNL     1       8.093  -1.695  -5.034  1.00  0.00    -0.273 OA
BRANCH  75  78
ATOM     78  C   UNL     1       6.269  -1.769  -6.626  1.00  0.00     0.175 C 
ATOM     79  C   UNL     1       6.142  -3.294  -6.892  1.00  0.00     0.036 C 
ATOM     80  N   UNL     1       5.027  -1.001  -6.870  1.00  0.00    -0.322 N 
ATOM     81  C   UNL     1       4.943  -3.716  -7.724  1.00  0.00     0.008 C 
ATOM     82  C   UNL     1       4.180  -1.360  -8.033  1.00  0.00     0.089 C 
ATOM     83  C   UNL     1       4.659  -2.640  -8.752  1.00  0.00     0.012 C 
ATOM     84  C   UNL     1       4.074  -0.255  -9.110  1.00  0.00     0.025 C 
ATOM     85  C   UNL     1       3.632  -3.088  -9.796  1.00  0.00     0.006 C 
ATOM     86  C   UNL     1       3.089  -0.651 -10.212  1.00  0.00     0.002 C 
ATOM     87  C   UNL     1       3.429  -1.997 -10.845  1.00  0.00     0.000 C 
BRANCH  80  88
ATOM     88  C   UNL     1       4.980   0.295  -6.330  1.00  0.00     0.272 C 
ATOM     89  O   UNL     1       6.010   0.893  -6.020  1.00  0.00    -0.267 OA
BRANCH  88  90
ATOM     90  C   UNL     1       3.691   0.903  -6.103  1.00  0.00     0.123 A 
ATOM     91  C   UNL     1       2.410   0.410  -5.936  1.00  0.00     0.055 A 
ATOM     92  N   UNL     1       3.568   2.257  -5.913  1.00  0.00    -0.273 N 
ATOM     93  C   UNL     1       1.599   1.541  -5.730  1.00  0.00     0.135 A 
ATOM     94  N   UNL     1       2.300   2.674  -5.757  1.00  0.00    -0.183 NA
ATOM     95  H   UNL     1       4.340   2.868  -5.892  1.00  0.00     0.190 HD
ENDBRANCH  88  90
ENDBRANCH  80  88
ENDBRANCH  75  78
ENDBRANCH  73  74
ENDBRANCH  72  73
ENDBRANCH   1  72
TORSDOF 16
