REMARK SMILES C[C@@H](NC(=O)c1cc(C(=O)NCCCCNC(=O)c2ccc(-c3c4nc(c(-c5cc(S(=O)(=O)[O-])ccc5F)c5ccc([nH]5)c(-c5cc(S(=O)(=O)[O-])ccc5F)c5nc(c(-c6cc(S(=O)(=O)[O-])ccc6F)c6ccc3[nH]6)C=C5)C=C4)cc2)n(C)n1)c1ccccc1
REMARK SMILES IDX 13 1 12 2 11 3 9 4 10 5 8 7 6 8 7 9 84 10 82 11 83 12 4 13
REMARK SMILES IDX 3 14 5 16 2 17 1 18 85 19 86 20 90 21 87 22 89 23 88 24
REMARK SMILES IDX 14 25 15 26 16 27 17 28 18 30 19 31 20 32 81 33 21 34 80 35
REMARK SMILES IDX 22 36 23 37 24 38 74 39 25 40 79 41 73 42 75 43 26 44 78 45
REMARK SMILES IDX 72 46 71 47 27 49 59 50 39 51 58 52 40 53 43 54 57 55 76 56
REMARK SMILES IDX 41 57 42 58 56 60 77 61 44 62 28 63 29 64 37 65 30 66 36 67
REMARK SMILES IDX 38 68 35 69 31 70 32 71 33 72 34 73 60 74 61 75 69 76 62 77
REMARK SMILES IDX 68 78 70 79 67 80 63 81 64 82 65 83 66 84 45 85 46 86 54 87
REMARK SMILES IDX 47 88 53 89 55 90 52 91 48 92 49 93 50 94 51 95
REMARK H PARENT 11 6 3 15 16 29 75 48 43 59
REMARK Flexibility Score: inf
ROOT
ATOM      1  C   UNL     1      -6.907   1.363   1.469  1.00  0.00     0.023 C 
ENDROOT
BRANCH   1   2
ATOM      2  C   UNL     1      -6.681   1.125   2.963  1.00  0.00     0.116 C 
BRANCH   2   3
ATOM      3  N   UNL     1      -5.866  -0.038   3.203  1.00  0.00    -0.351 N 
ATOM      4  C   UNL     1      -4.551  -0.270   3.484  1.00  0.00     0.269 C 
ATOM      5  O   UNL     1      -4.333  -1.456   3.768  1.00  0.00    -0.268 OA
ATOM      6  H   UNL     1      -6.386  -0.873   3.151  1.00  0.00     0.163 HD
BRANCH   4   7
ATOM      7  C   UNL     1      -3.451   0.683   3.474  1.00  0.00     0.126 A 
ATOM      8  C   UNL     1      -1.285   1.322   3.480  1.00  0.00     0.151 A 
ATOM      9  C   UNL     1      -2.158   0.283   3.836  1.00  0.00     0.069 A 
ATOM     10  N   UNL     1      -1.984   2.405   3.134  1.00  0.00    -0.167 NA
ATOM     11  N   UNL     1      -3.265   1.987   3.067  1.00  0.00    -0.262 N 
ATOM     12  C   UNL     1      -4.147   2.951   2.464  1.00  0.00     0.174 C 
BRANCH   8  13
ATOM     13  C   UNL     1       0.169   1.338   3.420  1.00  0.00     0.272 C 
ATOM     14  N   UNL     1       0.803   0.821   2.314  1.00  0.00    -0.344 N 
ATOM     15  H   UNL     1       1.659   1.261   2.110  1.00  0.00     0.164 HD
ATOM     16  O   UNL     1       0.863   1.897   4.272  1.00  0.00    -0.267 OA
BRANCH  14  17
ATOM     17  C   UNL     1       0.459  -0.253   1.380  1.00  0.00     0.109 C 
ATOM     18  C   UNL     1       1.392  -0.164   0.164  1.00  0.00     0.036 C 
BRANCH  17  19
ATOM     19  C   UNL     1      -0.968  -0.371   0.888  1.00  0.00    -0.026 A 
ATOM     20  C   UNL     1      -1.627   0.671   0.221  1.00  0.00     0.006 A 
ATOM     21  C   UNL     1      -1.646  -1.595   1.048  1.00  0.00     0.006 A 
ATOM     22  C   UNL     1      -2.933   0.499  -0.252  1.00  0.00     0.000 A 
ATOM     23  C   UNL     1      -2.950  -1.762   0.580  1.00  0.00     0.000 A 
ATOM     24  C   UNL     1      -3.593  -0.715  -0.070  1.00  0.00     0.000 A 
ENDBRANCH  17  19
ENDBRANCH  14  17
ENDBRANCH   8  13
ENDBRANCH   4   7
ENDBRANCH   2   3
ENDBRANCH   1   2
BRANCH   1  25
ATOM     25  C   UNL     1      -8.079   0.603   0.846  1.00  0.00     0.023 C 
BRANCH  25  26
ATOM     26  C   UNL     1      -9.439   0.863   1.483  1.00  0.00     0.116 C 
BRANCH  26  27
ATOM     27  N   UNL     1      -9.776   2.272   1.598  1.00  0.00    -0.352 N 
ATOM     28  C   UNL     1     -11.025   2.845   1.696  1.00  0.00     0.251 C 
ATOM     29  H   UNL     1      -9.015   2.897   1.608  1.00  0.00     0.163 HD
ATOM     30  O   UNL     1     -11.140   4.061   1.700  1.00  0.00    -0.269 OA
BRANCH  28  31
ATOM     31  C   UNL     1     -12.216   1.968   1.733  1.00  0.00     0.039 A 
ATOM     32  C   UNL     1     -13.269   2.232   0.854  1.00  0.00     0.014 A 
ATOM     33  C   UNL     1     -12.270   0.866   2.588  1.00  0.00     0.014 A 
ATOM     34  C   UNL     1     -14.342   1.342   0.777  1.00  0.00     0.010 A 
ATOM     35  C   UNL     1     -13.302  -0.057   2.459  1.00  0.00     0.010 A 
ATOM     36  C   UNL     1     -14.345   0.169   1.549  1.00  0.00    -0.014 A 
BRANCH  36  37
ATOM     37  C   UNL     1     -15.429  -0.837   1.419  1.00  0.00     0.031 A 
ATOM     38  C   UNL     1     -16.332  -1.120   2.587  1.00  0.00     0.074 A 
ATOM     39  C   UNL     1     -15.543  -1.548   0.281  1.00  0.00     0.049 A 
ATOM     40  N   UNL     1     -17.274  -2.020   2.707  1.00  0.00    -0.248 NA
ATOM     41  C   UNL     1     -16.119  -0.305   3.791  1.00  0.00     0.031 C 
ATOM     42  C   UNL     1     -14.690  -1.398  -0.900  1.00  0.00     0.029 A 
ATOM     43  N   UNL     1     -16.415  -2.549  -0.065  1.00  0.00    -0.354 N 
ATOM     44  C   UNL     1     -17.755  -1.892   4.005  1.00  0.00     0.074 A 
ATOM     45  C   UNL     1     -16.953  -0.872   4.649  1.00  0.00     0.031 C 
ATOM     46  C   UNL     1     -15.095  -2.259  -1.847  1.00  0.00     0.029 A 
ATOM     47  C   UNL     1     -16.207  -3.049  -1.330  1.00  0.00     0.049 A 
ATOM     48  H   UNL     1     -17.122  -2.879   0.535  1.00  0.00     0.167 HD
ATOM     49  C   UNL     1     -18.786  -2.546   4.597  1.00  0.00     0.034 A 
ATOM     50  C   UNL     1     -16.839  -4.037  -1.993  1.00  0.00     0.034 A 
ATOM     51  C   UNL     1     -19.582  -3.549   3.933  1.00  0.00     0.049 A 
ATOM     52  C   UNL     1     -17.977  -4.755  -1.317  1.00  0.00     0.074 A 
ATOM     53  C   UNL     1     -20.687  -4.232   4.411  1.00  0.00     0.029 A 
ATOM     54  N   UNL     1     -19.353  -4.021   2.646  1.00  0.00    -0.354 N 
ATOM     55  N   UNL     1     -18.457  -4.586  -0.107  1.00  0.00    -0.248 NA
ATOM     56  C   UNL     1     -18.665  -5.787  -2.102  1.00  0.00     0.031 C 
ATOM     57  C   UNL     1     -21.089  -5.155   3.438  1.00  0.00     0.029 A 
ATOM     58  C   UNL     1     -20.278  -5.003   2.324  1.00  0.00     0.049 A 
ATOM     59  H   UNL     1     -18.638  -3.703   2.048  1.00  0.00     0.167 HD
ATOM     60  C   UNL     1     -19.522  -5.475   0.005  1.00  0.00     0.074 A 
ATOM     61  C   UNL     1     -19.619  -6.168  -1.264  1.00  0.00     0.031 C 
ATOM     62  C   UNL     1     -20.349  -5.696   1.059  1.00  0.00     0.034 A 
BRANCH  49  63
ATOM     63  C   UNL     1     -19.081  -2.203   6.038  1.00  0.00     0.023 A 
ATOM     64  C   UNL     1     -19.459  -0.904   6.423  1.00  0.00     0.031 A 
ATOM     65  C   UNL     1     -18.927  -3.168   7.049  1.00  0.00     0.131 A 
ATOM     66  C   UNL     1     -19.573  -0.581   7.783  1.00  0.00     0.055 A 
ATOM     67  C   UNL     1     -19.131  -2.861   8.397  1.00  0.00     0.041 A 
ATOM     68  F   UNL     1     -18.549  -4.420   6.748  1.00  0.00    -0.206 F 
ATOM     69  C   UNL     1     -19.436  -1.556   8.772  1.00  0.00     0.022 A 
BRANCH  66  70
ATOM     70  S   UNL     1     -19.733   1.167   8.243  1.00  0.00     0.124 S 
ATOM     71  O   UNL     1     -18.526   1.738   7.649  1.00  0.00    -0.237 OA
ATOM     72  O   UNL     1     -20.994   1.544   7.617  1.00  0.00    -0.237 OA
ATOM     73  O   UNL     1     -19.744   1.137   9.704  1.00  0.00    -0.744 OA
ENDBRANCH  66  70
ENDBRANCH  49  63
BRANCH  50  74
ATOM     74  C   UNL     1     -16.414  -4.406  -3.372  1.00  0.00     0.023 A 
ATOM     75  C   UNL     1     -17.249  -4.163  -4.472  1.00  0.00     0.031 A 
ATOM     76  C   UNL     1     -15.174  -5.027  -3.605  1.00  0.00     0.131 A 
ATOM     77  C   UNL     1     -16.852  -4.572  -5.755  1.00  0.00     0.055 A 
ATOM     78  C   UNL     1     -14.765  -5.394  -4.888  1.00  0.00     0.041 A 
ATOM     79  F   UNL     1     -14.334  -5.270  -2.587  1.00  0.00    -0.206 F 
ATOM     80  C   UNL     1     -15.612  -5.177  -5.971  1.00  0.00     0.022 A 
BRANCH  77  81
ATOM     81  S   UNL     1     -18.010  -4.353  -7.133  1.00  0.00     0.124 S 
ATOM     82  O   UNL     1     -19.151  -5.148  -6.692  1.00  0.00    -0.237 OA
ATOM     83  O   UNL     1     -18.200  -2.906  -7.141  1.00  0.00    -0.237 OA
ATOM     84  O   UNL     1     -17.280  -4.889  -8.279  1.00  0.00    -0.744 OA
ENDBRANCH  77  81
ENDBRANCH  50  74
BRANCH  62  85
ATOM     85  C   UNL     1     -21.452  -6.703   0.858  1.00  0.00     0.023 A 
ATOM     86  C   UNL     1     -21.182  -8.075   0.715  1.00  0.00     0.031 A 
ATOM     87  C   UNL     1     -22.791  -6.280   0.793  1.00  0.00     0.131 A 
ATOM     88  C   UNL     1     -22.233  -8.970   0.462  1.00  0.00     0.055 A 
ATOM     89  C   UNL     1     -23.837  -7.181   0.595  1.00  0.00     0.041 A 
ATOM     90  F   UNL     1     -23.103  -4.980   0.921  1.00  0.00    -0.206 F 
ATOM     91  C   UNL     1     -23.560  -8.534   0.416  1.00  0.00     0.022 A 
BRANCH  88  92
ATOM     92  S   UNL     1     -21.834 -10.704   0.109  1.00  0.00     0.124 S 
ATOM     93  O   UNL     1     -20.977 -10.585  -1.067  1.00  0.00    -0.237 OA
ATOM     94  O   UNL     1     -21.174 -11.129   1.338  1.00  0.00    -0.237 OA
ATOM     95  O   UNL     1     -23.140 -11.313  -0.136  1.00  0.00    -0.744 OA
ENDBRANCH  88  92
ENDBRANCH  62  85
ENDBRANCH  36  37
ENDBRANCH  28  31
ENDBRANCH  26  27
ENDBRANCH  25  26
ENDBRANCH   1  25
TORSDOF 17
