REMARK SMILES C[C@H]1[C@H](C(=O)NCCCCNC(=O)c2ccc(-c3c4nc(c(-c5cc(S(=O)(=O)[O-])ccc5F)c5ccc([nH]5)c(-c5cc(S(=O)(=O)[O-])ccc5F)c5nc(c(-c6cc(S(=O)(=O)[O-])ccc6F)c6ccc3[nH]6)C=C5)C=C4)cc2)CCN1C(=O)CC[NH2+]C1CC1
REMARK SMILES IDX 7 1 6 2 4 3 5 4 3 6 1 7 2 8 79 9 77 10 78 11 80 12 81 13
REMARK SMILES IDX 82 14 83 15 84 16 85 19 86 20 87 21 8 22 9 23 10 24 11 25
REMARK SMILES IDX 12 26 13 28 14 29 15 30 76 31 16 32 75 33 17 34 18 35 19 36
REMARK SMILES IDX 69 37 20 38 74 39 68 40 70 41 21 42 73 43 67 44 66 45 22 47
REMARK SMILES IDX 54 48 34 49 53 50 35 51 38 52 52 53 71 54 36 55 37 56 51 58
REMARK SMILES IDX 72 59 39 60 23 61 24 62 32 63 25 64 31 65 33 66 30 67 26 68
REMARK SMILES IDX 27 69 28 70 29 71 55 72 56 73 64 74 57 75 63 76 65 77 62 78
REMARK SMILES IDX 58 79 59 80 60 81 61 82 40 83 41 84 49 85 42 86 48 87 50 88
REMARK SMILES IDX 47 89 43 90 44 91 45 92 46 93
REMARK H PARENT 6 5 84 17 84 18 11 27 70 46 38 57
REMARK Flexibility Score: inf
ROOT
ATOM      1  C   UNL     1      -1.069   0.410   3.036  1.00  0.00     0.116 C 
ENDROOT
BRANCH   1   2
ATOM      2  N   UNL     1      -0.795   1.754   2.567  1.00  0.00    -0.356 N 
ATOM      3  C   UNL     1      -0.651   2.252   1.314  1.00  0.00     0.225 C 
ATOM      4  O   UNL     1      -0.413   3.458   1.205  1.00  0.00    -0.275 OA
ATOM      5  H   UNL     1      -0.696   2.422   3.284  1.00  0.00     0.163 HD
BRANCH   3   6
ATOM      6  C   UNL     1      -0.729   1.390   0.065  1.00  0.00     0.102 C 
ATOM      7  C   UNL     1       1.205   0.600  -1.309  1.00  0.00     0.032 C 
ATOM      8  C   UNL     1       0.422   0.376  -0.012  1.00  0.00     0.094 C 
ATOM      9  N   UNL     1      -0.230  -0.932  -0.038  1.00  0.00    -0.339 N 
ATOM     10  C   UNL     1      -2.026   0.598  -0.126  1.00  0.00     0.037 C 
ATOM     11  C   UNL     1      -1.589  -0.806  -0.528  1.00  0.00     0.120 C 
BRANCH   9  12
ATOM     12  C   UNL     1       0.289  -2.168   0.291  1.00  0.00     0.228 C 
ATOM     13  O   UNL     1      -0.317  -3.209   0.028  1.00  0.00    -0.275 OA
BRANCH  12  14
ATOM     14  C   UNL     1       1.613  -2.236   1.033  1.00  0.00     0.161 C 
BRANCH  14  15
ATOM     15  C   UNL     1       2.804  -2.417   0.094  1.00  0.00     0.270 C 
BRANCH  15  16
ATOM     16  N   UNL     1       3.721  -1.274   0.178  1.00  0.00    -0.343 N 
ATOM     17  H   UNL     1       4.154  -1.279   1.102  1.00  0.00     0.346 HD
ATOM     18  H   UNL     1       3.164  -0.437   0.007  1.00  0.00     0.346 HD
BRANCH  16  19
ATOM     19  C   UNL     1       4.785  -1.284  -0.828  1.00  0.00     0.182 C 
ATOM     20  C   UNL     1       4.497  -1.281  -2.304  1.00  0.00     0.071 C 
ATOM     21  C   UNL     1       5.001  -0.034  -1.645  1.00  0.00     0.071 C 
ENDBRANCH  16  19
ENDBRANCH  15  16
ENDBRANCH  14  15
ENDBRANCH  12  14
ENDBRANCH   9  12
ENDBRANCH   3   6
ENDBRANCH   1   2
BRANCH   1  22
ATOM     22  C   UNL     1       0.028  -0.113   3.958  1.00  0.00     0.023 C 
BRANCH  22  23
ATOM     23  C   UNL     1       0.151   0.611   5.298  1.00  0.00     0.023 C 
BRANCH  23  24
ATOM     24  C   UNL     1      -1.147   0.770   6.080  1.00  0.00     0.116 C 
BRANCH  24  25
ATOM     25  N   UNL     1      -1.840  -0.488   6.309  1.00  0.00    -0.352 N 
ATOM     26  C   UNL     1      -2.531  -0.891   7.428  1.00  0.00     0.251 C 
ATOM     27  H   UNL     1      -1.811  -1.135   5.568  1.00  0.00     0.163 HD
ATOM     28  O   UNL     1      -2.980  -2.031   7.495  1.00  0.00    -0.269 OA
BRANCH  26  29
ATOM     29  C   UNL     1      -2.681   0.046   8.560  1.00  0.00     0.039 A 
ATOM     30  C   UNL     1      -2.330  -0.385   9.841  1.00  0.00     0.014 A 
ATOM     31  C   UNL     1      -3.114   1.359   8.348  1.00  0.00     0.014 A 
ATOM     32  C   UNL     1      -2.343   0.524  10.901  1.00  0.00     0.010 A 
ATOM     33  C   UNL     1      -3.058   2.278   9.390  1.00  0.00     0.010 A 
ATOM     34  C   UNL     1      -2.668   1.872  10.676  1.00  0.00    -0.014 A 
BRANCH  34  35
ATOM     35  C   UNL     1      -2.604   2.872  11.773  1.00  0.00     0.031 A 
ATOM     36  C   UNL     1      -3.859   3.559  12.234  1.00  0.00     0.074 A 
ATOM     37  C   UNL     1      -1.411   3.208  12.300  1.00  0.00     0.049 A 
ATOM     38  N   UNL     1      -4.003   4.516  13.115  1.00  0.00    -0.248 NA
ATOM     39  C   UNL     1      -5.113   3.136  11.594  1.00  0.00     0.031 C 
ATOM     40  C   UNL     1      -0.120   2.642  11.900  1.00  0.00     0.029 A 
ATOM     41  N   UNL     1      -1.085   4.113  13.278  1.00  0.00    -0.354 N 
ATOM     42  C   UNL     1      -5.360   4.819  13.125  1.00  0.00     0.074 A 
ATOM     43  C   UNL     1      -5.982   3.987  12.116  1.00  0.00     0.031 C 
ATOM     44  C   UNL     1       0.853   3.198  12.640  1.00  0.00     0.029 A 
ATOM     45  C   UNL     1       0.265   4.188  13.537  1.00  0.00     0.049 A 
ATOM     46  H   UNL     1      -1.754   4.659  13.751  1.00  0.00     0.167 HD
ATOM     47  C   UNL     1      -6.028   5.694  13.918  1.00  0.00     0.034 A 
ATOM     48  C   UNL     1       0.950   4.972  14.392  1.00  0.00     0.034 A 
ATOM     49  C   UNL     1      -5.393   6.504  14.929  1.00  0.00     0.049 A 
ATOM     50  C   UNL     1       0.188   5.943  15.257  1.00  0.00     0.074 A 
ATOM     51  C   UNL     1      -5.979   7.378  15.828  1.00  0.00     0.029 A 
ATOM     52  N   UNL     1      -4.026   6.544  15.172  1.00  0.00    -0.354 N 
ATOM     53  N   UNL     1      -1.103   6.181  15.292  1.00  0.00    -0.248 NA
ATOM     54  C   UNL     1       0.974   6.742  16.206  1.00  0.00     0.031 C 
ATOM     55  C   UNL     1      -4.963   7.991  16.570  1.00  0.00     0.029 A 
ATOM     56  C   UNL     1      -3.747   7.448  16.186  1.00  0.00     0.049 A 
ATOM     57  H   UNL     1      -3.352   6.008  14.693  1.00  0.00     0.167 HD
ATOM     58  C   UNL     1      -1.285   7.138  16.287  1.00  0.00     0.074 A 
ATOM     59  C   UNL     1       0.026   7.420  16.836  1.00  0.00     0.031 C 
ATOM     60  C   UNL     1      -2.432   7.726  16.713  1.00  0.00     0.034 A 
BRANCH  47  61
ATOM     61  C   UNL     1      -7.516   5.829  13.699  1.00  0.00     0.023 A 
ATOM     62  C   UNL     1      -8.392   4.747  13.899  1.00  0.00     0.031 A 
ATOM     63  C   UNL     1      -8.065   7.042  13.249  1.00  0.00     0.131 A 
ATOM     64  C   UNL     1      -9.750   4.873  13.571  1.00  0.00     0.055 A 
ATOM     65  C   UNL     1      -9.432   7.187  13.005  1.00  0.00     0.041 A 
ATOM     66  F   UNL     1      -7.277   8.105  13.020  1.00  0.00    -0.206 F 
ATOM     67  C   UNL     1     -10.281   6.094  13.150  1.00  0.00     0.022 A 
BRANCH  64  68
ATOM     68  S   UNL     1     -10.780   3.381  13.561  1.00  0.00     0.124 S 
ATOM     69  O   UNL     1     -10.086   2.551  12.579  1.00  0.00    -0.237 OA
ATOM     70  O   UNL     1     -10.700   2.932  14.946  1.00  0.00    -0.237 OA
ATOM     71  O   UNL     1     -12.090   3.871  13.138  1.00  0.00    -0.744 OA
ENDBRANCH  64  68
ENDBRANCH  47  61
BRANCH  48  72
ATOM     72  C   UNL     1       2.435   4.883  14.474  1.00  0.00     0.023 A 
ATOM     73  C   UNL     1       3.068   4.426  15.641  1.00  0.00     0.031 A 
ATOM     74  C   UNL     1       3.246   5.291  13.400  1.00  0.00     0.131 A 
ATOM     75  C   UNL     1       4.469   4.431  15.725  1.00  0.00     0.055 A 
ATOM     76  C   UNL     1       4.639   5.247  13.470  1.00  0.00     0.041 A 
ATOM     77  F   UNL     1       2.691   5.729  12.259  1.00  0.00    -0.206 F 
ATOM     78  C   UNL     1       5.259   4.827  14.643  1.00  0.00     0.022 A 
BRANCH  75  79
ATOM     79  S   UNL     1       5.246   3.983  17.302  1.00  0.00     0.124 S 
ATOM     80  O   UNL     1       4.659   4.961  18.211  1.00  0.00    -0.237 OA
ATOM     81  O   UNL     1       4.808   2.602  17.473  1.00  0.00    -0.237 OA
ATOM     82  O   UNL     1       6.673   4.153  17.038  1.00  0.00    -0.744 OA
ENDBRANCH  75  79
ENDBRANCH  48  72
BRANCH  60  83
ATOM     83  C   UNL     1      -2.314   8.702  17.857  1.00  0.00     0.023 A 
ATOM     84  C   UNL     1      -1.659   9.937  17.712  1.00  0.00     0.031 A 
ATOM     85  C   UNL     1      -2.853   8.382  19.116  1.00  0.00     0.131 A 
ATOM     86  C   UNL     1      -1.512  10.784  18.820  1.00  0.00     0.055 A 
ATOM     87  C   UNL     1      -2.755   9.254  20.200  1.00  0.00     0.041 A 
ATOM     88  F   UNL     1      -3.487   7.214  19.310  1.00  0.00    -0.206 F 
ATOM     89  C   UNL     1      -2.070  10.458  20.059  1.00  0.00     0.022 A 
BRANCH  86  90
ATOM     90  S   UNL     1      -0.507  12.284  18.644  1.00  0.00     0.124 S 
ATOM     91  O   UNL     1       0.786  11.737  18.245  1.00  0.00    -0.237 OA
ATOM     92  O   UNL     1      -1.230  13.025  17.616  1.00  0.00    -0.237 OA
ATOM     93  O   UNL     1      -0.544  12.880  19.978  1.00  0.00    -0.744 OA
ENDBRANCH  86  90
ENDBRANCH  60  83
ENDBRANCH  34  35
ENDBRANCH  26  29
ENDBRANCH  24  25
ENDBRANCH  23  24
ENDBRANCH  22  23
ENDBRANCH   1  22
TORSDOF 19
