REMARK SMILES Cc1cccc(NC(=O)[C@H]2C=C[C@@H]([NH3+])C2)c1C(=O)NCCCCNC(=O)c1ccc(-c2c3nc(c(-c4cc(S(=O)(=O)[O-])ccc4F)c4ccc([nH]4)c(-c4cc(S(=O)(=O)[O-])ccc4F)c4nc(c(-c5cc(S(=O)(=O)[O-])ccc5F)c5ccc2[nH]5)C=C4)C=C3)cc1
REMARK SMILES IDX 21 1 20 2 19 3 17 4 18 5 16 7 1 8 2 9 3 10 4 11 6 12 5 13
REMARK SMILES IDX 7 14 8 15 9 17 10 18 11 19 15 20 12 21 13 22 14 23 22 27
REMARK SMILES IDX 23 28 24 29 25 30 26 32 27 33 28 34 89 35 29 36 88 37 30 38
REMARK SMILES IDX 31 39 32 40 82 41 33 42 87 43 81 44 83 45 34 46 86 47 80 48
REMARK SMILES IDX 79 49 35 51 67 52 47 53 66 54 48 55 51 56 65 57 84 58 49 59
REMARK SMILES IDX 50 60 64 62 85 63 52 64 36 65 37 66 45 67 38 68 44 69 46 70
REMARK SMILES IDX 43 71 39 72 40 73 41 74 42 75 68 76 69 77 77 78 70 79 76 80
REMARK SMILES IDX 78 81 75 82 71 83 72 84 73 85 74 86 53 87 54 88 62 89 55 90
REMARK SMILES IDX 61 91 63 92 60 93 56 94 57 95 58 96 59 97
REMARK H PARENT 19 6 7 16 14 24 14 25 14 26 24 31 83 50 51 61
REMARK Flexibility Score: inf
ROOT
ATOM      1  C   UNL     1       4.244   1.293  -1.256  1.00  0.00     0.023 C 
ENDROOT
BRANCH   1   2
ATOM      2  C   UNL     1       3.660   1.724   0.096  1.00  0.00     0.116 C 
BRANCH   2   3
ATOM      3  N   UNL     1       2.354   2.335  -0.048  1.00  0.00    -0.352 N 
ATOM      4  C   UNL     1       1.047   1.962  -0.188  1.00  0.00     0.253 C 
ATOM      5  O   UNL     1       0.324   2.969  -0.290  1.00  0.00    -0.269 OA
ATOM      6  H   UNL     1       2.432   3.316  -0.044  1.00  0.00     0.163 HD
BRANCH   4   7
ATOM      7  C   UNL     1       0.372   0.591  -0.261  1.00  0.00     0.066 A 
ATOM      8  C   UNL     1       2.423  -1.073  -0.293  1.00  0.00     0.045 C 
ATOM      9  C   UNL     1       0.973  -0.702  -0.295  1.00  0.00    -0.036 A 
ATOM     10  C   UNL     1       0.162  -1.857  -0.410  1.00  0.00     0.004 A 
ATOM     11  C   UNL     1      -1.183  -1.775  -0.670  1.00  0.00     0.002 A 
ATOM     12  C   UNL     1      -1.077   0.626  -0.374  1.00  0.00     0.054 A 
ATOM     13  C   UNL     1      -1.765  -0.528  -0.724  1.00  0.00     0.027 A 
BRANCH  12  14
ATOM     14  N   UNL     1      -1.828   1.807  -0.135  1.00  0.00    -0.325 N 
ATOM     15  C   UNL     1      -3.125   2.171   0.039  1.00  0.00     0.231 C 
ATOM     16  H   UNL     1      -1.236   2.591  -0.078  1.00  0.00     0.169 HD
ATOM     17  O   UNL     1      -3.308   3.396   0.183  1.00  0.00    -0.274 OA
BRANCH  15  18
ATOM     18  C   UNL     1      -4.404   1.309   0.013  1.00  0.00     0.107 C 
ATOM     19  C   UNL     1      -4.898   1.092  -1.389  1.00  0.00    -0.012 C 
ATOM     20  C   UNL     1      -4.543  -0.064   0.685  1.00  0.00     0.087 C 
ATOM     21  C   UNL     1      -5.426  -0.126  -1.549  1.00  0.00     0.033 C 
ATOM     22  C   UNL     1      -5.378  -0.932  -0.292  1.00  0.00     0.205 C 
BRANCH  22  23
ATOM     23  N   UNL     1      -4.822  -2.252  -0.539  1.00  0.00    -0.352 N 
ATOM     24  H   UNL     1      -3.889  -2.159  -0.939  1.00  0.00     0.345 HD
ATOM     25  H   UNL     1      -5.422  -2.758  -1.190  1.00  0.00     0.345 HD
ATOM     26  H   UNL     1      -4.764  -2.767   0.340  1.00  0.00     0.345 HD
ENDBRANCH  22  23
ENDBRANCH  15  18
ENDBRANCH  12  14
ENDBRANCH   4   7
ENDBRANCH   2   3
ENDBRANCH   1   2
BRANCH   1  27
ATOM     27  C   UNL     1       5.072   2.356  -1.971  1.00  0.00     0.023 C 
BRANCH  27  28
ATOM     28  C   UNL     1       6.423   2.586  -1.314  1.00  0.00     0.116 C 
BRANCH  28  29
ATOM     29  N   UNL     1       7.539   1.815  -1.861  1.00  0.00    -0.352 N 
ATOM     30  C   UNL     1       8.845   1.772  -1.407  1.00  0.00     0.251 C 
ATOM     31  H   UNL     1       7.336   1.260  -2.648  1.00  0.00     0.163 HD
ATOM     32  O   UNL     1       9.728   1.197  -2.039  1.00  0.00    -0.269 OA
BRANCH  30  33
ATOM     33  C   UNL     1       9.148   2.333  -0.066  1.00  0.00     0.039 A 
ATOM     34  C   UNL     1       9.703   1.469   0.884  1.00  0.00     0.014 A 
ATOM     35  C   UNL     1       8.600   3.552   0.322  1.00  0.00     0.014 A 
ATOM     36  C   UNL     1       9.458   1.700   2.235  1.00  0.00     0.010 A 
ATOM     37  C   UNL     1       8.237   3.707   1.645  1.00  0.00     0.010 A 
ATOM     38  C   UNL     1       8.607   2.746   2.593  1.00  0.00    -0.014 A 
BRANCH  38  39
ATOM     39  C   UNL     1       7.922   2.805   3.883  1.00  0.00     0.031 A 
ATOM     40  C   UNL     1       8.183   3.907   4.832  1.00  0.00     0.074 A 
ATOM     41  C   UNL     1       6.978   1.885   4.183  1.00  0.00     0.049 A 
ATOM     42  N   UNL     1       7.971   3.845   6.104  1.00  0.00    -0.248 NA
ATOM     43  C   UNL     1       8.769   5.174   4.417  1.00  0.00     0.031 C 
ATOM     44  C   UNL     1       6.006   1.930   5.272  1.00  0.00     0.029 A 
ATOM     45  N   UNL     1       6.876   0.588   3.684  1.00  0.00    -0.354 N 
ATOM     46  C   UNL     1       8.080   5.120   6.612  1.00  0.00     0.074 A 
ATOM     47  C   UNL     1       8.669   5.886   5.541  1.00  0.00     0.031 C 
ATOM     48  C   UNL     1       5.596   0.681   5.540  1.00  0.00     0.029 A 
ATOM     49  C   UNL     1       6.387  -0.222   4.725  1.00  0.00     0.049 A 
ATOM     50  H   UNL     1       7.104   0.293   2.773  1.00  0.00     0.167 HD
ATOM     51  C   UNL     1       7.520   5.406   7.824  1.00  0.00     0.034 A 
ATOM     52  C   UNL     1       7.119  -1.273   5.195  1.00  0.00     0.034 A 
ATOM     53  C   UNL     1       7.015   4.192   8.478  1.00  0.00     0.049 A 
ATOM     54  C   UNL     1       7.511  -1.134   6.650  1.00  0.00     0.074 A 
ATOM     55  C   UNL     1       5.744   3.671   8.656  1.00  0.00     0.029 A 
ATOM     56  N   UNL     1       7.903   3.177   8.826  1.00  0.00    -0.354 N 
ATOM     57  N   UNL     1       7.404  -0.029   7.335  1.00  0.00    -0.248 NA
ATOM     58  C   UNL     1       8.072  -2.223   7.444  1.00  0.00     0.031 C 
ATOM     59  C   UNL     1       5.876   2.310   9.042  1.00  0.00     0.029 A 
ATOM     60  C   UNL     1       7.225   2.013   9.133  1.00  0.00     0.049 A 
ATOM     61  H   UNL     1       8.883   3.276   8.851  1.00  0.00     0.167 HD
ATOM     62  C   UNL     1       7.889  -0.218   8.605  1.00  0.00     0.074 A 
ATOM     63  C   UNL     1       8.265  -1.621   8.631  1.00  0.00     0.031 C 
ATOM     64  C   UNL     1       7.950   0.804   9.514  1.00  0.00     0.034 A 
BRANCH  51  65
ATOM     65  C   UNL     1       7.134   6.809   8.272  1.00  0.00     0.023 A 
ATOM     66  C   UNL     1       6.076   6.969   9.195  1.00  0.00     0.031 A 
ATOM     67  C   UNL     1       7.686   8.014   7.796  1.00  0.00     0.131 A 
ATOM     68  C   UNL     1       5.544   8.238   9.500  1.00  0.00     0.055 A 
ATOM     69  C   UNL     1       7.122   9.273   8.051  1.00  0.00     0.041 A 
ATOM     70  F   UNL     1       8.837   8.050   7.117  1.00  0.00    -0.206 F 
ATOM     71  C   UNL     1       6.032   9.390   8.895  1.00  0.00     0.022 A 
BRANCH  68  72
ATOM     72  S   UNL     1       4.195   8.367  10.707  1.00  0.00     0.124 S 
ATOM     73  O   UNL     1       3.152   7.551  10.095  1.00  0.00    -0.237 OA
ATOM     74  O   UNL     1       4.812   7.831  11.915  1.00  0.00    -0.237 OA
ATOM     75  O   UNL     1       3.912   9.802  10.746  1.00  0.00    -0.744 OA
ENDBRANCH  68  72
ENDBRANCH  51  65
BRANCH  52  76
ATOM     76  C   UNL     1       7.906  -1.954   4.128  1.00  0.00     0.023 A 
ATOM     77  C   UNL     1       7.174  -2.482   3.042  1.00  0.00     0.031 A 
ATOM     78  C   UNL     1       9.277  -1.732   3.948  1.00  0.00     0.131 A 
ATOM     79  C   UNL     1       7.767  -2.604   1.778  1.00  0.00     0.055 A 
ATOM     80  C   UNL     1       9.885  -1.927   2.700  1.00  0.00     0.041 A 
ATOM     81  F   UNL     1      10.017  -1.196   4.929  1.00  0.00    -0.206 F 
ATOM     82  C   UNL     1       9.121  -2.318   1.597  1.00  0.00     0.022 A 
BRANCH  79  83
ATOM     83  S   UNL     1       6.684  -2.860   0.339  1.00  0.00     0.124 S 
ATOM     84  O   UNL     1       6.554  -4.312   0.309  1.00  0.00    -0.237 OA
ATOM     85  O   UNL     1       5.476  -2.122   0.706  1.00  0.00    -0.237 OA
ATOM     86  O   UNL     1       7.434  -2.268  -0.765  1.00  0.00    -0.744 OA
ENDBRANCH  79  83
ENDBRANCH  52  76
BRANCH  64  87
ATOM     87  C   UNL     1       8.625   0.752  10.872  1.00  0.00     0.023 A 
ATOM     88  C   UNL     1       9.568  -0.220  11.238  1.00  0.00     0.031 A 
ATOM     89  C   UNL     1       8.382   1.758  11.841  1.00  0.00     0.131 A 
ATOM     90  C   UNL     1      10.155  -0.224  12.519  1.00  0.00     0.055 A 
ATOM     91  C   UNL     1       9.026   1.799  13.082  1.00  0.00     0.041 A 
ATOM     92  F   UNL     1       7.511   2.755  11.624  1.00  0.00    -0.206 F 
ATOM     93  C   UNL     1       9.908   0.792  13.436  1.00  0.00     0.022 A 
BRANCH  90  94
ATOM     94  S   UNL     1      11.200  -1.631  12.982  1.00  0.00     0.124 S 
ATOM     95  O   UNL     1      10.259  -2.744  12.900  1.00  0.00    -0.237 OA
ATOM     96  O   UNL     1      12.238  -1.602  11.957  1.00  0.00    -0.237 OA
ATOM     97  O   UNL     1      11.650  -1.298  14.332  1.00  0.00    -0.744 OA
ENDBRANCH  90  94
ENDBRANCH  64  87
ENDBRANCH  38  39
ENDBRANCH  30  33
ENDBRANCH  28  29
ENDBRANCH  27  28
ENDBRANCH   1  27
TORSDOF 17
