REMARK SMILES C[C@@H](CCO)SCc1cccc(/C=C/C(=O)NCCCCNC(=O)c2ccc(-c3c4nc(c(-c5cc(S(=O)(=O)[O-])ccc5F)c5ccc([nH]5)c(-c5cc(S(=O)(=O)[O-])ccc5F)c5nc(c(-c6cc(S(=O)(=O)[O-])ccc6F)c6ccc3[nH]6)C=C5)C=C4)cc2)c1
REMARK SMILES IDX 15 1 16 2 17 3 14 5 13 6 12 7 8 8 9 9 88 10 10 11 11 12 7 13
REMARK SMILES IDX 6 14 2 15 1 16 3 17 4 18 5 19 18 21 19 22 20 23 21 24 22 25
REMARK SMILES IDX 23 26 24 28 25 29 26 30 87 31 27 32 86 33 28 34 29 35 30 36
REMARK SMILES IDX 80 37 31 38 85 39 79 40 81 41 32 42 84 43 78 44 77 45 33 47
REMARK SMILES IDX 65 48 45 49 64 50 46 51 49 52 63 53 82 54 47 55 48 56 62 58
REMARK SMILES IDX 83 59 50 60 34 61 35 62 43 63 36 64 42 65 44 66 41 67 37 68
REMARK SMILES IDX 38 69 39 70 40 71 66 72 67 73 75 74 68 75 74 76 76 77 73 78
REMARK SMILES IDX 69 79 70 80 71 81 72 82 51 83 52 84 60 85 53 86 59 87 61 88
REMARK SMILES IDX 58 89 54 90 55 91 56 92 57 93
REMARK H PARENT 17 4 5 20 22 27 81 46 49 57
REMARK Flexibility Score: inf
ROOT
ATOM      1  C   UNL     1      -1.660   7.287   4.743  1.00  0.00     0.243 C 
ATOM      2  O   UNL     1      -1.422   7.882   5.791  1.00  0.00    -0.270 OA
ATOM      3  N   UNL     1      -1.712   7.963   3.563  1.00  0.00    -0.353 N 
ATOM      4  H   UNL     1      -1.456   8.912   3.618  1.00  0.00     0.163 HD
ENDROOT
BRANCH   1   5
ATOM      5  C   UNL     1      -1.958   5.840   4.787  1.00  0.00     0.072 C 
ATOM      6  C   UNL     1      -1.288   4.944   4.050  1.00  0.00     0.014 C 
BRANCH   6   7
ATOM      7  C   UNL     1      -1.543   3.504   4.122  1.00  0.00    -0.025 A 
ATOM      8  C   UNL     1      -1.944   1.398   2.942  1.00  0.00    -0.037 A 
ATOM      9  C   UNL     1      -1.892   0.731   4.175  1.00  0.00     0.004 A 
ATOM     10  C   UNL     1      -1.834   2.800   2.945  1.00  0.00     0.012 A 
ATOM     11  C   UNL     1      -1.617   1.427   5.354  1.00  0.00     0.001 A 
ATOM     12  C   UNL     1      -1.422   2.806   5.325  1.00  0.00     0.008 A 
BRANCH   8  13
ATOM     13  C   UNL     1      -2.155   0.676   1.629  1.00  0.00     0.105 C 
BRANCH  13  14
ATOM     14  S   UNL     1      -1.403  -0.982   1.487  1.00  0.00    -0.154 SA
BRANCH  14  15
ATOM     15  C   UNL     1       0.392  -0.638   1.185  1.00  0.00     0.046 C 
ATOM     16  C   UNL     1       0.644  -0.070  -0.206  1.00  0.00     0.019 C 
BRANCH  15  17
ATOM     17  C   UNL     1       1.134   0.004   2.373  1.00  0.00     0.042 C 
BRANCH  17  18
ATOM     18  C   UNL     1       1.702   1.419   2.272  1.00  0.00     0.157 C 
BRANCH  18  19
ATOM     19  O   UNL     1       1.032   2.261   1.359  1.00  0.00    -0.396 OA
ATOM     20  H   UNL     1       1.116   1.898   0.464  1.00  0.00     0.210 HD
ENDBRANCH  18  19
ENDBRANCH  17  18
ENDBRANCH  15  17
ENDBRANCH  14  15
ENDBRANCH  13  14
ENDBRANCH   8  13
ENDBRANCH   6   7
ENDBRANCH   1   5
BRANCH   3  21
ATOM     21  C   UNL     1      -2.083   7.507   2.235  1.00  0.00     0.116 C 
BRANCH  21  22
ATOM     22  C   UNL     1      -3.581   7.629   1.966  1.00  0.00     0.023 C 
BRANCH  22  23
ATOM     23  C   UNL     1      -4.078   9.054   1.712  1.00  0.00     0.023 C 
BRANCH  23  24
ATOM     24  C   UNL     1      -3.342   9.832   0.624  1.00  0.00     0.116 C 
BRANCH  24  25
ATOM     25  N   UNL     1      -3.257   9.132  -0.649  1.00  0.00    -0.352 N 
ATOM     26  C   UNL     1      -3.252   9.664  -1.919  1.00  0.00     0.251 C 
ATOM     27  H   UNL     1      -3.195   8.151  -0.596  1.00  0.00     0.163 HD
ATOM     28  O   UNL     1      -3.247   8.921  -2.897  1.00  0.00    -0.269 OA
BRANCH  26  29
ATOM     29  C   UNL     1      -3.308  11.131  -2.087  1.00  0.00     0.039 A 
ATOM     30  C   UNL     1      -4.291  11.677  -2.917  1.00  0.00     0.014 A 
ATOM     31  C   UNL     1      -2.439  11.964  -1.378  1.00  0.00     0.014 A 
ATOM     32  C   UNL     1      -4.460  13.063  -2.966  1.00  0.00     0.010 A 
ATOM     33  C   UNL     1      -2.652  13.339  -1.377  1.00  0.00     0.010 A 
ATOM     34  C   UNL     1      -3.674  13.902  -2.159  1.00  0.00    -0.014 A 
BRANCH  34  35
ATOM     35  C   UNL     1      -3.916  15.367  -2.100  1.00  0.00     0.031 A 
ATOM     36  C   UNL     1      -2.857  16.326  -2.568  1.00  0.00     0.074 A 
ATOM     37  C   UNL     1      -5.055  15.832  -1.548  1.00  0.00     0.049 A 
ATOM     38  N   UNL     1      -2.836  17.632  -2.507  1.00  0.00    -0.248 NA
ATOM     39  C   UNL     1      -1.645  15.730  -3.151  1.00  0.00     0.031 C 
ATOM     40  C   UNL     1      -6.136  15.001  -1.012  1.00  0.00     0.029 A 
ATOM     41  N   UNL     1      -5.489  17.116  -1.330  1.00  0.00    -0.354 N 
ATOM     42  C   UNL     1      -1.605  18.016  -3.028  1.00  0.00     0.074 A 
ATOM     43  C   UNL     1      -0.887  16.799  -3.343  1.00  0.00     0.031 C 
ATOM     44  C   UNL     1      -7.113  15.795  -0.547  1.00  0.00     0.029 A 
ATOM     45  C   UNL     1      -6.715  17.190  -0.709  1.00  0.00     0.049 A 
ATOM     46  H   UNL     1      -4.971  17.911  -1.594  1.00  0.00     0.167 HD
ATOM     47  C   UNL     1      -1.128  19.268  -3.243  1.00  0.00     0.034 A 
ATOM     48  C   UNL     1      -7.430  18.258  -0.305  1.00  0.00     0.034 A 
ATOM     49  C   UNL     1      -1.864  20.470  -2.939  1.00  0.00     0.049 A 
ATOM     50  C   UNL     1      -6.878  19.639  -0.549  1.00  0.00     0.074 A 
ATOM     51  C   UNL     1      -1.503  21.786  -3.172  1.00  0.00     0.029 A 
ATOM     52  N   UNL     1      -3.112  20.505  -2.329  1.00  0.00    -0.354 N 
ATOM     53  N   UNL     1      -5.734  19.986  -1.091  1.00  0.00    -0.248 NA
ATOM     54  C   UNL     1      -7.717  20.772  -0.137  1.00  0.00     0.031 C 
ATOM     55  C   UNL     1      -2.502  22.615  -2.651  1.00  0.00     0.029 A 
ATOM     56  C   UNL     1      -3.522  21.818  -2.156  1.00  0.00     0.049 A 
ATOM     57  H   UNL     1      -3.631  19.712  -2.060  1.00  0.00     0.167 HD
ATOM     58  C   UNL     1      -5.732  21.378  -1.115  1.00  0.00     0.074 A 
ATOM     59  C   UNL     1      -6.992  21.805  -0.540  1.00  0.00     0.031 C 
ATOM     60  C   UNL     1      -4.779  22.227  -1.576  1.00  0.00     0.034 A 
BRANCH  47  61
ATOM     61  C   UNL     1       0.265  19.389  -3.815  1.00  0.00     0.023 A 
ATOM     62  C   UNL     1       0.583  18.889  -5.090  1.00  0.00     0.031 A 
ATOM     63  C   UNL     1       1.296  19.981  -3.065  1.00  0.00     0.131 A 
ATOM     64  C   UNL     1       1.911  18.915  -5.542  1.00  0.00     0.055 A 
ATOM     65  C   UNL     1       2.600  20.080  -3.555  1.00  0.00     0.041 A 
ATOM     66  F   UNL     1       1.058  20.459  -1.833  1.00  0.00    -0.206 F 
ATOM     67  C   UNL     1       2.917  19.530  -4.794  1.00  0.00     0.022 A 
BRANCH  64  68
ATOM     68  S   UNL     1       2.328  18.002  -7.052  1.00  0.00     0.124 S 
ATOM     69  O   UNL     1       1.933  16.642  -6.692  1.00  0.00    -0.237 OA
ATOM     70  O   UNL     1       1.504  18.662  -8.058  1.00  0.00    -0.237 OA
ATOM     71  O   UNL     1       3.768  18.208  -7.191  1.00  0.00    -0.744 OA
ENDBRANCH  64  68
ENDBRANCH  47  61
BRANCH  48  72
ATOM     72  C   UNL     1      -8.744  18.074   0.376  1.00  0.00     0.023 A 
ATOM     73  C   UNL     1      -9.936  18.504  -0.227  1.00  0.00     0.031 A 
ATOM     74  C   UNL     1      -8.822  17.500   1.657  1.00  0.00     0.131 A 
ATOM     75  C   UNL     1     -11.150  18.395   0.468  1.00  0.00     0.055 A 
ATOM     76  C   UNL     1     -10.038  17.350   2.325  1.00  0.00     0.041 A 
ATOM     77  F   UNL     1      -7.712  17.066   2.275  1.00  0.00    -0.206 F 
ATOM     78  C   UNL     1     -11.211  17.811   1.735  1.00  0.00     0.022 A 
BRANCH  75  79
ATOM     79  S   UNL     1     -12.644  19.104  -0.279  1.00  0.00     0.124 S 
ATOM     80  O   UNL     1     -12.255  20.499  -0.455  1.00  0.00    -0.237 OA
ATOM     81  O   UNL     1     -12.776  18.314  -1.498  1.00  0.00    -0.237 OA
ATOM     82  O   UNL     1     -13.674  18.866   0.730  1.00  0.00    -0.744 OA
ENDBRANCH  75  79
ENDBRANCH  48  72
BRANCH  60  83
ATOM     83  C   UNL     1      -5.092  23.701  -1.524  1.00  0.00     0.023 A 
ATOM     84  C   UNL     1      -5.182  24.398  -0.307  1.00  0.00     0.031 A 
ATOM     85  C   UNL     1      -5.304  24.417  -2.716  1.00  0.00     0.131 A 
ATOM     86  C   UNL     1      -5.523  25.759  -0.306  1.00  0.00     0.055 A 
ATOM     87  C   UNL     1      -5.590  25.782  -2.712  1.00  0.00     0.041 A 
ATOM     88  F   UNL     1      -5.231  23.799  -3.906  1.00  0.00    -0.206 F 
ATOM     89  C   UNL     1      -5.712  26.459  -1.501  1.00  0.00     0.022 A 
BRANCH  86  90
ATOM     90  S   UNL     1      -5.789  26.591   1.284  1.00  0.00     0.124 S 
ATOM     91  O   UNL     1      -6.883  25.813   1.854  1.00  0.00    -0.237 OA
ATOM     92  O   UNL     1      -4.492  26.441   1.936  1.00  0.00    -0.237 OA
ATOM     93  O   UNL     1      -6.134  27.959   0.902  1.00  0.00    -0.744 OA
ENDBRANCH  86  90
ENDBRANCH  60  83
ENDBRANCH  34  35
ENDBRANCH  26  29
ENDBRANCH  24  25
ENDBRANCH  23  24
ENDBRANCH  22  23
ENDBRANCH  21  22
ENDBRANCH   3  21
TORSDOF 21
