REMARK SMILES C[C@H](C(=O)NCCCCNC(=O)c1ccc(-c2c3nc(c(-c4cc(S(=O)(=O)[O-])ccc4F)c4ccc([nH]4)c(-c4cc(S(=O)(=O)[O-])ccc4F)c4nc(c(-c5cc(S(=O)(=O)[O-])ccc5F)c5ccc2[nH]5)C=C4)C=C3)cc1)c1ccc2ncccc2c1
REMARK SMILES IDX 8 1 7 2 6 3 5 4 3 5 4 6 2 8 1 9 76 10 77 11 85 12 78 13
REMARK SMILES IDX 84 14 79 15 83 16 80 17 82 18 81 19 9 20 10 21 11 22 12 24
REMARK SMILES IDX 13 25 14 26 75 27 15 28 74 29 16 30 17 31 18 32 68 33 19 34
REMARK SMILES IDX 73 35 67 36 69 37 20 38 72 39 66 40 65 41 21 43 53 44 33 45
REMARK SMILES IDX 52 46 34 47 37 48 51 49 70 50 35 51 36 52 50 54 71 55 38 56
REMARK SMILES IDX 22 57 23 58 31 59 24 60 30 61 32 62 29 63 25 64 26 65 27 66
REMARK SMILES IDX 28 67 54 68 55 69 63 70 56 71 62 72 64 73 61 74 57 75 58 76
REMARK SMILES IDX 59 77 60 78 39 79 40 80 48 81 41 82 47 83 49 84 46 85 42 86
REMARK SMILES IDX 43 87 44 88 45 89
REMARK H PARENT 5 7 10 23 69 42 37 53
REMARK Flexibility Score: inf
ROOT
ATOM      1  C   UNL     1      -1.344  -3.233   1.523  1.00  0.00     0.023 C 
ENDROOT
BRANCH   1   2
ATOM      2  C   UNL     1      -1.527  -1.976   0.678  1.00  0.00     0.023 C 
BRANCH   2   3
ATOM      3  C   UNL     1      -0.894  -0.706   1.248  1.00  0.00     0.116 C 
BRANCH   3   4
ATOM      4  N   UNL     1       0.486  -0.563   0.823  1.00  0.00    -0.356 N 
ATOM      5  C   UNL     1       1.083   0.016  -0.248  1.00  0.00     0.227 C 
ATOM      6  O   UNL     1       2.315  -0.125  -0.288  1.00  0.00    -0.274 OA
ATOM      7  H   UNL     1       1.127  -0.975   1.446  1.00  0.00     0.163 HD
BRANCH   5   8
ATOM      8  C   UNL     1       0.402   0.866  -1.340  1.00  0.00     0.105 C 
ATOM      9  C   UNL     1       1.007   0.495  -2.703  1.00  0.00     0.023 C 
BRANCH   8  10
ATOM     10  C   UNL     1      -1.113   0.920  -1.418  1.00  0.00    -0.035 A 
ATOM     11  C   UNL     1      -1.790   2.060  -0.965  1.00  0.00     0.007 A 
ATOM     12  C   UNL     1      -1.878  -0.153  -1.893  1.00  0.00     0.015 A 
ATOM     13  C   UNL     1      -3.188   2.079  -0.895  1.00  0.00     0.029 A 
ATOM     14  C   UNL     1      -3.280  -0.156  -1.755  1.00  0.00     0.000 A 
ATOM     15  C   UNL     1      -3.948   0.973  -1.239  1.00  0.00     0.070 A 
ATOM     16  C   UNL     1      -4.044  -1.294  -2.044  1.00  0.00     0.012 A 
ATOM     17  N   UNL     1      -5.275   0.993  -1.029  1.00  0.00    -0.256 NA
ATOM     18  C   UNL     1      -5.409  -1.294  -1.785  1.00  0.00     0.021 A 
ATOM     19  C   UNL     1      -5.973  -0.137  -1.283  1.00  0.00     0.112 A 
ENDBRANCH   8  10
ENDBRANCH   5   8
ENDBRANCH   3   4
ENDBRANCH   2   3
ENDBRANCH   1   2
BRANCH   1  20
ATOM     20  C   UNL     1      -2.058  -3.210   2.869  1.00  0.00     0.116 C 
BRANCH  20  21
ATOM     21  N   UNL     1      -3.498  -3.009   2.772  1.00  0.00    -0.352 N 
ATOM     22  C   UNL     1      -4.493  -3.559   3.553  1.00  0.00     0.251 C 
ATOM     23  H   UNL     1      -3.800  -2.404   2.056  1.00  0.00     0.163 HD
ATOM     24  O   UNL     1      -5.670  -3.359   3.292  1.00  0.00    -0.269 OA
BRANCH  22  25
ATOM     25  C   UNL     1      -4.106  -4.443   4.675  1.00  0.00     0.039 A 
ATOM     26  C   UNL     1      -4.674  -5.716   4.759  1.00  0.00     0.014 A 
ATOM     27  C   UNL     1      -3.116  -4.047   5.578  1.00  0.00     0.014 A 
ATOM     28  C   UNL     1      -4.168  -6.635   5.681  1.00  0.00     0.010 A 
ATOM     29  C   UNL     1      -2.564  -4.986   6.441  1.00  0.00     0.010 A 
ATOM     30  C   UNL     1      -3.069  -6.295   6.486  1.00  0.00    -0.014 A 
BRANCH  30  31
ATOM     31  C   UNL     1      -2.394  -7.295   7.354  1.00  0.00     0.031 A 
ATOM     32  C   UNL     1      -2.347  -7.081   8.841  1.00  0.00     0.074 A 
ATOM     33  C   UNL     1      -1.719  -8.318   6.791  1.00  0.00     0.049 A 
ATOM     34  N   UNL     1      -1.669  -7.732   9.750  1.00  0.00    -0.248 NA
ATOM     35  C   UNL     1      -3.137  -5.958   9.368  1.00  0.00     0.031 C 
ATOM     36  C   UNL     1      -1.645  -8.595   5.354  1.00  0.00     0.029 A 
ATOM     37  N   UNL     1      -0.940  -9.298   7.355  1.00  0.00    -0.354 N 
ATOM     38  C   UNL     1      -1.921  -7.078  10.950  1.00  0.00     0.074 A 
ATOM     39  C   UNL     1      -2.783  -5.955  10.644  1.00  0.00     0.031 C 
ATOM     40  C   UNL     1      -0.869  -9.672   5.151  1.00  0.00     0.029 A 
ATOM     41  C   UNL     1      -0.350 -10.134   6.434  1.00  0.00     0.049 A 
ATOM     42  H   UNL     1      -0.816  -9.394   8.327  1.00  0.00     0.167 HD
ATOM     43  C   UNL     1      -1.484  -7.395  12.194  1.00  0.00     0.034 A 
ATOM     44  C   UNL     1       0.532 -11.140   6.601  1.00  0.00     0.034 A 
ATOM     45  C   UNL     1      -0.662  -8.543  12.485  1.00  0.00     0.049 A 
ATOM     46  C   UNL     1       0.995 -11.478   7.995  1.00  0.00     0.074 A 
ATOM     47  C   UNL     1      -0.259  -9.022  13.719  1.00  0.00     0.029 A 
ATOM     48  N   UNL     1      -0.108  -9.385  11.530  1.00  0.00    -0.354 N 
ATOM     49  N   UNL     1       0.685 -10.895   9.130  1.00  0.00    -0.248 NA
ATOM     50  C   UNL     1       1.922 -12.609   8.131  1.00  0.00     0.031 C 
ATOM     51  C   UNL     1       0.585 -10.119  13.508  1.00  0.00     0.029 A 
ATOM     52  C   UNL     1       0.661 -10.360  12.146  1.00  0.00     0.049 A 
ATOM     53  H   UNL     1      -0.243  -9.303  10.559  1.00  0.00     0.167 HD
ATOM     54  C   UNL     1       1.364 -11.604  10.116  1.00  0.00     0.074 A 
ATOM     55  C   UNL     1       2.088 -12.664   9.445  1.00  0.00     0.031 C 
ATOM     56  C   UNL     1       1.385 -11.401  11.457  1.00  0.00     0.034 A 
BRANCH  43  57
ATOM     57  C   UNL     1      -1.868  -6.474  13.324  1.00  0.00     0.023 A 
ATOM     58  C   UNL     1      -3.205  -6.307  13.722  1.00  0.00     0.031 A 
ATOM     59  C   UNL     1      -0.881  -5.737  14.001  1.00  0.00     0.131 A 
ATOM     60  C   UNL     1      -3.527  -5.373  14.718  1.00  0.00     0.055 A 
ATOM     61  C   UNL     1      -1.200  -4.864  15.043  1.00  0.00     0.041 A 
ATOM     62  F   UNL     1       0.411  -5.842  13.651  1.00  0.00    -0.206 F 
ATOM     63  C   UNL     1      -2.531  -4.668  15.398  1.00  0.00     0.022 A 
BRANCH  60  64
ATOM     64  S   UNL     1      -5.275  -5.004  15.025  1.00  0.00     0.124 S 
ATOM     65  O   UNL     1      -5.701  -4.494  13.723  1.00  0.00    -0.237 OA
ATOM     66  O   UNL     1      -5.811  -6.305  15.407  1.00  0.00    -0.237 OA
ATOM     67  O   UNL     1      -5.233  -4.008  16.093  1.00  0.00    -0.744 OA
ENDBRANCH  60  64
ENDBRANCH  43  57
BRANCH  44  68
ATOM     68  C   UNL     1       1.067 -11.882   5.424  1.00  0.00     0.023 A 
ATOM     69  C   UNL     1       0.776 -13.242   5.234  1.00  0.00     0.031 A 
ATOM     70  C   UNL     1       1.919 -11.253   4.499  1.00  0.00     0.131 A 
ATOM     71  C   UNL     1       1.368 -13.942   4.171  1.00  0.00     0.055 A 
ATOM     72  C   UNL     1       2.468 -11.942   3.415  1.00  0.00     0.041 A 
ATOM     73  F   UNL     1       2.224  -9.952   4.631  1.00  0.00    -0.206 F 
ATOM     74  C   UNL     1       2.204 -13.299   3.255  1.00  0.00     0.022 A 
BRANCH  71  75
ATOM     75  S   UNL     1       1.097 -15.731   4.052  1.00  0.00     0.124 S 
ATOM     76  O   UNL     1       1.562 -16.190   5.357  1.00  0.00    -0.237 OA
ATOM     77  O   UNL     1      -0.341 -15.804   3.822  1.00  0.00    -0.237 OA
ATOM     78  O   UNL     1       1.930 -16.127   2.918  1.00  0.00    -0.744 OA
ENDBRANCH  71  75
ENDBRANCH  44  68
BRANCH  56  79
ATOM     79  C   UNL     1       2.190 -12.370  12.281  1.00  0.00     0.023 A 
ATOM     80  C   UNL     1       3.594 -12.373  12.249  1.00  0.00     0.031 A 
ATOM     81  C   UNL     1       1.540 -13.301  13.111  1.00  0.00     0.131 A 
ATOM     82  C   UNL     1       4.306 -13.318  13.002  1.00  0.00     0.055 A 
ATOM     83  C   UNL     1       2.254 -14.206  13.896  1.00  0.00     0.041 A 
ATOM     84  F   UNL     1       0.200 -13.338  13.176  1.00  0.00    -0.206 F 
ATOM     85  C   UNL     1       3.645 -14.223  13.838  1.00  0.00     0.022 A 
BRANCH  82  86
ATOM     86  S   UNL     1       6.111 -13.385  12.837  1.00  0.00     0.124 S 
ATOM     87  O   UNL     1       6.272 -13.744  11.432  1.00  0.00    -0.237 OA
ATOM     88  O   UNL     1       6.511 -12.030  13.199  1.00  0.00    -0.237 OA
ATOM     89  O   UNL     1       6.504 -14.421  13.791  1.00  0.00    -0.744 OA
ENDBRANCH  82  86
ENDBRANCH  56  79
ENDBRANCH  30  31
ENDBRANCH  22  25
ENDBRANCH  20  21
ENDBRANCH   1  20
TORSDOF 15
