REMARK SMILES C[C@@H]1CCCN(c2cc(Br)ccc2/C=C/C(=O)NCCCCNC(=O)c2ccc(-c3c4nc(c(-c5cc(S(=O)(=O)[O-])ccc5F)c5ccc([nH]5)c(-c5cc(S(=O)(=O)[O-])ccc5F)c5nc(c(-c6cc(S(=O)(=O)[O-])ccc6F)c6ccc3[nH]6)C=C5)C=C4)cc2)C1
REMARK SMILES IDX 21 1 20 2 19 3 18 4 16 5 17 6 15 8 14 9 13 10 7 11 8 12 9 13
REMARK SMILES IDX 12 14 10 15 11 16 6 17 1 18 2 19 3 20 89 21 4 22 5 23 22 24
REMARK SMILES IDX 23 25 24 26 25 28 26 29 27 30 88 31 28 32 87 33 29 34 30 35
REMARK SMILES IDX 31 36 81 37 32 38 86 39 80 40 82 41 33 42 85 43 79 44 78 45
REMARK SMILES IDX 34 47 66 48 46 49 65 50 47 51 50 52 64 53 83 54 48 55 49 56
REMARK SMILES IDX 63 58 84 59 51 60 35 61 36 62 44 63 37 64 43 65 45 66 42 67
REMARK SMILES IDX 38 68 39 69 40 70 41 71 67 72 68 73 76 74 69 75 75 76 77 77
REMARK SMILES IDX 74 78 70 79 71 80 72 81 73 82 52 83 53 84 61 85 54 86 60 87
REMARK SMILES IDX 62 88 59 89 55 90 56 91 57 92 58 93
REMARK H PARENT 18 7 23 27 82 46 50 57
REMARK Flexibility Score: inf
ROOT
ATOM      1  C   UNL     1       0.044   2.428   5.259  1.00  0.00     0.023 C 
ENDROOT
BRANCH   1   2
ATOM      2  C   UNL     1       0.393   2.544   3.774  1.00  0.00     0.023 C 
BRANCH   2   3
ATOM      3  C   UNL     1      -0.336   3.674   3.047  1.00  0.00     0.116 C 
BRANCH   3   4
ATOM      4  N   UNL     1       0.346   4.937   3.234  1.00  0.00    -0.353 N 
ATOM      5  C   UNL     1       1.117   5.641   2.364  1.00  0.00     0.244 C 
ATOM      6  O   UNL     1       1.540   6.752   2.676  1.00  0.00    -0.270 OA
ATOM      7  H   UNL     1       0.235   5.346   4.123  1.00  0.00     0.163 HD
BRANCH   5   8
ATOM      8  C   UNL     1       1.381   5.130   0.998  1.00  0.00     0.072 C 
ATOM      9  C   UNL     1       1.834   3.899   0.712  1.00  0.00     0.016 C 
BRANCH   9  10
ATOM     10  C   UNL     1       2.158   3.434  -0.653  1.00  0.00    -0.002 A 
ATOM     11  C   UNL     1       1.896   2.101  -1.061  1.00  0.00     0.045 A 
ATOM     12  C   UNL     1       2.320   1.699  -2.340  1.00  0.00     0.042 A 
ATOM     13  C   UNL     1       2.987   2.580  -3.191  1.00  0.00     0.020 A 
ATOM     14  C   UNL     1       2.850   4.301  -1.520  1.00  0.00     0.011 A 
ATOM     15  Br  UNL     1       3.539   1.998  -4.902  1.00  0.00    -0.051 Br
ATOM     16  C   UNL     1       3.256   3.880  -2.786  1.00  0.00     0.016 A 
BRANCH  11  17
ATOM     17  N   UNL     1       1.241   1.182  -0.257  1.00  0.00    -0.371 N 
ATOM     18  C   UNL     1      -2.409   0.128  -0.034  1.00  0.00     0.009 C 
ATOM     19  C   UNL     1      -0.943   0.062  -0.461  1.00  0.00     0.005 C 
ATOM     20  C   UNL     1      -0.284  -1.213   0.090  1.00  0.00     0.007 C 
ATOM     21  C   UNL     1      -0.187   1.315   0.010  1.00  0.00     0.119 C 
ATOM     22  C   UNL     1       1.198  -1.264  -0.276  1.00  0.00     0.022 C 
ATOM     23  C   UNL     1       1.930  -0.015   0.207  1.00  0.00     0.116 C 
ENDBRANCH  11  17
ENDBRANCH   9  10
ENDBRANCH   5   8
ENDBRANCH   3   4
ENDBRANCH   2   3
ENDBRANCH   1   2
BRANCH   1  24
ATOM     24  C   UNL     1      -1.420   2.108   5.553  1.00  0.00     0.116 C 
BRANCH  24  25
ATOM     25  N   UNL     1      -1.882   0.885   4.916  1.00  0.00    -0.352 N 
ATOM     26  C   UNL     1      -2.842   0.001   5.352  1.00  0.00     0.251 C 
ATOM     27  H   UNL     1      -1.451   0.661   4.060  1.00  0.00     0.163 HD
ATOM     28  O   UNL     1      -3.029  -1.042   4.743  1.00  0.00    -0.269 OA
BRANCH  26  29
ATOM     29  C   UNL     1      -3.602   0.307   6.585  1.00  0.00     0.039 A 
ATOM     30  C   UNL     1      -3.725  -0.685   7.560  1.00  0.00     0.014 A 
ATOM     31  C   UNL     1      -4.164   1.570   6.790  1.00  0.00     0.014 A 
ATOM     32  C   UNL     1      -4.356  -0.389   8.770  1.00  0.00     0.010 A 
ATOM     33  C   UNL     1      -4.730   1.884   8.023  1.00  0.00     0.010 A 
ATOM     34  C   UNL     1      -4.832   0.908   9.026  1.00  0.00    -0.014 A 
BRANCH  34  35
ATOM     35  C   UNL     1      -5.440   1.254  10.337  1.00  0.00     0.031 A 
ATOM     36  C   UNL     1      -6.889   1.650  10.419  1.00  0.00     0.074 A 
ATOM     37  C   UNL     1      -4.671   1.262  11.445  1.00  0.00     0.049 A 
ATOM     38  N   UNL     1      -7.589   2.021  11.460  1.00  0.00    -0.248 NA
ATOM     39  C   UNL     1      -7.641   1.659   9.155  1.00  0.00     0.031 C 
ATOM     40  C   UNL     1      -3.241   0.948  11.482  1.00  0.00     0.029 A 
ATOM     41  N   UNL     1      -4.981   1.547  12.751  1.00  0.00    -0.354 N 
ATOM     42  C   UNL     1      -8.860   2.315  10.978  1.00  0.00     0.074 A 
ATOM     43  C   UNL     1      -8.811   2.144   9.541  1.00  0.00     0.031 C 
ATOM     44  C   UNL     1      -2.805   1.030  12.749  1.00  0.00     0.029 A 
ATOM     45  C   UNL     1      -3.911   1.438  13.610  1.00  0.00     0.049 A 
ATOM     46  H   UNL     1      -5.884   1.805  13.046  1.00  0.00     0.167 HD
ATOM     47  C   UNL     1      -9.971   2.670  11.672  1.00  0.00     0.034 A 
ATOM     48  C   UNL     1      -3.831   1.646  14.939  1.00  0.00     0.034 A 
ATOM     49  C   UNL     1     -10.004   2.825  13.106  1.00  0.00     0.049 A 
ATOM     50  C   UNL     1      -5.077   2.045  15.688  1.00  0.00     0.074 A 
ATOM     51  C   UNL     1     -11.084   3.127  13.917  1.00  0.00     0.029 A 
ATOM     52  N   UNL     1      -8.903   2.698  13.946  1.00  0.00    -0.354 N 
ATOM     53  N   UNL     1      -6.287   2.260  15.225  1.00  0.00    -0.248 NA
ATOM     54  C   UNL     1      -4.948   2.213  17.141  1.00  0.00     0.031 C 
ATOM     55  C   UNL     1     -10.626   3.245  15.235  1.00  0.00     0.029 A 
ATOM     56  C   UNL     1      -9.274   2.943  15.260  1.00  0.00     0.049 A 
ATOM     57  H   UNL     1      -7.993   2.468  13.650  1.00  0.00     0.167 HD
ATOM     58  C   UNL     1      -7.069   2.560  16.337  1.00  0.00     0.074 A 
ATOM     59  C   UNL     1      -6.198   2.479  17.491  1.00  0.00     0.031 C 
ATOM     60  C   UNL     1      -8.390   2.871  16.400  1.00  0.00     0.034 A 
BRANCH  47  61
ATOM     61  C   UNL     1     -11.229   2.931  10.878  1.00  0.00     0.023 A 
ATOM     62  C   UNL     1     -11.842   1.922  10.113  1.00  0.00     0.031 A 
ATOM     63  C   UNL     1     -11.809   4.212  10.859  1.00  0.00     0.131 A 
ATOM     64  C   UNL     1     -12.944   2.229   9.301  1.00  0.00     0.055 A 
ATOM     65  C   UNL     1     -12.957   4.490  10.114  1.00  0.00     0.041 A 
ATOM     66  F   UNL     1     -11.260   5.222  11.552  1.00  0.00    -0.206 F 
ATOM     67  C   UNL     1     -13.522   3.500   9.316  1.00  0.00     0.022 A 
BRANCH  64  68
ATOM     68  S   UNL     1     -13.516   0.983   8.113  1.00  0.00     0.124 S 
ATOM     69  O   UNL     1     -12.316   0.774   7.305  1.00  0.00    -0.237 OA
ATOM     70  O   UNL     1     -13.905  -0.124   8.979  1.00  0.00    -0.237 OA
ATOM     71  O   UNL     1     -14.616   1.650   7.419  1.00  0.00    -0.744 OA
ENDBRANCH  64  68
ENDBRANCH  47  61
BRANCH  48  72
ATOM     72  C   UNL     1      -2.533   1.481  15.653  1.00  0.00     0.023 A 
ATOM     73  C   UNL     1      -2.361   0.477  16.620  1.00  0.00     0.031 A 
ATOM     74  C   UNL     1      -1.457   2.353  15.411  1.00  0.00     0.131 A 
ATOM     75  C   UNL     1      -1.161   0.400  17.344  1.00  0.00     0.055 A 
ATOM     76  C   UNL     1      -0.246   2.239  16.096  1.00  0.00     0.041 A 
ATOM     77  F   UNL     1      -1.565   3.325  14.491  1.00  0.00    -0.206 F 
ATOM     78  C   UNL     1      -0.098   1.266  17.080  1.00  0.00     0.022 A 
BRANCH  75  79
ATOM     79  S   UNL     1      -1.041  -0.801  18.698  1.00  0.00     0.124 S 
ATOM     80  O   UNL     1      -2.155  -0.402  19.550  1.00  0.00    -0.237 OA
ATOM     81  O   UNL     1      -1.193  -2.069  17.992  1.00  0.00    -0.237 OA
ATOM     82  O   UNL     1       0.289  -0.555  19.253  1.00  0.00    -0.744 OA
ENDBRANCH  75  79
ENDBRANCH  48  72
BRANCH  60  83
ATOM     83  C   UNL     1      -8.972   3.102  17.773  1.00  0.00     0.023 A 
ATOM     84  C   UNL     1      -8.585   4.197  18.566  1.00  0.00     0.031 A 
ATOM     85  C   UNL     1      -9.910   2.200  18.304  1.00  0.00     0.131 A 
ATOM     86  C   UNL     1      -9.086   4.327  19.870  1.00  0.00     0.055 A 
ATOM     87  C   UNL     1     -10.453   2.369  19.578  1.00  0.00     0.041 A 
ATOM     88  F   UNL     1     -10.314   1.135  17.592  1.00  0.00    -0.206 F 
ATOM     89  C   UNL     1     -10.030   3.429  20.375  1.00  0.00     0.022 A 
BRANCH  86  90
ATOM     90  S   UNL     1      -8.410   5.630  20.936  1.00  0.00     0.124 S 
ATOM     91  O   UNL     1      -6.986   5.311  20.939  1.00  0.00    -0.237 OA
ATOM     92  O   UNL     1      -8.790   6.845  20.223  1.00  0.00    -0.237 OA
ATOM     93  O   UNL     1      -9.095   5.420  22.210  1.00  0.00    -0.744 OA
ENDBRANCH  86  90
ENDBRANCH  60  83
ENDBRANCH  34  35
ENDBRANCH  26  29
ENDBRANCH  24  25
ENDBRANCH   1  24
TORSDOF 16
