REMARK SMILES C[C@H]1[C@H](C(=O)NCCCCNC(=O)c2ccc(-c3c4nc(c(-c5cc(S(=O)(=O)[O-])ccc5F)c5ccc([nH]5)c(-c5cc(S(=O)(=O)[O-])ccc5F)c5nc(c(-c6cc(S(=O)(=O)[O-])ccc6F)c6ccc3[nH]6)C=C5)C=C4)cc2)CC[N@@H+]1Cc1cnn(-c2ccccc2)c1
REMARK SMILES IDX 8 1 7 2 6 3 4 4 5 5 3 7 1 8 2 9 79 10 77 11 78 12 80 14
REMARK SMILES IDX 81 15 82 16 91 17 83 18 84 19 85 20 86 21 90 22 87 23 89 24
REMARK SMILES IDX 88 25 9 26 10 27 11 28 12 29 13 31 14 32 15 33 76 34 16 35
REMARK SMILES IDX 75 36 17 37 18 38 19 39 69 40 20 41 74 42 68 43 70 44 21 45
REMARK SMILES IDX 73 46 67 47 66 48 22 50 54 51 34 52 53 53 35 54 38 55 52 56
REMARK SMILES IDX 71 57 36 58 37 59 51 61 72 62 39 63 23 64 24 65 32 66 25 67
REMARK SMILES IDX 31 68 33 69 30 70 26 71 27 72 28 73 29 74 55 75 56 76 64 77
REMARK SMILES IDX 57 78 63 79 65 80 62 81 58 82 59 83 60 84 61 85 40 86 41 87
REMARK SMILES IDX 49 88 42 89 48 90 50 91 47 92 43 93 44 94 45 95 46 96
REMARK H PARENT 6 6 79 13 11 30 70 49 38 60
REMARK Flexibility Score: inf
ROOT
ATOM      1  C   UNL     1       1.460  -0.043   4.386  1.00  0.00     0.023 C 
ENDROOT
BRANCH   1   2
ATOM      2  C   UNL     1       0.706   0.739   3.304  1.00  0.00     0.116 C 
BRANCH   2   3
ATOM      3  N   UNL     1       1.322   1.758   2.488  1.00  0.00    -0.356 N 
ATOM      4  C   UNL     1       0.889   2.133   1.235  1.00  0.00     0.229 C 
ATOM      5  O   UNL     1       0.967   3.333   0.947  1.00  0.00    -0.275 OA
ATOM      6  H   UNL     1       2.111   2.220   2.854  1.00  0.00     0.163 HD
BRANCH   4   7
ATOM      7  C   UNL     1       0.375   1.149   0.171  1.00  0.00     0.142 C 
ATOM      8  C   UNL     1       1.656  -0.758  -0.799  1.00  0.00     0.076 C 
ATOM      9  C   UNL     1       0.683  -0.348   0.330  1.00  0.00     0.193 C 
ATOM     10  N   UNL     1      -0.621  -1.055   0.226  1.00  0.00    -0.328 N 
ATOM     11  C   UNL     1      -1.116   1.219  -0.166  1.00  0.00     0.081 C 
ATOM     12  C   UNL     1      -1.456  -0.200  -0.613  1.00  0.00     0.263 C 
ATOM     13  H   UNL     1      -0.438  -1.972  -0.182  1.00  0.00     0.348 HD
BRANCH  10  14
ATOM     14  C   UNL     1      -1.294  -1.551   1.464  1.00  0.00     0.302 C 
BRANCH  14  15
ATOM     15  C   UNL     1      -2.165  -0.596   2.281  1.00  0.00     0.045 A 
ATOM     16  C   UNL     1      -3.434  -0.033   1.988  1.00  0.00     0.145 A 
ATOM     17  C   UNL     1      -2.020  -0.183   3.599  1.00  0.00     0.124 A 
ATOM     18  N   UNL     1      -3.895   0.806   2.929  1.00  0.00    -0.176 NA
ATOM     19  N   UNL     1      -2.884   0.882   3.827  1.00  0.00    -0.240 N 
BRANCH  19  20
ATOM     20  C   UNL     1      -2.826   1.906   4.840  1.00  0.00     0.065 A 
ATOM     21  C   UNL     1      -3.997   2.311   5.475  1.00  0.00     0.028 A 
ATOM     22  C   UNL     1      -1.631   2.531   5.252  1.00  0.00     0.028 A 
ATOM     23  C   UNL     1      -3.938   3.209   6.558  1.00  0.00     0.002 A 
ATOM     24  C   UNL     1      -1.563   3.401   6.343  1.00  0.00     0.002 A 
ATOM     25  C   UNL     1      -2.723   3.729   7.011  1.00  0.00     0.000 A 
ENDBRANCH  19  20
ENDBRANCH  14  15
ENDBRANCH  10  14
ENDBRANCH   4   7
ENDBRANCH   2   3
ENDBRANCH   1   2
BRANCH   1  26
ATOM     26  C   UNL     1       1.216   0.156   5.915  1.00  0.00     0.023 C 
BRANCH  26  27
ATOM     27  C   UNL     1      -0.116  -0.010   6.701  1.00  0.00     0.116 C 
BRANCH  27  28
ATOM     28  N   UNL     1      -0.741  -1.308   6.875  1.00  0.00    -0.352 N 
ATOM     29  C   UNL     1      -1.776  -1.598   7.772  1.00  0.00     0.251 C 
ATOM     30  H   UNL     1      -0.409  -2.047   6.315  1.00  0.00     0.163 HD
ATOM     31  O   UNL     1      -2.369  -2.664   7.706  1.00  0.00    -0.269 OA
BRANCH  29  32
ATOM     32  C   UNL     1      -2.141  -0.617   8.840  1.00  0.00     0.039 A 
ATOM     33  C   UNL     1      -1.635  -0.772  10.130  1.00  0.00     0.014 A 
ATOM     34  C   UNL     1      -3.001   0.450   8.588  1.00  0.00     0.014 A 
ATOM     35  C   UNL     1      -1.892   0.203  11.117  1.00  0.00     0.010 A 
ATOM     36  C   UNL     1      -3.194   1.458   9.560  1.00  0.00     0.010 A 
ATOM     37  C   UNL     1      -2.599   1.390  10.828  1.00  0.00    -0.014 A 
BRANCH  37  38
ATOM     38  C   UNL     1      -2.595   2.556  11.801  1.00  0.00     0.031 A 
ATOM     39  C   UNL     1      -3.849   3.297  12.241  1.00  0.00     0.074 A 
ATOM     40  C   UNL     1      -1.411   3.030  12.261  1.00  0.00     0.049 A 
ATOM     41  N   UNL     1      -3.965   4.303  13.083  1.00  0.00    -0.248 NA
ATOM     42  C   UNL     1      -5.122   2.900  11.630  1.00  0.00     0.031 C 
ATOM     43  C   UNL     1      -0.092   2.546  11.849  1.00  0.00     0.029 A 
ATOM     44  N   UNL     1      -1.113   4.014  13.183  1.00  0.00    -0.354 N 
ATOM     45  C   UNL     1      -5.311   4.668  13.085  1.00  0.00     0.074 A 
ATOM     46  C   UNL     1      -5.953   3.822  12.099  1.00  0.00     0.031 C 
ATOM     47  C   UNL     1       0.857   3.158  12.571  1.00  0.00     0.029 A 
ATOM     48  C   UNL     1       0.234   4.136  13.457  1.00  0.00     0.049 A 
ATOM     49  H   UNL     1      -1.800   4.578  13.607  1.00  0.00     0.167 HD
ATOM     50  C   UNL     1      -5.965   5.585  13.851  1.00  0.00     0.034 A 
ATOM     51  C   UNL     1       0.913   4.928  14.316  1.00  0.00     0.034 A 
ATOM     52  C   UNL     1      -5.344   6.407  14.868  1.00  0.00     0.049 A 
ATOM     53  C   UNL     1       0.166   5.906  15.188  1.00  0.00     0.074 A 
ATOM     54  C   UNL     1      -5.952   7.275  15.764  1.00  0.00     0.029 A 
ATOM     55  N   UNL     1      -3.982   6.479  15.124  1.00  0.00    -0.354 N 
ATOM     56  N   UNL     1      -1.122   6.145  15.245  1.00  0.00    -0.248 NA
ATOM     57  C   UNL     1       0.968   6.716  16.118  1.00  0.00     0.031 C 
ATOM     58  C   UNL     1      -4.958   7.923  16.505  1.00  0.00     0.029 A 
ATOM     59  C   UNL     1      -3.733   7.397  16.137  1.00  0.00     0.049 A 
ATOM     60  H   UNL     1      -3.293   5.955  14.656  1.00  0.00     0.167 HD
ATOM     61  C   UNL     1      -1.284   7.108  16.240  1.00  0.00     0.074 A 
ATOM     62  C   UNL     1       0.032   7.390  16.769  1.00  0.00     0.031 C 
ATOM     63  C   UNL     1      -2.426   7.699  16.673  1.00  0.00     0.034 A 
BRANCH  50  64
ATOM     64  C   UNL     1      -7.458   5.751  13.634  1.00  0.00     0.023 A 
ATOM     65  C   UNL     1      -8.352   4.684  13.833  1.00  0.00     0.031 A 
ATOM     66  C   UNL     1      -8.002   6.989  13.241  1.00  0.00     0.131 A 
ATOM     67  C   UNL     1      -9.716   4.844  13.550  1.00  0.00     0.055 A 
ATOM     68  C   UNL     1      -9.376   7.168  13.054  1.00  0.00     0.041 A 
ATOM     69  F   UNL     1      -7.207   8.050  13.031  1.00  0.00    -0.206 F 
ATOM     70  C   UNL     1     -10.240   6.087  13.189  1.00  0.00     0.022 A 
BRANCH  67  71
ATOM     71  S   UNL     1     -10.763   3.365  13.505  1.00  0.00     0.124 S 
ATOM     72  O   UNL     1     -10.077   2.551  12.503  1.00  0.00    -0.237 OA
ATOM     73  O   UNL     1     -10.688   2.883  14.879  1.00  0.00    -0.237 OA
ATOM     74  O   UNL     1     -12.067   3.879  13.092  1.00  0.00    -0.744 OA
ENDBRANCH  67  71
ENDBRANCH  50  64
BRANCH  51  75
ATOM     75  C   UNL     1       2.403   4.835  14.414  1.00  0.00     0.023 A 
ATOM     76  C   UNL     1       3.025   4.426  15.605  1.00  0.00     0.031 A 
ATOM     77  C   UNL     1       3.227   5.210  13.338  1.00  0.00     0.131 A 
ATOM     78  C   UNL     1       4.425   4.453  15.711  1.00  0.00     0.055 A 
ATOM     79  C   UNL     1       4.620   5.173  13.427  1.00  0.00     0.041 A 
ATOM     80  F   UNL     1       2.686   5.606  12.174  1.00  0.00    -0.206 F 
ATOM     81  C   UNL     1       5.226   4.808  14.624  1.00  0.00     0.022 A 
BRANCH  78  82
ATOM     82  S   UNL     1       5.183   4.116  17.325  1.00  0.00     0.124 S 
ATOM     83  O   UNL     1       4.573   5.145  18.158  1.00  0.00    -0.237 OA
ATOM     84  O   UNL     1       4.756   2.745  17.580  1.00  0.00    -0.237 OA
ATOM     85  O   UNL     1       6.612   4.284  17.070  1.00  0.00    -0.744 OA
ENDBRANCH  78  82
ENDBRANCH  51  75
BRANCH  63  86
ATOM     86  C   UNL     1      -2.315   8.680  17.819  1.00  0.00     0.023 A 
ATOM     87  C   UNL     1      -1.613   9.894  17.699  1.00  0.00     0.031 A 
ATOM     88  C   UNL     1      -2.911   8.388  19.060  1.00  0.00     0.131 A 
ATOM     89  C   UNL     1      -1.478  10.741  18.811  1.00  0.00     0.055 A 
ATOM     90  C   UNL     1      -2.829   9.265  20.144  1.00  0.00     0.041 A 
ATOM     91  F   UNL     1      -3.587   7.242  19.241  1.00  0.00    -0.206 F 
ATOM     92  C   UNL     1      -2.098  10.443  20.027  1.00  0.00     0.022 A 
BRANCH  89  93
ATOM     93  S   UNL     1      -0.398  12.194  18.679  1.00  0.00     0.124 S 
ATOM     94  O   UNL     1       0.879  11.590  18.316  1.00  0.00    -0.237 OA
ATOM     95  O   UNL     1      -1.054  12.976  17.636  1.00  0.00    -0.237 OA
ATOM     96  O   UNL     1      -0.448  12.782  20.016  1.00  0.00    -0.744 OA
ENDBRANCH  89  93
ENDBRANCH  63  86
ENDBRANCH  37  38
ENDBRANCH  29  32
ENDBRANCH  27  28
ENDBRANCH  26  27
ENDBRANCH   1  26
TORSDOF 17
