REMARK SMILES O=C(C[C@]1(C(=O)NC2CCCCC2)CC(c2ccc([N+](=O)[O-])cc2)=NO1)NCCCCNC(=O)c1ccc(-c2c3nc(c(-c4cc(S(=O)(=O)[O-])ccc4F)c4ccc([nH]4)c(-c4cc(S(=O)(=O)[O-])ccc4F)c4nc(c(-c5cc(S(=O)(=O)[O-])ccc5F)c5ccc2[nH]5)C=C4)C=C3)cc1
REMARK SMILES IDX 29 1 28 2 27 3 1 4 2 5 3 7 4 8 14 9 26 10 15 11 25 12 5 13
REMARK SMILES IDX 6 14 7 15 8 17 9 18 13 19 10 20 12 21 11 22 16 23 17 24
REMARK SMILES IDX 24 25 18 26 23 27 19 28 20 29 21 30 22 31 30 32 31 33 32 34
REMARK SMILES IDX 33 35 34 37 35 38 36 39 97 40 37 41 96 42 38 43 39 44 40 45
REMARK SMILES IDX 90 46 41 47 95 48 89 49 91 50 42 51 94 52 88 53 87 54 43 56
REMARK SMILES IDX 75 57 55 58 74 59 56 60 59 61 73 62 92 63 57 64 58 65 72 67
REMARK SMILES IDX 93 68 60 69 44 70 45 71 53 72 46 73 52 74 54 75 51 76 47 77
REMARK SMILES IDX 48 78 49 79 50 80 76 81 77 82 85 83 78 84 84 85 86 86 83 87
REMARK SMILES IDX 79 88 80 89 81 90 82 91 61 92 62 93 70 94 63 95 69 96 71 97
REMARK SMILES IDX 68 98 64 99 65 100 66 101 67 102
REMARK H PARENT 27 6 7 16 32 36 91 55 59 66
REMARK Flexibility Score: inf
ROOT
ATOM      1  C   UNL     1       6.726   5.841  -0.434  1.00  0.00     0.023 C 
ENDROOT
BRANCH   1   2
ATOM      2  C   UNL     1       6.381   4.999   0.787  1.00  0.00     0.116 C 
BRANCH   2   3
ATOM      3  N   UNL     1       5.910   3.668   0.451  1.00  0.00    -0.356 N 
ATOM      4  O   UNL     1       7.164   2.609   2.058  1.00  0.00    -0.275 OA
ATOM      5  C   UNL     1       6.293   2.573   1.193  1.00  0.00     0.224 C 
ATOM      6  H   UNL     1       5.309   3.547  -0.319  1.00  0.00     0.163 HD
BRANCH   5   7
ATOM      7  C   UNL     1       5.477   1.331   0.948  1.00  0.00     0.162 C 
BRANCH   7   8
ATOM      8  C   UNL     1       4.011   1.452   1.437  1.00  0.00     0.229 C 
ATOM      9  C   UNL     1       3.720   2.577   2.422  1.00  0.00     0.123 C 
ATOM     10  O   UNL     1       3.740   0.228   2.155  1.00  0.00    -0.378 OA
ATOM     11  C   UNL     1       3.528   1.790   3.663  1.00  0.00     0.092 C 
ATOM     12  N   UNL     1       3.608   0.507   3.536  1.00  0.00    -0.089 NA
BRANCH   8  13
ATOM     13  C   UNL     1       3.049   1.526   0.219  1.00  0.00     0.268 C 
ATOM     14  O   UNL     1       3.480   1.804  -0.907  1.00  0.00    -0.270 OA
ATOM     15  N   UNL     1       1.693   1.372   0.331  1.00  0.00    -0.350 N 
ATOM     16  H   UNL     1       1.222   1.256  -0.526  1.00  0.00     0.163 HD
BRANCH  15  17
ATOM     17  C   UNL     1       0.828   1.350   1.507  1.00  0.00     0.082 C 
ATOM     18  C   UNL     1       0.011   2.648   1.581  1.00  0.00     0.025 C 
ATOM     19  C   UNL     1      -0.103   0.137   1.539  1.00  0.00     0.025 C 
ATOM     20  C   UNL     1      -0.846   2.688   2.844  1.00  0.00     0.002 C 
ATOM     21  C   UNL     1      -0.946   0.155   2.818  1.00  0.00     0.002 C 
ATOM     22  C   UNL     1      -1.736   1.455   2.966  1.00  0.00     0.000 C 
ENDBRANCH  15  17
ENDBRANCH   8  13
BRANCH  11  23
ATOM     23  C   UNL     1       3.205   2.454   4.936  1.00  0.00    -0.000 A 
ATOM     24  C   UNL     1       3.712   1.937   6.131  1.00  0.00     0.017 A 
ATOM     25  C   UNL     1       2.314   3.534   4.950  1.00  0.00     0.017 A 
ATOM     26  C   UNL     1       3.317   2.495   7.349  1.00  0.00     0.086 A 
ATOM     27  C   UNL     1       1.891   4.076   6.164  1.00  0.00     0.086 A 
ATOM     28  C   UNL     1       2.390   3.549   7.362  1.00  0.00     0.269 A 
BRANCH  28  29
ATOM     29  N   UNL     1       1.917   4.088   8.641  1.00  0.00     0.062 N 
ATOM     30  O   UNL     1       2.491   3.710   9.672  1.00  0.00    -0.258 OA
ATOM     31  O   UNL     1       0.966   4.881   8.615  1.00  0.00    -0.258 OA
ENDBRANCH  28  29
ENDBRANCH  11  23
ENDBRANCH   7   8
ENDBRANCH   5   7
ENDBRANCH   2   3
ENDBRANCH   1   2
BRANCH   1  32
ATOM     32  C   UNL     1       5.547   6.145  -1.361  1.00  0.00     0.023 C 
BRANCH  32  33
ATOM     33  C   UNL     1       4.386   6.899  -0.719  1.00  0.00     0.116 C 
BRANCH  33  34
ATOM     34  N   UNL     1       4.758   8.234  -0.277  1.00  0.00    -0.352 N 
ATOM     35  C   UNL     1       4.220   9.452  -0.622  1.00  0.00     0.251 C 
ATOM     36  H   UNL     1       5.504   8.271   0.364  1.00  0.00     0.163 HD
ATOM     37  O   UNL     1       4.793  10.484  -0.278  1.00  0.00    -0.269 OA
BRANCH  35  38
ATOM     38  C   UNL     1       2.978   9.523  -1.426  1.00  0.00     0.039 A 
ATOM     39  C   UNL     1       2.908  10.433  -2.485  1.00  0.00     0.014 A 
ATOM     40  C   UNL     1       1.884   8.702  -1.141  1.00  0.00     0.014 A 
ATOM     41  C   UNL     1       1.773  10.465  -3.300  1.00  0.00     0.010 A 
ATOM     42  C   UNL     1       0.787   8.680  -2.001  1.00  0.00     0.010 A 
ATOM     43  C   UNL     1       0.720   9.559  -3.093  1.00  0.00    -0.014 A 
BRANCH  43  44
ATOM     44  C   UNL     1      -0.451   9.511  -4.013  1.00  0.00     0.031 A 
ATOM     45  C   UNL     1      -1.834   9.816  -3.500  1.00  0.00     0.074 A 
ATOM     46  C   UNL     1      -0.278   9.136  -5.296  1.00  0.00     0.049 A 
ATOM     47  N   UNL     1      -2.981   9.756  -4.126  1.00  0.00    -0.248 NA
ATOM     48  C   UNL     1      -1.941  10.211  -2.088  1.00  0.00     0.031 C 
ATOM     49  C   UNL     1       1.006   8.784  -5.907  1.00  0.00     0.029 A 
ATOM     50  N   UNL     1      -1.182   8.981  -6.319  1.00  0.00    -0.354 N 
ATOM     51  C   UNL     1      -3.948  10.095  -3.184  1.00  0.00     0.074 A 
ATOM     52  C   UNL     1      -3.253  10.295  -1.930  1.00  0.00     0.031 C 
ATOM     53  C   UNL     1       0.812   8.488  -7.202  1.00  0.00     0.029 A 
ATOM     54  C   UNL     1      -0.614   8.571  -7.504  1.00  0.00     0.049 A 
ATOM     55  H   UNL     1      -2.146   9.148  -6.214  1.00  0.00     0.167 HD
ATOM     56  C   UNL     1      -5.285  10.245  -3.355  1.00  0.00     0.034 A 
ATOM     57  C   UNL     1      -1.175   8.281  -8.695  1.00  0.00     0.034 A 
ATOM     58  C   UNL     1      -5.961  10.050  -4.616  1.00  0.00     0.049 A 
ATOM     59  C   UNL     1      -2.671   8.412  -8.848  1.00  0.00     0.074 A 
ATOM     60  C   UNL     1      -7.301  10.233  -4.911  1.00  0.00     0.029 A 
ATOM     61  N   UNL     1      -5.355   9.618  -5.789  1.00  0.00    -0.354 N 
ATOM     62  N   UNL     1      -3.563   8.783  -7.959  1.00  0.00    -0.248 NA
ATOM     63  C   UNL     1      -3.232   8.095 -10.168  1.00  0.00     0.031 C 
ATOM     64  C   UNL     1      -7.520   9.831  -6.232  1.00  0.00     0.029 A 
ATOM     65  C   UNL     1      -6.302   9.487  -6.795  1.00  0.00     0.049 A 
ATOM     66  H   UNL     1      -4.394   9.431  -5.892  1.00  0.00     0.167 HD
ATOM     67  C   UNL     1      -4.787   8.777  -8.626  1.00  0.00     0.074 A 
ATOM     68  C   UNL     1      -4.513   8.381  -9.992  1.00  0.00     0.031 C 
ATOM     69  C   UNL     1      -6.023   9.080  -8.153  1.00  0.00     0.034 A 
BRANCH  56  70
ATOM     70  C   UNL     1      -6.108  10.607  -2.140  1.00  0.00     0.023 A 
ATOM     71  C   UNL     1      -5.906  11.808  -1.438  1.00  0.00     0.031 A 
ATOM     72  C   UNL     1      -7.098   9.728  -1.663  1.00  0.00     0.131 A 
ATOM     73  C   UNL     1      -6.622  12.060  -0.258  1.00  0.00     0.055 A 
ATOM     74  C   UNL     1      -7.871  10.027  -0.539  1.00  0.00     0.041 A 
ATOM     75  F   UNL     1      -7.323   8.555  -2.275  1.00  0.00    -0.206 F 
ATOM     76  C   UNL     1      -7.624  11.191   0.181  1.00  0.00     0.022 A 
BRANCH  73  77
ATOM     77  S   UNL     1      -6.112  13.457   0.781  1.00  0.00     0.124 S 
ATOM     78  O   UNL     1      -4.712  13.131   1.044  1.00  0.00    -0.237 OA
ATOM     79  O   UNL     1      -6.349  14.601  -0.091  1.00  0.00    -0.237 OA
ATOM     80  O   UNL     1      -6.995  13.360   1.942  1.00  0.00    -0.744 OA
ENDBRANCH  73  77
ENDBRANCH  56  70
BRANCH  57  81
ATOM     81  C   UNL     1      -0.333   7.826  -9.840  1.00  0.00     0.023 A 
ATOM     82  C   UNL     1      -0.247   8.582 -11.020  1.00  0.00     0.031 A 
ATOM     83  C   UNL     1       0.360   6.602  -9.791  1.00  0.00     0.131 A 
ATOM     84  C   UNL     1       0.470   8.085 -12.120  1.00  0.00     0.055 A 
ATOM     85  C   UNL     1       1.122   6.142 -10.866  1.00  0.00     0.041 A 
ATOM     86  F   UNL     1       0.313   5.838  -8.688  1.00  0.00    -0.206 F 
ATOM     87  C   UNL     1       1.169   6.878 -12.045  1.00  0.00     0.022 A 
BRANCH  84  88
ATOM     88  S   UNL     1       0.395   8.995 -13.687  1.00  0.00     0.124 S 
ATOM     89  O   UNL     1      -1.039   9.011 -13.951  1.00  0.00    -0.237 OA
ATOM     90  O   UNL     1       0.995  10.274 -13.323  1.00  0.00    -0.237 OA
ATOM     91  O   UNL     1       1.190   8.172 -14.596  1.00  0.00    -0.744 OA
ENDBRANCH  84  88
ENDBRANCH  57  81
BRANCH  69  92
ATOM     92  C   UNL     1      -7.168   9.042  -9.138  1.00  0.00     0.023 A 
ATOM     93  C   UNL     1      -7.586   7.846  -9.748  1.00  0.00     0.031 A 
ATOM     94  C   UNL     1      -7.845  10.227  -9.479  1.00  0.00     0.131 A 
ATOM     95  C   UNL     1      -8.609   7.871 -10.709  1.00  0.00     0.055 A 
ATOM     96  C   UNL     1      -8.908  10.235 -10.383  1.00  0.00     0.041 A 
ATOM     97  F   UNL     1      -7.487  11.400  -8.933  1.00  0.00    -0.206 F 
ATOM     98  C   UNL     1      -9.286   9.054 -11.015  1.00  0.00     0.022 A 
BRANCH  95  99
ATOM     99  S   UNL     1      -8.976   6.352 -11.631  1.00  0.00     0.124 S 
ATOM    100  O   UNL     1      -7.685   6.049 -12.239  1.00  0.00    -0.237 OA
ATOM    101  O   UNL     1      -9.412   5.444 -10.575  1.00  0.00    -0.237 OA
ATOM    102  O   UNL     1     -10.022   6.763 -12.566  1.00  0.00    -0.744 OA
ENDBRANCH  95  99
ENDBRANCH  69  92
ENDBRANCH  43  44
ENDBRANCH  35  38
ENDBRANCH  33  34
ENDBRANCH  32  33
ENDBRANCH   1  32
TORSDOF 19
