REMARK SMILES O=C(NCCCCNC(=O)[C@@H]1CCCC[C@@H]1NS(=O)(=O)c1ccc2ccccc2c1)c1ccc(-c2c3nc(c(-c4cc(S(=O)(=O)[O-])ccc4F)c4ccc([nH]4)c(-c4cc(S(=O)(=O)[O-])ccc4F)c4nc(c(-c5cc(S(=O)(=O)[O-])ccc5F)c5ccc2[nH]5)C=C4)C=C3)cc1
REMARK SMILES IDX 5 1 4 2 3 3 1 4 2 5 31 7 32 8 93 9 33 10 92 11 34 12 35 13
REMARK SMILES IDX 36 14 86 15 37 16 91 17 85 18 87 19 38 20 90 21 84 22 83 23
REMARK SMILES IDX 39 25 71 26 51 27 70 28 52 29 55 30 69 31 88 32 53 33 54 34
REMARK SMILES IDX 68 36 89 37 56 38 40 39 41 40 49 41 42 42 48 43 50 44 47 45
REMARK SMILES IDX 43 46 44 47 45 48 46 49 72 50 73 51 81 52 74 53 80 54 82 55
REMARK SMILES IDX 79 56 75 57 76 58 77 59 78 60 57 61 58 62 66 63 59 64 65 65
REMARK SMILES IDX 67 66 64 67 60 68 61 69 62 70 63 71 6 72 7 73 8 74 9 75
REMARK SMILES IDX 10 77 11 78 12 79 16 80 13 81 15 82 14 83 17 84 18 86 19 87
REMARK SMILES IDX 20 88 21 89 22 90 30 91 23 92 29 93 24 94 28 95 25 96 27 97
REMARK SMILES IDX 26 98
REMARK H PARENT 3 6 87 24 55 35 8 76 17 85
REMARK Flexibility Score: inf
ROOT
ATOM      1  C   UNL     1       4.547  -0.300   2.858  1.00  0.00     0.023 C 
ENDROOT
BRANCH   1   2
ATOM      2  C   UNL     1       4.306  -0.524   1.365  1.00  0.00     0.116 C 
BRANCH   2   3
ATOM      3  N   UNL     1       2.899  -0.609   1.027  1.00  0.00    -0.352 N 
ATOM      4  O   UNL     1       0.998  -0.188  -0.083  1.00  0.00    -0.269 OA
ATOM      5  C   UNL     1       2.220  -0.063  -0.032  1.00  0.00     0.251 C 
ATOM      6  H   UNL     1       2.350  -1.138   1.649  1.00  0.00     0.163 HD
BRANCH   5   7
ATOM      7  C   UNL     1       2.929   0.699  -1.085  1.00  0.00     0.039 A 
ATOM      8  C   UNL     1       4.095   0.223  -1.694  1.00  0.00     0.014 A 
ATOM      9  C   UNL     1       2.364   1.906  -1.510  1.00  0.00     0.014 A 
ATOM     10  C   UNL     1       4.737   0.990  -2.670  1.00  0.00     0.010 A 
ATOM     11  C   UNL     1       2.983   2.652  -2.514  1.00  0.00     0.010 A 
ATOM     12  C   UNL     1       4.184   2.209  -3.091  1.00  0.00    -0.014 A 
BRANCH  12  13
ATOM     13  C   UNL     1       4.828   3.018  -4.157  1.00  0.00     0.031 A 
ATOM     14  C   UNL     1       5.441   4.351  -3.832  1.00  0.00     0.074 A 
ATOM     15  C   UNL     1       4.795   2.582  -5.430  1.00  0.00     0.049 A 
ATOM     16  N   UNL     1       5.936   5.256  -4.638  1.00  0.00    -0.248 NA
ATOM     17  C   UNL     1       5.484   4.720  -2.411  1.00  0.00     0.031 C 
ATOM     18  C   UNL     1       4.211   1.314  -5.870  1.00  0.00     0.029 A 
ATOM     19  N   UNL     1       5.235   3.169  -6.590  1.00  0.00    -0.354 N 
ATOM     20  C   UNL     1       6.336   6.311  -3.825  1.00  0.00     0.074 A 
ATOM     21  C   UNL     1       5.990   5.943  -2.467  1.00  0.00     0.031 C 
ATOM     22  C   UNL     1       4.312   1.226  -7.205  1.00  0.00     0.029 A 
ATOM     23  C   UNL     1       4.924   2.448  -7.718  1.00  0.00     0.049 A 
ATOM     24  H   UNL     1       5.726   4.022  -6.611  1.00  0.00     0.167 HD
ATOM     25  C   UNL     1       6.939   7.474  -4.181  1.00  0.00     0.034 A 
ATOM     26  C   UNL     1       5.074   2.752  -9.022  1.00  0.00     0.034 A 
ATOM     27  C   UNL     1       7.271   7.825  -5.542  1.00  0.00     0.049 A 
ATOM     28  C   UNL     1       5.706   4.061  -9.402  1.00  0.00     0.074 A 
ATOM     29  C   UNL     1       7.935   8.946  -6.010  1.00  0.00     0.029 A 
ATOM     30  N   UNL     1       6.944   7.066  -6.660  1.00  0.00    -0.354 N 
ATOM     31  N   UNL     1       6.114   5.035  -8.623  1.00  0.00    -0.248 NA
ATOM     32  C   UNL     1       5.903   4.311 -10.836  1.00  0.00     0.031 C 
ATOM     33  C   UNL     1       7.956   8.894  -7.410  1.00  0.00     0.029 A 
ATOM     34  C   UNL     1       7.362   7.710  -7.815  1.00  0.00     0.049 A 
ATOM     35  H   UNL     1       6.483   6.196  -6.635  1.00  0.00     0.167 HD
ATOM     36  C   UNL     1       6.633   6.008  -9.470  1.00  0.00     0.074 A 
ATOM     37  C   UNL     1       6.488   5.502 -10.821  1.00  0.00     0.031 C 
ATOM     38  C   UNL     1       7.191   7.204  -9.157  1.00  0.00     0.034 A 
BRANCH  25  39
ATOM     39  C   UNL     1       7.231   8.464  -3.078  1.00  0.00     0.023 A 
ATOM     40  C   UNL     1       8.118   8.163  -2.030  1.00  0.00     0.031 A 
ATOM     41  C   UNL     1       6.574   9.707  -3.046  1.00  0.00     0.131 A 
ATOM     42  C   UNL     1       8.258   9.052  -0.952  1.00  0.00     0.055 A 
ATOM     43  C   UNL     1       6.778  10.622  -2.011  1.00  0.00     0.041 A 
ATOM     44  F   UNL     1       5.701  10.044  -4.009  1.00  0.00    -0.206 F 
ATOM     45  C   UNL     1       7.610  10.289  -0.946  1.00  0.00     0.022 A 
BRANCH  42  46
ATOM     46  S   UNL     1       9.163   8.493   0.518  1.00  0.00     0.124 S 
ATOM     47  O   UNL     1       8.472   7.246   0.839  1.00  0.00    -0.237 OA
ATOM     48  O   UNL     1      10.525   8.359   0.016  1.00  0.00    -0.237 OA
ATOM     49  O   UNL     1       8.954   9.574   1.480  1.00  0.00    -0.744 OA
ENDBRANCH  42  46
ENDBRANCH  25  39
BRANCH  26  50
ATOM     50  C   UNL     1       4.564   1.811 -10.053  1.00  0.00     0.023 A 
ATOM     51  C   UNL     1       5.437   1.050 -10.843  1.00  0.00     0.031 A 
ATOM     52  C   UNL     1       3.179   1.642 -10.237  1.00  0.00     0.131 A 
ATOM     53  C   UNL     1       4.914   0.159 -11.794  1.00  0.00     0.055 A 
ATOM     54  C   UNL     1       2.665   0.731 -11.159  1.00  0.00     0.041 A 
ATOM     55  F   UNL     1       2.307   2.341  -9.493  1.00  0.00    -0.206 F 
ATOM     56  C   UNL     1       3.536  -0.014 -11.948  1.00  0.00     0.022 A 
BRANCH  53  57
ATOM     57  S   UNL     1       6.066  -0.767 -12.844  1.00  0.00     0.124 S 
ATOM     58  O   UNL     1       6.721   0.304 -13.586  1.00  0.00    -0.237 OA
ATOM     59  O   UNL     1       6.889  -1.460 -11.857  1.00  0.00    -0.237 OA
ATOM     60  O   UNL     1       5.189  -1.629 -13.634  1.00  0.00    -0.744 OA
ENDBRANCH  53  57
ENDBRANCH  26  50
BRANCH  38  61
ATOM     61  C   UNL     1       7.723   8.028 -10.299  1.00  0.00     0.023 A 
ATOM     62  C   UNL     1       6.867   8.698 -11.189  1.00  0.00     0.031 A 
ATOM     63  C   UNL     1       9.111   8.147 -10.491  1.00  0.00     0.131 A 
ATOM     64  C   UNL     1       7.409   9.433 -12.255  1.00  0.00     0.055 A 
ATOM     65  C   UNL     1       9.644   8.913 -11.528  1.00  0.00     0.041 A 
ATOM     66  F   UNL     1       9.969   7.525  -9.668  1.00  0.00    -0.206 F 
ATOM     67  C   UNL     1       8.791   9.556 -12.421  1.00  0.00     0.022 A 
BRANCH  64  68
ATOM     68  S   UNL     1       6.283  10.198 -13.454  1.00  0.00     0.124 S 
ATOM     69  O   UNL     1       5.645   9.032 -14.057  1.00  0.00    -0.237 OA
ATOM     70  O   UNL     1       5.430  11.024 -12.605  1.00  0.00    -0.237 OA
ATOM     71  O   UNL     1       7.178  10.943 -14.339  1.00  0.00    -0.744 OA
ENDBRANCH  64  68
ENDBRANCH  38  61
ENDBRANCH  12  13
ENDBRANCH   5   7
ENDBRANCH   2   3
ENDBRANCH   1   2
BRANCH   1  72
ATOM     72  C   UNL     1       3.904  -1.309   3.826  1.00  0.00     0.023 C 
BRANCH  72  73
ATOM     73  C   UNL     1       4.133  -2.787   3.494  1.00  0.00     0.116 C 
BRANCH  73  74
ATOM     74  N   UNL     1       5.534  -3.025   3.236  1.00  0.00    -0.356 N 
ATOM     75  C   UNL     1       6.528  -3.455   4.048  1.00  0.00     0.224 C 
ATOM     76  H   UNL     1       5.814  -2.841   2.311  1.00  0.00     0.163 HD
ATOM     77  O   UNL     1       7.649  -3.066   3.746  1.00  0.00    -0.275 OA
BRANCH  75  78
ATOM     78  C   UNL     1       6.255  -4.446   5.162  1.00  0.00     0.096 C 
ATOM     79  C   UNL     1       5.707  -3.873   6.468  1.00  0.00     0.015 C 
ATOM     80  C   UNL     1       7.439  -5.423   5.395  1.00  0.00     0.082 C 
ATOM     81  C   UNL     1       5.266  -4.988   7.424  1.00  0.00     0.001 C 
ATOM     82  C   UNL     1       6.845  -6.597   6.221  1.00  0.00     0.021 C 
ATOM     83  C   UNL     1       6.295  -6.111   7.572  1.00  0.00     0.002 C 
BRANCH  80  84
ATOM     84  N   UNL     1       8.593  -4.950   6.210  1.00  0.00    -0.207 NA
ATOM     85  H   UNL     1       9.027  -5.797   6.578  1.00  0.00     0.141 HD
BRANCH  84  86
ATOM     86  S   UNL     1       9.876  -4.000   5.645  1.00  0.00     0.240 S 
ATOM     87  O   UNL     1      10.974  -4.343   6.530  1.00  0.00    -0.207 OA
ATOM     88  O   UNL     1      10.007  -4.164   4.220  1.00  0.00    -0.207 OA
BRANCH  86  89
ATOM     89  C   UNL     1       9.372  -2.366   6.115  1.00  0.00     0.083 A 
ATOM     90  C   UNL     1       9.478  -1.285   5.246  1.00  0.00     0.022 A 
ATOM     91  C   UNL     1       8.752  -2.220   7.362  1.00  0.00     0.030 A 
ATOM     92  C   UNL     1       8.876  -0.070   5.597  1.00  0.00     0.010 A 
ATOM     93  C   UNL     1       8.087  -1.036   7.687  1.00  0.00    -0.017 A 
ATOM     94  C   UNL     1       8.138   0.054   6.791  1.00  0.00    -0.018 A 
ATOM     95  C   UNL     1       7.315  -0.950   8.856  1.00  0.00     0.009 A 
ATOM     96  C   UNL     1       7.411   1.215   7.103  1.00  0.00     0.009 A 
ATOM     97  C   UNL     1       6.574   0.197   9.132  1.00  0.00     0.001 A 
ATOM     98  C   UNL     1       6.625   1.279   8.258  1.00  0.00     0.001 A 
ENDBRANCH  86  89
ENDBRANCH  84  86
ENDBRANCH  80  84
ENDBRANCH  75  78
ENDBRANCH  73  74
ENDBRANCH  72  73
ENDBRANCH   1  72
TORSDOF 17
