REMARK SMILES C[N@@H+]1CC[N@@H+](Cc2ncc[nH]2)C[C@@]12CCC(=O)N(CC(=O)NCCCCNC(=O)c1ccc(-c3c4nc(c(-c5cc(S(=O)(=O)[O-])ccc5F)c5ccc([nH]5)c(-c5cc(S(=O)(=O)[O-])ccc5F)c5nc(c(-c6cc(S(=O)(=O)[O-])ccc6F)c6ccc3[nH]6)C=C5)C=C4)cc1)CC2
REMARK SMILES IDX 23 1 22 2 20 3 21 4 19 6 18 7 93 8 94 9 13 10 1 11 2 12 3 13
REMARK SMILES IDX 4 15 12 16 5 17 14 19 6 21 7 22 8 23 11 24 9 25 10 26 16 28
REMARK SMILES IDX 17 29 15 30 24 32 25 33 26 34 27 35 28 36 29 38 30 39 31 40
REMARK SMILES IDX 92 41 32 42 91 43 33 44 34 45 35 46 85 47 36 48 90 49 84 50
REMARK SMILES IDX 86 51 37 52 89 53 83 54 82 55 38 57 70 58 50 59 69 60 51 61
REMARK SMILES IDX 54 62 68 63 87 64 52 65 53 66 67 68 88 69 55 70 39 71 40 72
REMARK SMILES IDX 48 73 41 74 47 75 49 76 46 77 42 78 43 79 44 80 45 81 71 82
REMARK SMILES IDX 72 83 80 84 73 85 79 86 81 87 78 88 74 89 75 90 76 91 77 92
REMARK SMILES IDX 56 93 57 94 65 95 58 96 64 97 66 98 63 99 59 100 60 101
REMARK SMILES IDX 61 102 62 103
REMARK H PARENT 22 5 2 14 5 18 11 27 27 37 86 56 54 67
REMARK Flexibility Score: 90.00
ROOT
ATOM      1  C   UNL     1      -5.892  -0.040   0.193  1.00  0.00     0.116 C 
ENDROOT
BRANCH   1   2
ATOM      2  N   UNL     1      -6.527   0.436  -1.014  1.00  0.00    -0.355 N 
ATOM      3  C   UNL     1      -6.072   0.402  -2.304  1.00  0.00     0.239 C 
ATOM      4  O   UNL     1      -6.900   0.609  -3.196  1.00  0.00    -0.273 OA
ATOM      5  H   UNL     1      -7.416   0.842  -0.892  1.00  0.00     0.163 HD
BRANCH   3   6
ATOM      6  C   UNL     1      -4.641  -0.080  -2.643  1.00  0.00     0.219 C 
BRANCH   6   7
ATOM      7  N   UNL     1      -3.560   0.558  -1.877  1.00  0.00    -0.333 N 
BRANCH   7   8
ATOM      8  C   UNL     1      -2.609  -0.261  -1.131  1.00  0.00     0.127 C 
BRANCH   8   9
ATOM      9  C   UNL     1      -1.124  -0.016  -1.475  1.00  0.00     0.096 C 
BRANCH   9  10
ATOM     10  C   UNL     1      -0.431   1.166  -0.713  1.00  0.00     0.149 C 
ATOM     11  C   UNL     1       1.838   0.140  -0.943  1.00  0.00     0.333 C 
ATOM     12  N   UNL     1       1.018   1.346  -1.099  1.00  0.00    -0.323 N 
ATOM     13  C   UNL     1       1.628   2.456  -0.294  1.00  0.00     0.324 C 
ATOM     14  H   UNL     1       1.010   1.569  -2.094  1.00  0.00     0.348 HD
ATOM     15  C   UNL     1       1.101   2.641   1.160  1.00  0.00     0.324 C 
ATOM     16  C   UNL     1      -0.538   0.890   0.848  1.00  0.00     0.332 C 
ATOM     17  N   UNL     1       0.586   1.378   1.671  1.00  0.00    -0.319 N 
ATOM     18  H   UNL     1       1.315   0.674   1.556  1.00  0.00     0.348 HD
BRANCH  10  19
ATOM     19  C   UNL     1      -1.114   2.497  -1.187  1.00  0.00     0.084 CG0
ATOM     20  G   UNL     1      -2.604   2.631  -0.976  1.00  0.00     0.000 G0
ENDBRANCH  10  19
BRANCH  17  21
ATOM     21  C   UNL     1       0.406   1.344   3.125  1.00  0.00     0.339 C 
BRANCH  21  22
ATOM     22  C   UNL     1      -1.001   1.466   3.602  1.00  0.00     0.161 A 
ATOM     23  N   UNL     1      -1.782   2.529   3.567  1.00  0.00    -0.236 NA
ATOM     24  N   UNL     1      -1.685   0.374   4.074  1.00  0.00    -0.344 N 
ATOM     25  C   UNL     1      -3.003   2.103   4.020  1.00  0.00     0.131 A 
ATOM     26  C   UNL     1      -2.967   0.763   4.313  1.00  0.00     0.104 A 
ATOM     27  H   UNL     1      -1.315  -0.527   4.216  1.00  0.00     0.167 HD
ENDBRANCH  21  22
ENDBRANCH  17  21
ENDBRANCH   9  10
ENDBRANCH   8   9
ENDBRANCH   7   8
BRANCH   7  28
ATOM     28  C   UNL     1      -3.425   1.926  -2.024  1.00  0.00     0.223 C 
ATOM     29  O   UNL     1      -3.999   2.558  -2.908  1.00  0.00    -0.275 OA
BRANCH  28  30
ATOM     30  C   UNL     1      -2.604   2.631  -0.976  1.00  0.00     0.107 CG0
ATOM     31  G   UNL     1      -1.114   2.497  -1.187  1.00  0.00     0.000 G0
ENDBRANCH  28  30
ENDBRANCH   7  28
ENDBRANCH   6   7
ENDBRANCH   3   6
ENDBRANCH   1   2
BRANCH   1  32
ATOM     32  C   UNL     1      -5.329   1.099   1.034  1.00  0.00     0.023 C 
BRANCH  32  33
ATOM     33  C   UNL     1      -6.345   1.902   1.839  1.00  0.00     0.023 C 
BRANCH  33  34
ATOM     34  C   UNL     1      -7.203   1.100   2.805  1.00  0.00     0.116 C 
BRANCH  34  35
ATOM     35  N   UNL     1      -6.428   0.301   3.745  1.00  0.00    -0.352 N 
ATOM     36  C   UNL     1      -6.558   0.205   5.112  1.00  0.00     0.251 C 
ATOM     37  H   UNL     1      -5.713  -0.246   3.348  1.00  0.00     0.163 HD
ATOM     38  O   UNL     1      -5.755  -0.457   5.767  1.00  0.00    -0.269 OA
BRANCH  36  39
ATOM     39  C   UNL     1      -7.657   0.914   5.787  1.00  0.00     0.039 A 
ATOM     40  C   UNL     1      -7.391   1.698   6.911  1.00  0.00     0.014 A 
ATOM     41  C   UNL     1      -8.954   0.811   5.280  1.00  0.00     0.014 A 
ATOM     42  C   UNL     1      -8.427   2.430   7.493  1.00  0.00     0.010 A 
ATOM     43  C   UNL     1      -9.957   1.616   5.798  1.00  0.00     0.010 A 
ATOM     44  C   UNL     1      -9.709   2.423   6.918  1.00  0.00    -0.014 A 
BRANCH  44  45
ATOM     45  C   UNL     1     -10.818   3.239   7.473  1.00  0.00     0.031 A 
ATOM     46  C   UNL     1     -12.065   2.559   7.973  1.00  0.00     0.074 A 
ATOM     47  C   UNL     1     -10.735   4.583   7.445  1.00  0.00     0.049 A 
ATOM     48  N   UNL     1     -13.183   3.088   8.398  1.00  0.00    -0.248 NA
ATOM     49  C   UNL     1     -12.067   1.087   7.954  1.00  0.00     0.031 C 
ATOM     50  C   UNL     1      -9.596   5.349   6.933  1.00  0.00     0.029 A 
ATOM     51  N   UNL     1     -11.628   5.545   7.842  1.00  0.00    -0.354 N 
ATOM     52  C   UNL     1     -14.026   2.017   8.677  1.00  0.00     0.074 A 
ATOM     53  C   UNL     1     -13.314   0.814   8.305  1.00  0.00     0.031 C 
ATOM     54  C   UNL     1      -9.847   6.660   7.075  1.00  0.00     0.029 A 
ATOM     55  C   UNL     1     -11.184   6.831   7.635  1.00  0.00     0.049 A 
ATOM     56  H   UNL     1     -12.504   5.336   8.239  1.00  0.00     0.167 HD
ATOM     57  C   UNL     1     -15.269   2.037   9.217  1.00  0.00     0.034 A 
ATOM     58  C   UNL     1     -11.792   8.013   7.855  1.00  0.00     0.034 A 
ATOM     59  C   UNL     1     -15.953   3.250   9.592  1.00  0.00     0.049 A 
ATOM     60  C   UNL     1     -13.182   8.010   8.440  1.00  0.00     0.074 A 
ATOM     61  C   UNL     1     -17.184   3.390  10.208  1.00  0.00     0.029 A 
ATOM     62  N   UNL     1     -15.470   4.536   9.374  1.00  0.00    -0.354 N 
ATOM     63  N   UNL     1     -13.942   6.987   8.761  1.00  0.00    -0.248 NA
ATOM     64  C   UNL     1     -13.790   9.319   8.702  1.00  0.00     0.031 C 
ATOM     65  C   UNL     1     -17.481   4.755  10.288  1.00  0.00     0.029 A 
ATOM     66  C   UNL     1     -16.396   5.472   9.807  1.00  0.00     0.049 A 
ATOM     67  H   UNL     1     -14.598   4.750   8.971  1.00  0.00     0.167 HD
ATOM     68  C   UNL     1     -15.107   7.534   9.291  1.00  0.00     0.074 A 
ATOM     69  C   UNL     1     -14.937   8.972   9.266  1.00  0.00     0.031 C 
ATOM     70  C   UNL     1     -16.218   6.906   9.759  1.00  0.00     0.034 A 
BRANCH  57  71
ATOM     71  C   UNL     1     -15.970   0.711   9.406  1.00  0.00     0.023 A 
ATOM     72  C   UNL     1     -15.443  -0.296  10.236  1.00  0.00     0.031 A 
ATOM     73  C   UNL     1     -17.169   0.436   8.726  1.00  0.00     0.131 A 
ATOM     74  C   UNL     1     -16.066  -1.551  10.300  1.00  0.00     0.055 A 
ATOM     75  C   UNL     1     -17.833  -0.785   8.865  1.00  0.00     0.041 A 
ATOM     76  F   UNL     1     -17.710   1.345   7.899  1.00  0.00    -0.206 F 
ATOM     77  C   UNL     1     -17.273  -1.794   9.643  1.00  0.00     0.022 A 
BRANCH  74  78
ATOM     78  S   UNL     1     -15.192  -2.910  11.126  1.00  0.00     0.124 S 
ATOM     79  O   UNL     1     -13.944  -2.963  10.367  1.00  0.00    -0.237 OA
ATOM     80  O   UNL     1     -15.085  -2.428  12.498  1.00  0.00    -0.237 OA
ATOM     81  O   UNL     1     -16.079  -4.055  10.933  1.00  0.00    -0.744 OA
ENDBRANCH  74  78
ENDBRANCH  57  71
BRANCH  58  82
ATOM     82  C   UNL     1     -11.104   9.292   7.516  1.00  0.00     0.023 A 
ATOM     83  C   UNL     1     -10.778  10.225   8.514  1.00  0.00     0.031 A 
ATOM     84  C   UNL     1     -10.796   9.620   6.184  1.00  0.00     0.131 A 
ATOM     85  C   UNL     1     -10.210  11.459   8.161  1.00  0.00     0.055 A 
ATOM     86  C   UNL     1     -10.175  10.823   5.843  1.00  0.00     0.041 A 
ATOM     87  F   UNL     1     -11.082   8.764   5.190  1.00  0.00    -0.206 F 
ATOM     88  C   UNL     1      -9.891  11.757   6.834  1.00  0.00     0.022 A 
BRANCH  85  89
ATOM     89  S   UNL     1      -9.978  12.709   9.454  1.00  0.00     0.124 S 
ATOM     90  O   UNL     1     -11.336  12.866   9.961  1.00  0.00    -0.237 OA
ATOM     91  O   UNL     1      -9.031  12.050  10.347  1.00  0.00    -0.237 OA
ATOM     92  O   UNL     1      -9.447  13.859   8.724  1.00  0.00    -0.744 OA
ENDBRANCH  85  89
ENDBRANCH  58  82
BRANCH  70  93
ATOM     93  C   UNL     1     -17.315   7.781  10.317  1.00  0.00     0.023 A 
ATOM     94  C   UNL     1     -18.024   8.685   9.507  1.00  0.00     0.031 A 
ATOM     95  C   UNL     1     -17.640   7.724  11.684  1.00  0.00     0.131 A 
ATOM     96  C   UNL     1     -18.973   9.543  10.083  1.00  0.00     0.055 A 
ATOM     97  C   UNL     1     -18.637   8.527  12.237  1.00  0.00     0.041 A 
ATOM     98  F   UNL     1     -16.992   6.883  12.507  1.00  0.00    -0.206 F 
ATOM     99  C   UNL     1     -19.299   9.456  11.439  1.00  0.00     0.022 A 
BRANCH  96 100
ATOM    100  S   UNL     1     -19.691  10.857   9.060  1.00  0.00     0.124 S 
ATOM    101  O   UNL     1     -18.503  11.580   8.619  1.00  0.00    -0.237 OA
ATOM    102  O   UNL     1     -20.395  10.100   8.030  1.00  0.00    -0.237 OA
ATOM    103  O   UNL     1     -20.551  11.585   9.991  1.00  0.00    -0.744 OA
ENDBRANCH  96 100
ENDBRANCH  70  93
ENDBRANCH  44  45
ENDBRANCH  36  39
ENDBRANCH  34  35
ENDBRANCH  33  34
ENDBRANCH  32  33
ENDBRANCH   1  32
TORSDOF 17
