REMARK SMILES Cc1nnc(S[C@@H](C)CCO)c(C(=O)NCCCCNC(=O)c2ccc(-c3c4nc(c(-c5cc(S(=O)(=O)[O-])ccc5F)c5ccc([nH]5)c(-c5cc(S(=O)(=O)[O-])ccc5F)c5nc(c(-c6cc(S(=O)(=O)[O-])ccc6F)c6ccc3[nH]6)C=C5)C=C4)cc2)c1C
REMARK SMILES IDX 16 1 15 2 13 3 14 4 12 6 1 7 2 8 3 9 86 10 4 11 87 12 5 13
REMARK SMILES IDX 6 14 7 15 8 16 9 17 10 18 11 19 17 21 18 22 19 23 20 24
REMARK SMILES IDX 21 25 22 27 23 28 24 29 85 30 25 31 84 32 26 33 27 34 28 35
REMARK SMILES IDX 78 36 29 37 83 38 77 39 79 40 30 41 82 42 76 43 75 44 31 46
REMARK SMILES IDX 63 47 43 48 62 49 44 50 47 51 61 52 80 53 45 54 46 55 60 57
REMARK SMILES IDX 81 58 48 59 32 60 33 61 41 62 34 63 40 64 42 65 39 66 35 67
REMARK SMILES IDX 36 68 37 69 38 70 64 71 65 72 73 73 66 74 72 75 74 76 71 77
REMARK SMILES IDX 67 78 68 79 69 80 70 81 49 82 50 83 58 84 51 85 57 86 59 87
REMARK SMILES IDX 56 88 52 89 53 90 54 91 55 92
REMARK H PARENT 15 5 11 20 20 26 79 45 47 56
REMARK Flexibility Score: inf
ROOT
ATOM      1  C   UNL     1      -1.286   2.883   2.526  1.00  0.00     0.116 C 
ENDROOT
BRANCH   1   2
ATOM      2  N   UNL     1      -0.863   2.409   3.834  1.00  0.00    -0.352 N 
ATOM      3  C   UNL     1      -0.052   1.341   4.183  1.00  0.00     0.254 C 
ATOM      4  O   UNL     1       0.512   1.385   5.269  1.00  0.00    -0.269 OA
ATOM      5  H   UNL     1      -1.208   2.931   4.594  1.00  0.00     0.163 HD
BRANCH   3   6
ATOM      6  C   UNL     1       0.143   0.162   3.308  1.00  0.00     0.078 A 
ATOM      7  C   UNL     1       1.168  -0.725  -0.277  1.00  0.00     0.069 C 
ATOM      8  C   UNL     1       0.680  -0.780   1.140  1.00  0.00     0.064 A 
ATOM      9  N   UNL     1       0.264  -1.981   1.558  1.00  0.00    -0.155 NA
ATOM     10  C   UNL     1       0.669   0.325   1.994  1.00  0.00    -0.012 A 
ATOM     11  N   UNL     1      -0.080  -2.158   2.868  1.00  0.00    -0.143 NA
ATOM     12  C   UNL     1       1.288   1.606   1.497  1.00  0.00     0.047 C 
ATOM     13  C   UNL     1      -0.102  -1.141   3.771  1.00  0.00     0.132 A 
BRANCH  13  14
ATOM     14  S   UNL     1      -0.140  -1.915   5.378  1.00  0.00    -0.101 SA
BRANCH  14  15
ATOM     15  C   UNL     1      -1.061  -0.993   6.668  1.00  0.00     0.052 C 
ATOM     16  C   UNL     1      -0.102  -0.219   7.576  1.00  0.00     0.020 C 
BRANCH  15  17
ATOM     17  C   UNL     1      -2.352  -0.275   6.265  1.00  0.00     0.043 C 
BRANCH  17  18
ATOM     18  C   UNL     1      -3.525  -1.234   6.037  1.00  0.00     0.157 C 
BRANCH  18  19
ATOM     19  O   UNL     1      -3.980  -1.789   7.267  1.00  0.00    -0.396 OA
ATOM     20  H   UNL     1      -3.260  -2.290   7.682  1.00  0.00     0.210 HD
ENDBRANCH  18  19
ENDBRANCH  17  18
ENDBRANCH  15  17
ENDBRANCH  14  15
ENDBRANCH  13  14
ENDBRANCH   3   6
ENDBRANCH   1   2
BRANCH   1  21
ATOM     21  C   UNL     1      -2.561   3.717   2.470  1.00  0.00     0.023 C 
BRANCH  21  22
ATOM     22  C   UNL     1      -2.656   4.934   3.386  1.00  0.00     0.023 C 
BRANCH  22  23
ATOM     23  C   UNL     1      -1.418   5.814   3.510  1.00  0.00     0.116 C 
BRANCH  23  24
ATOM     24  N   UNL     1      -0.956   6.396   2.256  1.00  0.00    -0.352 N 
ATOM     25  C   UNL     1      -0.843   7.728   1.911  1.00  0.00     0.251 C 
ATOM     26  H   UNL     1      -0.689   5.752   1.560  1.00  0.00     0.163 HD
ATOM     27  O   UNL     1      -0.438   8.064   0.809  1.00  0.00    -0.269 OA
BRANCH  25  28
ATOM     28  C   UNL     1      -1.279   8.734   2.897  1.00  0.00     0.039 A 
ATOM     29  C   UNL     1      -2.410   9.499   2.611  1.00  0.00     0.014 A 
ATOM     30  C   UNL     1      -0.671   8.781   4.154  1.00  0.00     0.014 A 
ATOM     31  C   UNL     1      -3.000  10.241   3.633  1.00  0.00     0.010 A 
ATOM     32  C   UNL     1      -1.310   9.455   5.188  1.00  0.00     0.010 A 
ATOM     33  C   UNL     1      -2.486  10.181   4.940  1.00  0.00    -0.014 A 
BRANCH  33  34
ATOM     34  C   UNL     1      -3.187  10.867   6.053  1.00  0.00     0.031 A 
ATOM     35  C   UNL     1      -2.530  12.015   6.759  1.00  0.00     0.074 A 
ATOM     36  C   UNL     1      -4.404  10.437   6.443  1.00  0.00     0.049 A 
ATOM     37  N   UNL     1      -3.014  12.784   7.698  1.00  0.00    -0.248 NA
ATOM     38  C   UNL     1      -1.143  12.329   6.379  1.00  0.00     0.031 C 
ATOM     39  C   UNL     1      -5.109   9.280   5.887  1.00  0.00     0.029 A 
ATOM     40  N   UNL     1      -5.267  10.923   7.394  1.00  0.00    -0.354 N 
ATOM     41  C   UNL     1      -1.998  13.677   8.010  1.00  0.00     0.074 A 
ATOM     42  C   UNL     1      -0.845  13.306   7.223  1.00  0.00     0.031 C 
ATOM     43  C   UNL     1      -6.309   9.170   6.479  1.00  0.00     0.029 A 
ATOM     44  C   UNL     1      -6.456  10.234   7.469  1.00  0.00     0.049 A 
ATOM     45  H   UNL     1      -5.055  11.694   7.969  1.00  0.00     0.167 HD
ATOM     46  C   UNL     1      -2.038  14.740   8.845  1.00  0.00     0.034 A 
ATOM     47  C   UNL     1      -7.548  10.448   8.232  1.00  0.00     0.034 A 
ATOM     48  C   UNL     1      -3.195  15.113   9.611  1.00  0.00     0.049 A 
ATOM     49  C   UNL     1      -7.574  11.645   9.150  1.00  0.00     0.074 A 
ATOM     50  C   UNL     1      -3.354  16.210  10.437  1.00  0.00     0.029 A 
ATOM     51  N   UNL     1      -4.386  14.403   9.652  1.00  0.00    -0.354 N 
ATOM     52  N   UNL     1      -6.650  12.558   9.338  1.00  0.00    -0.248 NA
ATOM     53  C   UNL     1      -8.793  11.854   9.943  1.00  0.00     0.031 C 
ATOM     54  C   UNL     1      -4.622  16.138  11.016  1.00  0.00     0.029 A 
ATOM     55  C   UNL     1      -5.277  15.026  10.508  1.00  0.00     0.049 A 
ATOM     56  H   UNL     1      -4.570  13.579   9.146  1.00  0.00     0.167 HD
ATOM     57  C   UNL     1      -7.182  13.459  10.256  1.00  0.00     0.074 A 
ATOM     58  C   UNL     1      -8.521  12.997  10.561  1.00  0.00     0.031 C 
ATOM     59  C   UNL     1      -6.612  14.563  10.800  1.00  0.00     0.034 A 
BRANCH  46  60
ATOM     60  C   UNL     1      -0.814  15.609   8.944  1.00  0.00     0.023 A 
ATOM     61  C   UNL     1      -0.117  15.711  10.159  1.00  0.00     0.031 A 
ATOM     62  C   UNL     1      -0.405  16.414   7.865  1.00  0.00     0.131 A 
ATOM     63  C   UNL     1       0.936  16.625  10.276  1.00  0.00     0.055 A 
ATOM     64  C   UNL     1       0.670  17.294   7.976  1.00  0.00     0.041 A 
ATOM     65  F   UNL     1      -1.038  16.343   6.683  1.00  0.00    -0.206 F 
ATOM     66  C   UNL     1       1.339  17.410   9.190  1.00  0.00     0.022 A 
BRANCH  63  67
ATOM     67  S   UNL     1       1.801  16.855  11.852  1.00  0.00     0.124 S 
ATOM     68  O   UNL     1       3.198  16.682  11.459  1.00  0.00    -0.237 OA
ATOM     69  O   UNL     1       1.417  18.217  12.211  1.00  0.00    -0.237 OA
ATOM     70  O   UNL     1       1.264  15.799  12.703  1.00  0.00    -0.744 OA
ENDBRANCH  63  67
ENDBRANCH  46  60
BRANCH  47  71
ATOM     71  C   UNL     1      -8.729   9.550   8.086  1.00  0.00     0.023 A 
ATOM     72  C   UNL     1      -8.655   8.191   8.435  1.00  0.00     0.031 A 
ATOM     73  C   UNL     1      -9.922  10.022   7.513  1.00  0.00     0.131 A 
ATOM     74  C   UNL     1      -9.734   7.341   8.159  1.00  0.00     0.055 A 
ATOM     75  C   UNL     1     -11.018   9.185   7.296  1.00  0.00     0.041 A 
ATOM     76  F   UNL     1     -10.035  11.310   7.152  1.00  0.00    -0.206 F 
ATOM     77  C   UNL     1     -10.922   7.833   7.608  1.00  0.00     0.022 A 
BRANCH  74  78
ATOM     78  S   UNL     1      -9.597   5.551   8.416  1.00  0.00     0.124 S 
ATOM     79  O   UNL     1     -10.762   5.270   9.249  1.00  0.00    -0.237 OA
ATOM     80  O   UNL     1      -9.665   5.052   7.045  1.00  0.00    -0.237 OA
ATOM     81  O   UNL     1      -8.303   5.397   9.071  1.00  0.00    -0.744 OA
ENDBRANCH  74  78
ENDBRANCH  47  71
BRANCH  59  82
ATOM     82  C   UNL     1      -7.409  15.367  11.796  1.00  0.00     0.023 A 
ATOM     83  C   UNL     1      -7.757  16.701  11.509  1.00  0.00     0.031 A 
ATOM     84  C   UNL     1      -7.694  14.864  13.077  1.00  0.00     0.131 A 
ATOM     85  C   UNL     1      -8.339  17.497  12.503  1.00  0.00     0.055 A 
ATOM     86  C   UNL     1      -8.316  15.648  14.049  1.00  0.00     0.041 A 
ATOM     87  F   UNL     1      -7.370  13.602  13.401  1.00  0.00    -0.206 F 
ATOM     88  C   UNL     1      -8.629  16.975  13.768  1.00  0.00     0.022 A 
BRANCH  85  89
ATOM     89  S   UNL     1      -8.673  19.256  12.217  1.00  0.00     0.124 S 
ATOM     90  O   UNL     1     -10.113  19.333  12.453  1.00  0.00    -0.237 OA
ATOM     91  O   UNL     1      -7.840  19.896  13.232  1.00  0.00    -0.237 OA
ATOM     92  O   UNL     1      -8.259  19.475  10.836  1.00  0.00    -0.744 OA
ENDBRANCH  85  89
ENDBRANCH  59  82
ENDBRANCH  33  34
ENDBRANCH  25  28
ENDBRANCH  23  24
ENDBRANCH  22  23
ENDBRANCH  21  22
ENDBRANCH   1  21
TORSDOF 19
