REMARK SMILES O=C(Cn1c(=O)[nH]c2ccccc2c1=O)NC[C@H]1CC[C@@H](C(=O)N2CCC(C(=O)NCCCCNC(=O)c3ccc(-c4c5nc(c(-c6cc(S(=O)(=O)[O-])ccc6F)c6ccc([nH]6)c(-c6cc(S(=O)(=O)[O-])ccc6F)c6nc(c(-c7cc(S(=O)(=O)[O-])ccc7F)c7ccc4[nH]7)C=C6)C=C5)cc3)CC2)CC1
REMARK SMILES IDX 31 1 30 2 28 3 29 4 27 6 22 7 23 8 24 9 25 10 102 11 26 12
REMARK SMILES IDX 101 13 21 14 18 15 19 16 104 17 20 18 103 19 17 20 16 21
REMARK SMILES IDX 1 22 2 23 3 25 4 26 5 27 14 28 6 29 7 30 13 31 15 32 8 33
REMARK SMILES IDX 12 35 9 36 11 37 10 38 32 39 33 40 34 41 35 42 36 43 37 45
REMARK SMILES IDX 38 46 39 47 100 48 40 49 99 50 41 51 42 52 43 53 93 54 44 55
REMARK SMILES IDX 98 56 92 57 94 58 45 59 97 60 91 61 90 62 46 64 78 65 58 66
REMARK SMILES IDX 77 67 59 68 62 69 76 70 95 71 60 72 61 73 75 75 96 76 63 77
REMARK SMILES IDX 47 78 48 79 56 80 49 81 55 82 57 83 54 84 50 85 51 86 52 87
REMARK SMILES IDX 53 88 79 89 80 90 88 91 81 92 87 93 89 94 86 95 82 96 83 97
REMARK SMILES IDX 84 98 85 99 64 100 65 101 73 102 66 103 72 104 74 105 71 106
REMARK SMILES IDX 67 107 68 108 69 109 70 110
REMARK H PARENT 30 5 16 24 7 34 35 44 94 63 62 74
REMARK Flexibility Score: inf
ROOT
ATOM      1  C   UNL     1      -4.108   5.849  -1.040  1.00  0.00     0.116 C 
ENDROOT
BRANCH   1   2
ATOM      2  N   UNL     1      -4.574   4.763  -1.892  1.00  0.00    -0.356 N 
ATOM      3  C   UNL     1      -3.871   3.811  -2.571  1.00  0.00     0.223 C 
ATOM      4  O   UNL     1      -4.489   2.975  -3.231  1.00  0.00    -0.275 OA
ATOM      5  H   UNL     1      -5.552   4.706  -1.994  1.00  0.00     0.163 HD
BRANCH   3   6
ATOM      6  C   UNL     1      -2.352   3.774  -2.504  1.00  0.00     0.082 C 
ATOM      7  C   UNL     1       0.416   6.254  -0.606  1.00  0.00     0.225 C 
ATOM      8  O   UNL     1       0.090   7.415  -0.886  1.00  0.00    -0.275 OA
ATOM      9  N   UNL     1      -0.153   5.198  -1.288  1.00  0.00    -0.342 N 
ATOM     10  C   UNL     1      -0.345   5.327  -2.724  1.00  0.00     0.120 C 
ATOM     11  C   UNL     1      -0.505   3.918  -0.717  1.00  0.00     0.120 C 
ATOM     12  C   UNL     1      -1.763   5.032  -3.152  1.00  0.00     0.035 C 
ATOM     13  C   UNL     1      -1.906   3.451  -1.073  1.00  0.00     0.035 C 
BRANCH   7  14
ATOM     14  C   UNL     1       1.674   6.039   0.266  1.00  0.00     0.078 C 
ATOM     15  C   UNL     1       3.156   3.449  -0.189  1.00  0.00     0.008 C 
ATOM     16  C   UNL     1       3.064   4.557  -1.241  1.00  0.00     0.006 C 
ATOM     17  C   UNL     1       2.182   3.582   0.994  1.00  0.00     0.006 C 
ATOM     18  C   UNL     1       2.908   5.940  -0.636  1.00  0.00     0.014 C 
ATOM     19  C   UNL     1       1.726   4.993   1.375  1.00  0.00     0.014 C 
BRANCH  15  20
ATOM     20  C   UNL     1       2.968   2.093  -0.889  1.00  0.00     0.119 C 
BRANCH  20  21
ATOM     21  N   UNL     1       3.376   0.993  -0.053  1.00  0.00    -0.354 N 
ATOM     22  O   UNL     1       1.450  -0.254  -0.235  1.00  0.00    -0.273 OA
ATOM     23  C   UNL     1       2.605  -0.135   0.162  1.00  0.00     0.240 C 
ATOM     24  H   UNL     1       4.253   1.047   0.391  1.00  0.00     0.163 HD
BRANCH  23  25
ATOM     25  C   UNL     1       3.399  -1.281   0.799  1.00  0.00     0.230 C 
BRANCH  25  26
ATOM     26  N   UNL     1       4.076  -1.992  -0.280  1.00  0.00    -0.250 N 
ATOM     27  C   UNL     1       3.716  -3.299  -0.551  1.00  0.00     0.329 A 
ATOM     28  C   UNL     1       5.125  -1.338  -0.919  1.00  0.00     0.264 A 
ATOM     29  O   UNL     1       2.934  -3.958   0.130  1.00  0.00    -0.248 OA
ATOM     30  N   UNL     1       4.319  -3.888  -1.630  1.00  0.00    -0.307 N 
ATOM     31  C   UNL     1       5.598  -1.930  -2.179  1.00  0.00     0.064 A 
ATOM     32  O   UNL     1       5.651  -0.306  -0.501  1.00  0.00    -0.268 OA
ATOM     33  C   UNL     1       5.200  -3.226  -2.481  1.00  0.00     0.055 A 
ATOM     34  H   UNL     1       4.119  -4.834  -1.814  1.00  0.00     0.171 HD
ATOM     35  C   UNL     1       6.410  -1.208  -3.058  1.00  0.00     0.016 A 
ATOM     36  C   UNL     1       5.662  -3.842  -3.642  1.00  0.00     0.027 A 
ATOM     37  C   UNL     1       6.843  -1.809  -4.239  1.00  0.00     0.001 A 
ATOM     38  C   UNL     1       6.482  -3.128  -4.522  1.00  0.00     0.002 A 
ENDBRANCH  25  26
ENDBRANCH  23  25
ENDBRANCH  20  21
ENDBRANCH  15  20
ENDBRANCH   7  14
ENDBRANCH   3   6
ENDBRANCH   1   2
BRANCH   1  39
ATOM     39  C   UNL     1      -4.429   7.223  -1.619  1.00  0.00     0.023 C 
BRANCH  39  40
ATOM     40  C   UNL     1      -5.916   7.539  -1.704  1.00  0.00     0.023 C 
BRANCH  40  41
ATOM     41  C   UNL     1      -6.676   7.375  -0.397  1.00  0.00     0.116 C 
BRANCH  41  42
ATOM     42  N   UNL     1      -6.159   8.201   0.686  1.00  0.00    -0.352 N 
ATOM     43  C   UNL     1      -6.878   8.922   1.618  1.00  0.00     0.251 C 
ATOM     44  H   UNL     1      -5.179   8.251   0.762  1.00  0.00     0.163 HD
ATOM     45  O   UNL     1      -6.320   9.647   2.421  1.00  0.00    -0.269 OA
BRANCH  43  46
ATOM     46  C   UNL     1      -8.353   8.824   1.570  1.00  0.00     0.039 A 
ATOM     47  C   UNL     1      -8.961   7.567   1.549  1.00  0.00     0.014 A 
ATOM     48  C   UNL     1      -9.106   9.986   1.397  1.00  0.00     0.014 A 
ATOM     49  C   UNL     1     -10.289   7.465   1.161  1.00  0.00     0.010 A 
ATOM     50  C   UNL     1     -10.467   9.881   1.100  1.00  0.00     0.010 A 
ATOM     51  C   UNL     1     -11.056   8.619   0.921  1.00  0.00    -0.014 A 
BRANCH  51  52
ATOM     52  C   UNL     1     -12.468   8.475   0.479  1.00  0.00     0.031 A 
ATOM     53  C   UNL     1     -12.912   8.963  -0.874  1.00  0.00     0.074 A 
ATOM     54  C   UNL     1     -13.339   7.847   1.292  1.00  0.00     0.049 A 
ATOM     55  N   UNL     1     -14.102   8.908  -1.415  1.00  0.00    -0.248 NA
ATOM     56  C   UNL     1     -11.898   9.598  -1.732  1.00  0.00     0.031 C 
ATOM     57  C   UNL     1     -13.012   7.329   2.621  1.00  0.00     0.029 A 
ATOM     58  N   UNL     1     -14.660   7.516   1.121  1.00  0.00    -0.354 N 
ATOM     59  C   UNL     1     -13.988   9.515  -2.661  1.00  0.00     0.074 A 
ATOM     60  C   UNL     1     -12.617   9.957  -2.789  1.00  0.00     0.031 C 
ATOM     61  C   UNL     1     -14.084   6.702   3.123  1.00  0.00     0.029 A 
ATOM     62  C   UNL     1     -15.199   6.839   2.191  1.00  0.00     0.049 A 
ATOM     63  H   UNL     1     -15.172   7.740   0.311  1.00  0.00     0.167 HD
ATOM     64  C   UNL     1     -14.938   9.674  -3.613  1.00  0.00     0.034 A 
ATOM     65  C   UNL     1     -16.453   6.395   2.413  1.00  0.00     0.034 A 
ATOM     66  C   UNL     1     -16.293   9.199  -3.482  1.00  0.00     0.049 A 
ATOM     67  C   UNL     1     -17.490   6.593   1.340  1.00  0.00     0.074 A 
ATOM     68  C   UNL     1     -17.322   9.295  -4.402  1.00  0.00     0.029 A 
ATOM     69  N   UNL     1     -16.804   8.530  -2.380  1.00  0.00    -0.354 N 
ATOM     70  N   UNL     1     -17.353   7.142   0.156  1.00  0.00    -0.248 NA
ATOM     71  C   UNL     1     -18.849   6.115   1.625  1.00  0.00     0.031 C 
ATOM     72  C   UNL     1     -18.467   8.732  -3.838  1.00  0.00     0.029 A 
ATOM     73  C   UNL     1     -18.139   8.225  -2.591  1.00  0.00     0.049 A 
ATOM     74  H   UNL     1     -16.294   8.305  -1.568  1.00  0.00     0.167 HD
ATOM     75  C   UNL     1     -18.604   7.065  -0.449  1.00  0.00     0.074 A 
ATOM     76  C   UNL     1     -19.475   6.384   0.486  1.00  0.00     0.031 C 
ATOM     77  C   UNL     1     -18.995   7.529  -1.661  1.00  0.00     0.034 A 
BRANCH  64  78
ATOM     78  C   UNL     1     -14.575  10.370  -4.901  1.00  0.00     0.023 A 
ATOM     79  C   UNL     1     -15.195  11.588  -5.241  1.00  0.00     0.031 A 
ATOM     80  C   UNL     1     -13.752   9.753  -5.858  1.00  0.00     0.131 A 
ATOM     81  C   UNL     1     -15.018  12.126  -6.522  1.00  0.00     0.055 A 
ATOM     82  C   UNL     1     -13.547  10.313  -7.120  1.00  0.00     0.041 A 
ATOM     83  F   UNL     1     -13.138   8.591  -5.580  1.00  0.00    -0.206 F 
ATOM     84  C   UNL     1     -14.194  11.498  -7.461  1.00  0.00     0.022 A 
BRANCH  81  85
ATOM     85  S   UNL     1     -15.898  13.625  -7.040  1.00  0.00     0.124 S 
ATOM     86  O   UNL     1     -14.798  14.487  -7.470  1.00  0.00    -0.237 OA
ATOM     87  O   UNL     1     -16.751  13.122  -8.113  1.00  0.00    -0.237 OA
ATOM     88  O   UNL     1     -16.590  14.062  -5.833  1.00  0.00    -0.744 OA
ENDBRANCH  81  85
ENDBRANCH  64  78
BRANCH  65  89
ATOM     89  C   UNL     1     -16.758   5.700   3.697  1.00  0.00     0.023 A 
ATOM     90  C   UNL     1     -16.581   6.357   4.929  1.00  0.00     0.031 A 
ATOM     91  C   UNL     1     -17.116   4.342   3.719  1.00  0.00     0.131 A 
ATOM     92  C   UNL     1     -16.685   5.637   6.126  1.00  0.00     0.055 A 
ATOM     93  C   UNL     1     -17.294   3.648   4.917  1.00  0.00     0.041 A 
ATOM     94  F   UNL     1     -17.282   3.668   2.570  1.00  0.00    -0.206 F 
ATOM     95  C   UNL     1     -17.058   4.290   6.128  1.00  0.00     0.022 A 
BRANCH  92  96
ATOM     96  S   UNL     1     -16.180   6.385   7.701  1.00  0.00     0.124 S 
ATOM     97  O   UNL     1     -17.448   6.466   8.418  1.00  0.00    -0.237 OA
ATOM     98  O   UNL     1     -15.227   5.401   8.211  1.00  0.00    -0.237 OA
ATOM     99  O   UNL     1     -15.593   7.660   7.302  1.00  0.00    -0.744 OA
ENDBRANCH  92  96
ENDBRANCH  65  89
BRANCH  77 100
ATOM    100  C   UNL     1     -20.431   7.331  -2.079  1.00  0.00     0.023 A 
ATOM    101  C   UNL     1     -20.736   6.539  -3.202  1.00  0.00     0.031 A 
ATOM    102  C   UNL     1     -21.472   8.049  -1.465  1.00  0.00     0.131 A 
ATOM    103  C   UNL     1     -22.044   6.516  -3.702  1.00  0.00     0.055 A 
ATOM    104  C   UNL     1     -22.782   7.987  -1.941  1.00  0.00     0.041 A 
ATOM    105  F   UNL     1     -21.227   8.826  -0.398  1.00  0.00    -0.206 F 
ATOM    106  C   UNL     1     -23.070   7.230  -3.074  1.00  0.00     0.022 A 
BRANCH 103 107
ATOM    107  S   UNL     1     -22.445   5.633  -5.235  1.00  0.00     0.124 S 
ATOM    108  O   UNL     1     -23.422   4.650  -4.770  1.00  0.00    -0.237 OA
ATOM    109  O   UNL     1     -22.986   6.700  -6.073  1.00  0.00    -0.237 OA
ATOM    110  O   UNL     1     -21.167   5.081  -5.670  1.00  0.00    -0.744 OA
ENDBRANCH 103 107
ENDBRANCH  77 100
ENDBRANCH  51  52
ENDBRANCH  43  46
ENDBRANCH  41  42
ENDBRANCH  40  41
ENDBRANCH  39  40
ENDBRANCH   1  39
TORSDOF 19
