REMARK SMILES Cc1cc(Br)cc(C(=O)NCCCCNC(=O)c2ccc(-c3c4nc(c(-c5cc(S(=O)(=O)[O-])ccc5F)c5ccc([nH]5)c(-c5cc(S(=O)(=O)[O-])ccc5F)c5nc(c(-c6cc(S(=O)(=O)[O-])ccc6F)c6ccc3[nH]6)C=C5)C=C4)cc2)c1Br
REMARK SMILES IDX 14 1 13 2 12 3 11 4 10 5 8 6 9 7 7 9 1 10 2 11 3 12 81 13
REMARK SMILES IDX 4 14 82 15 5 16 6 17 15 18 16 19 17 21 18 22 19 23 80 24
REMARK SMILES IDX 20 25 79 26 21 27 22 28 23 29 73 30 24 31 78 32 72 33 74 34
REMARK SMILES IDX 25 35 77 36 71 37 70 38 26 40 58 41 38 42 57 43 39 44 42 45
REMARK SMILES IDX 56 46 75 47 40 48 41 49 55 51 76 52 43 53 27 54 28 55 36 56
REMARK SMILES IDX 29 57 35 58 37 59 34 60 30 61 31 62 32 63 33 64 59 65 60 66
REMARK SMILES IDX 68 67 61 68 67 69 69 70 66 71 62 72 63 73 64 74 65 75 44 76
REMARK SMILES IDX 45 77 53 78 46 79 52 80 54 81 51 82 47 83 48 84 49 85 50 86
REMARK H PARENT 10 8 15 20 74 39 42 50
REMARK Flexibility Score: inf
ROOT
ATOM      1  C   UNL     1      -3.942   0.870  -5.154  1.00  0.00     0.116 C 
ENDROOT
BRANCH   1   2
ATOM      2  C   UNL     1      -2.697   0.262  -5.792  1.00  0.00     0.023 C 
BRANCH   2   3
ATOM      3  C   UNL     1      -1.454   0.151  -4.915  1.00  0.00     0.023 C 
BRANCH   3   4
ATOM      4  C   UNL     1      -1.664  -0.360  -3.495  1.00  0.00     0.116 C 
BRANCH   4   5
ATOM      5  N   UNL     1      -2.291  -1.667  -3.389  1.00  0.00    -0.352 N 
ATOM      6  C   UNL     1      -2.088  -2.664  -2.460  1.00  0.00     0.252 C 
ATOM      7  O   UNL     1      -2.795  -3.669  -2.480  1.00  0.00    -0.269 OA
ATOM      8  H   UNL     1      -2.959  -1.869  -4.082  1.00  0.00     0.163 HD
BRANCH   6   9
ATOM      9  C   UNL     1      -0.942  -2.618  -1.521  1.00  0.00     0.055 A 
ATOM     10  C   UNL     1       1.050  -0.295   0.767  1.00  0.00     0.045 C 
ATOM     11  C   UNL     1       0.586  -1.512   0.013  1.00  0.00    -0.035 A 
ATOM     12  C   UNL     1       1.433  -2.631  -0.051  1.00  0.00     0.020 A 
ATOM     13  C   UNL     1      -0.662  -1.563  -0.640  1.00  0.00     0.033 A 
ATOM     14  C   UNL     1       1.070  -3.749  -0.797  1.00  0.00     0.019 A 
ATOM     15  Br  UNL     1      -2.006  -0.291  -0.163  1.00  0.00    -0.050 Br
ATOM     16  Br  UNL     1       2.176  -5.281  -0.788  1.00  0.00    -0.051 Br
ATOM     17  C   UNL     1      -0.091  -3.735  -1.560  1.00  0.00     0.030 A 
ENDBRANCH   6   9
ENDBRANCH   4   5
ENDBRANCH   3   4
ENDBRANCH   2   3
ENDBRANCH   1   2
BRANCH   1  18
ATOM     18  N   UNL     1      -3.774   2.238  -4.681  1.00  0.00    -0.352 N 
ATOM     19  C   UNL     1      -4.481   3.378  -4.999  1.00  0.00     0.251 C 
ATOM     20  H   UNL     1      -3.043   2.368  -4.034  1.00  0.00     0.163 HD
ATOM     21  O   UNL     1      -4.152   4.456  -4.510  1.00  0.00    -0.269 OA
BRANCH  19  22
ATOM     22  C   UNL     1      -5.588   3.312  -5.980  1.00  0.00     0.039 A 
ATOM     23  C   UNL     1      -6.558   2.314  -5.899  1.00  0.00     0.014 A 
ATOM     24  C   UNL     1      -5.603   4.218  -7.045  1.00  0.00     0.014 A 
ATOM     25  C   UNL     1      -7.383   2.072  -6.994  1.00  0.00     0.010 A 
ATOM     26  C   UNL     1      -6.503   4.033  -8.099  1.00  0.00     0.010 A 
ATOM     27  C   UNL     1      -7.345   2.911  -8.121  1.00  0.00    -0.014 A 
BRANCH  27  28
ATOM     28  C   UNL     1      -8.153   2.569  -9.324  1.00  0.00     0.031 A 
ATOM     29  C   UNL     1      -7.479   2.239 -10.633  1.00  0.00     0.074 A 
ATOM     30  C   UNL     1      -9.494   2.490  -9.224  1.00  0.00     0.049 A 
ATOM     31  N   UNL     1      -8.020   1.910 -11.778  1.00  0.00    -0.248 NA
ATOM     32  C   UNL     1      -6.007   2.284 -10.663  1.00  0.00     0.031 C 
ATOM     33  C   UNL     1     -10.255   2.765  -8.006  1.00  0.00     0.029 A 
ATOM     34  N   UNL     1     -10.450   2.136 -10.143  1.00  0.00    -0.354 N 
ATOM     35  C   UNL     1      -6.963   1.734 -12.667  1.00  0.00     0.074 A 
ATOM     36  C   UNL     1      -5.749   2.022 -11.938  1.00  0.00     0.031 C 
ATOM     37  C   UNL     1     -11.551   2.514  -8.234  1.00  0.00     0.029 A 
ATOM     38  C   UNL     1     -11.729   2.138  -9.635  1.00  0.00     0.049 A 
ATOM     39  H   UNL     1     -10.242   1.902 -11.076  1.00  0.00     0.167 HD
ATOM     40  C   UNL     1      -7.003   1.351 -13.966  1.00  0.00     0.034 A 
ATOM     41  C   UNL     1     -12.915   1.883 -10.226  1.00  0.00     0.034 A 
ATOM     42  C   UNL     1      -8.217   1.033 -14.673  1.00  0.00     0.049 A 
ATOM     43  C   UNL     1     -12.935   1.493 -11.680  1.00  0.00     0.074 A 
ATOM     44  C   UNL     1      -8.355   0.610 -15.984  1.00  0.00     0.029 A 
ATOM     45  N   UNL     1      -9.495   1.088 -14.135  1.00  0.00    -0.354 N 
ATOM     46  N   UNL     1     -11.924   1.310 -12.497  1.00  0.00    -0.248 NA
ATOM     47  C   UNL     1     -14.250   1.278 -12.299  1.00  0.00     0.031 C 
ATOM     48  C   UNL     1      -9.716   0.463 -16.254  1.00  0.00     0.029 A 
ATOM     49  C   UNL     1     -10.427   0.731 -15.095  1.00  0.00     0.049 A 
ATOM     50  H   UNL     1      -9.707   1.343 -13.208  1.00  0.00     0.167 HD
ATOM     51  C   UNL     1     -12.480   0.947 -13.720  1.00  0.00     0.074 A 
ATOM     52  C   UNL     1     -13.915   0.908 -13.529  1.00  0.00     0.031 C 
ATOM     53  C   UNL     1     -11.856   0.680 -14.895  1.00  0.00     0.034 A 
BRANCH  40  54
ATOM     54  C   UNL     1      -5.706   1.233 -14.729  1.00  0.00     0.023 A 
ATOM     55  C   UNL     1      -5.458   2.073 -15.831  1.00  0.00     0.031 A 
ATOM     56  C   UNL     1      -4.783   0.209 -14.453  1.00  0.00     0.131 A 
ATOM     57  C   UNL     1      -4.333   1.854 -16.636  1.00  0.00     0.055 A 
ATOM     58  C   UNL     1      -3.644   0.017 -15.237  1.00  0.00     0.041 A 
ATOM     59  F   UNL     1      -4.973  -0.619 -13.412  1.00  0.00    -0.206 F 
ATOM     60  C   UNL     1      -3.422   0.834 -16.341  1.00  0.00     0.022 A 
BRANCH  57  61
ATOM     61  S   UNL     1      -4.039   2.840 -18.130  1.00  0.00     0.124 S 
ATOM     62  O   UNL     1      -2.738   3.439 -17.840  1.00  0.00    -0.237 OA
ATOM     63  O   UNL     1      -4.036   1.819 -19.174  1.00  0.00    -0.237 OA
ATOM     64  O   UNL     1      -5.159   3.773 -18.161  1.00  0.00    -0.744 OA
ENDBRANCH  57  61
ENDBRANCH  40  54
BRANCH  41  65
ATOM     65  C   UNL     1     -14.161   1.962  -9.409  1.00  0.00     0.023 A 
ATOM     66  C   UNL     1     -14.538   3.164  -8.782  1.00  0.00     0.031 A 
ATOM     67  C   UNL     1     -14.921   0.812  -9.141  1.00  0.00     0.131 A 
ATOM     68  C   UNL     1     -15.586   3.169  -7.854  1.00  0.00     0.055 A 
ATOM     69  C   UNL     1     -16.015   0.838  -8.274  1.00  0.00     0.041 A 
ATOM     70  F   UNL     1     -14.596  -0.361  -9.708  1.00  0.00    -0.206 F 
ATOM     71  C   UNL     1     -16.338   2.016  -7.608  1.00  0.00     0.022 A 
BRANCH  68  72
ATOM     72  S   UNL     1     -15.905   4.628  -6.822  1.00  0.00     0.124 S 
ATOM     73  O   UNL     1     -17.262   4.989  -7.217  1.00  0.00    -0.237 OA
ATOM     74  O   UNL     1     -15.763   4.078  -5.476  1.00  0.00    -0.237 OA
ATOM     75  O   UNL     1     -14.859   5.565  -7.220  1.00  0.00    -0.744 OA
ENDBRANCH  68  72
ENDBRANCH  41  65
BRANCH  53  76
ATOM     76  C   UNL     1     -12.696   0.317 -16.094  1.00  0.00     0.023 A 
ATOM     77  C   UNL     1     -12.572  -0.956 -16.683  1.00  0.00     0.031 A 
ATOM     78  C   UNL     1     -13.487   1.279 -16.746  1.00  0.00     0.131 A 
ATOM     79  C   UNL     1     -13.192  -1.219 -17.910  1.00  0.00     0.055 A 
ATOM     80  C   UNL     1     -14.139   0.998 -17.947  1.00  0.00     0.041 A 
ATOM     81  F   UNL     1     -13.627   2.510 -16.228  1.00  0.00    -0.206 F 
ATOM     82  C   UNL     1     -13.980  -0.251 -18.542  1.00  0.00     0.022 A 
BRANCH  79  83
ATOM     83  S   UNL     1     -12.927  -2.791 -18.776  1.00  0.00     0.124 S 
ATOM     84  O   UNL     1     -14.288  -3.313 -18.877  1.00  0.00    -0.237 OA
ATOM     85  O   UNL     1     -12.332  -2.352 -20.035  1.00  0.00    -0.237 OA
ATOM     86  O   UNL     1     -12.040  -3.537 -17.889  1.00  0.00    -0.744 OA
ENDBRANCH  79  83
ENDBRANCH  53  76
ENDBRANCH  27  28
ENDBRANCH  19  22
ENDBRANCH   1  18
TORSDOF 14
