REMARK SMILES COc1ccc([C@H](C(=O)NCCCCNC(=O)c2ccc(-c3c4nc(c(-c5cc(S(=O)(=O)[O-])ccc5F)c5ccc([nH]5)c(-c5cc(S(=O)(=O)[O-])ccc5F)c5nc(c(-c6cc(S(=O)(=O)[O-])ccc6F)c6ccc3[nH]6)C=C5)C=C4)cc2)[N@@H+]2CCC[N@H+](Cc3ccccn3)CC2)cn1
REMARK SMILES IDX 11 1 10 2 8 3 9 4 7 6 6 7 3 8 4 9 96 10 5 11 95 12 2 13 1 14
REMARK SMILES IDX 81 15 82 17 94 19 93 20 85 21 84 23 83 24 86 26 87 27 88 28
REMARK SMILES IDX 92 29 89 30 91 31 90 32 12 33 13 34 14 35 15 36 16 37 17 39
REMARK SMILES IDX 18 40 19 41 80 42 20 43 79 44 21 45 22 46 23 47 73 48 24 49
REMARK SMILES IDX 78 50 72 51 74 52 25 53 77 54 71 55 70 56 26 58 58 59 38 60
REMARK SMILES IDX 57 61 39 62 42 63 56 64 75 65 40 66 41 67 55 69 76 70 43 71
REMARK SMILES IDX 27 72 28 73 36 74 29 75 35 76 37 77 34 78 30 79 31 80 32 81
REMARK SMILES IDX 33 82 59 83 60 84 68 85 61 86 67 87 69 88 66 89 62 90 63 91
REMARK SMILES IDX 64 92 65 93 44 94 45 95 53 96 46 97 52 98 54 99 51 100
REMARK SMILES IDX 47 101 48 102 49 103 50 104
REMARK H PARENT 10 5 81 16 85 22 15 38 74 57 42 68
REMARK Flexibility Score: 90.00
ROOT
ATOM      1  C   UNL     1      -0.199  -6.079   0.847  1.00  0.00     0.116 C 
ENDROOT
BRANCH   1   2
ATOM      2  N   UNL     1       0.753  -5.274   0.102  1.00  0.00    -0.351 N 
ATOM      3  C   UNL     1       1.703  -5.635  -0.813  1.00  0.00     0.283 C 
ATOM      4  O   UNL     1       2.605  -4.813  -1.026  1.00  0.00    -0.268 OA
ATOM      5  H   UNL     1       0.706  -4.309   0.286  1.00  0.00     0.163 HD
BRANCH   3   6
ATOM      6  C   UNL     1       1.663  -6.978  -1.612  1.00  0.00     0.307 C 
BRANCH   6   7
ATOM      7  C   UNL     1       1.493  -8.239  -0.782  1.00  0.00     0.038 A 
ATOM      8  C   UNL     1       0.926 -10.289   0.935  1.00  0.00     0.212 A 
ATOM      9  C   UNL     1       0.405 -10.341  -0.343  1.00  0.00     0.069 A 
ATOM     10  N   UNL     1       1.799  -9.350   1.354  1.00  0.00    -0.222 NA
ATOM     11  C   UNL     1       0.720  -9.316  -1.222  1.00  0.00     0.017 A 
ATOM     12  C   UNL     1       2.089  -8.366   0.472  1.00  0.00     0.125 A 
BRANCH   8  13
ATOM     13  O   UNL     1       0.353 -11.147   1.847  1.00  0.00    -0.481 OA
ATOM     14  C   UNL     1       1.273 -11.628   2.812  1.00  0.00     0.280 C 
ENDBRANCH   8  13
ENDBRANCH   6   7
BRANCH   6  15
ATOM     15  N   UNL     1       0.745  -6.915  -2.821  1.00  0.00    -0.316 N 
ATOM     16  H   UNL     1       0.544  -7.866  -3.131  1.00  0.00     0.349 HD
BRANCH  15  17
ATOM     17  C   UNL     1       1.425  -6.219  -3.916  1.00  0.00     0.269 CG0
ATOM     18  G   UNL     1       0.862  -6.454  -5.319  1.00  0.00     0.000 G0
ENDBRANCH  15  17
BRANCH  15  19
ATOM     19  C   UNL     1      -0.575  -6.335  -2.494  1.00  0.00     0.325 C 
BRANCH  19  20
ATOM     20  C   UNL     1      -1.644  -6.270  -3.600  1.00  0.00     0.324 C 
BRANCH  20  21
ATOM     21  N   UNL     1      -1.412  -5.386  -4.730  1.00  0.00    -0.325 N 
ATOM     22  H   UNL     1      -2.306  -5.442  -5.218  1.00  0.00     0.348 HD
BRANCH  21  23
ATOM     23  C   UNL     1      -0.504  -5.893  -5.728  1.00  0.00     0.268 C 
BRANCH  23  24
ATOM     24  C   UNL     1       0.862  -6.454  -5.319  1.00  0.00     0.123 CG0
ATOM     25  G   UNL     1       1.425  -6.219  -3.916  1.00  0.00     0.000 G0
ENDBRANCH  23  24
ENDBRANCH  21  23
BRANCH  21  26
ATOM     26  C   UNL     1      -1.468  -3.933  -4.508  1.00  0.00     0.319 C 
BRANCH  26  27
ATOM     27  C   UNL     1      -0.231  -3.233  -3.972  1.00  0.00     0.095 A 
ATOM     28  C   UNL     1       0.864  -2.980  -4.802  1.00  0.00     0.030 A 
ATOM     29  N   UNL     1      -0.216  -2.920  -2.651  1.00  0.00    -0.255 NA
ATOM     30  C   UNL     1       2.046  -2.501  -4.239  1.00  0.00     0.004 A 
ATOM     31  C   UNL     1       0.935  -2.427  -2.140  1.00  0.00     0.111 A 
ATOM     32  C   UNL     1       2.088  -2.232  -2.879  1.00  0.00     0.020 A 
ENDBRANCH  26  27
ENDBRANCH  21  26
ENDBRANCH  20  21
ENDBRANCH  19  20
ENDBRANCH  15  19
ENDBRANCH   6  15
ENDBRANCH   3   6
ENDBRANCH   1   2
BRANCH   1  33
ATOM     33  C   UNL     1       0.318  -6.271   2.272  1.00  0.00     0.023 C 
BRANCH  33  34
ATOM     34  C   UNL     1       0.006  -5.101   3.197  1.00  0.00     0.023 C 
BRANCH  34  35
ATOM     35  C   UNL     1      -1.479  -4.865   3.426  1.00  0.00     0.116 C 
BRANCH  35  36
ATOM     36  N   UNL     1      -2.181  -6.062   3.863  1.00  0.00    -0.352 N 
ATOM     37  C   UNL     1      -3.105  -6.204   4.871  1.00  0.00     0.251 C 
ATOM     38  H   UNL     1      -1.964  -6.885   3.368  1.00  0.00     0.163 HD
ATOM     39  O   UNL     1      -3.475  -7.313   5.215  1.00  0.00    -0.269 OA
BRANCH  37  40
ATOM     40  C   UNL     1      -3.612  -4.990   5.545  1.00  0.00     0.039 A 
ATOM     41  C   UNL     1      -3.718  -4.985   6.935  1.00  0.00     0.014 A 
ATOM     42  C   UNL     1      -3.951  -3.856   4.802  1.00  0.00     0.014 A 
ATOM     43  C   UNL     1      -4.125  -3.820   7.583  1.00  0.00     0.010 A 
ATOM     44  C   UNL     1      -4.246  -2.668   5.454  1.00  0.00     0.010 A 
ATOM     45  C   UNL     1      -4.367  -2.646   6.850  1.00  0.00    -0.014 A 
BRANCH  45  46
ATOM     46  C   UNL     1      -4.813  -1.402   7.525  1.00  0.00     0.031 A 
ATOM     47  C   UNL     1      -6.163  -0.823   7.193  1.00  0.00     0.074 A 
ATOM     48  C   UNL     1      -4.000  -0.792   8.408  1.00  0.00     0.049 A 
ATOM     49  N   UNL     1      -6.735   0.260   7.652  1.00  0.00    -0.248 NA
ATOM     50  C   UNL     1      -6.961  -1.535   6.181  1.00  0.00     0.031 C 
ATOM     51  C   UNL     1      -2.650  -1.239   8.765  1.00  0.00     0.029 A 
ATOM     52  N   UNL     1      -4.189   0.329   9.175  1.00  0.00    -0.354 N 
ATOM     53  C   UNL     1      -7.950   0.358   6.981  1.00  0.00     0.074 A 
ATOM     54  C   UNL     1      -7.989  -0.719   6.019  1.00  0.00     0.031 C 
ATOM     55  C   UNL     1      -2.157  -0.431   9.717  1.00  0.00     0.029 A 
ATOM     56  C   UNL     1      -3.130   0.616  10.006  1.00  0.00     0.049 A 
ATOM     57  H   UNL     1      -5.005   0.877   9.134  1.00  0.00     0.167 HD
ATOM     58  C   UNL     1      -8.959   1.241   7.179  1.00  0.00     0.034 A 
ATOM     59  C   UNL     1      -2.971   1.611  10.901  1.00  0.00     0.034 A 
ATOM     60  C   UNL     1      -8.907   2.295   8.159  1.00  0.00     0.049 A 
ATOM     61  C   UNL     1      -4.100   2.595  11.086  1.00  0.00     0.074 A 
ATOM     62  C   UNL     1      -9.881   3.223   8.482  1.00  0.00     0.029 A 
ATOM     63  N   UNL     1      -7.815   2.563   8.977  1.00  0.00    -0.354 N 
ATOM     64  N   UNL     1      -5.268   2.639  10.485  1.00  0.00    -0.248 NA
ATOM     65  C   UNL     1      -3.894   3.654  12.081  1.00  0.00     0.031 C 
ATOM     66  C   UNL     1      -9.354   4.092   9.443  1.00  0.00     0.029 A 
ATOM     67  C   UNL     1      -8.081   3.660   9.781  1.00  0.00     0.049 A 
ATOM     68  H   UNL     1      -6.976   2.049   8.983  1.00  0.00     0.167 HD
ATOM     69  C   UNL     1      -5.946   3.713  11.055  1.00  0.00     0.074 A 
ATOM     70  C   UNL     1      -5.067   4.268  12.064  1.00  0.00     0.031 C 
ATOM     71  C   UNL     1      -7.182   4.202  10.773  1.00  0.00     0.034 A 
BRANCH  58  72
ATOM     72  C   UNL     1     -10.186   1.099   6.309  1.00  0.00     0.023 A 
ATOM     73  C   UNL     1     -10.976  -0.066   6.331  1.00  0.00     0.031 A 
ATOM     74  C   UNL     1     -10.555   2.123   5.420  1.00  0.00     0.131 A 
ATOM     75  C   UNL     1     -12.038  -0.212   5.427  1.00  0.00     0.055 A 
ATOM     76  C   UNL     1     -11.668   2.008   4.584  1.00  0.00     0.041 A 
ATOM     77  F   UNL     1      -9.829   3.249   5.334  1.00  0.00    -0.206 F 
ATOM     78  C   UNL     1     -12.407   0.829   4.572  1.00  0.00     0.022 A 
BRANCH  75  79
ATOM     79  S   UNL     1     -12.831  -1.836   5.279  1.00  0.00     0.124 S 
ATOM     80  O   UNL     1     -11.705  -2.678   4.880  1.00  0.00    -0.237 OA
ATOM     81  O   UNL     1     -13.351  -2.058   6.623  1.00  0.00    -0.237 OA
ATOM     82  O   UNL     1     -13.843  -1.631   4.244  1.00  0.00    -0.744 OA
ENDBRANCH  75  79
ENDBRANCH  58  72
BRANCH  59  83
ATOM     83  C   UNL     1      -1.713   1.732  11.694  1.00  0.00     0.023 A 
ATOM     84  C   UNL     1      -1.730   1.638  13.095  1.00  0.00     0.031 A 
ATOM     85  C   UNL     1      -0.482   2.005  11.070  1.00  0.00     0.131 A 
ATOM     86  C   UNL     1      -0.558   1.877  13.829  1.00  0.00     0.055 A 
ATOM     87  C   UNL     1       0.695   2.179  11.802  1.00  0.00     0.041 A 
ATOM     88  F   UNL     1      -0.404   2.103   9.733  1.00  0.00    -0.206 F 
ATOM     89  C   UNL     1       0.657   2.132  13.192  1.00  0.00     0.022 A 
BRANCH  86  90
ATOM     90  S   UNL     1      -0.669   1.958  15.639  1.00  0.00     0.124 S 
ATOM     91  O   UNL     1      -1.673   2.999  15.827  1.00  0.00    -0.237 OA
ATOM     92  O   UNL     1      -1.081   0.600  15.978  1.00  0.00    -0.237 OA
ATOM     93  O   UNL     1       0.688   2.317  16.046  1.00  0.00    -0.744 OA
ENDBRANCH  86  90
ENDBRANCH  59  83
BRANCH  71  94
ATOM     94  C   UNL     1      -7.657   5.372  11.599  1.00  0.00     0.023 A 
ATOM     95  C   UNL     1      -7.020   6.623  11.537  1.00  0.00     0.031 A 
ATOM     96  C   UNL     1      -8.747   5.226  12.476  1.00  0.00     0.131 A 
ATOM     97  C   UNL     1      -7.432   7.659  12.389  1.00  0.00     0.055 A 
ATOM     98  C   UNL     1      -9.199   6.282  13.267  1.00  0.00     0.041 A 
ATOM     99  F   UNL     1      -9.391   4.052  12.576  1.00  0.00    -0.206 F 
ATOM    100  C   UNL     1      -8.530   7.502  13.239  1.00  0.00     0.022 A 
BRANCH  97 101
ATOM    101  S   UNL     1      -6.440   9.175  12.453  1.00  0.00     0.124 S 
ATOM    102  O   UNL     1      -5.125   8.661  12.824  1.00  0.00    -0.237 OA
ATOM    103  O   UNL     1      -6.562   9.686  11.091  1.00  0.00    -0.237 OA
ATOM    104  O   UNL     1      -7.105   9.977  13.478  1.00  0.00    -0.744 OA
ENDBRANCH  97 101
ENDBRANCH  71  94
ENDBRANCH  45  46
ENDBRANCH  37  40
ENDBRANCH  35  36
ENDBRANCH  34  35
ENDBRANCH  33  34
ENDBRANCH   1  33
TORSDOF 19
