REMARK SMILES O=C(COc1ccc(Br)cc1)NC(=S)Nc1ccc(Cl)cc1C(=O)NCCCCNC(=O)c1ccc(-c2c3nc(c(-c4cc(S(=O)(=O)[O-])ccc4F)c4ccc([nH]4)c(-c4cc(S(=O)(=O)[O-])ccc4F)c4nc(c(-c5cc(S(=O)(=O)[O-])ccc5F)c5ccc2[nH]5)C=C4)C=C3)cc1
REMARK SMILES IDX 26 1 25 2 23 3 24 4 22 6 16 7 17 8 18 9 21 10 19 11 20 12
REMARK SMILES IDX 15 13 13 15 14 16 12 17 1 18 2 19 3 21 4 22 5 23 6 24 11 25
REMARK SMILES IDX 7 26 10 27 8 28 9 29 27 30 28 31 29 32 30 33 31 34 32 36
REMARK SMILES IDX 33 37 34 38 95 39 35 40 94 41 36 42 37 43 38 44 88 45 39 46
REMARK SMILES IDX 93 47 87 48 89 49 40 50 92 51 86 52 85 53 41 55 73 56 53 57
REMARK SMILES IDX 72 58 54 59 57 60 71 61 90 62 55 63 56 64 70 66 91 67 58 68
REMARK SMILES IDX 42 69 43 70 51 71 44 72 50 73 52 74 49 75 45 76 46 77 47 78
REMARK SMILES IDX 48 79 74 80 75 81 83 82 76 83 82 84 84 85 81 86 77 87 78 88
REMARK SMILES IDX 79 89 80 90 59 91 60 92 68 93 61 94 67 95 69 96 66 97 62 98
REMARK SMILES IDX 63 99 64 100 65 101
REMARK H PARENT 25 5 15 14 12 20 30 35 89 54 57 65
REMARK Flexibility Score: inf
ROOT
ATOM      1  C   UNL     1       0.900  -3.191   1.631  1.00  0.00     0.116 C 
ENDROOT
BRANCH   1   2
ATOM      2  N   UNL     1      -0.509  -3.022   1.874  1.00  0.00    -0.352 N 
ATOM      3  C   UNL     1      -1.438  -2.200   1.278  1.00  0.00     0.253 C 
ATOM      4  O   UNL     1      -2.600  -2.316   1.683  1.00  0.00    -0.269 OA
ATOM      5  H   UNL     1      -0.870  -3.592   2.590  1.00  0.00     0.163 HD
BRANCH   3   6
ATOM      6  C   UNL     1      -1.178  -1.152   0.235  1.00  0.00     0.064 A 
ATOM      7  C   UNL     1      -0.256  -1.151  -0.831  1.00  0.00     0.053 A 
ATOM      8  C   UNL     1      -0.231  -0.083  -1.756  1.00  0.00     0.028 A 
ATOM      9  C   UNL     1      -1.037   1.035  -1.582  1.00  0.00     0.023 A 
ATOM     10  C   UNL     1      -1.980   0.004   0.391  1.00  0.00     0.036 A 
ATOM     11  C   UNL     1      -1.887   1.086  -0.488  1.00  0.00     0.041 A 
ATOM     12  Cl  UNL     1      -2.821   2.506  -0.212  1.00  0.00    -0.084 Cl
BRANCH   7  13
ATOM     13  N   UNL     1       0.701  -2.152  -1.040  1.00  0.00    -0.332 N 
ATOM     14  H   UNL     1       0.364  -3.076  -1.082  1.00  0.00     0.169 HD
BRANCH  13  15
ATOM     15  C   UNL     1       2.045  -1.988  -1.192  1.00  0.00     0.177 C 
ATOM     16  S   UNL     1       2.951  -3.247  -1.817  1.00  0.00    -0.040 S 
BRANCH  15  17
ATOM     17  N   UNL     1       2.727  -0.871  -0.751  1.00  0.00    -0.300 N 
ATOM     18  O   UNL     1       1.325   0.427   0.614  1.00  0.00    -0.271 OA
ATOM     19  C   UNL     1       2.396   0.238   0.047  1.00  0.00     0.264 C 
ATOM     20  H   UNL     1       3.658  -0.845  -1.068  1.00  0.00     0.172 HD
BRANCH  19  21
ATOM     21  C   UNL     1       3.546   1.225   0.271  1.00  0.00     0.329 C 
BRANCH  21  22
ATOM     22  O   UNL     1       4.332   0.965   1.435  1.00  0.00    -0.484 OA
BRANCH  22  23
ATOM     23  C   UNL     1       3.649   1.247   2.591  1.00  0.00     0.120 A 
ATOM     24  C   UNL     1       2.815   0.283   3.158  1.00  0.00     0.047 A 
ATOM     25  C   UNL     1       3.854   2.463   3.241  1.00  0.00     0.047 A 
ATOM     26  C   UNL     1       2.116   0.559   4.333  1.00  0.00     0.019 A 
ATOM     27  C   UNL     1       3.177   2.731   4.436  1.00  0.00     0.019 A 
ATOM     28  C   UNL     1       2.302   1.783   4.969  1.00  0.00     0.018 A 
ATOM     29  Br  UNL     1       1.376   2.150   6.576  1.00  0.00    -0.051 Br
ENDBRANCH  22  23
ENDBRANCH  21  22
ENDBRANCH  19  21
ENDBRANCH  15  17
ENDBRANCH  13  15
ENDBRANCH   7  13
ENDBRANCH   3   6
ENDBRANCH   1   2
BRANCH   1  30
ATOM     30  C   UNL     1       1.737  -3.727   2.785  1.00  0.00     0.023 C 
BRANCH  30  31
ATOM     31  C   UNL     1       1.377  -5.107   3.326  1.00  0.00     0.023 C 
BRANCH  31  32
ATOM     32  C   UNL     1       1.111  -6.209   2.306  1.00  0.00     0.116 C 
BRANCH  32  33
ATOM     33  N   UNL     1       2.235  -6.498   1.428  1.00  0.00    -0.352 N 
ATOM     34  C   UNL     1       2.930  -7.668   1.221  1.00  0.00     0.251 C 
ATOM     35  H   UNL     1       2.549  -5.732   0.895  1.00  0.00     0.163 HD
ATOM     36  O   UNL     1       3.912  -7.652   0.479  1.00  0.00    -0.269 OA
BRANCH  34  37
ATOM     37  C   UNL     1       2.547  -8.925   1.909  1.00  0.00     0.039 A 
ATOM     38  C   UNL     1       3.558  -9.756   2.405  1.00  0.00     0.014 A 
ATOM     39  C   UNL     1       1.213  -9.303   2.065  1.00  0.00     0.014 A 
ATOM     40  C   UNL     1       3.227 -10.915   3.115  1.00  0.00     0.010 A 
ATOM     41  C   UNL     1       0.883 -10.397   2.863  1.00  0.00     0.010 A 
ATOM     42  C   UNL     1       1.885 -11.229   3.386  1.00  0.00    -0.014 A 
BRANCH  42  43
ATOM     43  C   UNL     1       1.516 -12.442   4.170  1.00  0.00     0.031 A 
ATOM     44  C   UNL     1       0.667 -13.518   3.536  1.00  0.00     0.074 A 
ATOM     45  C   UNL     1       1.903 -12.561   5.457  1.00  0.00     0.049 A 
ATOM     46  N   UNL     1       0.199 -14.622   4.061  1.00  0.00    -0.248 NA
ATOM     47  C   UNL     1       0.261 -13.305   2.138  1.00  0.00     0.031 C 
ATOM     48  C   UNL     1       2.680 -11.567   6.202  1.00  0.00     0.029 A 
ATOM     49  N   UNL     1       1.697 -13.566   6.370  1.00  0.00    -0.354 N 
ATOM     50  C   UNL     1      -0.569 -15.221   3.066  1.00  0.00     0.074 A 
ATOM     51  C   UNL     1      -0.561 -14.322   1.934  1.00  0.00     0.031 C 
ATOM     52  C   UNL     1       2.913 -12.028   7.442  1.00  0.00     0.029 A 
ATOM     53  C   UNL     1       2.269 -13.328   7.600  1.00  0.00     0.049 A 
ATOM     54  H   UNL     1       1.187 -14.383   6.164  1.00  0.00     0.167 HD
ATOM     55  C   UNL     1      -1.196 -16.423   3.082  1.00  0.00     0.034 A 
ATOM     56  C   UNL     1       2.271 -14.070   8.726  1.00  0.00     0.034 A 
ATOM     57  C   UNL     1      -1.170 -17.325   4.207  1.00  0.00     0.049 A 
ATOM     58  C   UNL     1       1.575 -15.410   8.713  1.00  0.00     0.074 A 
ATOM     59  C   UNL     1      -1.722 -18.590   4.310  1.00  0.00     0.029 A 
ATOM     60  N   UNL     1      -0.559 -17.059   5.426  1.00  0.00    -0.354 N 
ATOM     61  N   UNL     1       0.906 -15.987   7.741  1.00  0.00    -0.248 NA
ATOM     62  C   UNL     1       1.654 -16.208   9.943  1.00  0.00     0.031 C 
ATOM     63  C   UNL     1      -1.504 -19.060   5.610  1.00  0.00     0.029 A 
ATOM     64  C   UNL     1      -0.742 -18.126   6.293  1.00  0.00     0.049 A 
ATOM     65  H   UNL     1      -0.069 -16.234   5.643  1.00  0.00     0.167 HD
ATOM     66  C   UNL     1       0.521 -17.233   8.232  1.00  0.00     0.074 A 
ATOM     67  C   UNL     1       1.054 -17.329   9.575  1.00  0.00     0.031 C 
ATOM     68  C   UNL     1      -0.205 -18.210   7.630  1.00  0.00     0.034 A 
BRANCH  55  69
ATOM     69  C   UNL     1      -1.977 -16.821   1.850  1.00  0.00     0.023 A 
ATOM     70  C   UNL     1      -1.351 -17.009   0.604  1.00  0.00     0.031 A 
ATOM     71  C   UNL     1      -3.369 -17.005   1.919  1.00  0.00     0.131 A 
ATOM     72  C   UNL     1      -2.123 -17.298  -0.532  1.00  0.00     0.055 A 
ATOM     73  C   UNL     1      -4.120 -17.375   0.802  1.00  0.00     0.041 A 
ATOM     74  F   UNL     1      -4.027 -16.820   3.075  1.00  0.00    -0.206 F 
ATOM     75  C   UNL     1      -3.499 -17.510  -0.437  1.00  0.00     0.022 A 
BRANCH  72  76
ATOM     76  S   UNL     1      -1.320 -17.260  -2.158  1.00  0.00     0.124 S 
ATOM     77  O   UNL     1      -0.847 -15.879  -2.220  1.00  0.00    -0.237 OA
ATOM     78  O   UNL     1      -0.289 -18.283  -2.026  1.00  0.00    -0.237 OA
ATOM     79  O   UNL     1      -2.404 -17.582  -3.083  1.00  0.00    -0.744 OA
ENDBRANCH  72  76
ENDBRANCH  55  69
BRANCH  56  80
ATOM     80  C   UNL     1       2.947 -13.582   9.966  1.00  0.00     0.023 A 
ATOM     81  C   UNL     1       4.023 -14.285  10.533  1.00  0.00     0.031 A 
ATOM     82  C   UNL     1       2.477 -12.444  10.647  1.00  0.00     0.131 A 
ATOM     83  C   UNL     1       4.547 -13.888  11.774  1.00  0.00     0.055 A 
ATOM     84  C   UNL     1       3.044 -12.015  11.850  1.00  0.00     0.041 A 
ATOM     85  F   UNL     1       1.454 -11.730  10.152  1.00  0.00    -0.206 F 
ATOM     86  C   UNL     1       4.073 -12.750  12.430  1.00  0.00     0.022 A 
BRANCH  83  87
ATOM     87  S   UNL     1       5.777 -14.952  12.579  1.00  0.00     0.124 S 
ATOM     88  O   UNL     1       5.073 -16.228  12.639  1.00  0.00    -0.237 OA
ATOM     89  O   UNL     1       6.896 -14.880  11.644  1.00  0.00    -0.237 OA
ATOM     90  O   UNL     1       6.001 -14.300  13.867  1.00  0.00    -0.744 OA
ENDBRANCH  83  87
ENDBRANCH  56  80
BRANCH  68  91
ATOM     91  C   UNL     1      -0.408 -19.490   8.406  1.00  0.00     0.023 A 
ATOM     92  C   UNL     1      -1.126 -19.521   9.615  1.00  0.00     0.031 A 
ATOM     93  C   UNL     1       0.159 -20.692   7.946  1.00  0.00     0.131 A 
ATOM     94  C   UNL     1      -1.188 -20.708  10.361  1.00  0.00     0.055 A 
ATOM     95  C   UNL     1       0.029 -21.887   8.655  1.00  0.00     0.041 A 
ATOM     96  F   UNL     1       0.857 -20.724   6.799  1.00  0.00    -0.206 F 
ATOM     97  C   UNL     1      -0.631 -21.895   9.880  1.00  0.00     0.022 A 
BRANCH  94  98
ATOM     98  S   UNL     1      -1.891 -20.646  12.032  1.00  0.00     0.124 S 
ATOM     99  O   UNL     1      -1.087 -19.602  12.661  1.00  0.00    -0.237 OA
ATOM    100  O   UNL     1      -3.285 -20.306  11.771  1.00  0.00    -0.237 OA
ATOM    101  O   UNL     1      -1.667 -21.996  12.548  1.00  0.00    -0.744 OA
ENDBRANCH  94  98
ENDBRANCH  68  91
ENDBRANCH  42  43
ENDBRANCH  34  37
ENDBRANCH  32  33
ENDBRANCH  31  32
ENDBRANCH  30  31
ENDBRANCH   1  30
TORSDOF 20
