REMARK SMILES O=C(NCCCCNC(=O)[C@H]1[C@@H](C(=O)NN2CCOCC2)[C@H]2C=C[C@@H]1CC2)c1ccc(-c2c3nc(c(-c4cc(S(=O)(=O)[O-])ccc4F)c4ccc([nH]4)c(-c4cc(S(=O)(=O)[O-])ccc4F)c4nc(c(-c5cc(S(=O)(=O)[O-])ccc5F)c5ccc2[nH]5)C=C4)C=C3)cc1
REMARK SMILES IDX 5 1 4 2 3 3 1 4 2 5 28 7 29 8 90 9 30 10 89 11 31 12 32 13
REMARK SMILES IDX 33 14 83 15 34 16 88 17 82 18 84 19 35 20 87 21 81 22 80 23
REMARK SMILES IDX 36 25 68 26 48 27 67 28 49 29 52 30 66 31 85 32 50 33 51 34
REMARK SMILES IDX 65 36 86 37 53 38 37 39 38 40 46 41 39 42 45 43 47 44 44 45
REMARK SMILES IDX 40 46 41 47 42 48 43 49 69 50 70 51 78 52 71 53 77 54 79 55
REMARK SMILES IDX 76 56 72 57 73 58 74 59 75 60 54 61 55 62 63 63 56 64 62 65
REMARK SMILES IDX 64 66 61 67 57 68 58 69 59 70 60 71 6 72 7 73 8 74 9 75
REMARK SMILES IDX 10 77 11 78 12 79 25 80 22 81 24 82 26 83 23 84 27 85 13 86
REMARK SMILES IDX 14 87 15 88 16 90 17 91 21 92 18 93 20 94 19 95
REMARK H PARENT 3 6 84 24 52 35 8 76 15 89
REMARK Flexibility Score: inf
ROOT
ATOM      1  C   UNL     1       1.224   8.173   3.748  1.00  0.00     0.023 C 
ENDROOT
BRANCH   1   2
ATOM      2  C   UNL     1       0.964   8.286   5.226  1.00  0.00     0.116 C 
BRANCH   2   3
ATOM      3  N   UNL     1       0.975   9.670   5.674  1.00  0.00    -0.352 N 
ATOM      4  O   UNL     1       0.041  11.497   6.634  1.00  0.00    -0.269 OA
ATOM      5  C   UNL     1       0.026  10.286   6.451  1.00  0.00     0.251 C 
ATOM      6  H   UNL     1       1.740  10.221   5.390  1.00  0.00     0.163 HD
BRANCH   5   7
ATOM      7  C   UNL     1      -1.025   9.431   7.027  1.00  0.00     0.039 A 
ATOM      8  C   UNL     1      -0.651   8.266   7.705  1.00  0.00     0.014 A 
ATOM      9  C   UNL     1      -2.365   9.727   6.782  1.00  0.00     0.014 A 
ATOM     10  C   UNL     1      -1.618   7.333   8.035  1.00  0.00     0.010 A 
ATOM     11  C   UNL     1      -3.346   8.840   7.224  1.00  0.00     0.010 A 
ATOM     12  C   UNL     1      -2.977   7.640   7.854  1.00  0.00    -0.014 A 
BRANCH  12  13
ATOM     13  C   UNL     1      -3.985   6.770   8.500  1.00  0.00     0.031 A 
ATOM     14  C   UNL     1      -5.003   6.011   7.703  1.00  0.00     0.074 A 
ATOM     15  C   UNL     1      -3.950   6.692   9.845  1.00  0.00     0.049 A 
ATOM     16  N   UNL     1      -5.974   5.251   8.136  1.00  0.00    -0.248 NA
ATOM     17  C   UNL     1      -4.932   6.123   6.239  1.00  0.00     0.031 C 
ATOM     18  C   UNL     1      -2.994   7.409  10.702  1.00  0.00     0.029 A 
ATOM     19  N   UNL     1      -4.710   5.980  10.731  1.00  0.00    -0.354 N 
ATOM     20  C   UNL     1      -6.650   4.811   7.004  1.00  0.00     0.074 A 
ATOM     21  C   UNL     1      -5.981   5.400   5.862  1.00  0.00     0.031 C 
ATOM     22  C   UNL     1      -3.193   7.059  11.978  1.00  0.00     0.029 A 
ATOM     23  C   UNL     1      -4.351   6.181  12.044  1.00  0.00     0.049 A 
ATOM     24  H   UNL     1      -5.442   5.382  10.457  1.00  0.00     0.167 HD
ATOM     25  C   UNL     1      -7.731   3.995   6.940  1.00  0.00     0.034 A 
ATOM     26  C   UNL     1      -4.919   5.747  13.183  1.00  0.00     0.034 A 
ATOM     27  C   UNL     1      -8.369   3.421   8.103  1.00  0.00     0.049 A 
ATOM     28  C   UNL     1      -6.138   4.877  13.073  1.00  0.00     0.074 A 
ATOM     29  C   UNL     1      -9.440   2.545   8.153  1.00  0.00     0.029 A 
ATOM     30  N   UNL     1      -8.005   3.674   9.421  1.00  0.00    -0.354 N 
ATOM     31  N   UNL     1      -6.750   4.451  11.992  1.00  0.00    -0.248 NA
ATOM     32  C   UNL     1      -6.744   4.432  14.331  1.00  0.00     0.031 C 
ATOM     33  C   UNL     1      -9.768   2.328   9.496  1.00  0.00     0.029 A 
ATOM     34  C   UNL     1      -8.854   3.004  10.289  1.00  0.00     0.049 A 
ATOM     35  H   UNL     1      -7.253   4.247   9.698  1.00  0.00     0.167 HD
ATOM     36  C   UNL     1      -7.809   3.673  12.443  1.00  0.00     0.074 A 
ATOM     37  C   UNL     1      -7.728   3.664  13.891  1.00  0.00     0.031 C 
ATOM     38  C   UNL     1      -8.766   3.028  11.730  1.00  0.00     0.034 A 
BRANCH  25  39
ATOM     39  C   UNL     1      -8.330   3.715   5.584  1.00  0.00     0.023 A 
ATOM     40  C   UNL     1      -7.653   2.968   4.606  1.00  0.00     0.031 A 
ATOM     41  C   UNL     1      -9.622   4.183   5.278  1.00  0.00     0.131 A 
ATOM     42  C   UNL     1      -8.254   2.741   3.357  1.00  0.00     0.055 A 
ATOM     43  C   UNL     1     -10.240   3.900   4.058  1.00  0.00     0.041 A 
ATOM     44  F   UNL     1     -10.309   4.920   6.165  1.00  0.00    -0.206 F 
ATOM     45  C   UNL     1      -9.553   3.181   3.086  1.00  0.00     0.022 A 
BRANCH  42  46
ATOM     46  S   UNL     1      -7.281   1.940   2.052  1.00  0.00     0.124 S 
ATOM     47  O   UNL     1      -6.168   2.874   1.898  1.00  0.00    -0.237 OA
ATOM     48  O   UNL     1      -6.954   0.650   2.648  1.00  0.00    -0.237 OA
ATOM     49  O   UNL     1      -8.202   1.888   0.919  1.00  0.00    -0.744 OA
ENDBRANCH  42  46
ENDBRANCH  25  39
BRANCH  26  50
ATOM     50  C   UNL     1      -4.384   6.177  14.504  1.00  0.00     0.023 A 
ATOM     51  C   UNL     1      -3.899   5.239  15.426  1.00  0.00     0.031 A 
ATOM     52  C   UNL     1      -4.384   7.534  14.881  1.00  0.00     0.131 A 
ATOM     53  C   UNL     1      -3.486   5.662  16.698  1.00  0.00     0.055 A 
ATOM     54  C   UNL     1      -3.907   7.956  16.121  1.00  0.00     0.041 A 
ATOM     55  F   UNL     1      -4.833   8.475  14.035  1.00  0.00    -0.206 F 
ATOM     56  C   UNL     1      -3.471   7.015  17.047  1.00  0.00     0.022 A 
BRANCH  53  57
ATOM     57  S   UNL     1      -3.077   4.401  17.935  1.00  0.00     0.124 S 
ATOM     58  O   UNL     1      -4.279   3.574  17.925  1.00  0.00    -0.237 OA
ATOM     59  O   UNL     1      -1.878   3.797  17.365  1.00  0.00    -0.237 OA
ATOM     60  O   UNL     1      -2.864   5.179  19.154  1.00  0.00    -0.744 OA
ENDBRANCH  53  57
ENDBRANCH  26  50
BRANCH  38  61
ATOM     61  C   UNL     1      -9.774   2.241  12.526  1.00  0.00     0.023 A 
ATOM     62  C   UNL     1     -10.697   2.878  13.374  1.00  0.00     0.031 A 
ATOM     63  C   UNL     1      -9.783   0.837  12.468  1.00  0.00     0.131 A 
ATOM     64  C   UNL     1     -11.546   2.109  14.182  1.00  0.00     0.055 A 
ATOM     65  C   UNL     1     -10.675   0.079  13.226  1.00  0.00     0.041 A 
ATOM     66  F   UNL     1      -8.918   0.180  11.679  1.00  0.00    -0.206 F 
ATOM     67  C   UNL     1     -11.553   0.714  14.101  1.00  0.00     0.022 A 
BRANCH  64  68
ATOM     68  S   UNL     1     -12.568   2.955  15.418  1.00  0.00     0.124 S 
ATOM     69  O   UNL     1     -11.561   3.623  16.237  1.00  0.00    -0.237 OA
ATOM     70  O   UNL     1     -13.400   3.825  14.594  1.00  0.00    -0.237 OA
ATOM     71  O   UNL     1     -13.280   1.863  16.079  1.00  0.00    -0.744 OA
ENDBRANCH  64  68
ENDBRANCH  38  61
ENDBRANCH  12  13
ENDBRANCH   5   7
ENDBRANCH   2   3
ENDBRANCH   1   2
BRANCH   1  72
ATOM     72  C   UNL     1       2.604   8.620   3.306  1.00  0.00     0.023 C 
BRANCH  72  73
ATOM     73  C   UNL     1       3.773   8.530   4.285  1.00  0.00     0.116 C 
BRANCH  73  74
ATOM     74  N   UNL     1       4.216   7.230   4.732  1.00  0.00    -0.356 N 
ATOM     75  C   UNL     1       5.354   6.517   4.535  1.00  0.00     0.224 C 
ATOM     76  H   UNL     1       3.556   6.765   5.296  1.00  0.00     0.163 HD
ATOM     77  O   UNL     1       5.537   5.581   5.328  1.00  0.00    -0.275 OA
BRANCH  75  78
ATOM     78  C   UNL     1       6.429   6.794   3.487  1.00  0.00     0.098 C 
ATOM     79  C   UNL     1       6.087   7.131   2.020  1.00  0.00     0.100 C 
ATOM     80  C   UNL     1       7.521   7.776   4.025  1.00  0.00     0.025 C 
ATOM     81  C   UNL     1       6.716   8.550   1.681  1.00  0.00     0.025 C 
ATOM     82  C   UNL     1       6.964   9.177   4.005  1.00  0.00    -0.027 C 
ATOM     83  C   UNL     1       8.715   7.804   3.027  1.00  0.00     0.009 C 
ATOM     84  C   UNL     1       6.526   9.569   2.795  1.00  0.00    -0.027 C 
ATOM     85  C   UNL     1       8.253   8.369   1.656  1.00  0.00     0.009 C 
BRANCH  79  86
ATOM     86  C   UNL     1       4.709   6.909   1.379  1.00  0.00     0.238 C 
ATOM     87  O   UNL     1       4.300   7.705   0.521  1.00  0.00    -0.273 OA
ATOM     88  N   UNL     1       3.944   5.776   1.563  1.00  0.00    -0.288 N 
ATOM     89  H   UNL     1       3.217   5.628   0.915  1.00  0.00     0.185 HD
BRANCH  88  90
ATOM     90  N   UNL     1       4.088   4.812   2.570  1.00  0.00    -0.217 NA
ATOM     91  C   UNL     1       4.360   3.451   2.063  1.00  0.00     0.136 C 
ATOM     92  C   UNL     1       2.887   4.736   3.450  1.00  0.00     0.136 C 
ATOM     93  C   UNL     1       3.125   2.691   1.543  1.00  0.00     0.177 C 
ATOM     94  C   UNL     1       1.688   3.975   2.873  1.00  0.00     0.177 C 
ATOM     95  O   UNL     1       2.074   2.651   2.510  1.00  0.00    -0.379 OA
ENDBRANCH  88  90
ENDBRANCH  79  86
ENDBRANCH  75  78
ENDBRANCH  73  74
ENDBRANCH  72  73
ENDBRANCH   1  72
TORSDOF 16
