REMARK SMILES CC(C)NC(=O)c1cccc(NC(=O)[C@@H]2[C@H](C(=O)NCCCCNC(=O)c3ccc(-c4c5nc(c(-c6cc(S(=O)(=O)[O-])ccc6F)c6ccc([nH]6)c(-c6cc(S(=O)(=O)[O-])ccc6F)c6nc(c(-c7cc(S(=O)(=O)[O-])ccc7F)c7ccc4[nH]7)C=C6)C=C5)cc3)C2(C)C)c1
REMARK SMILES IDX 21 1 20 2 19 3 17 4 18 5 16 7 15 8 90 9 91 10 92 11 13 12
REMARK SMILES IDX 12 13 14 15 11 16 7 17 8 18 93 19 9 20 10 21 5 22 4 23 6 25
REMARK SMILES IDX 2 26 1 27 3 28 22 29 23 30 24 31 25 32 26 34 27 35 28 36
REMARK SMILES IDX 89 37 29 38 88 39 30 40 31 41 32 42 82 43 33 44 87 45 81 46
REMARK SMILES IDX 83 47 34 48 86 49 80 50 79 51 35 53 67 54 47 55 66 56 48 57
REMARK SMILES IDX 51 58 65 59 84 60 49 61 50 62 64 64 85 65 52 66 36 67 37 68
REMARK SMILES IDX 45 69 38 70 44 71 46 72 43 73 39 74 40 75 41 76 42 77 68 78
REMARK SMILES IDX 69 79 77 80 70 81 76 82 78 83 75 84 71 85 72 86 73 87 74 88
REMARK SMILES IDX 53 89 54 90 62 91 55 92 61 93 63 94 60 95 56 96 57 97 58 98
REMARK SMILES IDX 59 99
REMARK H PARENT 19 6 12 14 4 24 24 33 83 52 51 63
REMARK Flexibility Score: inf
ROOT
ATOM      1  C   UNL     1       6.187   5.477   8.735  1.00  0.00     0.023 C 
ENDROOT
BRANCH   1   2
ATOM      2  C   UNL     1       5.273   4.627   7.848  1.00  0.00     0.116 C 
BRANCH   2   3
ATOM      3  N   UNL     1       4.021   4.286   8.509  1.00  0.00    -0.356 N 
ATOM      4  C   UNL     1       2.783   4.867   8.357  1.00  0.00     0.224 C 
ATOM      5  O   UNL     1       1.841   4.545   9.064  1.00  0.00    -0.275 OA
ATOM      6  H   UNL     1       4.067   3.540   9.151  1.00  0.00     0.163 HD
BRANCH   4   7
ATOM      7  C   UNL     1       2.696   5.943   7.351  1.00  0.00     0.098 C 
ATOM      8  C   UNL     1       2.263   5.580   5.945  1.00  0.00     0.098 C 
ATOM      9  C   UNL     1       1.530   6.665   6.746  1.00  0.00    -0.011 C 
ATOM     10  C   UNL     1       1.714   8.072   6.236  1.00  0.00     0.013 C 
ATOM     11  C   UNL     1       0.162   6.433   7.346  1.00  0.00     0.013 C 
BRANCH   8  12
ATOM     12  C   UNL     1       1.388   4.528   5.388  1.00  0.00     0.228 C 
ATOM     13  N   UNL     1       0.891   4.671   4.102  1.00  0.00    -0.326 N 
ATOM     14  H   UNL     1       0.213   3.995   3.871  1.00  0.00     0.169 HD
ATOM     15  O   UNL     1       1.053   3.557   6.059  1.00  0.00    -0.274 OA
BRANCH  13  16
ATOM     16  C   UNL     1       1.149   5.584   3.048  1.00  0.00     0.041 A 
ATOM     17  C   UNL     1       0.536   6.364   0.814  1.00  0.00     0.041 A 
ATOM     18  C   UNL     1       1.566   7.306   0.839  1.00  0.00     0.014 A 
ATOM     19  C   UNL     1       0.353   5.481   1.894  1.00  0.00     0.040 A 
ATOM     20  C   UNL     1       2.374   7.400   1.958  1.00  0.00     0.003 A 
ATOM     21  C   UNL     1       2.152   6.556   3.049  1.00  0.00     0.026 A 
BRANCH  17  22
ATOM     22  C   UNL     1      -0.284   6.329  -0.416  1.00  0.00     0.251 C 
ATOM     23  N   UNL     1      -1.651   6.324  -0.361  1.00  0.00    -0.350 N 
ATOM     24  H   UNL     1      -2.095   6.270  -1.238  1.00  0.00     0.164 HD
ATOM     25  O   UNL     1       0.274   6.370  -1.510  1.00  0.00    -0.269 OA
BRANCH  23  26
ATOM     26  C   UNL     1      -2.562   6.384   0.776  1.00  0.00     0.076 C 
ATOM     27  C   UNL     1      -3.469   7.605   0.659  1.00  0.00     0.030 C 
ATOM     28  C   UNL     1      -3.376   5.096   0.825  1.00  0.00     0.030 C 
ENDBRANCH  23  26
ENDBRANCH  17  22
ENDBRANCH  13  16
ENDBRANCH   8  12
ENDBRANCH   4   7
ENDBRANCH   2   3
ENDBRANCH   1   2
BRANCH   1  29
ATOM     29  C   UNL     1       6.651   4.785  10.019  1.00  0.00     0.023 C 
BRANCH  29  30
ATOM     30  C   UNL     1       7.346   3.443   9.819  1.00  0.00     0.116 C 
BRANCH  30  31
ATOM     31  N   UNL     1       8.593   3.555   9.079  1.00  0.00    -0.352 N 
ATOM     32  C   UNL     1       9.817   2.993   9.360  1.00  0.00     0.251 C 
ATOM     33  H   UNL     1       8.556   4.108   8.265  1.00  0.00     0.163 HD
ATOM     34  O   UNL     1      10.801   3.322   8.703  1.00  0.00    -0.269 OA
BRANCH  32  35
ATOM     35  C   UNL     1       9.948   2.030  10.478  1.00  0.00     0.039 A 
ATOM     36  C   UNL     1      11.014   2.171  11.370  1.00  0.00     0.014 A 
ATOM     37  C   UNL     1       9.015   1.005  10.661  1.00  0.00     0.014 A 
ATOM     38  C   UNL     1      11.100   1.333  12.486  1.00  0.00     0.010 A 
ATOM     39  C   UNL     1       9.059   0.223  11.814  1.00  0.00     0.010 A 
ATOM     40  C   UNL     1      10.099   0.380  12.743  1.00  0.00    -0.014 A 
BRANCH  40  41
ATOM     41  C   UNL     1      10.126  -0.455  13.976  1.00  0.00     0.031 A 
ATOM     42  C   UNL     1      10.243  -1.953  13.873  1.00  0.00     0.074 A 
ATOM     43  C   UNL     1      10.000   0.129  15.186  1.00  0.00     0.049 A 
ATOM     44  N   UNL     1      10.199  -2.853  14.821  1.00  0.00    -0.248 NA
ATOM     45  C   UNL     1      10.409  -2.513  12.522  1.00  0.00     0.031 C 
ATOM     46  C   UNL     1       9.854   1.568  15.419  1.00  0.00     0.029 A 
ATOM     47  N   UNL     1       9.968  -0.411  16.449  1.00  0.00    -0.354 N 
ATOM     48  C   UNL     1      10.339  -4.083  14.186  1.00  0.00     0.074 A 
ATOM     49  C   UNL     1      10.396  -3.815  12.765  1.00  0.00     0.031 C 
ATOM     50  C   UNL     1       9.771   1.796  16.740  1.00  0.00     0.029 A 
ATOM     51  C   UNL     1       9.800   0.521  17.450  1.00  0.00     0.049 A 
ATOM     52  H   UNL     1      10.056  -1.376  16.623  1.00  0.00     0.167 HD
ATOM     53  C   UNL     1      10.443  -5.317  14.736  1.00  0.00     0.034 A 
ATOM     54  C   UNL     1       9.663   0.366  18.783  1.00  0.00     0.034 A 
ATOM     55  C   UNL     1      10.386  -5.575  16.154  1.00  0.00     0.049 A 
ATOM     56  C   UNL     1       9.713  -1.030  19.363  1.00  0.00     0.074 A 
ATOM     57  C   UNL     1      10.495  -6.787  16.814  1.00  0.00     0.029 A 
ATOM     58  N   UNL     1      10.205  -4.607  17.134  1.00  0.00    -0.354 N 
ATOM     59  N   UNL     1       9.881  -2.177  18.744  1.00  0.00    -0.248 NA
ATOM     60  C   UNL     1       9.570  -1.151  20.820  1.00  0.00     0.031 C 
ATOM     61  C   UNL     1      10.312  -6.563  18.181  1.00  0.00     0.029 A 
ATOM     62  C   UNL     1      10.176  -5.200  18.387  1.00  0.00     0.049 A 
ATOM     63  H   UNL     1      10.111  -3.642  16.963  1.00  0.00     0.167 HD
ATOM     64  C   UNL     1       9.906  -3.145  19.746  1.00  0.00     0.074 A 
ATOM     65  C   UNL     1       9.759  -2.447  21.004  1.00  0.00     0.031 C 
ATOM     66  C   UNL     1      10.039  -4.492  19.636  1.00  0.00     0.034 A 
BRANCH  53  67
ATOM     67  C   UNL     1      10.624  -6.487  13.801  1.00  0.00     0.023 A 
ATOM     68  C   UNL     1      11.777  -6.615  13.005  1.00  0.00     0.031 A 
ATOM     69  C   UNL     1       9.648  -7.495  13.713  1.00  0.00     0.131 A 
ATOM     70  C   UNL     1      11.900  -7.695  12.120  1.00  0.00     0.055 A 
ATOM     71  C   UNL     1       9.812  -8.608  12.886  1.00  0.00     0.041 A 
ATOM     72  F   UNL     1       8.517  -7.415  14.432  1.00  0.00    -0.206 F 
ATOM     73  C   UNL     1      10.939  -8.708  12.075  1.00  0.00     0.022 A 
BRANCH  70  74
ATOM     74  S   UNL     1      13.280  -7.697  10.944  1.00  0.00     0.124 S 
ATOM     75  O   UNL     1      13.026  -6.471  10.191  1.00  0.00    -0.237 OA
ATOM     76  O   UNL     1      14.444  -7.678  11.822  1.00  0.00    -0.237 OA
ATOM     77  O   UNL     1      13.086  -8.934  10.190  1.00  0.00    -0.744 OA
ENDBRANCH  70  74
ENDBRANCH  53  67
BRANCH  54  78
ATOM     78  C   UNL     1       9.432   1.542  19.676  1.00  0.00     0.023 A 
ATOM     79  C   UNL     1      10.315   1.836  20.728  1.00  0.00     0.031 A 
ATOM     80  C   UNL     1       8.271   2.327  19.558  1.00  0.00     0.131 A 
ATOM     81  C   UNL     1       9.982   2.824  21.669  1.00  0.00     0.055 A 
ATOM     82  C   UNL     1       7.983   3.362  20.451  1.00  0.00     0.041 A 
ATOM     83  F   UNL     1       7.388   2.093  18.574  1.00  0.00    -0.206 F 
ATOM     84  C   UNL     1       8.830   3.599  21.528  1.00  0.00     0.022 A 
BRANCH  81  85
ATOM     85  S   UNL     1      10.996   2.969  23.166  1.00  0.00     0.124 S 
ATOM     86  O   UNL     1      10.954   1.605  23.683  1.00  0.00    -0.237 OA
ATOM     87  O   UNL     1      12.276   3.411  22.623  1.00  0.00    -0.237 OA
ATOM     88  O   UNL     1      10.281   3.962  23.965  1.00  0.00    -0.744 OA
ENDBRANCH  81  85
ENDBRANCH  54  78
BRANCH  66  89
ATOM     89  C   UNL     1      10.101  -5.287  20.919  1.00  0.00     0.023 A 
ATOM     90  C   UNL     1       9.007  -5.370  21.798  1.00  0.00     0.031 A 
ATOM     91  C   UNL     1      11.281  -5.967  21.269  1.00  0.00     0.131 A 
ATOM     92  C   UNL     1       9.136  -6.062  23.012  1.00  0.00     0.055 A 
ATOM     93  C   UNL     1      11.381  -6.713  22.445  1.00  0.00     0.041 A 
ATOM     94  F   UNL     1      12.360  -5.922  20.470  1.00  0.00    -0.206 F 
ATOM     95  C   UNL     1      10.309  -6.750  23.331  1.00  0.00     0.022 A 
BRANCH  92  96
ATOM     96  S   UNL     1       7.783  -5.966  24.216  1.00  0.00     0.124 S 
ATOM     97  O   UNL     1       7.675  -4.528  24.438  1.00  0.00    -0.237 OA
ATOM     98  O   UNL     1       6.677  -6.585  23.493  1.00  0.00    -0.237 OA
ATOM     99  O   UNL     1       8.284  -6.734  25.355  1.00  0.00    -0.744 OA
ENDBRANCH  92  96
ENDBRANCH  66  89
ENDBRANCH  40  41
ENDBRANCH  32  35
ENDBRANCH  30  31
ENDBRANCH  29  30
ENDBRANCH   1  29
TORSDOF 18
