REMARK SMILES CC(C)C[NH+]1CC[NH+]([C@H](C)[C@@H](C)C(=O)NCCCCNC(=O)c2ccc(-c3c4nc(c(-c5cc(S(=O)(=O)[O-])ccc5F)c5ccc([nH]5)c(-c5cc(S(=O)(=O)[O-])ccc5F)c5nc(c(-c6cc(S(=O)(=O)[O-])ccc6F)c6ccc3[nH]6)C=C5)C=C4)cc2)CC1
REMARK SMILES IDX 17 1 16 2 15 3 13 4 14 5 11 7 12 8 9 9 10 10 8 11 5 12 6 13
REMARK SMILES IDX 87 14 7 16 86 17 4 19 2 20 1 21 3 22 18 23 19 24 20 25 21 26
REMARK SMILES IDX 22 28 23 29 24 30 85 31 25 32 84 33 26 34 27 35 28 36 78 37
REMARK SMILES IDX 29 38 83 39 77 40 79 41 30 42 82 43 76 44 75 45 31 47 63 48
REMARK SMILES IDX 43 49 62 50 44 51 47 52 61 53 80 54 45 55 46 56 60 58 81 59
REMARK SMILES IDX 48 60 32 61 33 62 41 63 34 64 40 65 42 66 39 67 35 68 36 69
REMARK SMILES IDX 37 70 38 71 64 72 65 73 73 74 66 75 72 76 74 77 71 78 67 79
REMARK SMILES IDX 68 80 69 81 70 82 49 83 50 84 58 85 51 86 57 87 59 88 56 89
REMARK SMILES IDX 52 90 53 91 54 92 55 93
REMARK H PARENT 15 6 5 15 8 18 20 27 79 46 47 57
REMARK Flexibility Score: inf
ROOT
ATOM      1  C   UNL     1      -2.526   7.585   1.264  1.00  0.00     0.023 C 
ENDROOT
BRANCH   1   2
ATOM      2  C   UNL     1      -1.024   7.699   1.502  1.00  0.00     0.116 C 
BRANCH   2   3
ATOM      3  N   UNL     1      -0.628   7.054   2.736  1.00  0.00    -0.356 N 
ATOM      4  C   UNL     1       0.048   5.896   2.953  1.00  0.00     0.228 C 
ATOM      5  O   UNL     1       0.255   5.567   4.126  1.00  0.00    -0.275 OA
ATOM      6  H   UNL     1      -0.891   7.536   3.554  1.00  0.00     0.163 HD
BRANCH   4   7
ATOM      7  C   UNL     1       0.614   5.057   1.813  1.00  0.00     0.133 C 
ATOM      8  C   UNL     1       1.779   5.809   1.154  1.00  0.00     0.024 C 
BRANCH   7   9
ATOM      9  C   UNL     1      -0.459   4.483   0.836  1.00  0.00     0.193 C 
ATOM     10  C   UNL     1       0.238   3.706  -0.301  1.00  0.00     0.076 C 
BRANCH   9  11
ATOM     11  N   UNL     1      -1.533   3.721   1.522  1.00  0.00    -0.323 N 
ATOM     12  N   UNL     1      -3.003   1.138   1.825  1.00  0.00    -0.325 N 
ATOM     13  C   UNL     1      -2.118   1.620   2.887  1.00  0.00     0.324 C 
ATOM     14  C   UNL     1      -3.653   2.328   1.245  1.00  0.00     0.324 C 
ATOM     15  H   UNL     1      -3.664   0.500   2.267  1.00  0.00     0.348 HD
ATOM     16  C   UNL     1      -1.076   2.685   2.463  1.00  0.00     0.324 C 
ATOM     17  C   UNL     1      -2.652   3.336   0.646  1.00  0.00     0.324 C 
ATOM     18  H   UNL     1      -1.948   4.405   2.154  1.00  0.00     0.348 HD
BRANCH  12  19
ATOM     19  C   UNL     1      -2.454   0.224   0.806  1.00  0.00     0.265 C 
BRANCH  19  20
ATOM     20  C   UNL     1      -0.936   0.077   0.513  1.00  0.00     0.038 C 
ATOM     21  C   UNL     1      -0.169  -0.706   1.584  1.00  0.00     0.013 C 
ATOM     22  C   UNL     1      -0.726  -0.631  -0.834  1.00  0.00     0.013 C 
ENDBRANCH  19  20
ENDBRANCH  12  19
ENDBRANCH   9  11
ENDBRANCH   7   9
ENDBRANCH   4   7
ENDBRANCH   2   3
ENDBRANCH   1   2
BRANCH   1  23
ATOM     23  C   UNL     1      -3.381   8.414   2.223  1.00  0.00     0.023 C 
BRANCH  23  24
ATOM     24  C   UNL     1      -2.990   9.884   2.325  1.00  0.00     0.116 C 
BRANCH  24  25
ATOM     25  N   UNL     1      -2.938  10.545   1.031  1.00  0.00    -0.352 N 
ATOM     26  C   UNL     1      -3.372  11.800   0.678  1.00  0.00     0.251 C 
ATOM     27  H   UNL     1      -2.534  10.018   0.304  1.00  0.00     0.163 HD
ATOM     28  O   UNL     1      -3.376  12.128  -0.501  1.00  0.00    -0.269 OA
BRANCH  26  29
ATOM     29  C   UNL     1      -3.866  12.725   1.721  1.00  0.00     0.039 A 
ATOM     30  C   UNL     1      -5.032  13.450   1.469  1.00  0.00     0.014 A 
ATOM     31  C   UNL     1      -3.200  12.867   2.942  1.00  0.00     0.014 A 
ATOM     32  C   UNL     1      -5.557  14.274   2.464  1.00  0.00     0.010 A 
ATOM     33  C   UNL     1      -3.775  13.619   3.964  1.00  0.00     0.010 A 
ATOM     34  C   UNL     1      -4.956  14.337   3.734  1.00  0.00    -0.014 A 
BRANCH  34  35
ATOM     35  C   UNL     1      -5.573  15.148   4.816  1.00  0.00     0.031 A 
ATOM     36  C   UNL     1      -4.846  16.328   5.401  1.00  0.00     0.074 A 
ATOM     37  C   UNL     1      -6.795  14.808   5.274  1.00  0.00     0.049 A 
ATOM     38  N   UNL     1      -5.252  17.181   6.306  1.00  0.00    -0.248 NA
ATOM     39  C   UNL     1      -3.474  16.565   4.928  1.00  0.00     0.031 C 
ATOM     40  C   UNL     1      -7.569  13.646   4.829  1.00  0.00     0.029 A 
ATOM     41  N   UNL     1      -7.608  15.409   6.201  1.00  0.00    -0.354 N 
ATOM     42  C   UNL     1      -4.189  18.056   6.508  1.00  0.00     0.074 A 
ATOM     43  C   UNL     1      -3.096  17.581   5.689  1.00  0.00     0.031 C 
ATOM     44  C   UNL     1      -8.763  13.652   5.439  1.00  0.00     0.029 A 
ATOM     45  C   UNL     1      -8.827  14.788   6.352  1.00  0.00     0.049 A 
ATOM     46  H   UNL     1      -7.344  16.209   6.710  1.00  0.00     0.167 HD
ATOM     47  C   UNL     1      -4.140  19.169   7.282  1.00  0.00     0.034 A 
ATOM     48  C   UNL     1      -9.879  15.102   7.133  1.00  0.00     0.034 A 
ATOM     49  C   UNL     1      -5.242  19.626   8.096  1.00  0.00     0.049 A 
ATOM     50  C   UNL     1      -9.795  16.337   7.993  1.00  0.00     0.074 A 
ATOM     51  C   UNL     1      -5.321  20.763   8.882  1.00  0.00     0.029 A 
ATOM     52  N   UNL     1      -6.455  18.963   8.241  1.00  0.00    -0.354 N 
ATOM     53  N   UNL     1      -8.808  17.196   8.117  1.00  0.00    -0.248 NA
ATOM     54  C   UNL     1     -10.977  16.654   8.802  1.00  0.00     0.031 C 
ATOM     55  C   UNL     1      -6.545  20.746   9.559  1.00  0.00     0.029 A 
ATOM     56  C   UNL     1      -7.273  19.648   9.129  1.00  0.00     0.049 A 
ATOM     57  H   UNL     1      -6.700  18.129   7.779  1.00  0.00     0.167 HD
ATOM     58  C   UNL     1      -9.264  18.170   9.001  1.00  0.00     0.074 A 
ATOM     59  C   UNL     1     -10.625  17.808   9.345  1.00  0.00     0.031 C 
ATOM     60  C   UNL     1      -8.619  19.262   9.488  1.00  0.00     0.034 A 
BRANCH  47  61
ATOM     61  C   UNL     1      -2.845  19.950   7.298  1.00  0.00     0.023 A 
ATOM     62  C   UNL     1      -2.321  20.537   6.132  1.00  0.00     0.031 A 
ATOM     63  C   UNL     1      -2.110  20.091   8.488  1.00  0.00     0.131 A 
ATOM     64  C   UNL     1      -1.067  21.168   6.164  1.00  0.00     0.055 A 
ATOM     65  C   UNL     1      -0.905  20.797   8.532  1.00  0.00     0.041 A 
ATOM     66  F   UNL     1      -2.543  19.534   9.630  1.00  0.00    -0.206 F 
ATOM     67  C   UNL     1      -0.369  21.326   7.363  1.00  0.00     0.022 A 
BRANCH  64  68
ATOM     68  S   UNL     1      -0.295  21.643   4.593  1.00  0.00     0.124 S 
ATOM     69  O   UNL     1      -0.232  20.361   3.896  1.00  0.00    -0.237 OA
ATOM     70  O   UNL     1      -1.240  22.616   4.058  1.00  0.00    -0.237 OA
ATOM     71  O   UNL     1       1.000  22.187   4.998  1.00  0.00    -0.744 OA
ENDBRANCH  64  68
ENDBRANCH  47  61
BRANCH  48  72
ATOM     72  C   UNL     1     -11.102  14.246   7.140  1.00  0.00     0.023 A 
ATOM     73  C   UNL     1     -12.345  14.751   6.725  1.00  0.00     0.031 A 
ATOM     74  C   UNL     1     -11.054  12.921   7.609  1.00  0.00     0.131 A 
ATOM     75  C   UNL     1     -13.497  13.957   6.839  1.00  0.00     0.055 A 
ATOM     76  C   UNL     1     -12.192  12.115   7.662  1.00  0.00     0.041 A 
ATOM     77  F   UNL     1      -9.891  12.386   8.014  1.00  0.00    -0.206 F 
ATOM     78  C   UNL     1     -13.426  12.638   7.291  1.00  0.00     0.022 A 
BRANCH  75  79
ATOM     79  S   UNL     1     -15.109  14.708   6.481  1.00  0.00     0.124 S 
ATOM     80  O   UNL     1     -15.130  15.828   7.415  1.00  0.00    -0.237 OA
ATOM     81  O   UNL     1     -14.976  15.051   5.069  1.00  0.00    -0.237 OA
ATOM     82  O   UNL     1     -16.056  13.633   6.772  1.00  0.00    -0.744 OA
ENDBRANCH  75  79
ENDBRANCH  48  72
BRANCH  60  83
ATOM     83  C   UNL     1      -9.404  20.151  10.425  1.00  0.00     0.023 A 
ATOM     84  C   UNL     1      -9.886  19.678  11.659  1.00  0.00     0.031 A 
ATOM     85  C   UNL     1      -9.727  21.469  10.056  1.00  0.00     0.131 A 
ATOM     86  C   UNL     1     -10.742  20.477  12.430  1.00  0.00     0.055 A 
ATOM     87  C   UNL     1     -10.510  22.291  10.869  1.00  0.00     0.041 A 
ATOM     88  F   UNL     1      -9.298  21.978   8.890  1.00  0.00    -0.206 F 
ATOM     89  C   UNL     1     -11.042  21.788  12.053  1.00  0.00     0.022 A 
BRANCH  86  90
ATOM     90  S   UNL     1     -11.585  19.724  13.850  1.00  0.00     0.124 S 
ATOM     91  O   UNL     1     -12.248  18.579  13.235  1.00  0.00    -0.237 OA
ATOM     92  O   UNL     1     -10.474  19.415  14.743  1.00  0.00    -0.237 OA
ATOM     93  O   UNL     1     -12.480  20.782  14.316  1.00  0.00    -0.744 OA
ENDBRANCH  86  90
ENDBRANCH  60  83
ENDBRANCH  34  35
ENDBRANCH  26  29
ENDBRANCH  24  25
ENDBRANCH  23  24
ENDBRANCH   1  23
TORSDOF 18
