REMARK SMILES CCC(=O)Nc1ccc(NC(=O)[C@@H]2CC=CC[C@@H]2C(=O)NCCCCNC(=O)c2ccc(-c3c4nc(c(-c5cc(S(=O)(=O)[O-])ccc5F)c5ccc([nH]5)c(-c5cc(S(=O)(=O)[O-])ccc5F)c5nc(c(-c6cc(S(=O)(=O)[O-])ccc6F)c6ccc3[nH]6)C=C5)C=C4)cc2)cc1
REMARK SMILES IDX 23 1 22 2 21 3 19 4 20 5 18 7 13 8 14 9 15 10 17 11 16 12
REMARK SMILES IDX 11 13 10 14 12 16 9 17 6 18 7 19 93 20 8 21 92 22 5 23 3 24
REMARK SMILES IDX 4 25 2 27 1 28 24 29 25 30 26 31 27 32 28 34 29 35 30 36
REMARK SMILES IDX 91 37 31 38 90 39 32 40 33 41 34 42 84 43 35 44 89 45 83 46
REMARK SMILES IDX 85 47 36 48 88 49 82 50 81 51 37 53 69 54 49 55 68 56 50 57
REMARK SMILES IDX 53 58 67 59 86 60 51 61 52 62 66 64 87 65 54 66 38 67 39 68
REMARK SMILES IDX 47 69 40 70 46 71 48 72 45 73 41 74 42 75 43 76 44 77 70 78
REMARK SMILES IDX 71 79 79 80 72 81 78 82 80 83 77 84 73 85 74 86 75 87 76 88
REMARK SMILES IDX 55 89 56 90 64 91 57 92 63 93 65 94 62 95 58 96 59 97 60 98
REMARK SMILES IDX 61 99
REMARK H PARENT 21 6 10 15 5 26 26 33 85 52 53 63
REMARK Flexibility Score: inf
ROOT
ATOM      1  C   UNL     1       5.485   5.348   2.116  1.00  0.00     0.023 C 
ENDROOT
BRANCH   1   2
ATOM      2  C   UNL     1       5.573   4.398   0.916  1.00  0.00     0.116 C 
BRANCH   2   3
ATOM      3  N   UNL     1       6.888   4.245   0.322  1.00  0.00    -0.356 N 
ATOM      4  C   UNL     1       7.581   3.120  -0.028  1.00  0.00     0.224 C 
ATOM      5  O   UNL     1       8.409   3.245  -0.934  1.00  0.00    -0.275 OA
ATOM      6  H   UNL     1       7.359   5.091   0.141  1.00  0.00     0.163 HD
BRANCH   4   7
ATOM      7  C   UNL     1       7.322   1.766   0.638  1.00  0.00     0.095 C 
ATOM      8  C   UNL     1       7.784   1.561   2.106  1.00  0.00     0.095 C 
ATOM      9  C   UNL     1       8.926   0.575   2.420  1.00  0.00     0.041 C 
ATOM     10  C   UNL     1       9.583  -0.070   1.248  1.00  0.00    -0.030 C 
ATOM     11  C   UNL     1       7.760   0.614  -0.301  1.00  0.00     0.041 C 
ATOM     12  C   UNL     1       9.069  -0.037   0.017  1.00  0.00    -0.030 C 
BRANCH   8  13
ATOM     13  C   UNL     1       7.928   2.768   3.020  1.00  0.00     0.228 C 
ATOM     14  N   UNL     1       8.807   3.790   2.875  1.00  0.00    -0.326 N 
ATOM     15  H   UNL     1       8.780   4.430   3.623  1.00  0.00     0.169 HD
ATOM     16  O   UNL     1       7.167   2.848   3.997  1.00  0.00    -0.274 OA
BRANCH  14  17
ATOM     17  C   UNL     1       9.745   4.136   1.896  1.00  0.00     0.041 A 
ATOM     18  C   UNL     1      11.295   5.066  -0.264  1.00  0.00     0.041 A 
ATOM     19  C   UNL     1      11.373   3.734   0.141  1.00  0.00     0.028 A 
ATOM     20  C   UNL     1      10.440   5.915   0.418  1.00  0.00     0.028 A 
ATOM     21  C   UNL     1      10.599   3.272   1.221  1.00  0.00     0.028 A 
ATOM     22  C   UNL     1       9.745   5.480   1.537  1.00  0.00     0.028 A 
BRANCH  18  23
ATOM     23  N   UNL     1      12.019   5.493  -1.384  1.00  0.00    -0.326 N 
ATOM     24  C   UNL     1      12.440   6.750  -1.733  1.00  0.00     0.224 C 
ATOM     25  O   UNL     1      12.817   6.945  -2.891  1.00  0.00    -0.275 OA
ATOM     26  H   UNL     1      12.265   4.781  -2.018  1.00  0.00     0.169 HD
BRANCH  24  27
ATOM     27  C   UNL     1      12.565   7.844  -0.679  1.00  0.00     0.097 C 
ATOM     28  C   UNL     1      11.507   8.932  -0.777  1.00  0.00     0.014 C 
ENDBRANCH  24  27
ENDBRANCH  18  23
ENDBRANCH  14  17
ENDBRANCH   8  13
ENDBRANCH   4   7
ENDBRANCH   2   3
ENDBRANCH   1   2
BRANCH   1  29
ATOM     29  C   UNL     1       6.115   6.741   2.020  1.00  0.00     0.023 C 
BRANCH  29  30
ATOM     30  C   UNL     1       5.862   7.555   0.757  1.00  0.00     0.116 C 
BRANCH  30  31
ATOM     31  N   UNL     1       4.525   8.111   0.742  1.00  0.00    -0.352 N 
ATOM     32  C   UNL     1       4.115   9.416   0.893  1.00  0.00     0.251 C 
ATOM     33  H   UNL     1       3.802   7.458   0.602  1.00  0.00     0.163 HD
ATOM     34  O   UNL     1       2.935   9.632   1.159  1.00  0.00    -0.269 OA
BRANCH  32  35
ATOM     35  C   UNL     1       5.059  10.555   0.746  1.00  0.00     0.039 A 
ATOM     36  C   UNL     1       4.907  11.667   1.584  1.00  0.00     0.014 A 
ATOM     37  C   UNL     1       6.022  10.590  -0.268  1.00  0.00     0.014 A 
ATOM     38  C   UNL     1       5.728  12.791   1.425  1.00  0.00     0.010 A 
ATOM     39  C   UNL     1       6.878  11.691  -0.390  1.00  0.00     0.010 A 
ATOM     40  C   UNL     1       6.731  12.812   0.444  1.00  0.00    -0.014 A 
BRANCH  40  41
ATOM     41  C   UNL     1       7.596  14.011   0.243  1.00  0.00     0.031 A 
ATOM     42  C   UNL     1       7.509  14.799  -1.041  1.00  0.00     0.074 A 
ATOM     43  C   UNL     1       8.487  14.372   1.187  1.00  0.00     0.049 A 
ATOM     44  N   UNL     1       8.239  15.805  -1.451  1.00  0.00    -0.248 NA
ATOM     45  C   UNL     1       6.476  14.378  -2.000  1.00  0.00     0.031 C 
ATOM     46  C   UNL     1       8.687  13.687   2.466  1.00  0.00     0.029 A 
ATOM     47  N   UNL     1       9.405  15.395   1.215  1.00  0.00    -0.354 N 
ATOM     48  C   UNL     1       7.766  16.130  -2.719  1.00  0.00     0.074 A 
ATOM     49  C   UNL     1       6.722  15.175  -3.029  1.00  0.00     0.031 C 
ATOM     50  C   UNL     1       9.659  14.310   3.152  1.00  0.00     0.029 A 
ATOM     51  C   UNL     1      10.182  15.413   2.350  1.00  0.00     0.049 A 
ATOM     52  H   UNL     1       9.497  16.054   0.489  1.00  0.00     0.167 HD
ATOM     53  C   UNL     1       8.147  17.142  -3.540  1.00  0.00     0.034 A 
ATOM     54  C   UNL     1      11.211  16.212   2.700  1.00  0.00     0.034 A 
ATOM     55  C   UNL     1       9.180  18.097  -3.217  1.00  0.00     0.049 A 
ATOM     56  C   UNL     1      11.632  17.318   1.764  1.00  0.00     0.074 A 
ATOM     57  C   UNL     1       9.625  19.174  -3.965  1.00  0.00     0.029 A 
ATOM     58  N   UNL     1       9.931  18.092  -2.049  1.00  0.00    -0.354 N 
ATOM     59  N   UNL     1      11.155  17.624   0.579  1.00  0.00    -0.248 NA
ATOM     60  C   UNL     1      12.720  18.196   2.217  1.00  0.00     0.031 C 
ATOM     61  C   UNL     1      10.678  19.786  -3.275  1.00  0.00     0.029 A 
ATOM     62  C   UNL     1      10.845  19.135  -2.064  1.00  0.00     0.049 A 
ATOM     63  H   UNL     1       9.828  17.442  -1.316  1.00  0.00     0.167 HD
ATOM     64  C   UNL     1      11.866  18.747   0.163  1.00  0.00     0.074 A 
ATOM     65  C   UNL     1      12.790  19.074   1.228  1.00  0.00     0.031 C 
ATOM     66  C   UNL     1      11.763  19.448  -0.996  1.00  0.00     0.034 A 
BRANCH  53  67
ATOM     67  C   UNL     1       7.453  17.250  -4.878  1.00  0.00     0.023 A 
ATOM     68  C   UNL     1       6.077  17.521  -4.972  1.00  0.00     0.031 A 
ATOM     69  C   UNL     1       8.169  17.063  -6.074  1.00  0.00     0.131 A 
ATOM     70  C   UNL     1       5.446  17.524  -6.226  1.00  0.00     0.055 A 
ATOM     71  C   UNL     1       7.550  17.147  -7.324  1.00  0.00     0.041 A 
ATOM     72  F   UNL     1       9.482  16.785  -6.049  1.00  0.00    -0.206 F 
ATOM     73  C   UNL     1       6.178  17.363  -7.404  1.00  0.00     0.022 A 
BRANCH  70  74
ATOM     74  S   UNL     1       3.635  17.607  -6.282  1.00  0.00     0.124 S 
ATOM     75  O   UNL     1       3.262  16.399  -5.551  1.00  0.00    -0.237 OA
ATOM     76  O   UNL     1       3.355  18.871  -5.614  1.00  0.00    -0.237 OA
ATOM     77  O   UNL     1       3.336  17.578  -7.714  1.00  0.00    -0.744 OA
ENDBRANCH  70  74
ENDBRANCH  53  67
BRANCH  54  78
ATOM     78  C   UNL     1      11.941  15.990   3.983  1.00  0.00     0.023 A 
ATOM     79  C   UNL     1      11.932  16.958   5.000  1.00  0.00     0.031 A 
ATOM     80  C   UNL     1      12.706  14.828   4.186  1.00  0.00     0.131 A 
ATOM     81  C   UNL     1      12.716  16.771   6.150  1.00  0.00     0.055 A 
ATOM     82  C   UNL     1      13.440  14.622   5.356  1.00  0.00     0.041 A 
ATOM     83  F   UNL     1      12.746  13.868   3.248  1.00  0.00    -0.206 F 
ATOM     84  C   UNL     1      13.460  15.605   6.340  1.00  0.00     0.022 A 
BRANCH  81  85
ATOM     85  S   UNL     1      12.827  18.124   7.354  1.00  0.00     0.124 S 
ATOM     86  O   UNL     1      13.293  19.227   6.521  1.00  0.00    -0.237 OA
ATOM     87  O   UNL     1      11.452  18.216   7.831  1.00  0.00    -0.237 OA
ATOM     88  O   UNL     1      13.793  17.630   8.333  1.00  0.00    -0.744 OA
ENDBRANCH  81  85
ENDBRANCH  54  78
BRANCH  66  89
ATOM     89  C   UNL     1      12.641  20.666  -1.141  1.00  0.00     0.023 A 
ATOM     90  C   UNL     1      14.039  20.564  -1.257  1.00  0.00     0.031 A 
ATOM     91  C   UNL     1      12.069  21.951  -1.151  1.00  0.00     0.131 A 
ATOM     92  C   UNL     1      14.821  21.727  -1.323  1.00  0.00     0.055 A 
ATOM     93  C   UNL     1      12.848  23.102  -1.274  1.00  0.00     0.041 A 
ATOM     94  F   UNL     1      10.739  22.107  -1.042  1.00  0.00    -0.206 F 
ATOM     95  C   UNL     1      14.233  22.994  -1.348  1.00  0.00     0.022 A 
BRANCH  92  96
ATOM     96  S   UNL     1      16.628  21.565  -1.292  1.00  0.00     0.124 S 
ATOM     97  O   UNL     1      16.849  20.873  -0.027  1.00  0.00    -0.237 OA
ATOM     98  O   UNL     1      16.893  20.788  -2.499  1.00  0.00    -0.237 OA
ATOM     99  O   UNL     1      17.097  22.949  -1.332  1.00  0.00    -0.744 OA
ENDBRANCH  92  96
ENDBRANCH  66  89
ENDBRANCH  40  41
ENDBRANCH  32  35
ENDBRANCH  30  31
ENDBRANCH  29  30
ENDBRANCH   1  29
TORSDOF 18
