REMARK SMILES O=C(NCCCCNC(=O)c1cn(-c2ncnc3ccccc23)cn1)c1ccc(-c2c3nc(c(-c4cc(S(=O)(=O)[O-])ccc4F)c4ccc([nH]4)c(-c4cc(S(=O)(=O)[O-])ccc4F)c4nc(c(-c5cc(S(=O)(=O)[O-])ccc5F)c5ccc2[nH]5)C=C4)C=C3)cc1
REMARK SMILES IDX 4 1 3 2 1 3 2 4 26 6 27 7 88 8 28 9 87 10 29 11 30 12 31 13
REMARK SMILES IDX 81 14 32 15 86 16 80 17 82 18 33 19 85 20 79 21 78 22 34 24
REMARK SMILES IDX 66 25 46 26 65 27 47 28 50 29 64 30 83 31 48 32 49 33 63 35
REMARK SMILES IDX 84 36 51 37 35 38 36 39 44 40 37 41 43 42 45 43 42 44 38 45
REMARK SMILES IDX 39 46 40 47 41 48 67 49 68 50 76 51 69 52 75 53 77 54 74 55
REMARK SMILES IDX 70 56 71 57 72 58 73 59 52 60 53 61 61 62 54 63 60 64 62 65
REMARK SMILES IDX 59 66 55 67 56 68 57 69 58 70 5 71 6 72 7 73 8 74 9 75 10 77
REMARK SMILES IDX 11 78 12 79 25 80 13 81 24 82 14 83 15 84 23 85 16 86 18 87
REMARK SMILES IDX 22 88 17 89 19 90 21 91 20 92
REMARK H PARENT 3 5 82 23 50 34 8 76
REMARK Flexibility Score: inf
ROOT
ATOM      1  C   UNL     1       4.749  -0.772   0.633  1.00  0.00     0.116 C 
ENDROOT
BRANCH   1   2
ATOM      2  N   UNL     1       3.356  -0.902   0.260  1.00  0.00    -0.352 N 
ATOM      3  O   UNL     1       1.316  -0.467  -0.458  1.00  0.00    -0.269 OA
ATOM      4  C   UNL     1       2.319  -0.022   0.109  1.00  0.00     0.251 C 
ATOM      5  H   UNL     1       3.097  -1.834   0.072  1.00  0.00     0.163 HD
BRANCH   4   6
ATOM      6  C   UNL     1       2.289   1.370   0.639  1.00  0.00     0.039 A 
ATOM      7  C   UNL     1       3.396   2.135   1.008  1.00  0.00     0.014 A 
ATOM      8  C   UNL     1       1.006   1.932   0.787  1.00  0.00     0.014 A 
ATOM      9  C   UNL     1       3.221   3.392   1.591  1.00  0.00     0.010 A 
ATOM     10  C   UNL     1       0.826   3.185   1.364  1.00  0.00     0.010 A 
ATOM     11  C   UNL     1       1.935   3.906   1.796  1.00  0.00    -0.014 A 
BRANCH  11  12
ATOM     12  C   UNL     1       1.788   5.294   2.246  1.00  0.00     0.031 A 
ATOM     13  C   UNL     1       2.262   6.292   1.245  1.00  0.00     0.074 A 
ATOM     14  C   UNL     1       1.135   5.681   3.363  1.00  0.00     0.049 A 
ATOM     15  N   UNL     1       3.249   7.118   1.351  1.00  0.00    -0.248 NA
ATOM     16  C   UNL     1       1.657   6.265  -0.098  1.00  0.00     0.031 C 
ATOM     17  C   UNL     1       0.389   4.838   4.298  1.00  0.00     0.029 A 
ATOM     18  N   UNL     1       0.913   6.941   3.851  1.00  0.00    -0.354 N 
ATOM     19  C   UNL     1       3.239   7.882   0.186  1.00  0.00     0.074 A 
ATOM     20  C   UNL     1       2.383   7.185  -0.735  1.00  0.00     0.031 C 
ATOM     21  C   UNL     1      -0.377   5.619   5.096  1.00  0.00     0.029 A 
ATOM     22  C   UNL     1      -0.091   7.019   4.819  1.00  0.00     0.049 A 
ATOM     23  H   UNL     1       1.420   7.727   3.545  1.00  0.00     0.167 HD
ATOM     24  C   UNL     1       3.740   9.149   0.166  1.00  0.00     0.034 A 
ATOM     25  C   UNL     1      -0.685   8.141   5.321  1.00  0.00     0.034 A 
ATOM     26  C   UNL     1       4.611   9.379   1.297  1.00  0.00     0.049 A 
ATOM     27  C   UNL     1       0.246   9.269   5.079  1.00  0.00     0.074 A 
ATOM     28  C   UNL     1       5.758   8.774   1.777  1.00  0.00     0.029 A 
ATOM     29  N   UNL     1       4.134  10.137   2.343  1.00  0.00    -0.354 N 
ATOM     30  N   UNL     1       1.407   9.376   5.662  1.00  0.00    -0.248 NA
ATOM     31  C   UNL     1       0.104  10.018   3.840  1.00  0.00     0.031 C 
ATOM     32  C   UNL     1       5.608   8.781   3.195  1.00  0.00     0.029 A 
ATOM     33  C   UNL     1       4.430   9.464   3.501  1.00  0.00     0.049 A 
ATOM     34  H   UNL     1       3.669  11.002   2.272  1.00  0.00     0.167 HD
ATOM     35  C   UNL     1       2.266   9.810   4.665  1.00  0.00     0.074 A 
ATOM     36  C   UNL     1       1.391  10.281   3.592  1.00  0.00     0.031 C 
ATOM     37  C   UNL     1       3.593   9.489   4.684  1.00  0.00     0.034 A 
BRANCH  24  38
ATOM     38  C   UNL     1       3.148  10.298  -0.630  1.00  0.00     0.023 A 
ATOM     39  C   UNL     1       3.752  11.561  -0.469  1.00  0.00     0.031 A 
ATOM     40  C   UNL     1       1.883  10.304  -1.260  1.00  0.00     0.131 A 
ATOM     41  C   UNL     1       3.055  12.742  -0.777  1.00  0.00     0.055 A 
ATOM     42  C   UNL     1       1.224  11.480  -1.633  1.00  0.00     0.041 A 
ATOM     43  F   UNL     1       1.167   9.194  -1.469  1.00  0.00    -0.206 F 
ATOM     44  C   UNL     1       1.791  12.711  -1.355  1.00  0.00     0.022 A 
BRANCH  41  45
ATOM     45  S   UNL     1       3.751  14.315  -0.212  1.00  0.00     0.124 S 
ATOM     46  O   UNL     1       3.914  14.062   1.215  1.00  0.00    -0.237 OA
ATOM     47  O   UNL     1       4.978  14.398  -0.997  1.00  0.00    -0.237 OA
ATOM     48  O   UNL     1       2.719  15.287  -0.563  1.00  0.00    -0.744 OA
ENDBRANCH  41  45
ENDBRANCH  24  38
BRANCH  25  49
ATOM     49  C   UNL     1      -2.121   8.341   5.697  1.00  0.00     0.023 A 
ATOM     50  C   UNL     1      -2.582   9.417   6.495  1.00  0.00     0.031 A 
ATOM     51  C   UNL     1      -3.115   7.582   5.039  1.00  0.00     0.131 A 
ATOM     52  C   UNL     1      -3.971   9.687   6.605  1.00  0.00     0.055 A 
ATOM     53  C   UNL     1      -4.481   7.853   5.152  1.00  0.00     0.041 A 
ATOM     54  F   UNL     1      -2.787   6.599   4.186  1.00  0.00    -0.206 F 
ATOM     55  C   UNL     1      -4.915   8.913   5.928  1.00  0.00     0.022 A 
BRANCH  52  56
ATOM     56  S   UNL     1      -4.586  11.115   7.568  1.00  0.00     0.124 S 
ATOM     57  O   UNL     1      -4.280  10.723   8.938  1.00  0.00    -0.237 OA
ATOM     58  O   UNL     1      -3.814  12.223   7.019  1.00  0.00    -0.237 OA
ATOM     59  O   UNL     1      -6.015  11.153   7.249  1.00  0.00    -0.744 OA
ENDBRANCH  52  56
ENDBRANCH  25  49
BRANCH  37  60
ATOM     60  C   UNL     1       4.190   8.929   5.959  1.00  0.00     0.023 A 
ATOM     61  C   UNL     1       3.735   7.773   6.634  1.00  0.00     0.031 A 
ATOM     62  C   UNL     1       5.357   9.548   6.442  1.00  0.00     0.131 A 
ATOM     63  C   UNL     1       4.441   7.290   7.755  1.00  0.00     0.055 A 
ATOM     64  C   UNL     1       6.064   9.054   7.535  1.00  0.00     0.041 A 
ATOM     65  F   UNL     1       5.854  10.636   5.829  1.00  0.00    -0.206 F 
ATOM     66  C   UNL     1       5.605   7.925   8.200  1.00  0.00     0.022 A 
BRANCH  63  67
ATOM     67  S   UNL     1       3.849   5.830   8.672  1.00  0.00     0.124 S 
ATOM     68  O   UNL     1       2.428   6.097   8.861  1.00  0.00    -0.237 OA
ATOM     69  O   UNL     1       4.180   4.733   7.767  1.00  0.00    -0.237 OA
ATOM     70  O   UNL     1       4.642   5.859   9.903  1.00  0.00    -0.744 OA
ENDBRANCH  63  67
ENDBRANCH  37  60
ENDBRANCH  11  12
ENDBRANCH   4   6
ENDBRANCH   1   2
BRANCH   1  71
ATOM     71  C   UNL     1       5.025  -0.760   2.135  1.00  0.00     0.023 C 
BRANCH  71  72
ATOM     72  C   UNL     1       4.531  -1.985   2.911  1.00  0.00     0.023 C 
BRANCH  72  73
ATOM     73  C   UNL     1       4.982  -3.344   2.379  1.00  0.00     0.116 C 
BRANCH  73  74
ATOM     74  N   UNL     1       6.426  -3.517   2.416  1.00  0.00    -0.351 N 
ATOM     75  C   UNL     1       7.160  -4.510   3.018  1.00  0.00     0.271 C 
ATOM     76  H   UNL     1       6.949  -2.828   1.945  1.00  0.00     0.163 HD
ATOM     77  O   UNL     1       8.396  -4.424   3.020  1.00  0.00    -0.267 OA
BRANCH  75  78
ATOM     78  C   UNL     1       6.460  -5.655   3.589  1.00  0.00     0.146 A 
ATOM     79  C   UNL     1       5.566  -6.479   2.930  1.00  0.00     0.128 A 
ATOM     80  N   UNL     1       6.592  -6.070   4.899  1.00  0.00    -0.231 NA
ATOM     81  N   UNL     1       5.111  -7.377   3.866  1.00  0.00    -0.289 N 
ATOM     82  C   UNL     1       5.724  -7.046   5.049  1.00  0.00     0.206 A 
BRANCH  81  83
ATOM     83  C   UNL     1       4.116  -8.372   3.694  1.00  0.00     0.149 A 
ATOM     84  N   UNL     1       3.231  -8.485   4.712  1.00  0.00    -0.218 NA
ATOM     85  C   UNL     1       4.053  -9.134   2.511  1.00  0.00     0.044 A 
ATOM     86  C   UNL     1       2.188  -9.285   4.484  1.00  0.00     0.224 A 
ATOM     87  C   UNL     1       2.919  -9.954   2.424  1.00  0.00     0.076 A 
ATOM     88  C   UNL     1       5.031  -9.204   1.476  1.00  0.00     0.014 A 
ATOM     89  N   UNL     1       1.985 -10.013   3.380  1.00  0.00    -0.236 NA
ATOM     90  C   UNL     1       2.764 -10.762   1.303  1.00  0.00     0.029 A 
ATOM     91  C   UNL     1       4.858 -10.032   0.371  1.00  0.00     0.001 A 
ATOM     92  C   UNL     1       3.715 -10.809   0.280  1.00  0.00     0.002 A 
ENDBRANCH  81  83
ENDBRANCH  75  78
ENDBRANCH  73  74
ENDBRANCH  72  73
ENDBRANCH  71  72
ENDBRANCH   1  71
TORSDOF 15
