REMARK SMILES NS(=O)(=O)c1ccc(N2N=C(C(=O)NCCCCNC(=O)c3ccc(-c4c5nc(c(-c6cc(S(=O)(=O)[O-])ccc6F)c6ccc([nH]6)c(-c6cc(S(=O)(=O)[O-])ccc6F)c6nc(c(-c7cc(S(=O)(=O)[O-])ccc7F)c7ccc4[nH]7)C=C6)C=C5)cc3)C[C@H]2c2ccco2)cc1
REMARK SMILES IDX 16 1 15 2 14 3 12 4 13 5 11 7 9 8 10 9 86 10 85 11 8 12 5 13
REMARK SMILES IDX 6 14 93 15 7 16 92 17 2 18 3 19 4 20 1 21 87 24 88 25 91 26
REMARK SMILES IDX 89 27 90 28 17 29 18 30 19 31 20 32 21 34 22 35 23 36 84 37
REMARK SMILES IDX 24 38 83 39 25 40 26 41 27 42 77 43 28 44 82 45 76 46 78 47
REMARK SMILES IDX 29 48 81 49 75 50 74 51 30 53 62 54 42 55 61 56 43 57 46 58
REMARK SMILES IDX 60 59 79 60 44 61 45 62 59 64 80 65 47 66 31 67 32 68 40 69
REMARK SMILES IDX 33 70 39 71 41 72 38 73 34 74 35 75 36 76 37 77 63 78 64 79
REMARK SMILES IDX 72 80 65 81 71 82 73 83 70 84 66 85 67 86 68 87 69 88 48 89
REMARK SMILES IDX 49 90 57 91 50 92 56 93 58 94 55 95 51 96 52 97 53 98 54 99
REMARK H PARENT 14 6 1 22 1 23 19 33 78 52 46 63
REMARK Flexibility Score: inf
ROOT
ATOM      1  C   UNL     1       2.051  -3.048  11.895  1.00  0.00     0.023 C 
ENDROOT
BRANCH   1   2
ATOM      2  C   UNL     1       2.918  -1.956  11.277  1.00  0.00     0.116 C 
BRANCH   2   3
ATOM      3  N   UNL     1       3.703  -2.468  10.169  1.00  0.00    -0.351 N 
ATOM      4  C   UNL     1       3.689  -2.279   8.810  1.00  0.00     0.267 C 
ATOM      5  O   UNL     1       4.460  -2.956   8.133  1.00  0.00    -0.268 OA
ATOM      6  H   UNL     1       4.405  -3.095  10.459  1.00  0.00     0.163 HD
BRANCH   4   7
ATOM      7  C   UNL     1       2.812  -1.258   8.097  1.00  0.00     0.128 C 
ATOM      8  N   UNL     1       2.122   0.002   6.511  1.00  0.00    -0.254 N 
ATOM      9  N   UNL     1       2.904  -1.074   6.813  1.00  0.00    -0.171 NA
ATOM     10  C   UNL     1       1.280   0.439   7.631  1.00  0.00     0.180 C 
ATOM     11  C   UNL     1       1.824  -0.392   8.795  1.00  0.00     0.099 C 
BRANCH   8  12
ATOM     12  C   UNL     1       1.737   0.234   5.193  1.00  0.00     0.060 A 
ATOM     13  C   UNL     1       0.904   0.762   2.562  1.00  0.00     0.082 A 
ATOM     14  C   UNL     1       0.869  -0.545   3.051  1.00  0.00     0.024 A 
ATOM     15  C   UNL     1       1.375   1.804   3.360  1.00  0.00     0.024 A 
ATOM     16  C   UNL     1       1.297  -0.804   4.358  1.00  0.00     0.029 A 
ATOM     17  C   UNL     1       1.788   1.532   4.665  1.00  0.00     0.029 A 
BRANCH  13  18
ATOM     18  S   UNL     1       0.375   1.104   0.914  1.00  0.00     0.238 S 
ATOM     19  O   UNL     1       0.923   2.379   0.491  1.00  0.00    -0.207 OA
ATOM     20  O   UNL     1      -1.027   0.792   0.804  1.00  0.00    -0.207 OA
BRANCH  18  21
ATOM     21  N   UNL     1       1.192  -0.043   0.002  1.00  0.00    -0.225 NA
ATOM     22  H   UNL     1       0.951   0.071  -0.983  1.00  0.00     0.137 HD
ATOM     23  H   UNL     1       0.924  -0.977   0.311  1.00  0.00     0.137 HD
ENDBRANCH  18  21
ENDBRANCH  13  18
ENDBRANCH   8  12
BRANCH  10  24
ATOM     24  C   UNL     1       1.236   1.907   7.945  1.00  0.00     0.128 A 
ATOM     25  C   UNL     1       0.467   2.948   7.459  1.00  0.00     0.048 A 
ATOM     26  O   UNL     1       2.083   2.385   8.906  1.00  0.00    -0.467 OA
ATOM     27  C   UNL     1       0.876   4.114   8.150  1.00  0.00     0.042 A 
ATOM     28  C   UNL     1       1.851   3.714   9.032  1.00  0.00     0.195 A 
ENDBRANCH  10  24
ENDBRANCH   4   7
ENDBRANCH   2   3
ENDBRANCH   1   2
BRANCH   1  29
ATOM     29  C   UNL     1       2.812  -4.021  12.797  1.00  0.00     0.023 C 
BRANCH  29  30
ATOM     30  C   UNL     1       3.587  -3.379  13.946  1.00  0.00     0.116 C 
BRANCH  30  31
ATOM     31  N   UNL     1       2.776  -2.487  14.761  1.00  0.00    -0.352 N 
ATOM     32  C   UNL     1       2.751  -2.343  16.128  1.00  0.00     0.251 C 
ATOM     33  H   UNL     1       2.159  -1.904  14.263  1.00  0.00     0.163 HD
ATOM     34  O   UNL     1       1.909  -1.614  16.644  1.00  0.00    -0.269 OA
BRANCH  32  35
ATOM     35  C   UNL     1       3.706  -3.100  16.964  1.00  0.00     0.039 A 
ATOM     36  C   UNL     1       3.224  -3.785  18.080  1.00  0.00     0.014 A 
ATOM     37  C   UNL     1       5.062  -3.161  16.631  1.00  0.00     0.014 A 
ATOM     38  C   UNL     1       4.088  -4.596  18.817  1.00  0.00     0.010 A 
ATOM     39  C   UNL     1       5.905  -4.028  17.321  1.00  0.00     0.010 A 
ATOM     40  C   UNL     1       5.425  -4.760  18.418  1.00  0.00    -0.014 A 
BRANCH  40  41
ATOM     41  C   UNL     1       6.317  -5.717  19.122  1.00  0.00     0.031 A 
ATOM     42  C   UNL     1       7.536  -5.229  19.854  1.00  0.00     0.074 A 
ATOM     43  C   UNL     1       6.054  -7.037  19.049  1.00  0.00     0.049 A 
ATOM     44  N   UNL     1       8.439  -5.915  20.507  1.00  0.00    -0.248 NA
ATOM     45  C   UNL     1       7.792  -3.782  19.818  1.00  0.00     0.031 C 
ATOM     46  C   UNL     1       4.939  -7.636  18.308  1.00  0.00     0.029 A 
ATOM     47  N   UNL     1       6.703  -8.116  19.595  1.00  0.00    -0.354 N 
ATOM     48  C   UNL     1       9.375  -4.987  20.950  1.00  0.00     0.074 A 
ATOM     49  C   UNL     1       8.961  -3.699  20.434  1.00  0.00     0.031 C 
ATOM     50  C   UNL     1       4.968  -8.968  18.469  1.00  0.00     0.029 A 
ATOM     51  C   UNL     1       6.120  -9.324  19.291  1.00  0.00     0.049 A 
ATOM     52  H   UNL     1       7.510  -8.032  20.152  1.00  0.00     0.167 HD
ATOM     53  C   UNL     1      10.465  -5.188  21.733  1.00  0.00     0.034 A 
ATOM     54  C   UNL     1       6.475 -10.579  19.631  1.00  0.00     0.034 A 
ATOM     55  C   UNL     1      10.855  -6.480  22.245  1.00  0.00     0.049 A 
ATOM     56  C   UNL     1       7.681 -10.777  20.511  1.00  0.00     0.074 A 
ATOM     57  C   UNL     1      11.892  -6.789  23.108  1.00  0.00     0.029 A 
ATOM     58  N   UNL     1      10.235  -7.684  21.929  1.00  0.00    -0.354 N 
ATOM     59  N   UNL     1       8.509  -9.878  20.993  1.00  0.00    -0.248 NA
ATOM     60  C   UNL     1       7.989 -12.156  20.906  1.00  0.00     0.031 C 
ATOM     61  C   UNL     1      11.943  -8.180  23.257  1.00  0.00     0.029 A 
ATOM     62  C   UNL     1      10.889  -8.738  22.550  1.00  0.00     0.049 A 
ATOM     63  H   UNL     1       9.445  -7.775  21.349  1.00  0.00     0.167 HD
ATOM     64  C   UNL     1       9.427 -10.585  21.765  1.00  0.00     0.074 A 
ATOM     65  C   UNL     1       9.029 -11.978  21.706  1.00  0.00     0.031 C 
ATOM     66  C   UNL     1      10.501 -10.127  22.458  1.00  0.00     0.034 A 
BRANCH  53  67
ATOM     67  C   UNL     1      11.320  -3.984  22.056  1.00  0.00     0.023 A 
ATOM     68  C   UNL     1      10.811  -2.884  22.770  1.00  0.00     0.031 A 
ATOM     69  C   UNL     1      12.654  -3.918  21.616  1.00  0.00     0.131 A 
ATOM     70  C   UNL     1      11.600  -1.737  22.950  1.00  0.00     0.055 A 
ATOM     71  C   UNL     1      13.461  -2.808  21.873  1.00  0.00     0.041 A 
ATOM     72  F   UNL     1      13.192  -4.926  20.912  1.00  0.00    -0.206 F 
ATOM     73  C   UNL     1      12.930  -1.701  22.529  1.00  0.00     0.022 A 
BRANCH  70  74
ATOM     74  S   UNL     1      10.813  -0.239  23.605  1.00  0.00     0.124 S 
ATOM     75  O   UNL     1       9.746  -0.017  22.631  1.00  0.00    -0.237 OA
ATOM     76  O   UNL     1      10.388  -0.661  24.934  1.00  0.00    -0.237 OA
ATOM     77  O   UNL     1      11.887   0.752  23.577  1.00  0.00    -0.744 OA
ENDBRANCH  70  74
ENDBRANCH  53  67
BRANCH  54  78
ATOM     78  C   UNL     1       5.687 -11.744  19.137  1.00  0.00     0.023 A 
ATOM     79  C   UNL     1       4.970 -12.564  20.022  1.00  0.00     0.031 A 
ATOM     80  C   UNL     1       5.666 -12.071  17.769  1.00  0.00     0.131 A 
ATOM     81  C   UNL     1       4.296 -13.696  19.536  1.00  0.00     0.055 A 
ATOM     82  C   UNL     1       4.953 -13.169  17.284  1.00  0.00     0.041 A 
ATOM     83  F   UNL     1       6.327 -11.314  16.879  1.00  0.00    -0.206 F 
ATOM     84  C   UNL     1       4.273 -13.997  18.172  1.00  0.00     0.022 A 
BRANCH  81  85
ATOM     85  S   UNL     1       3.507 -14.815  20.726  1.00  0.00     0.124 S 
ATOM     86  O   UNL     1       4.635 -15.203  21.564  1.00  0.00    -0.237 OA
ATOM     87  O   UNL     1       2.515 -13.944  21.348  1.00  0.00    -0.237 OA
ATOM     88  O   UNL     1       2.959 -15.876  19.883  1.00  0.00    -0.744 OA
ENDBRANCH  81  85
ENDBRANCH  54  78
BRANCH  66  89
ATOM     89  C   UNL     1      11.303 -11.155  23.222  1.00  0.00     0.023 A 
ATOM     90  C   UNL     1      12.007 -12.178  22.562  1.00  0.00     0.031 A 
ATOM     91  C   UNL     1      11.329 -11.137  24.627  1.00  0.00     0.131 A 
ATOM     92  C   UNL     1      12.644 -13.182  23.306  1.00  0.00     0.055 A 
ATOM     93  C   UNL     1      12.024 -12.099  25.362  1.00  0.00     0.041 A 
ATOM     94  F   UNL     1      10.673 -10.186  25.312  1.00  0.00    -0.206 F 
ATOM     95  C   UNL     1      12.671 -13.140  24.702  1.00  0.00     0.022 A 
BRANCH  92  96
ATOM     96  S   UNL     1      13.330 -14.613  22.427  1.00  0.00     0.124 S 
ATOM     97  O   UNL     1      12.166 -15.108  21.699  1.00  0.00    -0.237 OA
ATOM     98  O   UNL     1      14.379 -14.005  21.614  1.00  0.00    -0.237 OA
ATOM     99  O   UNL     1      13.805 -15.481  23.503  1.00  0.00    -0.744 OA
ENDBRANCH  92  96
ENDBRANCH  66  89
ENDBRANCH  40  41
ENDBRANCH  32  35
ENDBRANCH  30  31
ENDBRANCH  29  30
ENDBRANCH   1  29
TORSDOF 18
