REMARK SMILES CC1(C)[C@H](C(=O)Nc2ccc(C(F)(F)F)nc2)[C@@H]1C(=O)NCCCCNC(=O)c1ccc(-c2c3nc(c(-c4cc(S(=O)(=O)[O-])ccc4F)c4ccc([nH]4)c(-c4cc(S(=O)(=O)[O-])ccc4F)c4nc(c(-c5cc(S(=O)(=O)[O-])ccc5F)c5ccc2[nH]5)C=C4)C=C3)cc1
REMARK SMILES IDX 23 1 22 2 21 3 19 4 20 5 18 7 1 8 2 9 3 10 4 11 5 12 6 13
REMARK SMILES IDX 7 14 8 16 9 17 17 18 10 19 16 20 11 21 12 22 13 23 14 24
REMARK SMILES IDX 15 25 24 26 25 27 26 28 27 29 28 31 29 32 30 33 91 34 31 35
REMARK SMILES IDX 90 36 32 37 33 38 34 39 84 40 35 41 89 42 83 43 85 44 36 45
REMARK SMILES IDX 88 46 82 47 81 48 37 50 69 51 49 52 68 53 50 54 53 55 67 56
REMARK SMILES IDX 86 57 51 58 52 59 66 61 87 62 54 63 38 64 39 65 47 66 40 67
REMARK SMILES IDX 46 68 48 69 45 70 41 71 42 72 43 73 44 74 70 75 71 76 79 77
REMARK SMILES IDX 72 78 78 79 80 80 77 81 73 82 74 83 75 84 76 85 55 86 56 87
REMARK SMILES IDX 64 88 57 89 63 90 65 91 62 92 58 93 59 94 60 95 61 96
REMARK H PARENT 21 6 7 15 26 30 85 49 53 60
REMARK Flexibility Score: inf
ROOT
ATOM      1  C   UNL     1      -5.254   0.792   0.625  1.00  0.00     0.023 C 
ENDROOT
BRANCH   1   2
ATOM      2  C   UNL     1      -3.812   0.941   0.157  1.00  0.00     0.116 C 
BRANCH   2   3
ATOM      3  N   UNL     1      -2.888   1.313   1.212  1.00  0.00    -0.356 N 
ATOM      4  C   UNL     1      -1.590   0.897   1.367  1.00  0.00     0.224 C 
ATOM      5  O   UNL     1      -0.903   1.309   2.296  1.00  0.00    -0.275 OA
ATOM      6  H   UNL     1      -3.232   1.933   1.895  1.00  0.00     0.163 HD
BRANCH   4   7
ATOM      7  C   UNL     1      -1.100  -0.164   0.465  1.00  0.00     0.098 C 
ATOM      8  C   UNL     1       0.850  -1.764  -0.200  1.00  0.00     0.013 C 
ATOM      9  C   UNL     1       0.337  -0.342  -0.043  1.00  0.00    -0.011 C 
ATOM     10  C   UNL     1       1.436   0.584   0.380  1.00  0.00     0.013 C 
ATOM     11  C   UNL     1      -0.788   0.036  -0.994  1.00  0.00     0.098 C 
BRANCH  11  12
ATOM     12  C   UNL     1      -1.002   1.228  -1.882  1.00  0.00     0.228 C 
ATOM     13  O   UNL     1      -1.160   0.980  -3.079  1.00  0.00    -0.274 OA
ATOM     14  N   UNL     1      -1.365   2.484  -1.459  1.00  0.00    -0.324 N 
ATOM     15  H   UNL     1      -2.179   2.845  -1.879  1.00  0.00     0.169 HD
BRANCH  14  16
ATOM     16  C   UNL     1      -0.763   3.329  -0.526  1.00  0.00     0.059 A 
ATOM     17  C   UNL     1       0.609   3.412  -0.384  1.00  0.00     0.030 A 
ATOM     18  C   UNL     1      -1.536   4.168   0.262  1.00  0.00     0.137 A 
ATOM     19  C   UNL     1       1.142   4.112   0.696  1.00  0.00     0.035 A 
ATOM     20  N   UNL     1      -1.058   4.851   1.326  1.00  0.00    -0.250 NA
ATOM     21  C   UNL     1       0.276   4.740   1.591  1.00  0.00     0.144 A 
BRANCH  21  22
ATOM     22  C   UNL     1       0.831   5.276   2.904  1.00  0.00     0.433 C 
ATOM     23  F   UNL     1       1.167   6.595   2.844  1.00  0.00    -0.165 F 
ATOM     24  F   UNL     1      -0.022   5.146   3.960  1.00  0.00    -0.165 F 
ATOM     25  F   UNL     1       1.978   4.631   3.289  1.00  0.00    -0.165 F 
ENDBRANCH  21  22
ENDBRANCH  14  16
ENDBRANCH  11  12
ENDBRANCH   4   7
ENDBRANCH   2   3
ENDBRANCH   1   2
BRANCH   1  26
ATOM     26  C   UNL     1      -5.900   2.055   1.192  1.00  0.00     0.023 C 
BRANCH  26  27
ATOM     27  C   UNL     1      -5.804   3.306   0.325  1.00  0.00     0.116 C 
BRANCH  27  28
ATOM     28  N   UNL     1      -6.402   3.148  -0.989  1.00  0.00    -0.352 N 
ATOM     29  C   UNL     1      -7.344   3.926  -1.621  1.00  0.00     0.251 C 
ATOM     30  H   UNL     1      -6.088   2.369  -1.503  1.00  0.00     0.163 HD
ATOM     31  O   UNL     1      -7.818   3.542  -2.687  1.00  0.00    -0.269 OA
BRANCH  29  32
ATOM     32  C   UNL     1      -7.807   5.195  -1.012  1.00  0.00     0.039 A 
ATOM     33  C   UNL     1      -9.171   5.497  -1.044  1.00  0.00     0.014 A 
ATOM     34  C   UNL     1      -6.912   6.093  -0.424  1.00  0.00     0.014 A 
ATOM     35  C   UNL     1      -9.640   6.671  -0.447  1.00  0.00     0.010 A 
ATOM     36  C   UNL     1      -7.391   7.217   0.248  1.00  0.00     0.010 A 
ATOM     37  C   UNL     1      -8.758   7.531   0.227  1.00  0.00    -0.014 A 
BRANCH  37  38
ATOM     38  C   UNL     1      -9.246   8.787   0.862  1.00  0.00     0.031 A 
ATOM     39  C   UNL     1      -8.754  10.122   0.362  1.00  0.00     0.074 A 
ATOM     40  C   UNL     1     -10.107   8.733   1.898  1.00  0.00     0.049 A 
ATOM     41  N   UNL     1      -9.032  11.325   0.794  1.00  0.00    -0.248 NA
ATOM     42  C   UNL     1      -7.797  10.095  -0.755  1.00  0.00     0.031 C 
ATOM     43  C   UNL     1     -10.630   7.504   2.499  1.00  0.00     0.029 A 
ATOM     44  N   UNL     1     -10.697   9.734   2.630  1.00  0.00    -0.354 N 
ATOM     45  C   UNL     1      -8.279  12.195   0.012  1.00  0.00     0.074 A 
ATOM     46  C   UNL     1      -7.475  11.374  -0.868  1.00  0.00     0.031 C 
ATOM     47  C   UNL     1     -11.488   7.825   3.481  1.00  0.00     0.029 A 
ATOM     48  C   UNL     1     -11.545   9.278   3.614  1.00  0.00     0.049 A 
ATOM     49  H   UNL     1     -10.530  10.691   2.466  1.00  0.00     0.167 HD
ATOM     50  C   UNL     1      -8.278  13.551   0.004  1.00  0.00     0.034 A 
ATOM     51  C   UNL     1     -12.280   9.952   4.521  1.00  0.00     0.034 A 
ATOM     52  C   UNL     1      -9.092  14.357   0.881  1.00  0.00     0.049 A 
ATOM     53  C   UNL     1     -12.246  11.461   4.511  1.00  0.00     0.074 A 
ATOM     54  C   UNL     1      -9.198  15.736   0.934  1.00  0.00     0.029 A 
ATOM     55  N   UNL     1      -9.938  13.858   1.864  1.00  0.00    -0.354 N 
ATOM     56  N   UNL     1     -11.562  12.269   3.733  1.00  0.00    -0.248 NA
ATOM     57  C   UNL     1     -13.101  12.149   5.487  1.00  0.00     0.031 C 
ATOM     58  C   UNL     1     -10.046  16.071   1.995  1.00  0.00     0.029 A 
ATOM     59  C   UNL     1     -10.548  14.902   2.544  1.00  0.00     0.049 A 
ATOM     60  H   UNL     1     -10.083  12.902   2.051  1.00  0.00     0.167 HD
ATOM     61  C   UNL     1     -11.942  13.559   4.097  1.00  0.00     0.074 A 
ATOM     62  C   UNL     1     -12.921  13.418   5.154  1.00  0.00     0.031 C 
ATOM     63  C   UNL     1     -11.525  14.751   3.597  1.00  0.00     0.034 A 
BRANCH  50  64
ATOM     64  C   UNL     1      -7.346  14.240  -0.969  1.00  0.00     0.023 A 
ATOM     65  C   UNL     1      -7.465  14.062  -2.360  1.00  0.00     0.031 A 
ATOM     66  C   UNL     1      -6.304  15.060  -0.501  1.00  0.00     0.131 A 
ATOM     67  C   UNL     1      -6.511  14.622  -3.223  1.00  0.00     0.055 A 
ATOM     68  C   UNL     1      -5.413  15.690  -1.373  1.00  0.00     0.041 A 
ATOM     69  F   UNL     1      -6.123  15.252   0.815  1.00  0.00    -0.206 F 
ATOM     70  C   UNL     1      -5.503  15.459  -2.742  1.00  0.00     0.022 A 
BRANCH  67  71
ATOM     71  S   UNL     1      -6.512  14.107  -4.963  1.00  0.00     0.124 S 
ATOM     72  O   UNL     1      -6.340  12.661  -4.842  1.00  0.00    -0.237 OA
ATOM     73  O   UNL     1      -7.818  14.558  -5.426  1.00  0.00    -0.237 OA
ATOM     74  O   UNL     1      -5.367  14.816  -5.531  1.00  0.00    -0.744 OA
ENDBRANCH  67  71
ENDBRANCH  50  64
BRANCH  51  75
ATOM     75  C   UNL     1     -13.116   9.219   5.518  1.00  0.00     0.023 A 
ATOM     76  C   UNL     1     -14.514   9.357   5.537  1.00  0.00     0.031 A 
ATOM     77  C   UNL     1     -12.523   8.411   6.505  1.00  0.00     0.131 A 
ATOM     78  C   UNL     1     -15.265   8.747   6.554  1.00  0.00     0.055 A 
ATOM     79  C   UNL     1     -13.281   7.755   7.477  1.00  0.00     0.041 A 
ATOM     80  F   UNL     1     -11.192   8.240   6.534  1.00  0.00    -0.206 F 
ATOM     81  C   UNL     1     -14.660   7.935   7.515  1.00  0.00     0.022 A 
BRANCH  78  82
ATOM     82  S   UNL     1     -17.039   9.113   6.664  1.00  0.00     0.124 S 
ATOM     83  O   UNL     1     -17.035  10.565   6.796  1.00  0.00    -0.237 OA
ATOM     84  O   UNL     1     -17.536   8.585   5.397  1.00  0.00    -0.237 OA
ATOM     85  O   UNL     1     -17.465   8.377   7.853  1.00  0.00    -0.744 OA
ENDBRANCH  78  82
ENDBRANCH  51  75
BRANCH  63  86
ATOM     86  C   UNL     1     -12.188  15.997   4.139  1.00  0.00     0.023 A 
ATOM     87  C   UNL     1     -12.066  16.387   5.484  1.00  0.00     0.031 A 
ATOM     88  C   UNL     1     -12.979  16.796   3.292  1.00  0.00     0.131 A 
ATOM     89  C   UNL     1     -12.780  17.498   5.958  1.00  0.00     0.055 A 
ATOM     90  C   UNL     1     -13.627  17.943   3.752  1.00  0.00     0.041 A 
ATOM     91  F   UNL     1     -13.137  16.473   1.998  1.00  0.00    -0.206 F 
ATOM     92  C   UNL     1     -13.544  18.290   5.097  1.00  0.00     0.022 A 
BRANCH  89  93
ATOM     93  S   UNL     1     -12.802  17.823   7.743  1.00  0.00     0.124 S 
ATOM     94  O   UNL     1     -13.288  16.555   8.277  1.00  0.00    -0.237 OA
ATOM     95  O   UNL     1     -11.404  18.137   8.019  1.00  0.00    -0.237 OA
ATOM     96  O   UNL     1     -13.727  18.948   7.876  1.00  0.00    -0.744 OA
ENDBRANCH  89  93
ENDBRANCH  63  86
ENDBRANCH  37  38
ENDBRANCH  29  32
ENDBRANCH  27  28
ENDBRANCH  26  27
ENDBRANCH   1  26
TORSDOF 17
