REMARK SMILES CC(C)(C)OC(=O)N1C[C@H](c2ccc(C(F)(F)F)cc2)[C@H](C(=O)NCCCCNC(=O)c2ccc(-c3c4nc(c(-c5cc(S(=O)(=O)[O-])ccc5F)c5ccc([nH]5)c(-c5cc(S(=O)(=O)[O-])ccc5F)c5nc(c(-c6cc(S(=O)(=O)[O-])ccc6F)c6ccc3[nH]6)C=C5)C=C4)cc2)C1
REMARK SMILES IDX 26 1 25 2 24 3 22 4 23 5 21 7 8 8 9 9 95 10 10 11 6 12 7 13
REMARK SMILES IDX 5 14 2 15 1 16 3 17 4 18 11 19 12 20 20 21 13 22 19 23 14 24
REMARK SMILES IDX 15 25 16 26 17 27 18 28 27 29 28 30 29 31 30 32 31 34 32 35
REMARK SMILES IDX 33 36 94 37 34 38 93 39 35 40 36 41 37 42 87 43 38 44 92 45
REMARK SMILES IDX 86 46 88 47 39 48 91 49 85 50 84 51 40 53 72 54 52 55 71 56
REMARK SMILES IDX 53 57 56 58 70 59 89 60 54 61 55 62 69 64 90 65 57 66 41 67
REMARK SMILES IDX 42 68 50 69 43 70 49 71 51 72 48 73 44 74 45 75 46 76 47 77
REMARK SMILES IDX 73 78 74 79 82 80 75 81 81 82 83 83 80 84 76 85 77 86 78 87
REMARK SMILES IDX 79 88 58 89 59 90 67 91 60 92 66 93 68 94 65 95 61 96 62 97
REMARK SMILES IDX 63 98 64 99
REMARK H PARENT 24 6 29 33 88 52 56 63
REMARK Flexibility Score: inf
ROOT
ATOM      1  C   UNL     1      -0.696   3.899  -4.030  1.00  0.00     0.023 C 
ENDROOT
BRANCH   1   2
ATOM      2  C   UNL     1      -1.151   2.753  -4.918  1.00  0.00     0.116 C 
BRANCH   2   3
ATOM      3  N   UNL     1      -0.886   2.992  -6.325  1.00  0.00    -0.356 N 
ATOM      4  C   UNL     1       0.096   2.576  -7.160  1.00  0.00     0.225 C 
ATOM      5  O   UNL     1       0.042   2.996  -8.323  1.00  0.00    -0.275 OA
ATOM      6  H   UNL     1      -1.553   3.571  -6.759  1.00  0.00     0.163 HD
BRANCH   4   7
ATOM      7  C   UNL     1       1.230   1.640  -6.772  1.00  0.00     0.107 C 
ATOM      8  N   UNL     1       1.248   0.265  -4.862  1.00  0.00    -0.307 N 
ATOM      9  C   UNL     1       2.480   1.011  -4.775  1.00  0.00     0.132 C 
ATOM     10  C   UNL     1       0.699   0.329  -6.191  1.00  0.00     0.137 C 
ATOM     11  C   UNL     1       2.422   2.112  -5.871  1.00  0.00     0.053 C 
BRANCH   8  12
ATOM     12  C   UNL     1       0.644  -0.453  -3.856  1.00  0.00     0.410 C 
ATOM     13  O   UNL     1      -0.276  -1.228  -4.057  1.00  0.00    -0.224 OA
BRANCH  12  14
ATOM     14  O   UNL     1       1.153  -0.150  -2.630  1.00  0.00    -0.444 OA
BRANCH  14  15
ATOM     15  C   UNL     1       0.616  -0.766  -1.426  1.00  0.00     0.106 C 
ATOM     16  C   UNL     1       1.250   0.004  -0.255  1.00  0.00     0.056 C 
ATOM     17  C   UNL     1       1.064  -2.228  -1.359  1.00  0.00     0.056 C 
ATOM     18  C   UNL     1      -0.908  -0.629  -1.298  1.00  0.00     0.056 C 
ENDBRANCH  14  15
ENDBRANCH  12  14
ENDBRANCH   8  12
BRANCH  11  19
ATOM     19  C   UNL     1       2.519   3.548  -5.356  1.00  0.00    -0.042 A 
ATOM     20  C   UNL     1       2.074   4.648  -6.107  1.00  0.00     0.005 A 
ATOM     21  C   UNL     1       3.076   3.835  -4.094  1.00  0.00     0.005 A 
ATOM     22  C   UNL     1       1.936   5.918  -5.521  1.00  0.00     0.013 A 
ATOM     23  C   UNL     1       2.942   5.096  -3.504  1.00  0.00     0.013 A 
ATOM     24  C   UNL     1       2.299   6.131  -4.186  1.00  0.00     0.056 A 
BRANCH  24  25
ATOM     25  C   UNL     1       1.917   7.388  -3.440  1.00  0.00     0.416 C 
ATOM     26  F   UNL     1       1.441   8.378  -4.240  1.00  0.00    -0.166 F 
ATOM     27  F   UNL     1       0.938   7.146  -2.522  1.00  0.00    -0.166 F 
ATOM     28  F   UNL     1       2.954   7.922  -2.739  1.00  0.00    -0.166 F 
ENDBRANCH  24  25
ENDBRANCH  11  19
ENDBRANCH   4   7
ENDBRANCH   2   3
ENDBRANCH   1   2
BRANCH   1  29
ATOM     29  C   UNL     1      -1.347   5.241  -4.346  1.00  0.00     0.023 C 
BRANCH  29  30
ATOM     30  C   UNL     1      -2.787   5.319  -3.876  1.00  0.00     0.116 C 
BRANCH  30  31
ATOM     31  N   UNL     1      -2.883   5.150  -2.431  1.00  0.00    -0.352 N 
ATOM     32  C   UNL     1      -3.370   6.009  -1.479  1.00  0.00     0.251 C 
ATOM     33  H   UNL     1      -2.547   4.291  -2.086  1.00  0.00     0.163 HD
ATOM     34  O   UNL     1      -3.119   5.811  -0.294  1.00  0.00    -0.269 OA
BRANCH  32  35
ATOM     35  C   UNL     1      -4.185   7.166  -1.897  1.00  0.00     0.039 A 
ATOM     36  C   UNL     1      -4.029   8.387  -1.241  1.00  0.00     0.014 A 
ATOM     37  C   UNL     1      -5.090   7.041  -2.954  1.00  0.00     0.014 A 
ATOM     38  C   UNL     1      -4.736   9.500  -1.695  1.00  0.00     0.010 A 
ATOM     39  C   UNL     1      -5.693   8.171  -3.480  1.00  0.00     0.010 A 
ATOM     40  C   UNL     1      -5.535   9.410  -2.847  1.00  0.00    -0.014 A 
BRANCH  40  41
ATOM     41  C   UNL     1      -6.225  10.597  -3.408  1.00  0.00     0.031 A 
ATOM     42  C   UNL     1      -7.725  10.598  -3.529  1.00  0.00     0.074 A 
ATOM     43  C   UNL     1      -5.493  11.629  -3.869  1.00  0.00     0.049 A 
ATOM     44  N   UNL     1      -8.509  11.495  -4.066  1.00  0.00    -0.248 NA
ATOM     45  C   UNL     1      -8.434   9.416  -3.013  1.00  0.00     0.031 C 
ATOM     46  C   UNL     1      -4.029  11.702  -3.850  1.00  0.00     0.029 A 
ATOM     47  N   UNL     1      -5.873  12.811  -4.449  1.00  0.00    -0.354 N 
ATOM     48  C   UNL     1      -9.797  10.979  -3.967  1.00  0.00     0.074 A 
ATOM     49  C   UNL     1      -9.679   9.659  -3.390  1.00  0.00     0.031 C 
ATOM     50  C   UNL     1      -3.640  12.883  -4.353  1.00  0.00     0.029 A 
ATOM     51  C   UNL     1      -4.817  13.625  -4.788  1.00  0.00     0.049 A 
ATOM     52  H   UNL     1      -6.814  13.054  -4.609  1.00  0.00     0.167 HD
ATOM     53  C   UNL     1     -10.971  11.568  -4.300  1.00  0.00     0.034 A 
ATOM     54  C   UNL     1      -4.803  14.828  -5.395  1.00  0.00     0.034 A 
ATOM     55  C   UNL     1     -11.059  12.894  -4.860  1.00  0.00     0.049 A 
ATOM     56  C   UNL     1      -6.120  15.448  -5.785  1.00  0.00     0.074 A 
ATOM     57  C   UNL     1     -12.192  13.621  -5.175  1.00  0.00     0.029 A 
ATOM     58  N   UNL     1      -9.969  13.687  -5.199  1.00  0.00    -0.354 N 
ATOM     59  N   UNL     1      -7.336  14.977  -5.621  1.00  0.00    -0.248 NA
ATOM     60  C   UNL     1      -6.064  16.762  -6.436  1.00  0.00     0.031 C 
ATOM     61  C   UNL     1     -11.789  14.816  -5.780  1.00  0.00     0.029 A 
ATOM     62  C   UNL     1     -10.403  14.876  -5.763  1.00  0.00     0.049 A 
ATOM     63  H   UNL     1      -9.027  13.440  -5.059  1.00  0.00     0.167 HD
ATOM     64  C   UNL     1      -8.191  15.950  -6.131  1.00  0.00     0.074 A 
ATOM     65  C   UNL     1      -7.351  17.042  -6.581  1.00  0.00     0.031 C 
ATOM     66  C   UNL     1      -9.545  15.943  -6.223  1.00  0.00     0.034 A 
BRANCH  53  67
ATOM     67  C   UNL     1     -12.238  10.773  -4.087  1.00  0.00     0.023 A 
ATOM     68  C   UNL     1     -12.631  10.335  -2.809  1.00  0.00     0.031 A 
ATOM     69  C   UNL     1     -13.052  10.424  -5.178  1.00  0.00     0.131 A 
ATOM     70  C   UNL     1     -13.758   9.512  -2.665  1.00  0.00     0.055 A 
ATOM     71  C   UNL     1     -14.221   9.678  -5.017  1.00  0.00     0.041 A 
ATOM     72  F   UNL     1     -12.717  10.789  -6.426  1.00  0.00    -0.206 F 
ATOM     73  C   UNL     1     -14.572   9.204  -3.757  1.00  0.00     0.022 A 
BRANCH  70  74
ATOM     74  S   UNL     1     -14.056   8.725  -1.058  1.00  0.00     0.124 S 
ATOM     75  O   UNL     1     -12.818   7.974  -0.864  1.00  0.00    -0.237 OA
ATOM     76  O   UNL     1     -14.253   9.871  -0.178  1.00  0.00    -0.237 OA
ATOM     77  O   UNL     1     -15.243   7.905  -1.292  1.00  0.00    -0.744 OA
ENDBRANCH  70  74
ENDBRANCH  53  67
BRANCH  54  78
ATOM     78  C   UNL     1      -3.511  15.515  -5.686  1.00  0.00     0.023 A 
ATOM     79  C   UNL     1      -3.205  16.756  -5.104  1.00  0.00     0.031 A 
ATOM     80  C   UNL     1      -2.577  14.960  -6.579  1.00  0.00     0.131 A 
ATOM     81  C   UNL     1      -2.023  17.424  -5.460  1.00  0.00     0.055 A 
ATOM     82  C   UNL     1      -1.373  15.599  -6.882  1.00  0.00     0.041 A 
ATOM     83  F   UNL     1      -2.816  13.775  -7.164  1.00  0.00    -0.206 F 
ATOM     84  C   UNL     1      -1.097  16.846  -6.331  1.00  0.00     0.022 A 
BRANCH  81  85
ATOM     85  S   UNL     1      -1.759  19.108  -4.841  1.00  0.00     0.124 S 
ATOM     86  O   UNL     1      -2.946  19.795  -5.337  1.00  0.00    -0.237 OA
ATOM     87  O   UNL     1      -1.696  18.895  -3.399  1.00  0.00    -0.237 OA
ATOM     88  O   UNL     1      -0.500  19.507  -5.466  1.00  0.00    -0.744 OA
ENDBRANCH  81  85
ENDBRANCH  54  78
BRANCH  66  89
ATOM     89  C   UNL     1     -10.194  17.169  -6.816  1.00  0.00     0.023 A 
ATOM     90  C   UNL     1     -10.000  17.524  -8.162  1.00  0.00     0.031 A 
ATOM     91  C   UNL     1     -11.011  17.995  -6.024  1.00  0.00     0.131 A 
ATOM     92  C   UNL     1     -10.566  18.706  -8.660  1.00  0.00     0.055 A 
ATOM     93  C   UNL     1     -11.630  19.131  -6.544  1.00  0.00     0.041 A 
ATOM     94  F   UNL     1     -11.227  17.705  -4.731  1.00  0.00    -0.206 F 
ATOM     95  C   UNL     1     -11.397  19.501  -7.866  1.00  0.00     0.022 A 
BRANCH  92  96
ATOM     96  S   UNL     1     -10.118  19.246 -10.332  1.00  0.00     0.124 S 
ATOM     97  O   UNL     1      -8.668  19.377 -10.229  1.00  0.00    -0.237 OA
ATOM     98  O   UNL     1     -10.601  18.143 -11.157  1.00  0.00    -0.237 OA
ATOM     99  O   UNL     1     -10.845  20.504 -10.493  1.00  0.00    -0.744 OA
ENDBRANCH  92  96
ENDBRANCH  66  89
ENDBRANCH  40  41
ENDBRANCH  32  35
ENDBRANCH  30  31
ENDBRANCH  29  30
ENDBRANCH   1  29
TORSDOF 19
