REMARK SMILES CC[C@@](C)(NC(=O)NCCc1cscn1)C(=O)NCCCCNC(=O)c1ccc(-c2c3nc(c(-c4cc(S(=O)(=O)[O-])ccc4F)c4ccc([nH]4)c(-c4cc(S(=O)(=O)[O-])ccc4F)c4nc(c(-c5cc(S(=O)(=O)[O-])ccc5F)c5ccc2[nH]5)C=C4)C=C3)cc1
REMARK SMILES IDX 20 1 19 2 18 3 16 4 17 5 3 7 4 8 2 9 1 10 5 11 6 12 7 14
REMARK SMILES IDX 8 15 9 17 10 18 11 19 12 20 15 21 13 22 14 23 21 24 22 25
REMARK SMILES IDX 23 26 24 27 25 29 26 30 27 31 88 32 28 33 87 34 29 35 30 36
REMARK SMILES IDX 31 37 81 38 32 39 86 40 80 41 82 42 33 43 85 44 79 45 78 46
REMARK SMILES IDX 34 48 66 49 46 50 65 51 47 52 50 53 64 54 83 55 48 56 49 57
REMARK SMILES IDX 63 59 84 60 51 61 35 62 36 63 44 64 37 65 43 66 45 67 42 68
REMARK SMILES IDX 38 69 39 70 40 71 41 72 67 73 68 74 76 75 69 76 75 77 77 78
REMARK SMILES IDX 74 79 70 80 71 81 72 82 73 83 52 84 53 85 61 86 54 87 60 88
REMARK SMILES IDX 62 89 59 90 55 91 56 92 57 93 58 94
REMARK H PARENT 18 6 5 13 8 16 23 28 82 47 50 58
REMARK Flexibility Score: inf
ROOT
ATOM      1  C   UNL     1       2.015  -5.565   3.039  1.00  0.00     0.023 C 
ENDROOT
BRANCH   1   2
ATOM      2  C   UNL     1       1.626  -4.142   3.446  1.00  0.00     0.116 C 
BRANCH   2   3
ATOM      3  N   UNL     1       2.357  -3.040   2.834  1.00  0.00    -0.354 N 
ATOM      4  C   UNL     1       2.091  -2.173   1.806  1.00  0.00     0.245 C 
ATOM      5  O   UNL     1       2.837  -1.191   1.728  1.00  0.00    -0.272 OA
ATOM      6  H   UNL     1       3.235  -2.883   3.251  1.00  0.00     0.163 HD
BRANCH   4   7
ATOM      7  C   UNL     1       0.870  -2.331   0.858  1.00  0.00     0.117 C 
ATOM      8  C   UNL     1      -0.391  -1.974   1.690  1.00  0.00     0.045 C 
BRANCH   7   9
ATOM      9  C   UNL     1       0.822  -1.415  -0.403  1.00  0.00     0.035 C 
ATOM     10  C   UNL     1       0.940   0.090  -0.185  1.00  0.00     0.007 C 
ENDBRANCH   7   9
BRANCH   7  11
ATOM     11  N   UNL     1       0.786  -3.735   0.421  1.00  0.00    -0.324 N 
ATOM     12  C   UNL     1       1.574  -4.583  -0.243  1.00  0.00     0.315 C 
ATOM     13  H   UNL     1      -0.065  -4.154   0.686  1.00  0.00     0.166 HD
ATOM     14  O   UNL     1       1.073  -5.675  -0.537  1.00  0.00    -0.249 OA
ATOM     15  N   UNL     1       2.852  -4.401  -0.578  1.00  0.00    -0.338 N 
ATOM     16  H   UNL     1       3.256  -5.245  -0.884  1.00  0.00     0.165 HD
BRANCH  15  17
ATOM     17  C   UNL     1       3.831  -3.314  -0.623  1.00  0.00     0.124 C 
BRANCH  17  18
ATOM     18  C   UNL     1       4.901  -3.300   0.470  1.00  0.00     0.078 C 
BRANCH  18  19
ATOM     19  C   UNL     1       6.017  -4.293   0.373  1.00  0.00     0.053 A 
ATOM     20  C   UNL     1       5.957  -5.645   0.089  1.00  0.00     0.090 A 
ATOM     21  N   UNL     1       7.286  -3.843   0.721  1.00  0.00    -0.250 NA
ATOM     22  S   UNL     1       7.506  -6.364   0.263  1.00  0.00    -0.130 S 
ATOM     23  C   UNL     1       8.145  -4.838   0.705  1.00  0.00     0.175 A 
ENDBRANCH  18  19
ENDBRANCH  17  18
ENDBRANCH  15  17
ENDBRANCH   7  11
ENDBRANCH   4   7
ENDBRANCH   2   3
ENDBRANCH   1   2
BRANCH   1  24
ATOM     24  C   UNL     1       3.500  -5.905   2.966  1.00  0.00     0.023 C 
BRANCH  24  25
ATOM     25  C   UNL     1       4.333  -5.563   4.193  1.00  0.00     0.116 C 
BRANCH  25  26
ATOM     26  N   UNL     1       3.933  -6.337   5.354  1.00  0.00    -0.352 N 
ATOM     27  C   UNL     1       4.686  -7.132   6.183  1.00  0.00     0.251 C 
ATOM     28  H   UNL     1       2.977  -6.283   5.581  1.00  0.00     0.163 HD
ATOM     29  O   UNL     1       4.108  -7.858   6.989  1.00  0.00    -0.269 OA
BRANCH  27  30
ATOM     30  C   UNL     1       6.168  -7.140   6.108  1.00  0.00     0.039 A 
ATOM     31  C   UNL     1       6.839  -8.355   6.287  1.00  0.00     0.014 A 
ATOM     32  C   UNL     1       6.905  -5.966   5.927  1.00  0.00     0.014 A 
ATOM     33  C   UNL     1       8.236  -8.399   6.248  1.00  0.00     0.010 A 
ATOM     34  C   UNL     1       8.297  -6.020   5.824  1.00  0.00     0.010 A 
ATOM     35  C   UNL     1       8.978  -7.234   5.998  1.00  0.00    -0.014 A 
BRANCH  35  36
ATOM     36  C   UNL     1      10.465  -7.265   5.956  1.00  0.00     0.031 A 
ATOM     37  C   UNL     1      11.264  -6.540   7.007  1.00  0.00     0.074 A 
ATOM     38  C   UNL     1      11.097  -7.907   4.955  1.00  0.00     0.049 A 
ATOM     39  N   UNL     1      12.561  -6.391   7.108  1.00  0.00    -0.248 NA
ATOM     40  C   UNL     1      10.498  -5.871   8.068  1.00  0.00     0.031 C 
ATOM     41  C   UNL     1      10.436  -8.622   3.861  1.00  0.00     0.029 A 
ATOM     42  N   UNL     1      12.435  -8.057   4.688  1.00  0.00    -0.354 N 
ATOM     43  C   UNL     1      12.767  -5.602   8.236  1.00  0.00     0.074 A 
ATOM     44  C   UNL     1      11.456  -5.257   8.747  1.00  0.00     0.031 C 
ATOM     45  C   UNL     1      11.371  -9.146   3.051  1.00  0.00     0.029 A 
ATOM     46  C   UNL     1      12.694  -8.774   3.543  1.00  0.00     0.049 A 
ATOM     47  H   UNL     1      13.143  -7.686   5.263  1.00  0.00     0.167 HD
ATOM     48  C   UNL     1      13.937  -5.218   8.805  1.00  0.00     0.034 A 
ATOM     49  C   UNL     1      13.864  -9.086   2.950  1.00  0.00     0.034 A 
ATOM     50  C   UNL     1      15.238  -5.578   8.291  1.00  0.00     0.049 A 
ATOM     51  C   UNL     1      15.153  -8.636   3.589  1.00  0.00     0.074 A 
ATOM     52  C   UNL     1      16.485  -5.280   8.813  1.00  0.00     0.029 A 
ATOM     53  N   UNL     1      15.460  -6.310   7.132  1.00  0.00    -0.354 N 
ATOM     54  N   UNL     1      15.331  -7.921   4.676  1.00  0.00    -0.248 NA
ATOM     55  C   UNL     1      16.399  -9.045   2.927  1.00  0.00     0.031 C 
ATOM     56  C   UNL     1      17.459  -5.780   7.940  1.00  0.00     0.029 A 
ATOM     57  C   UNL     1      16.822  -6.451   6.909  1.00  0.00     0.049 A 
ATOM     58  H   UNL     1      14.753  -6.677   6.553  1.00  0.00     0.167 HD
ATOM     59  C   UNL     1      16.709  -7.819   4.841  1.00  0.00     0.074 A 
ATOM     60  C   UNL     1      17.314  -8.556   3.751  1.00  0.00     0.031 C 
ATOM     61  C   UNL     1      17.412  -7.176   5.809  1.00  0.00     0.034 A 
BRANCH  48  62
ATOM     62  C   UNL     1      13.855  -4.342  10.033  1.00  0.00     0.023 A 
ATOM     63  C   UNL     1      13.258  -4.795  11.224  1.00  0.00     0.031 A 
ATOM     64  C   UNL     1      14.347  -3.025  10.005  1.00  0.00     0.131 A 
ATOM     65  C   UNL     1      13.094  -3.915  12.305  1.00  0.00     0.055 A 
ATOM     66  C   UNL     1      14.255  -2.181  11.114  1.00  0.00     0.041 A 
ATOM     67  F   UNL     1      14.910  -2.529   8.893  1.00  0.00    -0.206 F 
ATOM     68  C   UNL     1      13.611  -2.619  12.268  1.00  0.00     0.022 A 
BRANCH  65  69
ATOM     69  S   UNL     1      12.065  -4.444  13.702  1.00  0.00     0.124 S 
ATOM     70  O   UNL     1      10.788  -4.709  13.043  1.00  0.00    -0.237 OA
ATOM     71  O   UNL     1      12.783  -5.611  14.199  1.00  0.00    -0.237 OA
ATOM     72  O   UNL     1      12.069  -3.283  14.589  1.00  0.00    -0.744 OA
ENDBRANCH  65  69
ENDBRANCH  48  62
BRANCH  49  73
ATOM     73  C   UNL     1      13.876  -9.851   1.671  1.00  0.00     0.023 A 
ATOM     74  C   UNL     1      14.411 -11.147   1.605  1.00  0.00     0.031 A 
ATOM     75  C   UNL     1      13.381  -9.279   0.485  1.00  0.00     0.131 A 
ATOM     76  C   UNL     1      14.477 -11.814   0.372  1.00  0.00     0.055 A 
ATOM     77  C   UNL     1      13.405  -9.966  -0.730  1.00  0.00     0.041 A 
ATOM     78  F   UNL     1      12.852  -8.045   0.495  1.00  0.00    -0.206 F 
ATOM     79  C   UNL     1      13.967 -11.237  -0.793  1.00  0.00     0.022 A 
BRANCH  76  80
ATOM     80  S   UNL     1      15.308 -13.425   0.300  1.00  0.00     0.124 S 
ATOM     81  O   UNL     1      16.643 -13.093   0.785  1.00  0.00    -0.237 OA
ATOM     82  O   UNL     1      14.483 -14.231   1.193  1.00  0.00    -0.237 OA
ATOM     83  O   UNL     1      15.228 -13.785  -1.114  1.00  0.00    -0.744 OA
ENDBRANCH  76  80
ENDBRANCH  49  73
BRANCH  61  84
ATOM     84  C   UNL     1      18.916  -7.282   5.746  1.00  0.00     0.023 A 
ATOM     85  C   UNL     1      19.659  -6.672   4.720  1.00  0.00     0.031 A 
ATOM     86  C   UNL     1      19.613  -8.016   6.722  1.00  0.00     0.131 A 
ATOM     87  C   UNL     1      21.049  -6.851   4.663  1.00  0.00     0.055 A 
ATOM     88  C   UNL     1      21.003  -8.145   6.692  1.00  0.00     0.041 A 
ATOM     89  F   UNL     1      18.953  -8.620   7.724  1.00  0.00    -0.206 F 
ATOM     90  C   UNL     1      21.727  -7.571   5.651  1.00  0.00     0.022 A 
BRANCH  87  91
ATOM     91  S   UNL     1      21.955  -6.200   3.233  1.00  0.00     0.124 S 
ATOM     92  O   UNL     1      21.306  -6.890   2.123  1.00  0.00    -0.237 OA
ATOM     93  O   UNL     1      21.701  -4.766   3.329  1.00  0.00    -0.237 OA
ATOM     94  O   UNL     1      23.337  -6.601   3.490  1.00  0.00    -0.744 OA
ENDBRANCH  87  91
ENDBRANCH  61  84
ENDBRANCH  35  36
ENDBRANCH  27  30
ENDBRANCH  25  26
ENDBRANCH  24  25
ENDBRANCH   1  24
TORSDOF 19
