REMARK SMILES O=C(NCCCCNC(=O)[C@H]1CSCN1C(=O)c1cccc2cccnc12)c1ccc(-c2c3nc(c(-c4cc(S(=O)(=O)[O-])ccc4F)c4ccc([nH]4)c(-c4cc(S(=O)(=O)[O-])ccc4F)c4nc(c(-c5cc(S(=O)(=O)[O-])ccc5F)c5ccc2[nH]5)C=C4)C=C3)cc1
REMARK SMILES IDX 5 1 4 2 3 3 1 4 2 5 28 7 29 8 90 9 30 10 89 11 31 12 32 13
REMARK SMILES IDX 33 14 83 15 34 16 88 17 82 18 84 19 35 20 87 21 81 22 80 23
REMARK SMILES IDX 36 25 68 26 48 27 67 28 49 29 52 30 66 31 85 32 50 33 51 34
REMARK SMILES IDX 65 36 86 37 53 38 37 39 38 40 46 41 39 42 45 43 47 44 44 45
REMARK SMILES IDX 40 46 41 47 42 48 43 49 69 50 70 51 78 52 71 53 77 54 79 55
REMARK SMILES IDX 76 56 72 57 73 58 74 59 75 60 54 61 55 62 63 63 56 64 62 65
REMARK SMILES IDX 64 66 61 67 57 68 58 69 59 70 60 71 6 72 7 73 8 74 9 75
REMARK SMILES IDX 10 77 11 78 12 79 15 80 13 81 14 82 16 83 17 84 18 85 19 86
REMARK SMILES IDX 27 87 20 88 22 89 26 90 21 91 23 92 25 93 24 94
REMARK H PARENT 3 6 84 24 52 35 8 76
REMARK Flexibility Score: inf
ROOT
ATOM      1  C   UNL     1       5.316  -1.776   0.251  1.00  0.00     0.023 C 
ENDROOT
BRANCH   1   2
ATOM      2  C   UNL     1       4.778  -0.675  -0.645  1.00  0.00     0.116 C 
BRANCH   2   3
ATOM      3  N   UNL     1       3.314  -0.642  -0.709  1.00  0.00    -0.352 N 
ATOM      4  O   UNL     1       1.228   0.107  -0.265  1.00  0.00    -0.269 OA
ATOM      5  C   UNL     1       2.435   0.332  -0.294  1.00  0.00     0.251 C 
ATOM      6  H   UNL     1       2.896  -1.438  -1.109  1.00  0.00     0.163 HD
BRANCH   5   7
ATOM      7  C   UNL     1       2.971   1.640   0.130  1.00  0.00     0.039 A 
ATOM      8  C   UNL     1       4.011   2.212  -0.598  1.00  0.00     0.014 A 
ATOM      9  C   UNL     1       2.498   2.257   1.290  1.00  0.00     0.014 A 
ATOM     10  C   UNL     1       4.742   3.243  -0.039  1.00  0.00     0.010 A 
ATOM     11  C   UNL     1       3.142   3.403   1.768  1.00  0.00     0.010 A 
ATOM     12  C   UNL     1       4.302   3.875   1.135  1.00  0.00    -0.014 A 
BRANCH  12  13
ATOM     13  C   UNL     1       5.071   5.047   1.627  1.00  0.00     0.031 A 
ATOM     14  C   UNL     1       5.714   5.049   2.986  1.00  0.00     0.074 A 
ATOM     15  C   UNL     1       5.248   6.085   0.784  1.00  0.00     0.049 A 
ATOM     16  N   UNL     1       6.437   5.982   3.553  1.00  0.00    -0.248 NA
ATOM     17  C   UNL     1       5.505   3.862   3.826  1.00  0.00     0.031 C 
ATOM     18  C   UNL     1       4.675   6.177  -0.563  1.00  0.00     0.029 A 
ATOM     19  N   UNL     1       5.994   7.227   0.900  1.00  0.00    -0.354 N 
ATOM     20  C   UNL     1       6.736   5.515   4.829  1.00  0.00     0.074 A 
ATOM     21  C   UNL     1       6.093   4.223   4.958  1.00  0.00     0.031 C 
ATOM     22  C   UNL     1       5.170   7.255  -1.182  1.00  0.00     0.029 A 
ATOM     23  C   UNL     1       6.001   7.993  -0.242  1.00  0.00     0.049 A 
ATOM     24  H   UNL     1       6.478   7.475   1.721  1.00  0.00     0.167 HD
ATOM     25  C   UNL     1       7.476   6.114   5.797  1.00  0.00     0.034 A 
ATOM     26  C   UNL     1       6.589   9.175  -0.502  1.00  0.00     0.034 A 
ATOM     27  C   UNL     1       8.123   7.396   5.627  1.00  0.00     0.049 A 
ATOM     28  C   UNL     1       7.384   9.825   0.591  1.00  0.00     0.074 A 
ATOM     29  C   UNL     1       8.914   8.092   6.526  1.00  0.00     0.029 A 
ATOM     30  N   UNL     1       8.051   8.180   4.479  1.00  0.00    -0.354 N 
ATOM     31  N   UNL     1       7.633   9.384   1.803  1.00  0.00    -0.248 NA
ATOM     32  C   UNL     1       7.965  11.136   0.288  1.00  0.00     0.031 C 
ATOM     33  C   UNL     1       9.262   9.320   5.949  1.00  0.00     0.029 A 
ATOM     34  C   UNL     1       8.756   9.362   4.659  1.00  0.00     0.049 A 
ATOM     35  H   UNL     1       7.570   7.931   3.658  1.00  0.00     0.167 HD
ATOM     36  C   UNL     1       8.412  10.363   2.406  1.00  0.00     0.074 A 
ATOM     37  C   UNL     1       8.610  11.403   1.414  1.00  0.00     0.031 C 
ATOM     38  C   UNL     1       8.918  10.400   3.666  1.00  0.00     0.034 A 
BRANCH  25  39
ATOM     39  C   UNL     1       7.562   5.418   7.139  1.00  0.00     0.023 A 
ATOM     40  C   UNL     1       8.142   4.146   7.291  1.00  0.00     0.031 A 
ATOM     41  C   UNL     1       7.005   6.021   8.282  1.00  0.00     0.131 A 
ATOM     42  C   UNL     1       8.074   3.485   8.529  1.00  0.00     0.055 A 
ATOM     43  C   UNL     1       7.018   5.396   9.531  1.00  0.00     0.041 A 
ATOM     44  F   UNL     1       6.417   7.225   8.202  1.00  0.00    -0.206 F 
ATOM     45  C   UNL     1       7.538   4.111   9.656  1.00  0.00     0.022 A 
BRANCH  42  46
ATOM     46  S   UNL     1       8.536   1.732   8.604  1.00  0.00     0.124 S 
ATOM     47  O   UNL     1       7.668   1.153   7.581  1.00  0.00    -0.237 OA
ATOM     48  O   UNL     1       9.959   1.768   8.290  1.00  0.00    -0.237 OA
ATOM     49  O   UNL     1       8.207   1.348   9.976  1.00  0.00    -0.744 OA
ENDBRANCH  42  46
ENDBRANCH  25  39
BRANCH  26  50
ATOM     50  C   UNL     1       6.408   9.819  -1.832  1.00  0.00     0.023 A 
ATOM     51  C   UNL     1       7.493  10.012  -2.699  1.00  0.00     0.031 A 
ATOM     52  C   UNL     1       5.134  10.236  -2.263  1.00  0.00     0.131 A 
ATOM     53  C   UNL     1       7.288  10.624  -3.945  1.00  0.00     0.055 A 
ATOM     54  C   UNL     1       4.928  10.795  -3.523  1.00  0.00     0.041 A 
ATOM     55  F   UNL     1       4.061  10.066  -1.474  1.00  0.00    -0.206 F 
ATOM     56  C   UNL     1       6.011  11.001  -4.370  1.00  0.00     0.022 A 
BRANCH  53  57
ATOM     57  S   UNL     1       8.729  10.970  -4.991  1.00  0.00     0.124 S 
ATOM     58  O   UNL     1       9.520  11.841  -4.129  1.00  0.00    -0.237 OA
ATOM     59  O   UNL     1       9.265   9.632  -5.220  1.00  0.00    -0.237 OA
ATOM     60  O   UNL     1       8.148  11.615  -6.167  1.00  0.00    -0.744 OA
ENDBRANCH  53  57
ENDBRANCH  26  50
BRANCH  38  61
ATOM     61  C   UNL     1       9.763  11.600   4.011  1.00  0.00     0.023 A 
ATOM     62  C   UNL     1       9.209  12.889   4.102  1.00  0.00     0.031 A 
ATOM     63  C   UNL     1      11.147  11.456   4.206  1.00  0.00     0.131 A 
ATOM     64  C   UNL     1      10.047  13.993   4.316  1.00  0.00     0.055 A 
ATOM     65  C   UNL     1      11.966  12.551   4.481  1.00  0.00     0.041 A 
ATOM     66  F   UNL     1      11.727  10.248   4.125  1.00  0.00    -0.206 F 
ATOM     67  C   UNL     1      11.419  13.831   4.522  1.00  0.00     0.022 A 
BRANCH  64  68
ATOM     68  S   UNL     1       9.334  15.658   4.214  1.00  0.00     0.124 S 
ATOM     69  O   UNL     1       8.780  15.668   2.864  1.00  0.00    -0.237 OA
ATOM     70  O   UNL     1       8.362  15.649   5.302  1.00  0.00    -0.237 OA
ATOM     71  O   UNL     1      10.484  16.537   4.418  1.00  0.00    -0.744 OA
ENDBRANCH  64  68
ENDBRANCH  38  61
ENDBRANCH  12  13
ENDBRANCH   5   7
ENDBRANCH   2   3
ENDBRANCH   1   2
BRANCH   1  72
ATOM     72  C   UNL     1       4.787  -3.153  -0.098  1.00  0.00     0.023 C 
BRANCH  72  73
ATOM     73  C   UNL     1       5.123  -3.659  -1.494  1.00  0.00     0.116 C 
BRANCH  73  74
ATOM     74  N   UNL     1       6.505  -4.065  -1.607  1.00  0.00    -0.354 N 
ATOM     75  C   UNL     1       7.016  -5.331  -1.682  1.00  0.00     0.243 C 
ATOM     76  H   UNL     1       7.165  -3.335  -1.633  1.00  0.00     0.163 HD
ATOM     77  O   UNL     1       8.212  -5.447  -1.970  1.00  0.00    -0.273 OA
BRANCH  75  78
ATOM     78  C   UNL     1       6.071  -6.554  -1.655  1.00  0.00     0.185 C 
ATOM     79  C   UNL     1       6.819  -7.871  -1.793  1.00  0.00     0.106 C 
ATOM     80  N   UNL     1       5.088  -6.741  -0.577  1.00  0.00    -0.316 N 
ATOM     81  S   UNL     1       5.504  -9.125  -1.548  1.00  0.00    -0.138 SA
ATOM     82  C   UNL     1       4.319  -7.943  -0.795  1.00  0.00     0.190 C 
BRANCH  80  83
ATOM     83  C   UNL     1       5.409  -6.390   0.727  1.00  0.00     0.257 C 
ATOM     84  O   UNL     1       6.545  -6.041   1.044  1.00  0.00    -0.269 OA
BRANCH  83  85
ATOM     85  C   UNL     1       4.363  -6.402   1.793  1.00  0.00     0.066 A 
ATOM     86  C   UNL     1       4.787  -6.895   3.040  1.00  0.00     0.016 A 
ATOM     87  C   UNL     1       3.114  -5.765   1.634  1.00  0.00     0.083 A 
ATOM     88  C   UNL     1       3.984  -6.748   4.163  1.00  0.00     0.002 A 
ATOM     89  C   UNL     1       2.361  -5.548   2.815  1.00  0.00     0.001 A 
ATOM     90  N   UNL     1       2.637  -5.319   0.441  1.00  0.00    -0.255 NA
ATOM     91  C   UNL     1       2.786  -6.054   4.053  1.00  0.00     0.010 A 
ATOM     92  C   UNL     1       1.193  -4.774   2.749  1.00  0.00     0.012 A 
ATOM     93  C   UNL     1       1.502  -4.575   0.418  1.00  0.00     0.112 A 
ATOM     94  C   UNL     1       0.768  -4.254   1.538  1.00  0.00     0.021 A 
ENDBRANCH  83  85
ENDBRANCH  80  83
ENDBRANCH  75  78
ENDBRANCH  73  74
ENDBRANCH  72  73
ENDBRANCH   1  72
TORSDOF 16
