REMARK SMILES Cc1cc2nc(SCC(=O)NCCCCNC(=O)c3ccc(-c4c5nc(c(-c6cc(S(=O)(=O)[O-])ccc6F)c6ccc([nH]6)c(-c6cc(S(=O)(=O)[O-])ccc6F)c6nc(c(-c7cc(S(=O)(=O)[O-])ccc7F)c7ccc4[nH]7)C=C6)C=C5)cc3)[nH]c(=O)c2[nH]1
REMARK SMILES IDX 14 1 13 2 12 3 11 4 9 5 10 6 8 8 7 9 6 10 1 11 2 12 3 13
REMARK SMILES IDX 86 14 4 15 85 16 5 18 83 19 82 20 84 21 15 23 16 24 17 25
REMARK SMILES IDX 18 27 19 28 20 29 81 30 21 31 80 32 22 33 23 34 24 35 74 36
REMARK SMILES IDX 25 37 79 38 73 39 75 40 26 41 78 42 72 43 71 44 27 46 59 47
REMARK SMILES IDX 39 48 58 49 40 50 43 51 57 52 76 53 41 54 42 55 56 57 77 58
REMARK SMILES IDX 44 59 28 60 29 61 37 62 30 63 36 64 38 65 35 66 31 67 32 68
REMARK SMILES IDX 33 69 34 70 60 71 61 72 69 73 62 74 68 75 70 76 67 77 63 78
REMARK SMILES IDX 64 79 65 80 66 81 45 82 46 83 54 84 47 85 53 86 55 87 52 88
REMARK SMILES IDX 48 89 49 90 50 91 51 92
REMARK H PARENT 11 7 86 17 82 22 16 26 75 45 43 56
REMARK Flexibility Score: inf
ROOT
ATOM      1  C   UNL     1      -4.700   5.892   2.077  1.00  0.00     0.023 C 
ENDROOT
BRANCH   1   2
ATOM      2  C   UNL     1      -3.740   6.233   3.228  1.00  0.00     0.023 C 
BRANCH   2   3
ATOM      3  C   UNL     1      -4.359   6.205   4.631  1.00  0.00     0.116 C 
BRANCH   3   4
ATOM      4  N   UNL     1      -4.805   4.868   4.980  1.00  0.00    -0.355 N 
ATOM      5  C   UNL     1      -4.194   3.942   5.767  1.00  0.00     0.230 C 
ATOM      6  O   UNL     1      -4.583   2.772   5.738  1.00  0.00    -0.274 OA
ATOM      7  H   UNL     1      -5.668   4.593   4.594  1.00  0.00     0.163 HD
BRANCH   5   8
ATOM      8  C   UNL     1      -3.042   4.316   6.669  1.00  0.00     0.178 C 
BRANCH   8   9
ATOM      9  S   UNL     1      -1.469   4.487   5.824  1.00  0.00    -0.078 SA
BRANCH   9  10
ATOM     10  C   UNL     1      -1.261   3.104   4.778  1.00  0.00     0.169 A 
ATOM     11  C   UNL     1       1.025  -0.030   0.307  1.00  0.00     0.064 C 
ATOM     12  C   UNL     1       0.440   0.665   1.479  1.00  0.00     0.014 A 
ATOM     13  C   UNL     1       0.674   1.941   1.972  1.00  0.00     0.052 A 
ATOM     14  N   UNL     1      -0.518   0.074   2.282  1.00  0.00    -0.353 N 
ATOM     15  C   UNL     1      -0.188   2.108   3.063  1.00  0.00     0.097 A 
ATOM     16  C   UNL     1      -0.906   0.967   3.241  1.00  0.00     0.131 A 
ATOM     17  H   UNL     1      -0.863  -0.842   2.180  1.00  0.00     0.166 HD
ATOM     18  N   UNL     1      -0.345   3.235   3.863  1.00  0.00    -0.222 NA
ATOM     19  C   UNL     1      -1.889   0.822   4.263  1.00  0.00     0.275 A 
ATOM     20  N   UNL     1      -2.021   1.978   5.005  1.00  0.00    -0.300 N 
ATOM     21  O   UNL     1      -2.525  -0.192   4.472  1.00  0.00    -0.267 OA
ATOM     22  H   UNL     1      -2.689   1.999   5.728  1.00  0.00     0.172 HD
ENDBRANCH   9  10
ENDBRANCH   8   9
ENDBRANCH   5   8
ENDBRANCH   3   4
ENDBRANCH   2   3
ENDBRANCH   1   2
BRANCH   1  23
ATOM     23  C   UNL     1      -5.854   6.872   1.912  1.00  0.00     0.116 C 
BRANCH  23  24
ATOM     24  N   UNL     1      -5.391   8.211   1.562  1.00  0.00    -0.352 N 
ATOM     25  C   UNL     1      -6.141   9.343   1.329  1.00  0.00     0.251 C 
ATOM     26  H   UNL     1      -4.416   8.319   1.481  1.00  0.00     0.163 HD
ATOM     27  O   UNL     1      -5.661  10.276   0.693  1.00  0.00    -0.269 OA
BRANCH  25  28
ATOM     28  C   UNL     1      -7.515   9.432   1.857  1.00  0.00     0.039 A 
ATOM     29  C   UNL     1      -8.516  10.069   1.115  1.00  0.00     0.014 A 
ATOM     30  C   UNL     1      -7.791   8.913   3.122  1.00  0.00     0.014 A 
ATOM     31  C   UNL     1      -9.806  10.134   1.635  1.00  0.00     0.010 A 
ATOM     32  C   UNL     1      -9.084   8.882   3.589  1.00  0.00     0.010 A 
ATOM     33  C   UNL     1     -10.081   9.533   2.871  1.00  0.00    -0.014 A 
BRANCH  33  34
ATOM     34  C   UNL     1     -11.441   9.501   3.389  1.00  0.00     0.031 A 
ATOM     35  C   UNL     1     -12.398   8.712   2.569  1.00  0.00     0.074 A 
ATOM     36  C   UNL     1     -11.761   9.933   4.626  1.00  0.00     0.049 A 
ATOM     37  N   UNL     1     -13.367   9.148   1.834  1.00  0.00    -0.248 NA
ATOM     38  C   UNL     1     -12.145   7.269   2.431  1.00  0.00     0.031 C 
ATOM     39  C   UNL     1     -10.854  10.386   5.688  1.00  0.00     0.029 A 
ATOM     40  N   UNL     1     -12.974   9.948   5.239  1.00  0.00    -0.354 N 
ATOM     41  C   UNL     1     -13.991   8.011   1.321  1.00  0.00     0.074 A 
ATOM     42  C   UNL     1     -13.073   6.922   1.538  1.00  0.00     0.031 C 
ATOM     43  C   UNL     1     -11.517  10.411   6.865  1.00  0.00     0.029 A 
ATOM     44  C   UNL     1     -12.922  10.150   6.611  1.00  0.00     0.049 A 
ATOM     45  H   UNL     1     -13.819   9.827   4.749  1.00  0.00     0.167 HD
ATOM     46  C   UNL     1     -15.316   8.004   0.997  1.00  0.00     0.034 A 
ATOM     47  C   UNL     1     -13.957  10.061   7.481  1.00  0.00     0.034 A 
ATOM     48  C   UNL     1     -15.854   9.338   0.986  1.00  0.00     0.049 A 
ATOM     49  C   UNL     1     -15.210  10.168   6.698  1.00  0.00     0.074 A 
ATOM     50  C   UNL     1     -15.620  10.486   0.258  1.00  0.00     0.029 A 
ATOM     51  N   UNL     1     -16.538   9.728   2.112  1.00  0.00    -0.354 N 
ATOM     52  N   UNL     1     -15.600  11.249   6.084  1.00  0.00    -0.248 NA
ATOM     53  C   UNL     1     -15.839   8.934   6.254  1.00  0.00     0.031 C 
ATOM     54  C   UNL     1     -15.789  11.553   1.185  1.00  0.00     0.029 A 
ATOM     55  C   UNL     1     -16.173  11.011   2.415  1.00  0.00     0.049 A 
ATOM     56  H   UNL     1     -17.181   9.177   2.615  1.00  0.00     0.167 HD
ATOM     57  C   UNL     1     -16.159  10.790   4.901  1.00  0.00     0.074 A 
ATOM     58  C   UNL     1     -16.399   9.367   5.122  1.00  0.00     0.031 C 
ATOM     59  C   UNL     1     -16.103  11.542   3.763  1.00  0.00     0.034 A 
BRANCH  46  60
ATOM     60  C   UNL     1     -16.209   6.785   1.085  1.00  0.00     0.023 A 
ATOM     61  C   UNL     1     -15.834   5.612   1.764  1.00  0.00     0.031 A 
ATOM     62  C   UNL     1     -17.563   6.858   0.695  1.00  0.00     0.131 A 
ATOM     63  C   UNL     1     -16.745   4.578   2.015  1.00  0.00     0.055 A 
ATOM     64  C   UNL     1     -18.492   5.856   1.007  1.00  0.00     0.041 A 
ATOM     65  F   UNL     1     -18.039   7.937   0.053  1.00  0.00    -0.206 F 
ATOM     66  C   UNL     1     -18.085   4.706   1.671  1.00  0.00     0.022 A 
BRANCH  63  67
ATOM     67  S   UNL     1     -16.189   3.056   2.832  1.00  0.00     0.124 S 
ATOM     68  O   UNL     1     -17.051   3.015   4.008  1.00  0.00    -0.237 OA
ATOM     69  O   UNL     1     -16.466   2.055   1.805  1.00  0.00    -0.237 OA
ATOM     70  O   UNL     1     -14.774   3.304   3.087  1.00  0.00    -0.744 OA
ENDBRANCH  63  67
ENDBRANCH  46  60
BRANCH  47  71
ATOM     71  C   UNL     1     -13.941   9.486   8.845  1.00  0.00     0.023 A 
ATOM     72  C   UNL     1     -13.002   8.493   9.177  1.00  0.00     0.031 A 
ATOM     73  C   UNL     1     -15.037   9.656   9.710  1.00  0.00     0.131 A 
ATOM     74  C   UNL     1     -13.206   7.665  10.289  1.00  0.00     0.055 A 
ATOM     75  C   UNL     1     -15.232   8.837  10.827  1.00  0.00     0.041 A 
ATOM     76  F   UNL     1     -15.980  10.572   9.441  1.00  0.00    -0.206 F 
ATOM     77  C   UNL     1     -14.323   7.822  11.111  1.00  0.00     0.022 A 
BRANCH  74  78
ATOM     78  S   UNL     1     -12.047   6.315  10.640  1.00  0.00     0.124 S 
ATOM     79  O   UNL     1     -11.927   6.374  12.096  1.00  0.00    -0.237 OA
ATOM     80  O   UNL     1     -12.766   5.161  10.115  1.00  0.00    -0.237 OA
ATOM     81  O   UNL     1     -10.844   6.704   9.910  1.00  0.00    -0.744 OA
ENDBRANCH  74  78
ENDBRANCH  47  71
BRANCH  59  82
ATOM     82  C   UNL     1     -15.712  12.997   3.878  1.00  0.00     0.023 A 
ATOM     83  C   UNL     1     -16.584  13.932   3.298  1.00  0.00     0.031 A 
ATOM     84  C   UNL     1     -14.458  13.459   4.319  1.00  0.00     0.131 A 
ATOM     85  C   UNL     1     -16.184  15.261   3.128  1.00  0.00     0.055 A 
ATOM     86  C   UNL     1     -14.086  14.803   4.207  1.00  0.00     0.041 A 
ATOM     87  F   UNL     1     -13.530  12.620   4.795  1.00  0.00    -0.206 F 
ATOM     88  C   UNL     1     -14.944  15.709   3.593  1.00  0.00     0.022 A 
BRANCH  85  89
ATOM     89  S   UNL     1     -17.214  16.405   2.178  1.00  0.00     0.124 S 
ATOM     90  O   UNL     1     -17.470  17.469   3.146  1.00  0.00    -0.237 OA
ATOM     91  O   UNL     1     -16.331  16.766   1.071  1.00  0.00    -0.237 OA
ATOM     92  O   UNL     1     -18.380  15.609   1.806  1.00  0.00    -0.744 OA
ENDBRANCH  85  89
ENDBRANCH  59  82
ENDBRANCH  33  34
ENDBRANCH  25  28
ENDBRANCH  23  24
ENDBRANCH   1  23
TORSDOF 16
