REMARK SMILES COc1ccc(C(C)(C)C)cc1CC(=O)NCCCCNC(=O)c1ccc(-c2c3nc(c(-c4cc(S(=O)(=O)[O-])ccc4F)c4ccc([nH]4)c(-c4cc(S(=O)(=O)[O-])ccc4F)c4nc(c(-c5cc(S(=O)(=O)[O-])ccc5F)c5ccc2[nH]5)C=C4)C=C3)cc1
REMARK SMILES IDX 19 1 18 2 17 3 16 4 14 5 15 6 13 8 12 9 3 10 4 11 5 12 11 13
REMARK SMILES IDX 6 14 2 15 1 16 7 17 8 18 9 19 10 20 20 21 21 22 22 23 23 25
REMARK SMILES IDX 24 26 25 27 86 28 26 29 85 30 27 31 28 32 29 33 79 34 30 35
REMARK SMILES IDX 84 36 78 37 80 38 31 39 83 40 77 41 76 42 32 44 64 45 44 46
REMARK SMILES IDX 63 47 45 48 48 49 62 50 81 51 46 52 47 53 61 55 82 56 49 57
REMARK SMILES IDX 33 58 34 59 42 60 35 61 41 62 43 63 40 64 36 65 37 66 38 67
REMARK SMILES IDX 39 68 65 69 66 70 74 71 67 72 73 73 75 74 72 75 68 76 69 77
REMARK SMILES IDX 70 78 71 79 50 80 51 81 59 82 52 83 58 84 60 85 57 86 53 87
REMARK SMILES IDX 54 88 55 89 56 90
REMARK H PARENT 16 7 21 24 80 43 48 54
REMARK Flexibility Score: inf
ROOT
ATOM      1  C   UNL     1       2.929  -3.188   4.841  1.00  0.00     0.023 C 
ENDROOT
BRANCH   1   2
ATOM      2  C   UNL     1       2.220  -2.637   3.601  1.00  0.00     0.023 C 
BRANCH   2   3
ATOM      3  C   UNL     1       2.908  -1.423   2.977  1.00  0.00     0.116 C 
BRANCH   3   4
ATOM      4  N   UNL     1       4.134  -1.797   2.298  1.00  0.00    -0.356 N 
ATOM      5  C   UNL     1       4.327  -2.010   0.962  1.00  0.00     0.224 C 
ATOM      6  O   UNL     1       5.423  -2.418   0.575  1.00  0.00    -0.275 OA
ATOM      7  H   UNL     1       4.926  -1.912   2.871  1.00  0.00     0.163 HD
BRANCH   5   8
ATOM      8  C   UNL     1       3.210  -1.698  -0.020  1.00  0.00     0.139 C 
BRANCH   8   9
ATOM      9  C   UNL     1       2.071  -2.691   0.008  1.00  0.00     0.004 A 
ATOM     10  C   UNL     1       0.752  -2.335   0.313  1.00  0.00     0.122 A 
ATOM     11  C   UNL     1      -0.224  -3.320   0.451  1.00  0.00     0.047 A 
ATOM     12  C   UNL     1       0.094  -4.665   0.245  1.00  0.00     0.008 A 
ATOM     13  C   UNL     1       2.365  -4.053  -0.226  1.00  0.00     0.012 A 
ATOM     14  C   UNL     1       1.396  -5.064  -0.102  1.00  0.00    -0.042 A 
BRANCH  10  15
ATOM     15  O   UNL     1       0.370  -1.064   0.652  1.00  0.00    -0.496 OA
ATOM     16  C   UNL     1       0.351  -0.166  -0.455  1.00  0.00     0.278 C 
ENDBRANCH  10  15
BRANCH  14  17
ATOM     17  C   UNL     1       1.725  -6.556  -0.292  1.00  0.00    -0.013 C 
ATOM     18  C   UNL     1       1.453  -7.323   1.021  1.00  0.00     0.016 C 
ATOM     19  C   UNL     1       0.841  -7.140  -1.415  1.00  0.00     0.016 C 
ATOM     20  C   UNL     1       3.197  -6.829  -0.680  1.00  0.00     0.016 C 
ENDBRANCH  14  17
ENDBRANCH   8   9
ENDBRANCH   5   8
ENDBRANCH   3   4
ENDBRANCH   2   3
ENDBRANCH   1   2
BRANCH   1  21
ATOM     21  C   UNL     1       3.088  -2.193   5.985  1.00  0.00     0.116 C 
BRANCH  21  22
ATOM     22  N   UNL     1       1.819  -1.679   6.474  1.00  0.00    -0.352 N 
ATOM     23  C   UNL     1       1.469  -1.360   7.768  1.00  0.00     0.251 C 
ATOM     24  H   UNL     1       1.121  -1.541   5.794  1.00  0.00     0.163 HD
ATOM     25  O   UNL     1       0.315  -1.060   8.036  1.00  0.00    -0.269 OA
BRANCH  23  26
ATOM     26  C   UNL     1       2.499  -1.431   8.829  1.00  0.00     0.039 A 
ATOM     27  C   UNL     1       2.207  -2.125  10.004  1.00  0.00     0.014 A 
ATOM     28  C   UNL     1       3.757  -0.850   8.645  1.00  0.00     0.014 A 
ATOM     29  C   UNL     1       3.203  -2.296  10.968  1.00  0.00     0.010 A 
ATOM     30  C   UNL     1       4.767  -1.082   9.574  1.00  0.00     0.010 A 
ATOM     31  C   UNL     1       4.502  -1.810  10.744  1.00  0.00    -0.014 A 
BRANCH  31  32
ATOM     32  C   UNL     1       5.595  -2.054  11.722  1.00  0.00     0.031 A 
ATOM     33  C   UNL     1       6.245  -0.896  12.429  1.00  0.00     0.074 A 
ATOM     34  C   UNL     1       6.044  -3.309  11.922  1.00  0.00     0.049 A 
ATOM     35  N   UNL     1       7.259  -0.894  13.256  1.00  0.00    -0.248 NA
ATOM     36  C   UNL     1       5.698   0.439  12.144  1.00  0.00     0.031 C 
ATOM     37  C   UNL     1       5.525  -4.507  11.259  1.00  0.00     0.029 A 
ATOM     38  N   UNL     1       7.045  -3.786  12.730  1.00  0.00    -0.354 N 
ATOM     39  C   UNL     1       7.479   0.440  13.582  1.00  0.00     0.074 A 
ATOM     40  C   UNL     1       6.535   1.220  12.810  1.00  0.00     0.031 C 
ATOM     41  C   UNL     1       6.197  -5.582  11.704  1.00  0.00     0.029 A 
ATOM     42  C   UNL     1       7.223  -5.148  12.646  1.00  0.00     0.049 A 
ATOM     43  H   UNL     1       7.586  -3.208  13.315  1.00  0.00     0.167 HD
ATOM     44  C   UNL     1       8.369   0.964  14.462  1.00  0.00     0.034 A 
ATOM     45  C   UNL     1       8.119  -5.954  13.249  1.00  0.00     0.034 A 
ATOM     46  C   UNL     1       9.299   0.170  15.229  1.00  0.00     0.049 A 
ATOM     47  C   UNL     1       9.114  -5.349  14.207  1.00  0.00     0.074 A 
ATOM     48  C   UNL     1      10.209   0.590  16.183  1.00  0.00     0.029 A 
ATOM     49  N   UNL     1       9.446  -1.208  15.123  1.00  0.00    -0.354 N 
ATOM     50  N   UNL     1       9.275  -4.090  14.544  1.00  0.00    -0.248 NA
ATOM     51  C   UNL     1      10.038  -6.274  14.875  1.00  0.00     0.031 C 
ATOM     52  C   UNL     1      10.950  -0.520  16.604  1.00  0.00     0.029 A 
ATOM     53  C   UNL     1      10.450  -1.648  15.972  1.00  0.00     0.049 A 
ATOM     54  H   UNL     1       8.914  -1.787  14.531  1.00  0.00     0.167 HD
ATOM     55  C   UNL     1      10.300  -4.078  15.486  1.00  0.00     0.074 A 
ATOM     56  C   UNL     1      10.706  -5.456  15.674  1.00  0.00     0.031 C 
ATOM     57  C   UNL     1      10.854  -3.025  16.141  1.00  0.00     0.034 A 
BRANCH  44  58
ATOM     58  C   UNL     1       8.386   2.467  14.618  1.00  0.00     0.023 A 
ATOM     59  C   UNL     1       7.263   3.172  15.086  1.00  0.00     0.031 A 
ATOM     60  C   UNL     1       9.525   3.210  14.262  1.00  0.00     0.131 A 
ATOM     61  C   UNL     1       7.273   4.575  15.106  1.00  0.00     0.055 A 
ATOM     62  C   UNL     1       9.559   4.602  14.367  1.00  0.00     0.041 A 
ATOM     63  F   UNL     1      10.621   2.597  13.789  1.00  0.00    -0.206 F 
ATOM     64  C   UNL     1       8.422   5.295  14.775  1.00  0.00     0.022 A 
BRANCH  61  65
ATOM     65  S   UNL     1       5.714   5.447  15.422  1.00  0.00     0.124 S 
ATOM     66  O   UNL     1       4.868   4.937  14.345  1.00  0.00    -0.237 OA
ATOM     67  O   UNL     1       5.371   5.003  16.768  1.00  0.00    -0.237 OA
ATOM     68  O   UNL     1       6.079   6.857  15.303  1.00  0.00    -0.744 OA
ENDBRANCH  61  65
ENDBRANCH  44  58
BRANCH  45  69
ATOM     69  C   UNL     1       8.131  -7.418  12.963  1.00  0.00     0.023 A 
ATOM     70  C   UNL     1       7.836  -8.356  13.964  1.00  0.00     0.031 A 
ATOM     71  C   UNL     1       8.477  -7.902  11.688  1.00  0.00     0.131 A 
ATOM     72  C   UNL     1       7.938  -9.728  13.690  1.00  0.00     0.055 A 
ATOM     73  C   UNL     1       8.526  -9.268  11.405  1.00  0.00     0.041 A 
ATOM     74  F   UNL     1       8.764  -7.048  10.692  1.00  0.00    -0.206 F 
ATOM     75  C   UNL     1       8.268 -10.191  12.414  1.00  0.00     0.022 A 
BRANCH  72  76
ATOM     76  S   UNL     1       7.714 -10.906  15.052  1.00  0.00     0.124 S 
ATOM     77  O   UNL     1       8.744 -10.475  15.990  1.00  0.00    -0.237 OA
ATOM     78  O   UNL     1       6.334 -10.648  15.451  1.00  0.00    -0.237 OA
ATOM     79  O   UNL     1       7.946 -12.203  14.421  1.00  0.00    -0.744 OA
ENDBRANCH  72  76
ENDBRANCH  45  69
BRANCH  57  80
ATOM     80  C   UNL     1      11.928  -3.336  17.155  1.00  0.00     0.023 A 
ATOM     81  C   UNL     1      13.177  -3.859  16.776  1.00  0.00     0.031 A 
ATOM     82  C   UNL     1      11.691  -3.116  18.524  1.00  0.00     0.131 A 
ATOM     83  C   UNL     1      14.119  -4.199  17.759  1.00  0.00     0.055 A 
ATOM     84  C   UNL     1      12.655  -3.399  19.492  1.00  0.00     0.041 A 
ATOM     85  F   UNL     1      10.515  -2.621  18.943  1.00  0.00    -0.206 F 
ATOM     86  C   UNL     1      13.873  -3.956  19.113  1.00  0.00     0.022 A 
BRANCH  83  87
ATOM     87  S   UNL     1      15.638  -5.052  17.252  1.00  0.00     0.124 S 
ATOM     88  O   UNL     1      15.112  -6.246  16.599  1.00  0.00    -0.237 OA
ATOM     89  O   UNL     1      16.269  -4.071  16.376  1.00  0.00    -0.237 OA
ATOM     90  O   UNL     1      16.334  -5.292  18.515  1.00  0.00    -0.744 OA
ENDBRANCH  83  87
ENDBRANCH  57  80
ENDBRANCH  31  32
ENDBRANCH  23  26
ENDBRANCH  21  22
ENDBRANCH   1  21
TORSDOF 17
