REMARK SMILES O=C(NCCCCNC(=O)[C@H]1CCCN1C(=S)Nc1ccccc1)c1ccc(-c2c3nc(c(-c4cc(S(=O)(=O)[O-])ccc4F)c4ccc([nH]4)c(-c4cc(S(=O)(=O)[O-])ccc4F)c4nc(c(-c5cc(S(=O)(=O)[O-])ccc5F)c5ccc2[nH]5)C=C4)C=C3)cc1
REMARK SMILES IDX 5 1 4 2 3 3 1 4 2 5 25 7 26 8 87 9 27 10 86 11 28 12 29 13
REMARK SMILES IDX 30 14 80 15 31 16 85 17 79 18 81 19 32 20 84 21 78 22 77 23
REMARK SMILES IDX 33 25 65 26 45 27 64 28 46 29 49 30 63 31 82 32 47 33 48 34
REMARK SMILES IDX 62 36 83 37 50 38 34 39 35 40 43 41 36 42 42 43 44 44 41 45
REMARK SMILES IDX 37 46 38 47 39 48 40 49 66 50 67 51 75 52 68 53 74 54 76 55
REMARK SMILES IDX 73 56 69 57 70 58 71 59 72 60 51 61 52 62 60 63 53 64 59 65
REMARK SMILES IDX 61 66 58 67 54 68 55 69 56 70 57 71 6 72 7 73 8 74 9 75
REMARK SMILES IDX 10 77 11 78 12 79 15 80 13 81 14 82 16 83 17 84 18 85 19 87
REMARK SMILES IDX 20 88 24 89 21 90 23 91 22 92
REMARK H PARENT 3 6 81 24 49 35 8 76 18 86
REMARK Flexibility Score: inf
ROOT
ATOM      1  C   UNL     1       3.699   5.600   1.487  1.00  0.00     0.023 C 
ENDROOT
BRANCH   1   2
ATOM      2  C   UNL     1       3.061   6.903   1.948  1.00  0.00     0.116 C 
BRANCH   2   3
ATOM      3  N   UNL     1       3.718   8.078   1.397  1.00  0.00    -0.352 N 
ATOM      4  O   UNL     1       3.939   9.908   0.102  1.00  0.00    -0.269 OA
ATOM      5  C   UNL     1       3.197   9.072   0.600  1.00  0.00     0.251 C 
ATOM      6  H   UNL     1       4.670   8.177   1.628  1.00  0.00     0.163 HD
BRANCH   5   7
ATOM      7  C   UNL     1       1.741   9.109   0.336  1.00  0.00     0.039 A 
ATOM      8  C   UNL     1       0.827   8.950   1.381  1.00  0.00     0.014 A 
ATOM      9  C   UNL     1       1.287   9.314  -0.970  1.00  0.00     0.014 A 
ATOM     10  C   UNL     1      -0.533   8.867   1.105  1.00  0.00     0.010 A 
ATOM     11  C   UNL     1      -0.086   9.317  -1.233  1.00  0.00     0.010 A 
ATOM     12  C   UNL     1      -1.006   9.078  -0.200  1.00  0.00    -0.014 A 
BRANCH  12  13
ATOM     13  C   UNL     1      -2.469   9.164  -0.438  1.00  0.00     0.031 A 
ATOM     14  C   UNL     1      -3.182   8.155  -1.293  1.00  0.00     0.074 A 
ATOM     15  C   UNL     1      -3.143  10.184   0.129  1.00  0.00     0.049 A 
ATOM     16  N   UNL     1      -4.445   8.115  -1.633  1.00  0.00    -0.248 NA
ATOM     17  C   UNL     1      -2.378   7.053  -1.844  1.00  0.00     0.031 C 
ATOM     18  C   UNL     1      -2.540  11.222   0.972  1.00  0.00     0.029 A 
ATOM     19  N   UNL     1      -4.471  10.525   0.088  1.00  0.00    -0.354 N 
ATOM     20  C   UNL     1      -4.587   7.002  -2.455  1.00  0.00     0.074 A 
ATOM     21  C   UNL     1      -3.275   6.399  -2.572  1.00  0.00     0.031 C 
ATOM     22  C   UNL     1      -3.495  12.068   1.382  1.00  0.00     0.029 A 
ATOM     23  C   UNL     1      -4.760  11.684   0.771  1.00  0.00     0.049 A 
ATOM     24  H   UNL     1      -5.151   9.992  -0.383  1.00  0.00     0.167 HD
ATOM     25  C   UNL     1      -5.711   6.538  -3.053  1.00  0.00     0.034 A 
ATOM     26  C   UNL     1      -5.904  12.390   0.857  1.00  0.00     0.034 A 
ATOM     27  C   UNL     1      -7.011   7.150  -2.905  1.00  0.00     0.049 A 
ATOM     28  C   UNL     1      -7.120  11.875   0.136  1.00  0.00     0.074 A 
ATOM     29  C   UNL     1      -8.230   6.706  -3.388  1.00  0.00     0.029 A 
ATOM     30  N   UNL     1      -7.258   8.347  -2.246  1.00  0.00    -0.354 N 
ATOM     31  N   UNL     1      -7.248  10.784  -0.584  1.00  0.00    -0.248 NA
ATOM     32  C   UNL     1      -8.340  12.683   0.233  1.00  0.00     0.031 C 
ATOM     33  C   UNL     1      -9.197   7.672  -3.091  1.00  0.00     0.029 A 
ATOM     34  C   UNL     1      -8.598   8.685  -2.360  1.00  0.00     0.049 A 
ATOM     35  H   UNL     1      -6.581   8.878  -1.767  1.00  0.00     0.167 HD
ATOM     36  C   UNL     1      -8.569  10.774  -1.019  1.00  0.00     0.074 A 
ATOM     37  C   UNL     1      -9.201  11.950  -0.456  1.00  0.00     0.031 C 
ATOM     38  C   UNL     1      -9.202   9.877  -1.815  1.00  0.00     0.034 A 
BRANCH  25  39
ATOM     39  C   UNL     1      -5.592   5.342  -3.966  1.00  0.00     0.023 A 
ATOM     40  C   UNL     1      -5.291   4.057  -3.483  1.00  0.00     0.031 A 
ATOM     41  C   UNL     1      -5.829   5.491  -5.345  1.00  0.00     0.131 A 
ATOM     42  C   UNL     1      -5.201   2.979  -4.379  1.00  0.00     0.055 A 
ATOM     43  C   UNL     1      -5.796   4.405  -6.221  1.00  0.00     0.041 A 
ATOM     44  F   UNL     1      -6.102   6.699  -5.863  1.00  0.00    -0.206 F 
ATOM     45  C   UNL     1      -5.474   3.140  -5.740  1.00  0.00     0.022 A 
BRANCH  42  46
ATOM     46  S   UNL     1      -4.639   1.371  -3.754  1.00  0.00     0.124 S 
ATOM     47  O   UNL     1      -3.312   1.699  -3.241  1.00  0.00    -0.237 OA
ATOM     48  O   UNL     1      -5.649   1.050  -2.753  1.00  0.00    -0.237 OA
ATOM     49  O   UNL     1      -4.646   0.519  -4.942  1.00  0.00    -0.744 OA
ENDBRANCH  42  46
ENDBRANCH  25  39
BRANCH  26  50
ATOM     50  C   UNL     1      -5.933  13.691   1.584  1.00  0.00     0.023 A 
ATOM     51  C   UNL     1      -6.762  13.883   2.699  1.00  0.00     0.031 A 
ATOM     52  C   UNL     1      -5.161  14.781   1.141  1.00  0.00     0.131 A 
ATOM     53  C   UNL     1      -6.836  15.147   3.304  1.00  0.00     0.055 A 
ATOM     54  C   UNL     1      -5.191  16.019   1.784  1.00  0.00     0.041 A 
ATOM     55  F   UNL     1      -4.351  14.654   0.077  1.00  0.00    -0.206 F 
ATOM     56  C   UNL     1      -6.045  16.212   2.864  1.00  0.00     0.022 A 
BRANCH  53  57
ATOM     57  S   UNL     1      -8.067  15.412   4.608  1.00  0.00     0.124 S 
ATOM     58  O   UNL     1      -9.296  14.980   3.951  1.00  0.00    -0.237 OA
ATOM     59  O   UNL     1      -7.570  14.545   5.671  1.00  0.00    -0.237 OA
ATOM     60  O   UNL     1      -7.973  16.845   4.878  1.00  0.00    -0.744 OA
ENDBRANCH  53  57
ENDBRANCH  26  50
BRANCH  38  61
ATOM     61  C   UNL     1     -10.656  10.141  -2.105  1.00  0.00     0.023 A 
ATOM     62  C   UNL     1     -11.056  11.223  -2.908  1.00  0.00     0.031 A 
ATOM     63  C   UNL     1     -11.653   9.313  -1.560  1.00  0.00     0.131 A 
ATOM     64  C   UNL     1     -12.420  11.479  -3.105  1.00  0.00     0.055 A 
ATOM     65  C   UNL     1     -13.007   9.539  -1.806  1.00  0.00     0.041 A 
ATOM     66  F   UNL     1     -11.324   8.269  -0.782  1.00  0.00    -0.206 F 
ATOM     67  C   UNL     1     -13.398  10.633  -2.573  1.00  0.00     0.022 A 
BRANCH  64  68
ATOM     68  S   UNL     1     -12.904  12.975  -4.008  1.00  0.00     0.124 S 
ATOM     69  O   UNL     1     -12.377  14.030  -3.149  1.00  0.00    -0.237 OA
ATOM     70  O   UNL     1     -12.230  12.800  -5.290  1.00  0.00    -0.237 OA
ATOM     71  O   UNL     1     -14.362  12.887  -4.059  1.00  0.00    -0.744 OA
ENDBRANCH  64  68
ENDBRANCH  38  61
ENDBRANCH  12  13
ENDBRANCH   5   7
ENDBRANCH   2   3
ENDBRANCH   1   2
BRANCH   1  72
ATOM     72  C   UNL     1       5.156   5.403   1.899  1.00  0.00     0.023 C 
BRANCH  72  73
ATOM     73  C   UNL     1       5.458   5.629   3.376  1.00  0.00     0.116 C 
BRANCH  73  74
ATOM     74  N   UNL     1       4.709   4.759   4.263  1.00  0.00    -0.354 N 
ATOM     75  C   UNL     1       5.117   4.203   5.450  1.00  0.00     0.242 C 
ATOM     76  H   UNL     1       3.793   4.539   3.978  1.00  0.00     0.163 HD
ATOM     77  O   UNL     1       4.280   3.618   6.140  1.00  0.00    -0.273 OA
BRANCH  75  78
ATOM     78  C   UNL     1       6.590   4.381   5.879  1.00  0.00     0.173 C 
ATOM     79  C   UNL     1       6.861   5.811   6.353  1.00  0.00     0.037 C 
ATOM     80  N   UNL     1       6.995   3.546   7.021  1.00  0.00    -0.337 N 
ATOM     81  C   UNL     1       6.508   5.755   7.824  1.00  0.00     0.024 C 
ATOM     82  C   UNL     1       6.973   4.369   8.239  1.00  0.00     0.120 C 
BRANCH  80  83
ATOM     83  C   UNL     1       7.233   2.192   7.064  1.00  0.00     0.174 C 
ATOM     84  S   UNL     1       7.655   1.363   8.478  1.00  0.00    -0.041 S 
BRANCH  83  85
ATOM     85  N   UNL     1       6.994   1.372   6.010  1.00  0.00    -0.333 N 
ATOM     86  H   UNL     1       6.736   0.465   6.295  1.00  0.00     0.169 HD
BRANCH  85  87
ATOM     87  C   UNL     1       7.023   1.500   4.618  1.00  0.00     0.040 A 
ATOM     88  C   UNL     1       6.116   0.724   3.889  1.00  0.00     0.026 A 
ATOM     89  C   UNL     1       7.958   2.275   3.936  1.00  0.00     0.026 A 
ATOM     90  C   UNL     1       6.056   0.826   2.499  1.00  0.00     0.002 A 
ATOM     91  C   UNL     1       7.896   2.385   2.543  1.00  0.00     0.002 A 
ATOM     92  C   UNL     1       6.932   1.675   1.828  1.00  0.00     0.000 A 
ENDBRANCH  85  87
ENDBRANCH  83  85
ENDBRANCH  80  83
ENDBRANCH  75  78
ENDBRANCH  73  74
ENDBRANCH  72  73
ENDBRANCH   1  72
TORSDOF 17
