REMARK SMILES C[C@@H]1C[N@H+](Cc2ccccc2)CC[C@@H]1CC(=O)NCCCCNC(=O)c1ccc(-c2c3nc(c(-c4cc(S(=O)(=O)[O-])ccc4F)c4ccc([nH]4)c(-c4cc(S(=O)(=O)[O-])ccc4F)c4nc(c(-c5cc(S(=O)(=O)[O-])ccc5F)c5ccc2[nH]5)C=C4)C=C3)cc1
REMARK SMILES IDX 20 1 19 2 18 3 16 4 17 5 15 7 14 8 1 9 2 10 3 11 4 12 13 13
REMARK SMILES IDX 12 14 5 16 6 17 7 18 11 19 8 20 10 21 9 22 21 23 22 24 23 25
REMARK SMILES IDX 24 26 25 28 26 29 27 30 88 31 28 32 87 33 29 34 30 35 31 36
REMARK SMILES IDX 81 37 32 38 86 39 80 40 82 41 33 42 85 43 79 44 78 45 34 47
REMARK SMILES IDX 66 48 46 49 65 50 47 51 50 52 64 53 83 54 48 55 49 56 63 58
REMARK SMILES IDX 84 59 51 60 35 61 36 62 44 63 37 64 43 65 45 66 42 67 38 68
REMARK SMILES IDX 39 69 40 70 41 71 67 72 68 73 76 74 69 75 75 76 77 77 74 78
REMARK SMILES IDX 70 79 71 80 72 81 73 82 52 83 53 84 61 85 54 86 60 87 62 88
REMARK SMILES IDX 59 89 55 90 56 91 57 92 58 93
REMARK H PARENT 18 6 4 15 23 27 82 46 50 57
REMARK Flexibility Score: inf
ROOT
ATOM      1  C   UNL     1       1.125   0.425  -3.673  1.00  0.00     0.023 C 
ENDROOT
BRANCH   1   2
ATOM      2  C   UNL     1       1.935  -0.865  -3.535  1.00  0.00     0.116 C 
BRANCH   2   3
ATOM      3  N   UNL     1       2.865  -0.910  -2.429  1.00  0.00    -0.356 N 
ATOM      4  C   UNL     1       2.751  -1.488  -1.208  1.00  0.00     0.220 C 
ATOM      5  O   UNL     1       3.787  -1.677  -0.565  1.00  0.00    -0.275 OA
ATOM      6  H   UNL     1       3.718  -0.446  -2.588  1.00  0.00     0.163 HD
BRANCH   4   7
ATOM      7  C   UNL     1       1.410  -1.907  -0.646  1.00  0.00     0.104 C 
BRANCH   7   8
ATOM      8  C   UNL     1       0.322  -0.833  -0.411  1.00  0.00     0.012 C 
ATOM      9  C   UNL     1       2.149   0.740   0.664  1.00  0.00     0.014 C 
ATOM     10  C   UNL     1       0.770   0.596   0.018  1.00  0.00     0.045 C 
ATOM     11  C   UNL     1      -0.311   1.448   0.720  1.00  0.00     0.265 C 
ATOM     12  N   UNL     1      -1.273   0.765   1.562  1.00  0.00    -0.331 N 
ATOM     13  C   UNL     1      -0.754  -1.434   0.511  1.00  0.00     0.066 C 
ATOM     14  C   UNL     1      -1.817  -0.433   0.954  1.00  0.00     0.262 C 
ATOM     15  H   UNL     1      -2.076   1.394   1.586  1.00  0.00     0.348 HD
BRANCH  12  16
ATOM     16  C   UNL     1      -1.037   0.770   3.006  1.00  0.00     0.299 C 
BRANCH  16  17
ATOM     17  C   UNL     1      -0.119  -0.296   3.554  1.00  0.00     0.006 A 
ATOM     18  C   UNL     1      -0.626  -1.545   3.946  1.00  0.00     0.009 A 
ATOM     19  C   UNL     1       1.261  -0.085   3.626  1.00  0.00     0.009 A 
ATOM     20  C   UNL     1       0.237  -2.586   4.291  1.00  0.00     0.001 A 
ATOM     21  C   UNL     1       2.127  -1.131   3.948  1.00  0.00     0.001 A 
ATOM     22  C   UNL     1       1.615  -2.386   4.263  1.00  0.00     0.000 A 
ENDBRANCH  16  17
ENDBRANCH  12  16
ENDBRANCH   7   8
ENDBRANCH   4   7
ENDBRANCH   2   3
ENDBRANCH   1   2
BRANCH   1  23
ATOM     23  C   UNL     1       1.844   1.726  -3.318  1.00  0.00     0.023 C 
BRANCH  23  24
ATOM     24  C   UNL     1       3.065   2.046  -4.153  1.00  0.00     0.116 C 
BRANCH  24  25
ATOM     25  N   UNL     1       2.711   2.363  -5.520  1.00  0.00    -0.352 N 
ATOM     26  C   UNL     1       2.894   3.535  -6.212  1.00  0.00     0.251 C 
ATOM     27  H   UNL     1       2.277   1.637  -6.024  1.00  0.00     0.163 HD
ATOM     28  O   UNL     1       2.299   3.699  -7.272  1.00  0.00    -0.269 OA
BRANCH  26  29
ATOM     29  C   UNL     1       3.787   4.595  -5.680  1.00  0.00     0.039 A 
ATOM     30  C   UNL     1       3.442   5.933  -5.890  1.00  0.00     0.014 A 
ATOM     31  C   UNL     1       4.984   4.283  -5.027  1.00  0.00     0.014 A 
ATOM     32  C   UNL     1       4.283   6.951  -5.431  1.00  0.00     0.010 A 
ATOM     33  C   UNL     1       5.774   5.295  -4.489  1.00  0.00     0.010 A 
ATOM     34  C   UNL     1       5.451   6.640  -4.718  1.00  0.00    -0.014 A 
BRANCH  34  35
ATOM     35  C   UNL     1       6.406   7.697  -4.296  1.00  0.00     0.031 A 
ATOM     36  C   UNL     1       7.787   7.723  -4.900  1.00  0.00     0.074 A 
ATOM     37  C   UNL     1       6.052   8.600  -3.361  1.00  0.00     0.049 A 
ATOM     38  N   UNL     1       8.807   8.489  -4.612  1.00  0.00    -0.248 NA
ATOM     39  C   UNL     1       8.065   6.728  -5.949  1.00  0.00     0.031 C 
ATOM     40  C   UNL     1       4.751   8.660  -2.692  1.00  0.00     0.029 A 
ATOM     41  N   UNL     1       6.756   9.640  -2.809  1.00  0.00    -0.354 N 
ATOM     42  C   UNL     1       9.848   8.059  -5.429  1.00  0.00     0.074 A 
ATOM     43  C   UNL     1       9.355   6.920  -6.173  1.00  0.00     0.031 C 
ATOM     44  C   UNL     1       4.743   9.699  -1.839  1.00  0.00     0.029 A 
ATOM     45  C   UNL     1       6.048  10.352  -1.869  1.00  0.00     0.049 A 
ATOM     46  H   UNL     1       7.683   9.856  -3.062  1.00  0.00     0.167 HD
ATOM     47  C   UNL     1      11.090   8.583  -5.572  1.00  0.00     0.034 A 
ATOM     48  C   UNL     1       6.416  11.407  -1.115  1.00  0.00     0.034 A 
ATOM     49  C   UNL     1      11.557   9.735  -4.843  1.00  0.00     0.049 A 
ATOM     50  C   UNL     1       7.809  11.964  -1.282  1.00  0.00     0.074 A 
ATOM     51  C   UNL     1      12.788  10.364  -4.913  1.00  0.00     0.029 A 
ATOM     52  N   UNL     1      10.803  10.439  -3.913  1.00  0.00    -0.354 N 
ATOM     53  N   UNL     1       8.776  11.552  -2.071  1.00  0.00    -0.248 NA
ATOM     54  C   UNL     1       8.156  13.135  -0.467  1.00  0.00     0.031 C 
ATOM     55  C   UNL     1      12.793  11.421  -3.997  1.00  0.00     0.029 A 
ATOM     56  C   UNL     1      11.545  11.490  -3.398  1.00  0.00     0.049 A 
ATOM     57  H   UNL     1       9.878  10.224  -3.657  1.00  0.00     0.167 HD
ATOM     58  C   UNL     1       9.830  12.439  -1.872  1.00  0.00     0.074 A 
ATOM     59  C   UNL     1       9.376  13.414  -0.902  1.00  0.00     0.031 C 
ATOM     60  C   UNL     1      11.064  12.452  -2.438  1.00  0.00     0.034 A 
BRANCH  47  61
ATOM     61  C   UNL     1      12.021   7.902  -6.545  1.00  0.00     0.023 A 
ATOM     62  C   UNL     1      11.739   7.858  -7.922  1.00  0.00     0.031 A 
ATOM     63  C   UNL     1      13.188   7.262  -6.092  1.00  0.00     0.131 A 
ATOM     64  C   UNL     1      12.568   7.127  -8.785  1.00  0.00     0.055 A 
ATOM     65  C   UNL     1      14.053   6.604  -6.969  1.00  0.00     0.041 A 
ATOM     66  F   UNL     1      13.500   7.252  -4.787  1.00  0.00    -0.206 F 
ATOM     67  C   UNL     1      13.738   6.521  -8.323  1.00  0.00     0.022 A 
BRANCH  64  68
ATOM     68  S   UNL     1      12.027   6.871 -10.497  1.00  0.00     0.124 S 
ATOM     69  O   UNL     1      10.797   6.105 -10.304  1.00  0.00    -0.237 OA
ATOM     70  O   UNL     1      11.860   8.235 -10.985  1.00  0.00    -0.237 OA
ATOM     71  O   UNL     1      13.130   6.124 -11.097  1.00  0.00    -0.744 OA
ENDBRANCH  64  68
ENDBRANCH  47  61
BRANCH  48  72
ATOM     72  C   UNL     1       5.470  12.015  -0.136  1.00  0.00     0.023 A 
ATOM     73  C   UNL     1       5.036  13.343  -0.284  1.00  0.00     0.031 A 
ATOM     74  C   UNL     1       5.039  11.305   0.998  1.00  0.00     0.131 A 
ATOM     75  C   UNL     1       4.250  13.939   0.714  1.00  0.00     0.055 A 
ATOM     76  C   UNL     1       4.209  11.885   1.960  1.00  0.00     0.041 A 
ATOM     77  F   UNL     1       5.419  10.031   1.187  1.00  0.00    -0.206 F 
ATOM     78  C   UNL     1       3.824  13.216   1.830  1.00  0.00     0.022 A 
BRANCH  75  79
ATOM     79  S   UNL     1       3.885  15.711   0.586  1.00  0.00     0.124 S 
ATOM     80  O   UNL     1       5.220  16.282   0.452  1.00  0.00    -0.237 OA
ATOM     81  O   UNL     1       3.043  15.760  -0.605  1.00  0.00    -0.237 OA
ATOM     82  O   UNL     1       3.202  16.009   1.843  1.00  0.00    -0.744 OA
ENDBRANCH  75  79
ENDBRANCH  48  72
BRANCH  60  83
ATOM     83  C   UNL     1      11.973  13.592  -2.059  1.00  0.00     0.023 A 
ATOM     84  C   UNL     1      12.513  13.708  -0.767  1.00  0.00     0.031 A 
ATOM     85  C   UNL     1      12.290  14.583  -3.005  1.00  0.00     0.131 A 
ATOM     86  C   UNL     1      13.296  14.823  -0.438  1.00  0.00     0.055 A 
ATOM     87  C   UNL     1      13.115  15.662  -2.687  1.00  0.00     0.041 A 
ATOM     88  F   UNL     1      11.801  14.516  -4.254  1.00  0.00    -0.206 F 
ATOM     89  C   UNL     1      13.612  15.793  -1.394  1.00  0.00     0.022 A 
BRANCH  86  90
ATOM     90  S   UNL     1      13.831  15.033   1.282  1.00  0.00     0.124 S 
ATOM     91  O   UNL     1      12.557  15.085   1.992  1.00  0.00    -0.237 OA
ATOM     92  O   UNL     1      14.637  13.837   1.506  1.00  0.00    -0.237 OA
ATOM     93  O   UNL     1      14.580  16.288   1.258  1.00  0.00    -0.744 OA
ENDBRANCH  86  90
ENDBRANCH  60  83
ENDBRANCH  34  35
ENDBRANCH  26  29
ENDBRANCH  24  25
ENDBRANCH  23  24
ENDBRANCH   1  23
TORSDOF 17
