REMARK SMILES CCN(CC)c1ccc([C@@H]2c3[nH]c4ccccc4c3C[C@@H](C(=O)NCCCCNC(=O)c3ccc(-c4c5nc(c(-c6cc(S(=O)(=O)[O-])ccc6F)c6ccc([nH]6)c(-c6cc(S(=O)(=O)[O-])ccc6F)c6nc(c(-c7cc(S(=O)(=O)[O-])ccc7F)c7ccc4[nH]7)C=C6)C=C5)cc3)N2C(C)=O)cc1
REMARK SMILES IDX 26 1 25 2 24 3 22 4 23 5 21 7 10 8 11 9 95 10 12 11 19 12
REMARK SMILES IDX 13 13 18 15 20 16 14 17 17 18 15 19 16 20 9 21 6 22 7 23
REMARK SMILES IDX 100 24 8 25 99 26 3 27 2 28 1 29 4 30 5 31 96 32 97 33 98 34
REMARK SMILES IDX 27 35 28 36 29 37 30 38 31 40 32 41 33 42 94 43 34 44 93 45
REMARK SMILES IDX 35 46 36 47 37 48 87 49 38 50 92 51 86 52 88 53 39 54 91 55
REMARK SMILES IDX 85 56 84 57 40 59 72 60 52 61 71 62 53 63 56 64 70 65 89 66
REMARK SMILES IDX 54 67 55 68 69 70 90 71 57 72 41 73 42 74 50 75 43 76 49 77
REMARK SMILES IDX 51 78 48 79 44 80 45 81 46 82 47 83 73 84 74 85 82 86 75 87
REMARK SMILES IDX 81 88 83 89 80 90 76 91 77 92 78 93 79 94 58 95 59 96 67 97
REMARK SMILES IDX 60 98 66 99 68 100 65 101 61 102 62 103 63 104 64 105
REMARK H PARENT 24 6 12 14 29 39 88 58 56 69
REMARK Flexibility Score: inf
ROOT
ATOM      1  C   UNL     1       6.536  -5.566   2.557  1.00  0.00     0.023 C 
ENDROOT
BRANCH   1   2
ATOM      2  C   UNL     1       7.964  -5.290   2.081  1.00  0.00     0.116 C 
BRANCH   2   3
ATOM      3  N   UNL     1       8.112  -4.029   1.343  1.00  0.00    -0.354 N 
ATOM      4  C   UNL     1       8.382  -2.725   1.619  1.00  0.00     0.243 C 
ATOM      5  O   UNL     1       8.471  -2.000   0.614  1.00  0.00    -0.273 OA
ATOM      6  H   UNL     1       7.978  -4.165   0.378  1.00  0.00     0.163 HD
BRANCH   4   7
ATOM      7  C   UNL     1       8.431  -2.033   3.020  1.00  0.00     0.179 C 
ATOM      8  C   UNL     1       5.992  -2.146   3.332  1.00  0.00     0.163 C 
ATOM      9  C   UNL     1       6.290  -3.046   4.514  1.00  0.00     0.047 A 
ATOM     10  N   UNL     1       7.168  -1.268   3.314  1.00  0.00    -0.318 N 
ATOM     11  N   UNL     1       5.414  -3.754   5.288  1.00  0.00    -0.356 N 
ATOM     12  C   UNL     1       7.576  -3.383   4.937  1.00  0.00    -0.014 A 
ATOM     13  C   UNL     1       6.089  -4.326   6.345  1.00  0.00     0.046 A 
ATOM     14  H   UNL     1       4.449  -3.843   5.117  1.00  0.00     0.166 HD
ATOM     15  C   UNL     1       7.454  -4.119   6.138  1.00  0.00     0.003 A 
ATOM     16  C   UNL     1       8.810  -2.908   4.230  1.00  0.00     0.073 C 
ATOM     17  C   UNL     1       5.596  -5.013   7.456  1.00  0.00     0.026 A 
ATOM     18  C   UNL     1       8.374  -4.617   7.076  1.00  0.00     0.010 A 
ATOM     19  C   UNL     1       6.526  -5.468   8.395  1.00  0.00     0.002 A 
ATOM     20  C   UNL     1       7.894  -5.275   8.211  1.00  0.00     0.001 A 
BRANCH   8  21
ATOM     21  C   UNL     1       4.619  -1.556   3.101  1.00  0.00    -0.019 A 
ATOM     22  C   UNL     1       1.929  -0.886   2.366  1.00  0.00     0.037 A 
ATOM     23  C   UNL     1       2.279  -1.235   3.675  1.00  0.00     0.026 A 
ATOM     24  C   UNL     1       2.998  -0.728   1.477  1.00  0.00     0.026 A 
ATOM     25  C   UNL     1       3.593  -1.552   4.043  1.00  0.00     0.008 A 
ATOM     26  C   UNL     1       4.314  -1.055   1.828  1.00  0.00     0.008 A 
BRANCH  22  27
ATOM     27  N   UNL     1       0.609  -0.721   1.965  1.00  0.00    -0.372 N 
BRANCH  27  28
ATOM     28  C   UNL     1       0.189  -1.216   0.642  1.00  0.00     0.113 C 
ATOM     29  C   UNL     1       0.244  -0.140  -0.431  1.00  0.00     0.027 C 
ENDBRANCH  27  28
BRANCH  27  30
ATOM     30  C   UNL     1      -0.462  -0.426   2.925  1.00  0.00     0.113 C 
ATOM     31  C   UNL     1      -0.982  -1.673   3.636  1.00  0.00     0.027 C 
ENDBRANCH  27  30
ENDBRANCH  22  27
ENDBRANCH   8  21
BRANCH  10  32
ATOM     32  C   UNL     1       7.110  -0.140   4.132  1.00  0.00     0.220 C 
ATOM     33  C   UNL     1       8.367   0.379   4.787  1.00  0.00     0.114 C 
ATOM     34  O   UNL     1       6.057   0.430   4.429  1.00  0.00    -0.275 OA
ENDBRANCH  10  32
ENDBRANCH   4   7
ENDBRANCH   2   3
ENDBRANCH   1   2
BRANCH   1  35
ATOM     35  C   UNL     1       5.959  -6.943   2.265  1.00  0.00     0.023 C 
BRANCH  35  36
ATOM     36  C   UNL     1       6.628  -8.102   2.992  1.00  0.00     0.116 C 
BRANCH  36  37
ATOM     37  N   UNL     1       6.430  -8.129   4.440  1.00  0.00    -0.352 N 
ATOM     38  C   UNL     1       6.051  -9.187   5.253  1.00  0.00     0.251 C 
ATOM     39  H   UNL     1       6.589  -7.276   4.904  1.00  0.00     0.163 HD
ATOM     40  O   UNL     1       5.912  -9.028   6.457  1.00  0.00    -0.269 OA
BRANCH  38  41
ATOM     41  C   UNL     1       5.739 -10.502   4.638  1.00  0.00     0.039 A 
ATOM     42  C   UNL     1       4.537 -11.140   4.960  1.00  0.00     0.014 A 
ATOM     43  C   UNL     1       6.569 -11.040   3.657  1.00  0.00     0.014 A 
ATOM     44  C   UNL     1       4.093 -12.217   4.183  1.00  0.00     0.010 A 
ATOM     45  C   UNL     1       6.073 -12.028   2.815  1.00  0.00     0.010 A 
ATOM     46  C   UNL     1       4.812 -12.608   3.044  1.00  0.00    -0.014 A 
BRANCH  46  47
ATOM     47  C   UNL     1       4.290 -13.584   2.042  1.00  0.00     0.031 A 
ATOM     48  C   UNL     1       5.141 -14.763   1.651  1.00  0.00     0.074 A 
ATOM     49  C   UNL     1       3.147 -13.333   1.368  1.00  0.00     0.049 A 
ATOM     50  N   UNL     1       5.058 -15.541   0.604  1.00  0.00    -0.248 NA
ATOM     51  C   UNL     1       6.281 -15.056   2.532  1.00  0.00     0.031 C 
ATOM     52  C   UNL     1       2.237 -12.211   1.615  1.00  0.00     0.029 A 
ATOM     53  N   UNL     1       2.567 -13.994   0.310  1.00  0.00    -0.354 N 
ATOM     54  C   UNL     1       6.171 -16.373   0.664  1.00  0.00     0.074 A 
ATOM     55  C   UNL     1       6.935 -15.964   1.825  1.00  0.00     0.031 C 
ATOM     56  C   UNL     1       1.212 -12.273   0.750  1.00  0.00     0.029 A 
ATOM     57  C   UNL     1       1.420 -13.394  -0.160  1.00  0.00     0.049 A 
ATOM     58  H   UNL     1       2.939 -14.820  -0.076  1.00  0.00     0.167 HD
ATOM     59  C   UNL     1       6.517 -17.392  -0.162  1.00  0.00     0.034 A 
ATOM     60  C   UNL     1       0.641 -13.690  -1.221  1.00  0.00     0.034 A 
ATOM     61  C   UNL     1       5.710 -17.827  -1.275  1.00  0.00     0.049 A 
ATOM     62  C   UNL     1       1.023 -14.848  -2.109  1.00  0.00     0.074 A 
ATOM     63  C   UNL     1       5.926 -18.889  -2.136  1.00  0.00     0.029 A 
ATOM     64  N   UNL     1       4.519 -17.232  -1.671  1.00  0.00    -0.354 N 
ATOM     65  N   UNL     1       2.078 -15.627  -2.039  1.00  0.00    -0.248 NA
ATOM     66  C   UNL     1       0.113 -15.168  -3.219  1.00  0.00     0.031 C 
ATOM     67  C   UNL     1       4.892 -18.909  -3.078  1.00  0.00     0.029 A 
ATOM     68  C   UNL     1       3.996 -17.899  -2.767  1.00  0.00     0.049 A 
ATOM     69  H   UNL     1       4.107 -16.450  -1.237  1.00  0.00     0.167 HD
ATOM     70  C   UNL     1       1.935 -16.552  -3.070  1.00  0.00     0.074 A 
ATOM     71  C   UNL     1       0.697 -16.233  -3.749  1.00  0.00     0.031 C 
ATOM     72  C   UNL     1       2.750 -17.578  -3.418  1.00  0.00     0.034 A 
BRANCH  59  73
ATOM     73  C   UNL     1       7.832 -18.085   0.104  1.00  0.00     0.023 A 
ATOM     74  C   UNL     1       8.080 -18.756   1.312  1.00  0.00     0.031 A 
ATOM     75  C   UNL     1       8.872 -18.028  -0.841  1.00  0.00     0.131 A 
ATOM     76  C   UNL     1       9.364 -19.248   1.589  1.00  0.00     0.055 A 
ATOM     77  C   UNL     1      10.119 -18.608  -0.599  1.00  0.00     0.041 A 
ATOM     78  F   UNL     1       8.702 -17.387  -2.009  1.00  0.00    -0.206 F 
ATOM     79  C   UNL     1      10.378 -19.204   0.631  1.00  0.00     0.022 A 
BRANCH  76  80
ATOM     80  S   UNL     1       9.730 -19.785   3.282  1.00  0.00     0.124 S 
ATOM     81  O   UNL     1       9.482 -18.559   4.037  1.00  0.00    -0.237 OA
ATOM     82  O   UNL     1       8.772 -20.865   3.486  1.00  0.00    -0.237 OA
ATOM     83  O   UNL     1      11.131 -20.196   3.216  1.00  0.00    -0.744 OA
ENDBRANCH  76  80
ENDBRANCH  59  73
BRANCH  60  84
ATOM     84  C   UNL     1      -0.571 -12.876  -1.524  1.00  0.00     0.023 A 
ATOM     85  C   UNL     1      -1.855 -13.437  -1.428  1.00  0.00     0.031 A 
ATOM     86  C   UNL     1      -0.467 -11.542  -1.956  1.00  0.00     0.131 A 
ATOM     87  C   UNL     1      -2.979 -12.685  -1.802  1.00  0.00     0.055 A 
ATOM     88  C   UNL     1      -1.592 -10.781  -2.279  1.00  0.00     0.041 A 
ATOM     89  F   UNL     1       0.736 -10.954  -2.059  1.00  0.00    -0.206 F 
ATOM     90  C   UNL     1      -2.858 -11.356  -2.216  1.00  0.00     0.022 A 
BRANCH  87  91
ATOM     91  S   UNL     1      -4.601 -13.498  -1.819  1.00  0.00     0.124 S 
ATOM     92  O   UNL     1      -4.373 -14.594  -2.752  1.00  0.00    -0.237 OA
ATOM     93  O   UNL     1      -4.766 -13.870  -0.418  1.00  0.00    -0.237 OA
ATOM     94  O   UNL     1      -5.502 -12.450  -2.293  1.00  0.00    -0.744 OA
ENDBRANCH  87  91
ENDBRANCH  60  84
BRANCH  72  95
ATOM     95  C   UNL     1       2.290 -18.482  -4.531  1.00  0.00     0.023 A 
ATOM     96  C   UNL     1       2.292 -18.072  -5.874  1.00  0.00     0.031 A 
ATOM     97  C   UNL     1       1.876 -19.794  -4.234  1.00  0.00     0.131 A 
ATOM     98  C   UNL     1       1.861 -18.960  -6.872  1.00  0.00     0.055 A 
ATOM     99  C   UNL     1       1.490 -20.685  -5.234  1.00  0.00     0.041 A 
ATOM    100  F   UNL     1       1.858 -20.232  -2.965  1.00  0.00    -0.206 F 
ATOM    101  C   UNL     1       1.476 -20.268  -6.562  1.00  0.00     0.022 A 
BRANCH  98 102
ATOM    102  S   UNL     1       1.778 -18.375  -8.587  1.00  0.00     0.124 S 
ATOM    103  O   UNL     1       0.773 -17.321  -8.499  1.00  0.00    -0.237 OA
ATOM    104  O   UNL     1       3.146 -17.932  -8.835  1.00  0.00    -0.237 OA
ATOM    105  O   UNL     1       1.368 -19.562  -9.335  1.00  0.00    -0.744 OA
ENDBRANCH  98 102
ENDBRANCH  72  95
ENDBRANCH  46  47
ENDBRANCH  38  41
ENDBRANCH  36  37
ENDBRANCH  35  36
ENDBRANCH   1  35
TORSDOF 19
