REMARK SMILES Cc1c(C(=O)NCCCCNC(=O)c2ccc(-c3c4nc(c(-c5cc(S(=O)(=O)[O-])ccc5F)c5ccc([nH]5)c(-c5cc(S(=O)(=O)[O-])ccc5F)c5nc(c(-c6cc(S(=O)(=O)[O-])ccc6F)c6ccc3[nH]6)C=C5)C=C4)cc2)sc2ncn(N3CCCCCC3)c(=O)c12
REMARK SMILES IDX 8 1 7 2 6 3 4 4 5 5 3 7 1 8 2 9 91 10 77 11 78 12 89 13
REMARK SMILES IDX 79 14 81 15 90 16 80 17 82 18 83 19 84 20 85 21 88 23 87 24
REMARK SMILES IDX 86 25 9 27 10 28 11 29 12 30 13 32 14 33 15 34 76 35 16 36
REMARK SMILES IDX 75 37 17 38 18 39 19 40 69 41 20 42 74 43 68 44 70 45 21 46
REMARK SMILES IDX 73 47 67 48 66 49 22 51 54 52 34 53 53 54 35 55 38 56 52 57
REMARK SMILES IDX 71 58 36 59 37 60 51 62 72 63 39 64 23 65 24 66 32 67 25 68
REMARK SMILES IDX 31 69 33 70 30 71 26 72 27 73 28 74 29 75 55 76 56 77 64 78
REMARK SMILES IDX 57 79 63 80 65 81 62 82 58 83 59 84 60 85 61 86 40 87 41 88
REMARK SMILES IDX 49 89 42 90 48 91 50 92 47 93 43 94 44 95 45 96 46 97
REMARK H PARENT 6 6 11 31 70 50 38 61
REMARK Flexibility Score: 90.00
ROOT
ATOM      1  C   UNL     1      -0.475   5.442  -2.746  1.00  0.00     0.023 C 
ENDROOT
BRANCH   1   2
ATOM      2  C   UNL     1       0.891   4.750  -2.695  1.00  0.00     0.116 C 
BRANCH   2   3
ATOM      3  N   UNL     1       1.126   4.160  -1.390  1.00  0.00    -0.351 N 
ATOM      4  C   UNL     1       0.925   2.905  -0.866  1.00  0.00     0.261 C 
ATOM      5  O   UNL     1       1.226   2.803   0.327  1.00  0.00    -0.268 OA
ATOM      6  H   UNL     1       1.511   4.794  -0.742  1.00  0.00     0.163 HD
BRANCH   4   7
ATOM      7  C   UNL     1       0.431   1.759  -1.638  1.00  0.00     0.098 A 
ATOM      8  C   UNL     1       1.049  -0.084   0.042  1.00  0.00     0.047 C 
ATOM      9  C   UNL     1       0.505   0.408  -1.269  1.00  0.00    -0.012 A 
ATOM     10  C   UNL     1       0.032  -0.449  -2.335  1.00  0.00     0.082 A 
ATOM     11  S   UNL     1      -0.438   1.922  -3.101  1.00  0.00    -0.110 S 
ATOM     12  C   UNL     1      -0.417   0.268  -3.422  1.00  0.00     0.131 A 
ATOM     13  C   UNL     1      -0.069  -1.902  -2.406  1.00  0.00     0.281 A 
ATOM     14  N   UNL     1      -0.884  -0.209  -4.603  1.00  0.00    -0.225 NA
ATOM     15  N   UNL     1      -0.681  -2.351  -3.593  1.00  0.00    -0.210 N 
ATOM     16  O   UNL     1       0.292  -2.643  -1.494  1.00  0.00    -0.267 OA
ATOM     17  C   UNL     1      -1.003  -1.496  -4.633  1.00  0.00     0.226 A 
BRANCH  15  18
ATOM     18  N   UNL     1      -1.180  -3.663  -3.604  1.00  0.00    -0.309 N 
BRANCH  18  19
ATOM     19  C   UNL     1      -2.593  -3.758  -3.281  1.00  0.00     0.137 C 
BRANCH  19  20
ATOM     20  C   UNL     1      -2.755  -4.610  -2.027  1.00  0.00     0.023 C 
BRANCH  20  21
ATOM     21  C   UNL     1      -2.529  -6.104  -2.244  1.00  0.00     0.002 CG0
ATOM     22  G   UNL     1      -1.214  -6.496  -2.926  1.00  0.00     0.000 G0
ENDBRANCH  20  21
ENDBRANCH  19  20
ENDBRANCH  18  19
BRANCH  18  23
ATOM     23  C   UNL     1      -0.602  -4.596  -4.548  1.00  0.00     0.137 C 
BRANCH  23  24
ATOM     24  C   UNL     1      -1.120  -6.030  -4.383  1.00  0.00     0.023 C 
BRANCH  24  25
ATOM     25  C   UNL     1      -1.214  -6.496  -2.926  1.00  0.00     0.002 CG0
ATOM     26  G   UNL     1      -2.529  -6.104  -2.244  1.00  0.00     0.000 G0
ENDBRANCH  24  25
ENDBRANCH  23  24
ENDBRANCH  18  23
ENDBRANCH  15  18
ENDBRANCH   4   7
ENDBRANCH   2   3
ENDBRANCH   1   2
BRANCH   1  27
ATOM     27  C   UNL     1      -0.513   6.804  -2.035  1.00  0.00     0.023 C 
BRANCH  27  28
ATOM     28  C   UNL     1       0.375   7.860  -2.681  1.00  0.00     0.116 C 
BRANCH  28  29
ATOM     29  N   UNL     1      -0.022   8.140  -4.057  1.00  0.00    -0.352 N 
ATOM     30  C   UNL     1       0.605   8.971  -4.955  1.00  0.00     0.251 C 
ATOM     31  H   UNL     1      -0.831   7.681  -4.380  1.00  0.00     0.163 HD
ATOM     32  O   UNL     1      -0.004   9.414  -5.930  1.00  0.00    -0.269 OA
BRANCH  30  33
ATOM     33  C   UNL     1       2.019   9.307  -4.743  1.00  0.00     0.039 A 
ATOM     34  C   UNL     1       2.465  10.624  -4.875  1.00  0.00     0.014 A 
ATOM     35  C   UNL     1       2.902   8.274  -4.417  1.00  0.00     0.014 A 
ATOM     36  C   UNL     1       3.803  10.906  -4.626  1.00  0.00     0.010 A 
ATOM     37  C   UNL     1       4.204   8.566  -4.086  1.00  0.00     0.010 A 
ATOM     38  C   UNL     1       4.664   9.871  -4.230  1.00  0.00    -0.014 A 
BRANCH  38  39
ATOM     39  C   UNL     1       6.043  10.168  -3.871  1.00  0.00     0.031 A 
ATOM     40  C   UNL     1       6.201  11.034  -2.668  1.00  0.00     0.074 A 
ATOM     41  C   UNL     1       7.092   9.534  -4.433  1.00  0.00     0.049 A 
ATOM     42  N   UNL     1       6.589  12.266  -2.612  1.00  0.00    -0.248 NA
ATOM     43  C   UNL     1       5.722  10.502  -1.382  1.00  0.00     0.031 C 
ATOM     44  C   UNL     1       7.082   8.391  -5.354  1.00  0.00     0.029 A 
ATOM     45  N   UNL     1       8.417   9.729  -4.212  1.00  0.00    -0.354 N 
ATOM     46  C   UNL     1       6.613  12.597  -1.257  1.00  0.00     0.074 A 
ATOM     47  C   UNL     1       5.886  11.554  -0.579  1.00  0.00     0.031 C 
ATOM     48  C   UNL     1       8.326   7.862  -5.428  1.00  0.00     0.029 A 
ATOM     49  C   UNL     1       9.241   8.731  -4.712  1.00  0.00     0.049 A 
ATOM     50  H   UNL     1       8.765  10.517  -3.736  1.00  0.00     0.167 HD
ATOM     51  C   UNL     1       7.429  13.575  -0.766  1.00  0.00     0.034 A 
ATOM     52  C   UNL     1      10.577   8.616  -4.513  1.00  0.00     0.034 A 
ATOM     53  C   UNL     1       7.993  14.364  -1.827  1.00  0.00     0.049 A 
ATOM     54  C   UNL     1      11.075   9.937  -4.062  1.00  0.00     0.074 A 
ATOM     55  C   UNL     1       7.490  15.209  -2.793  1.00  0.00     0.029 A 
ATOM     56  N   UNL     1       9.262  14.029  -2.235  1.00  0.00    -0.354 N 
ATOM     57  N   UNL     1      11.091  11.006  -4.810  1.00  0.00    -0.248 NA
ATOM     58  C   UNL     1      11.140  10.173  -2.629  1.00  0.00     0.031 C 
ATOM     59  C   UNL     1       8.293  14.968  -3.945  1.00  0.00     0.029 A 
ATOM     60  C   UNL     1       9.277  14.036  -3.604  1.00  0.00     0.049 A 
ATOM     61  H   UNL     1      10.024  13.822  -1.648  1.00  0.00     0.167 HD
ATOM     62  C   UNL     1      10.730  12.037  -3.954  1.00  0.00     0.074 A 
ATOM     63  C   UNL     1      10.870  11.480  -2.610  1.00  0.00     0.031 C 
ATOM     64  C   UNL     1      10.085  13.147  -4.417  1.00  0.00     0.034 A 
BRANCH  51  65
ATOM     65  C   UNL     1       8.013  13.582   0.628  1.00  0.00     0.023 A 
ATOM     66  C   UNL     1       8.015  12.445   1.457  1.00  0.00     0.031 A 
ATOM     67  C   UNL     1       8.800  14.665   1.071  1.00  0.00     0.131 A 
ATOM     68  C   UNL     1       8.741  12.406   2.654  1.00  0.00     0.055 A 
ATOM     69  C   UNL     1       9.580  14.603   2.234  1.00  0.00     0.041 A 
ATOM     70  F   UNL     1       8.885  15.797   0.353  1.00  0.00    -0.206 F 
ATOM     71  C   UNL     1       9.553  13.468   3.034  1.00  0.00     0.022 A 
BRANCH  68  72
ATOM     72  S   UNL     1       8.659  10.942   3.721  1.00  0.00     0.124 S 
ATOM     73  O   UNL     1      10.061  10.548   3.798  1.00  0.00    -0.237 OA
ATOM     74  O   UNL     1       8.088  11.502   4.944  1.00  0.00    -0.237 OA
ATOM     75  O   UNL     1       7.781  10.036   2.987  1.00  0.00    -0.744 OA
ENDBRANCH  68  72
ENDBRANCH  51  65
BRANCH  52  76
ATOM     76  C   UNL     1      11.343   7.373  -4.267  1.00  0.00     0.023 A 
ATOM     77  C   UNL     1      10.725   6.286  -3.620  1.00  0.00     0.031 A 
ATOM     78  C   UNL     1      12.745   7.356  -4.364  1.00  0.00     0.131 A 
ATOM     79  C   UNL     1      11.500   5.264  -3.051  1.00  0.00     0.055 A 
ATOM     80  C   UNL     1      13.515   6.329  -3.807  1.00  0.00     0.041 A 
ATOM     81  F   UNL     1      13.398   8.376  -4.944  1.00  0.00    -0.206 F 
ATOM     82  C   UNL     1      12.893   5.283  -3.132  1.00  0.00     0.022 A 
BRANCH  79  83
ATOM     83  S   UNL     1      10.708   3.917  -2.129  1.00  0.00     0.124 S 
ATOM     84  O   UNL     1      11.405   2.739  -2.642  1.00  0.00    -0.237 OA
ATOM     85  O   UNL     1      11.015   4.278  -0.750  1.00  0.00    -0.237 OA
ATOM     86  O   UNL     1       9.304   4.018  -2.519  1.00  0.00    -0.744 OA
ENDBRANCH  79  83
ENDBRANCH  52  76
BRANCH  64  87
ATOM     87  C   UNL     1       9.991  13.366  -5.909  1.00  0.00     0.023 A 
ATOM     88  C   UNL     1      10.435  14.606  -6.394  1.00  0.00     0.031 A 
ATOM     89  C   UNL     1       9.274  12.537  -6.793  1.00  0.00     0.131 A 
ATOM     90  C   UNL     1      10.114  15.012  -7.692  1.00  0.00     0.055 A 
ATOM     91  C   UNL     1       9.009  12.920  -8.113  1.00  0.00     0.041 A 
ATOM     92  F   UNL     1       8.735  11.382  -6.386  1.00  0.00    -0.206 F 
ATOM     93  C   UNL     1       9.414  14.173  -8.563  1.00  0.00     0.022 A 
BRANCH  90  94
ATOM     94  S   UNL     1      10.481  16.701  -8.230  1.00  0.00     0.124 S 
ATOM     95  O   UNL     1      11.290  16.478  -9.425  1.00  0.00    -0.237 OA
ATOM     96  O   UNL     1       9.146  17.243  -8.470  1.00  0.00    -0.237 OA
ATOM     97  O   UNL     1      11.194  17.287  -7.098  1.00  0.00    -0.744 OA
ENDBRANCH  90  94
ENDBRANCH  64  87
ENDBRANCH  38  39
ENDBRANCH  30  33
ENDBRANCH  28  29
ENDBRANCH  27  28
ENDBRANCH   1  27
TORSDOF 15
