REMARK SMILES C[C@H]1CCC[C@H](C(C)(C)C(=O)NCCCCNC(=O)c2ccc(-c3c4nc(c(-c5cc(S(=O)(=O)[O-])ccc5F)c5ccc([nH]5)c(-c5cc(S(=O)(=O)[O-])ccc5F)c5nc(c(-c6cc(S(=O)(=O)[O-])ccc6F)c6ccc3[nH]6)C=C5)C=C4)cc2)C1
REMARK SMILES IDX 15 1 14 2 13 3 12 4 10 5 11 6 7 8 8 9 9 10 6 11 1 12 2 13
REMARK SMILES IDX 3 14 83 15 4 16 5 17 16 18 17 19 18 20 19 22 20 23 21 24
REMARK SMILES IDX 82 25 22 26 81 27 23 28 24 29 25 30 75 31 26 32 80 33 74 34
REMARK SMILES IDX 76 35 27 36 79 37 73 38 72 39 28 41 60 42 40 43 59 44 41 45
REMARK SMILES IDX 44 46 58 47 77 48 42 49 43 50 57 52 78 53 45 54 29 55 30 56
REMARK SMILES IDX 38 57 31 58 37 59 39 60 36 61 32 62 33 63 34 64 35 65 61 66
REMARK SMILES IDX 62 67 70 68 63 69 69 70 71 71 68 72 64 73 65 74 66 75 67 76
REMARK SMILES IDX 46 77 47 78 55 79 48 80 54 81 56 82 53 83 49 84 50 85 51 86
REMARK SMILES IDX 52 87
REMARK H PARENT 12 7 17 21 76 40 44 51
REMARK Flexibility Score: inf
ROOT
ATOM      1  C   UNL     1       0.715  -0.455   6.477  1.00  0.00     0.023 C 
ENDROOT
BRANCH   1   2
ATOM      2  C   UNL     1      -0.043  -1.570   5.748  1.00  0.00     0.023 C 
BRANCH   2   3
ATOM      3  C   UNL     1      -1.319  -1.111   5.044  1.00  0.00     0.116 C 
BRANCH   3   4
ATOM      4  N   UNL     1      -1.021  -0.099   4.056  1.00  0.00    -0.356 N 
ATOM      5  C   UNL     1      -0.893  -0.095   2.709  1.00  0.00     0.225 C 
ATOM      6  O   UNL     1      -0.452   0.970   2.280  1.00  0.00    -0.275 OA
ATOM      7  H   UNL     1      -0.878   0.790   4.454  1.00  0.00     0.163 HD
BRANCH   5   8
ATOM      8  C   UNL     1      -1.319  -1.269   1.796  1.00  0.00     0.046 C 
ATOM      9  C   UNL     1      -2.842  -1.463   1.996  1.00  0.00     0.022 C 
ATOM     10  C   UNL     1      -0.581  -2.563   2.205  1.00  0.00     0.022 C 
BRANCH   8  11
ATOM     11  C   UNL     1      -1.064  -1.058   0.232  1.00  0.00     0.004 C 
ATOM     12  C   UNL     1       2.603   0.019  -0.613  1.00  0.00     0.007 C 
ATOM     13  C   UNL     1       1.187   0.155  -0.046  1.00  0.00    -0.014 C 
ATOM     14  C   UNL     1       0.477   1.367  -0.670  1.00  0.00     0.003 C 
ATOM     15  C   UNL     1       0.395  -1.130  -0.268  1.00  0.00     0.008 C 
ATOM     16  C   UNL     1      -1.034   1.457  -0.438  1.00  0.00     0.001 C 
ATOM     17  C   UNL     1      -1.768   0.121  -0.470  1.00  0.00     0.005 C 
ENDBRANCH   8  11
ENDBRANCH   5   8
ENDBRANCH   3   4
ENDBRANCH   2   3
ENDBRANCH   1   2
BRANCH   1  18
ATOM     18  C   UNL     1      -0.141   0.427   7.379  1.00  0.00     0.116 C 
BRANCH  18  19
ATOM     19  N   UNL     1      -0.911  -0.344   8.342  1.00  0.00    -0.352 N 
ATOM     20  C   UNL     1      -1.105  -0.104   9.678  1.00  0.00     0.251 C 
ATOM     21  H   UNL     1      -1.353  -1.148   7.986  1.00  0.00     0.163 HD
ATOM     22  O   UNL     1      -1.662  -0.950  10.373  1.00  0.00    -0.269 OA
BRANCH  20  23
ATOM     23  C   UNL     1      -0.612   1.155  10.270  1.00  0.00     0.039 A 
ATOM     24  C   UNL     1       0.083   1.103  11.479  1.00  0.00     0.014 A 
ATOM     25  C   UNL     1      -0.823   2.379   9.627  1.00  0.00     0.014 A 
ATOM     26  C   UNL     1       0.602   2.277  12.025  1.00  0.00     0.010 A 
ATOM     27  C   UNL     1      -0.231   3.533  10.129  1.00  0.00     0.010 A 
ATOM     28  C   UNL     1       0.469   3.498  11.344  1.00  0.00    -0.014 A 
BRANCH  28  29
ATOM     29  C   UNL     1       1.008   4.757  11.919  1.00  0.00     0.031 A 
ATOM     30  C   UNL     1       0.063   5.869  12.292  1.00  0.00     0.074 A 
ATOM     31  C   UNL     1       2.337   4.912  12.072  1.00  0.00     0.049 A 
ATOM     32  N   UNL     1       0.329   7.062  12.758  1.00  0.00    -0.248 NA
ATOM     33  C   UNL     1      -1.370   5.615  12.080  1.00  0.00     0.031 C 
ATOM     34  C   UNL     1       3.351   3.918  11.712  1.00  0.00     0.029 A 
ATOM     35  N   UNL     1       3.066   5.963  12.568  1.00  0.00    -0.354 N 
ATOM     36  C   UNL     1      -0.900   7.702  12.882  1.00  0.00     0.074 A 
ATOM     37  C   UNL     1      -1.900   6.792  12.369  1.00  0.00     0.031 C 
ATOM     38  C   UNL     1       4.566   4.394  12.031  1.00  0.00     0.029 A 
ATOM     39  C   UNL     1       4.424   5.742  12.572  1.00  0.00     0.049 A 
ATOM     40  H   UNL     1       2.656   6.797  12.892  1.00  0.00     0.167 HD
ATOM     41  C   UNL     1      -1.172   8.925  13.403  1.00  0.00     0.034 A 
ATOM     42  C   UNL     1       5.439   6.539  12.962  1.00  0.00     0.034 A 
ATOM     43  C   UNL     1      -0.160   9.813  13.919  1.00  0.00     0.049 A 
ATOM     44  C   UNL     1       5.114   7.904  13.518  1.00  0.00     0.074 A 
ATOM     45  C   UNL     1      -0.321  11.058  14.502  1.00  0.00     0.029 A 
ATOM     46  N   UNL     1       1.206   9.555  13.910  1.00  0.00    -0.354 N 
ATOM     47  N   UNL     1       3.942   8.480  13.668  1.00  0.00    -0.248 NA
ATOM     48  C   UNL     1       6.247   8.716  13.976  1.00  0.00     0.031 C 
ATOM     49  C   UNL     1       0.947  11.581  14.777  1.00  0.00     0.029 A 
ATOM     50  C   UNL     1       1.898  10.626  14.454  1.00  0.00     0.049 A 
ATOM     51  H   UNL     1       1.621   8.731  13.567  1.00  0.00     0.167 HD
ATOM     52  C   UNL     1       4.198   9.705  14.279  1.00  0.00     0.074 A 
ATOM     53  C   UNL     1       5.631   9.773  14.481  1.00  0.00     0.031 C 
ATOM     54  C   UNL     1       3.329  10.683  14.647  1.00  0.00     0.034 A 
BRANCH  41  55
ATOM     55  C   UNL     1      -2.617   9.371  13.408  1.00  0.00     0.023 A 
ATOM     56  C   UNL     1      -3.608   8.662  14.111  1.00  0.00     0.031 A 
ATOM     57  C   UNL     1      -3.018  10.499  12.672  1.00  0.00     0.131 A 
ATOM     58  C   UNL     1      -4.956   9.036  13.993  1.00  0.00     0.055 A 
ATOM     59  C   UNL     1      -4.348  10.921  12.634  1.00  0.00     0.041 A 
ATOM     60  F   UNL     1      -2.124  11.205  11.960  1.00  0.00    -0.206 F 
ATOM     61  C   UNL     1      -5.330  10.178  13.283  1.00  0.00     0.022 A 
BRANCH  58  62
ATOM     62  S   UNL     1      -6.225   7.915  14.646  1.00  0.00     0.124 S 
ATOM     63  O   UNL     1      -5.947   6.690  13.900  1.00  0.00    -0.237 OA
ATOM     64  O   UNL     1      -5.915   7.881  16.070  1.00  0.00    -0.237 OA
ATOM     65  O   UNL     1      -7.480   8.578  14.295  1.00  0.00    -0.744 OA
ENDBRANCH  58  62
ENDBRANCH  41  55
BRANCH  42  66
ATOM     66  C   UNL     1       6.854   6.080  12.845  1.00  0.00     0.023 A 
ATOM     67  C   UNL     1       7.661   5.921  13.983  1.00  0.00     0.031 A 
ATOM     68  C   UNL     1       7.438   5.845  11.588  1.00  0.00     0.131 A 
ATOM     69  C   UNL     1       9.019   5.595  13.840  1.00  0.00     0.055 A 
ATOM     70  C   UNL     1       8.773   5.461  11.453  1.00  0.00     0.041 A 
ATOM     71  F   UNL     1       6.712   5.978  10.466  1.00  0.00    -0.206 F 
ATOM     72  C   UNL     1       9.577   5.349  12.584  1.00  0.00     0.022 A 
BRANCH  69  73
ATOM     73  S   UNL     1      10.073   5.595  15.316  1.00  0.00     0.124 S 
ATOM     74  O   UNL     1       9.895   6.957  15.807  1.00  0.00    -0.237 OA
ATOM     75  O   UNL     1       9.469   4.538  16.120  1.00  0.00    -0.237 OA
ATOM     76  O   UNL     1      11.401   5.290  14.786  1.00  0.00    -0.744 OA
ENDBRANCH  69  73
ENDBRANCH  42  66
BRANCH  54  77
ATOM     77  C   UNL     1       3.906  11.879  15.368  1.00  0.00     0.023 A 
ATOM     78  C   UNL     1       4.823  12.751  14.756  1.00  0.00     0.031 A 
ATOM     79  C   UNL     1       3.552  12.130  16.707  1.00  0.00     0.131 A 
ATOM     80  C   UNL     1       5.414  13.781  15.502  1.00  0.00     0.055 A 
ATOM     81  C   UNL     1       4.084  13.204  17.421  1.00  0.00     0.041 A 
ATOM     82  F   UNL     1       2.683  11.331  17.347  1.00  0.00    -0.206 F 
ATOM     83  C   UNL     1       5.036  14.025  16.825  1.00  0.00     0.022 A 
BRANCH  80  84
ATOM     84  S   UNL     1       6.783  14.714  14.764  1.00  0.00     0.124 S 
ATOM     85  O   UNL     1       7.715  13.651  14.402  1.00  0.00    -0.237 OA
ATOM     86  O   UNL     1       6.131  15.396  13.651  1.00  0.00    -0.237 OA
ATOM     87  O   UNL     1       7.229  15.586  15.849  1.00  0.00    -0.744 OA
ENDBRANCH  80  84
ENDBRANCH  54  77
ENDBRANCH  28  29
ENDBRANCH  20  23
ENDBRANCH  18  19
ENDBRANCH   1  18
TORSDOF 15
