REMARK SMILES O=C(NCCCCNC(=O)[C@@H]1CC[C@@H](CS(=O)(=O)c2cccc(F)c2)O1)c1ccc(-c2c3nc(c(-c4cc(S(=O)(=O)[O-])ccc4F)c4ccc([nH]4)c(-c4cc(S(=O)(=O)[O-])ccc4F)c4nc(c(-c5cc(S(=O)(=O)[O-])ccc5F)c5ccc2[nH]5)C=C4)C=C3)cc1
REMARK SMILES IDX 5 1 4 2 3 3 1 4 2 5 27 7 28 8 89 9 29 10 88 11 30 12 31 13
REMARK SMILES IDX 32 14 82 15 33 16 87 17 81 18 83 19 34 20 86 21 80 22 79 23
REMARK SMILES IDX 35 25 67 26 47 27 66 28 48 29 51 30 65 31 84 32 49 33 50 34
REMARK SMILES IDX 64 36 85 37 52 38 36 39 37 40 45 41 38 42 44 43 46 44 43 45
REMARK SMILES IDX 39 46 40 47 41 48 42 49 68 50 69 51 77 52 70 53 76 54 78 55
REMARK SMILES IDX 75 56 71 57 72 58 73 59 74 60 53 61 54 62 62 63 55 64 61 65
REMARK SMILES IDX 63 66 60 67 56 68 57 69 58 70 59 71 6 72 7 73 8 74 9 75
REMARK SMILES IDX 10 77 11 78 12 79 26 80 13 81 14 82 15 83 16 84 17 85 18 86
REMARK SMILES IDX 19 87 20 88 25 89 21 90 23 91 22 92 24 93
REMARK H PARENT 3 6 83 24 51 35 8 76
REMARK Flexibility Score: inf
ROOT
ATOM      1  C   UNL     1       4.919  -0.706  -2.563  1.00  0.00     0.023 C 
ENDROOT
BRANCH   1   2
ATOM      2  C   UNL     1       4.582   0.008  -1.262  1.00  0.00     0.116 C 
BRANCH   2   3
ATOM      3  N   UNL     1       3.151   0.190  -1.057  1.00  0.00    -0.352 N 
ATOM      4  O   UNL     1       1.187   0.030   0.050  1.00  0.00    -0.269 OA
ATOM      5  C   UNL     1       2.410  -0.063   0.076  1.00  0.00     0.251 C 
ATOM      6  H   UNL     1       2.649   0.540  -1.829  1.00  0.00     0.163 HD
BRANCH   5   7
ATOM      7  C   UNL     1       3.108  -0.478   1.311  1.00  0.00     0.039 A 
ATOM      8  C   UNL     1       4.255   0.202   1.724  1.00  0.00     0.014 A 
ATOM      9  C   UNL     1       2.647  -1.584   2.029  1.00  0.00     0.014 A 
ATOM     10  C   UNL     1       5.035  -0.328   2.741  1.00  0.00     0.010 A 
ATOM     11  C   UNL     1       3.378  -2.050   3.127  1.00  0.00     0.010 A 
ATOM     12  C   UNL     1       4.597  -1.446   3.471  1.00  0.00    -0.014 A 
BRANCH  12  13
ATOM     13  C   UNL     1       5.407  -1.900   4.632  1.00  0.00     0.031 A 
ATOM     14  C   UNL     1       6.044  -3.261   4.667  1.00  0.00     0.074 A 
ATOM     15  C   UNL     1       5.610  -1.029   5.641  1.00  0.00     0.049 A 
ATOM     16  N   UNL     1       6.821  -3.777   5.586  1.00  0.00    -0.248 NA
ATOM     17  C   UNL     1       5.771  -4.163   3.539  1.00  0.00     0.031 C 
ATOM     18  C   UNL     1       5.037   0.319   5.710  1.00  0.00     0.029 A 
ATOM     19  N   UNL     1       6.374  -1.121   6.775  1.00  0.00    -0.354 N 
ATOM     20  C   UNL     1       7.116  -5.067   5.160  1.00  0.00     0.074 A 
ATOM     21  C   UNL     1       6.410  -5.265   3.911  1.00  0.00     0.031 C 
ATOM     22  C   UNL     1       5.531   0.953   6.781  1.00  0.00     0.029 A 
ATOM     23  C   UNL     1       6.382   0.031   7.525  1.00  0.00     0.049 A 
ATOM     24  H   UNL     1       6.870  -1.933   7.028  1.00  0.00     0.167 HD
ATOM     25  C   UNL     1       7.906  -5.993   5.757  1.00  0.00     0.034 A 
ATOM     26  C   UNL     1       6.985   0.319   8.694  1.00  0.00     0.034 A 
ATOM     27  C   UNL     1       8.609  -5.770   6.998  1.00  0.00     0.049 A 
ATOM     28  C   UNL     1       7.815  -0.737   9.359  1.00  0.00     0.074 A 
ATOM     29  C   UNL     1       9.473  -6.626   7.661  1.00  0.00     0.029 A 
ATOM     30  N   UNL     1       8.524  -4.618   7.771  1.00  0.00    -0.354 N 
ATOM     31  N   UNL     1       8.083  -1.951   8.940  1.00  0.00    -0.248 NA
ATOM     32  C   UNL     1       8.412  -0.396  10.655  1.00  0.00     0.031 C 
ATOM     33  C   UNL     1       9.843  -6.027   8.868  1.00  0.00     0.029 A 
ATOM     34  C   UNL     1       9.281  -4.761   8.923  1.00  0.00     0.049 A 
ATOM     35  H   UNL     1       8.001  -3.818   7.535  1.00  0.00     0.167 HD
ATOM     36  C   UNL     1       8.889  -2.520   9.919  1.00  0.00     0.074 A 
ATOM     37  C   UNL     1       9.069  -1.512  10.946  1.00  0.00     0.031 C 
ATOM     38  C   UNL     1       9.434  -3.761   9.954  1.00  0.00     0.034 A 
BRANCH  25  39
ATOM     39  C   UNL     1       8.021  -7.351   5.107  1.00  0.00     0.023 A 
ATOM     40  C   UNL     1       8.650  -7.531   3.864  1.00  0.00     0.031 A 
ATOM     41  C   UNL     1       7.514  -8.489   5.761  1.00  0.00     0.131 A 
ATOM     42  C   UNL     1       8.716  -8.812   3.293  1.00  0.00     0.055 A 
ATOM     43  C   UNL     1       7.642  -9.769   5.220  1.00  0.00     0.041 A 
ATOM     44  F   UNL     1       6.888  -8.375   6.943  1.00  0.00    -0.206 F 
ATOM     45  C   UNL     1       8.238  -9.935   3.974  1.00  0.00     0.022 A 
BRANCH  42  46
ATOM     46  S   UNL     1       9.351  -8.979   1.603  1.00  0.00     0.124 S 
ATOM     47  O   UNL     1       8.399  -8.168   0.848  1.00  0.00    -0.237 OA
ATOM     48  O   UNL     1      10.701  -8.439   1.717  1.00  0.00    -0.237 OA
ATOM     49  O   UNL     1       9.275 -10.416   1.347  1.00  0.00    -0.744 OA
ENDBRANCH  42  46
ENDBRANCH  25  39
BRANCH  26  50
ATOM     50  C   UNL     1       6.778   1.661   9.301  1.00  0.00     0.023 A 
ATOM     51  C   UNL     1       7.811   2.608   9.337  1.00  0.00     0.031 A 
ATOM     52  C   UNL     1       5.510   2.039   9.780  1.00  0.00     0.131 A 
ATOM     53  C   UNL     1       7.554   3.894   9.838  1.00  0.00     0.055 A 
ATOM     54  C   UNL     1       5.251   3.328  10.242  1.00  0.00     0.041 A 
ATOM     55  F   UNL     1       4.487   1.169   9.747  1.00  0.00    -0.206 F 
ATOM     56  C   UNL     1       6.279   4.265  10.274  1.00  0.00     0.022 A 
BRANCH  53  57
ATOM     57  S   UNL     1       8.915   5.091   9.908  1.00  0.00     0.124 S 
ATOM     58  O   UNL     1       9.799   4.478  10.892  1.00  0.00    -0.237 OA
ATOM     59  O   UNL     1       9.392   5.094   8.529  1.00  0.00    -0.237 OA
ATOM     60  O   UNL     1       8.261   6.325  10.338  1.00  0.00    -0.744 OA
ENDBRANCH  53  57
ENDBRANCH  26  50
BRANCH  38  61
ATOM     61  C   UNL     1      10.300  -4.105  11.137  1.00  0.00     0.023 A 
ATOM     62  C   UNL     1       9.750  -4.334  12.409  1.00  0.00     0.031 A 
ATOM     63  C   UNL     1      11.686  -4.269  10.970  1.00  0.00     0.131 A 
ATOM     64  C   UNL     1      10.589  -4.699  13.473  1.00  0.00     0.055 A 
ATOM     65  C   UNL     1      12.508  -4.677  12.020  1.00  0.00     0.041 A 
ATOM     66  F   UNL     1      12.258  -4.061   9.772  1.00  0.00    -0.206 F 
ATOM     67  C   UNL     1      11.960  -4.891  13.281  1.00  0.00     0.022 A 
BRANCH  64  68
ATOM     68  S   UNL     1       9.869  -4.899  15.125  1.00  0.00     0.124 S 
ATOM     69  O   UNL     1       9.436  -3.539  15.431  1.00  0.00    -0.237 OA
ATOM     70  O   UNL     1       8.805  -5.870  14.892  1.00  0.00    -0.237 OA
ATOM     71  O   UNL     1      10.987  -5.389  15.929  1.00  0.00    -0.744 OA
ENDBRANCH  64  68
ENDBRANCH  38  61
ENDBRANCH  12  13
ENDBRANCH   5   7
ENDBRANCH   2   3
ENDBRANCH   1   2
BRANCH   1  72
ATOM     72  C   UNL     1       4.466   0.015  -3.835  1.00  0.00     0.023 C 
BRANCH  72  73
ATOM     73  C   UNL     1       4.961   1.457  -3.951  1.00  0.00     0.116 C 
BRANCH  73  74
ATOM     74  N   UNL     1       6.406   1.520  -4.056  1.00  0.00    -0.354 N 
ATOM     75  C   UNL     1       7.182   1.706  -5.166  1.00  0.00     0.249 C 
ATOM     76  H   UNL     1       6.897   1.415  -3.209  1.00  0.00     0.163 HD
ATOM     77  O   UNL     1       8.407   1.707  -5.036  1.00  0.00    -0.272 OA
BRANCH  75  78
ATOM     78  C   UNL     1       6.502   1.960  -6.517  1.00  0.00     0.207 C 
ATOM     79  C   UNL     1       7.264   1.384  -7.699  1.00  0.00     0.045 C 
ATOM     80  O   UNL     1       6.405   3.383  -6.745  1.00  0.00    -0.364 OA
ATOM     81  C   UNL     1       6.941   2.372  -8.793  1.00  0.00     0.036 C 
ATOM     82  C   UNL     1       6.986   3.685  -8.035  1.00  0.00     0.134 C 
BRANCH  82  83
ATOM     83  C   UNL     1       6.206   4.842  -8.623  1.00  0.00     0.174 C 
BRANCH  83  84
ATOM     84  S   UNL     1       6.678   5.351 -10.246  1.00  0.00     0.181 S 
ATOM     85  O   UNL     1       6.485   4.223 -11.134  1.00  0.00    -0.224 OA
ATOM     86  O   UNL     1       6.013   6.615 -10.519  1.00  0.00    -0.224 OA
BRANCH  84  87
ATOM     87  C   UNL     1       8.412   5.721 -10.252  1.00  0.00     0.070 A 
ATOM     88  C   UNL     1       9.049   6.254  -9.127  1.00  0.00     0.020 A 
ATOM     89  C   UNL     1       9.126   5.485 -11.431  1.00  0.00     0.059 A 
ATOM     90  C   UNL     1      10.418   6.533  -9.181  1.00  0.00     0.004 A 
ATOM     91  C   UNL     1      10.481   5.785 -11.471  1.00  0.00     0.124 A 
ATOM     92  C   UNL     1      11.134   6.300 -10.357  1.00  0.00     0.039 A 
ATOM     93  F   UNL     1      11.168   5.581 -12.602  1.00  0.00    -0.207 F 
ENDBRANCH  84  87
ENDBRANCH  83  84
ENDBRANCH  82  83
ENDBRANCH  75  78
ENDBRANCH  73  74
ENDBRANCH  72  73
ENDBRANCH   1  72
TORSDOF 17
