REMARK SMILES Cc1nc(NC2CCCCCC2)sc1C(=O)NCCCCNC(=O)c1ccc(-c2c3nc(c(-c4cc(S(=O)(=O)[O-])ccc4F)c4ccc([nH]4)c(-c4cc(S(=O)(=O)[O-])ccc4F)c4nc(c(-c5cc(S(=O)(=O)[O-])ccc5F)c5ccc2[nH]5)C=C4)C=C3)cc1
REMARK SMILES IDX 18 1 17 2 15 3 16 4 14 6 1 7 2 8 3 9 4 10 13 11 5 12 6 14
REMARK SMILES IDX 7 15 8 16 12 18 11 19 10 20 9 21 19 23 20 24 21 25 22 26
REMARK SMILES IDX 23 27 24 29 25 30 26 31 87 32 27 33 86 34 28 35 29 36 30 37
REMARK SMILES IDX 80 38 31 39 85 40 79 41 81 42 32 43 84 44 78 45 77 46 33 48
REMARK SMILES IDX 65 49 45 50 64 51 46 52 49 53 63 54 82 55 47 56 48 57 62 59
REMARK SMILES IDX 83 60 50 61 34 62 35 63 43 64 36 65 42 66 44 67 41 68 37 69
REMARK SMILES IDX 38 70 39 71 40 72 66 73 67 74 75 75 68 76 74 77 76 78 73 79
REMARK SMILES IDX 69 80 70 81 71 82 72 83 51 84 52 85 60 86 53 87 59 88 61 89
REMARK SMILES IDX 58 90 54 91 55 92 56 93 57 94
REMARK H PARENT 17 5 5 13 22 28 81 47 49 58
REMARK Flexibility Score: 80.00
ROOT
ATOM      1  C   UNL     1      -2.594  -2.990   0.369  1.00  0.00     0.116 C 
ENDROOT
BRANCH   1   2
ATOM      2  N   UNL     1      -1.214  -3.137  -0.019  1.00  0.00    -0.351 N 
ATOM      3  C   UNL     1      -0.170  -2.260  -0.153  1.00  0.00     0.263 C 
ATOM      4  O   UNL     1       0.875  -2.819  -0.510  1.00  0.00    -0.268 OA
ATOM      5  H   UNL     1      -0.970  -4.065  -0.235  1.00  0.00     0.163 HD
BRANCH   3   6
ATOM      6  C   UNL     1      -0.230  -0.826   0.110  1.00  0.00     0.117 A 
ATOM      7  C   UNL     1      -2.634   0.280  -0.106  1.00  0.00     0.068 C 
ATOM      8  C   UNL     1      -1.178   0.195   0.160  1.00  0.00     0.063 A 
ATOM      9  N   UNL     1      -0.653   1.453   0.397  1.00  0.00    -0.225 NA
ATOM     10  C   UNL     1       0.645   1.470   0.349  1.00  0.00     0.183 A 
ATOM     11  S   UNL     1       1.347  -0.078   0.351  1.00  0.00    -0.092 S 
BRANCH  10  12
ATOM     12  N   UNL     1       1.378   2.599   0.257  1.00  0.00    -0.359 N 
ATOM     13  H   UNL     1       2.341   2.563   0.455  1.00  0.00     0.163 HD
BRANCH  12  14
ATOM     14  C   UNL     1       0.775   3.880  -0.130  1.00  0.00     0.081 C 
BRANCH  14  15
ATOM     15  C   UNL     1       0.194   3.830  -1.561  1.00  0.00     0.025 C 
BRANCH  15  16
ATOM     16  C   UNL     1      -1.320   3.673  -1.725  1.00  0.00     0.002 CG0
ATOM     17  G   UNL     1      -2.111   4.959  -1.518  1.00  0.00     0.000 G0
ENDBRANCH  15  16
ENDBRANCH  14  15
BRANCH  14  18
ATOM     18  C   UNL     1      -0.120   4.435   0.986  1.00  0.00     0.025 C 
BRANCH  18  19
ATOM     19  C   UNL     1      -0.890   5.700   0.616  1.00  0.00     0.002 C 
BRANCH  19  20
ATOM     20  C   UNL     1      -2.224   5.410  -0.067  1.00  0.00     0.000 C 
BRANCH  20  21
ATOM     21  C   UNL     1      -2.111   4.959  -1.518  1.00  0.00     0.000 CG0
ATOM     22  G   UNL     1      -1.320   3.673  -1.725  1.00  0.00     0.000 G0
ENDBRANCH  20  21
ENDBRANCH  19  20
ENDBRANCH  18  19
ENDBRANCH  14  18
ENDBRANCH  12  14
ENDBRANCH  10  12
ENDBRANCH   3   6
ENDBRANCH   1   2
BRANCH   1  23
ATOM     23  C   UNL     1      -3.471  -2.775  -0.869  1.00  0.00     0.023 C 
BRANCH  23  24
ATOM     24  C   UNL     1      -4.160  -4.043  -1.374  1.00  0.00     0.023 C 
BRANCH  24  25
ATOM     25  C   UNL     1      -5.245  -4.569  -0.438  1.00  0.00     0.116 C 
BRANCH  25  26
ATOM     26  N   UNL     1      -6.312  -3.612  -0.180  1.00  0.00    -0.352 N 
ATOM     27  C   UNL     1      -7.624  -3.870   0.157  1.00  0.00     0.251 C 
ATOM     28  H   UNL     1      -6.065  -2.661  -0.254  1.00  0.00     0.163 HD
ATOM     29  O   UNL     1      -8.425  -2.960   0.271  1.00  0.00    -0.269 OA
BRANCH  27  30
ATOM     30  C   UNL     1      -8.040  -5.280   0.309  1.00  0.00     0.039 A 
ATOM     31  C   UNL     1      -9.116  -5.746  -0.449  1.00  0.00     0.014 A 
ATOM     32  C   UNL     1      -7.303  -6.151   1.115  1.00  0.00     0.014 A 
ATOM     33  C   UNL     1      -9.399  -7.111  -0.465  1.00  0.00     0.010 A 
ATOM     34  C   UNL     1      -7.537  -7.517   1.036  1.00  0.00     0.010 A 
ATOM     35  C   UNL     1      -8.581  -8.012   0.238  1.00  0.00    -0.014 A 
BRANCH  35  36
ATOM     36  C   UNL     1      -8.795  -9.477   0.148  1.00  0.00     0.031 A 
ATOM     37  C   UNL     1      -9.173 -10.253   1.379  1.00  0.00     0.074 A 
ATOM     38  C   UNL     1      -8.571 -10.113  -1.019  1.00  0.00     0.049 A 
ATOM     39  N   UNL     1      -9.319 -11.543   1.532  1.00  0.00    -0.248 NA
ATOM     40  C   UNL     1      -9.377  -9.473   2.609  1.00  0.00     0.031 C 
ATOM     41  C   UNL     1      -8.145  -9.470  -2.265  1.00  0.00     0.029 A 
ATOM     42  N   UNL     1      -8.658 -11.442  -1.346  1.00  0.00    -0.354 N 
ATOM     43  C   UNL     1      -9.616 -11.732   2.877  1.00  0.00     0.074 A 
ATOM     44  C   UNL     1      -9.561 -10.430   3.505  1.00  0.00     0.031 C 
ATOM     45  C   UNL     1      -8.032 -10.402  -3.225  1.00  0.00     0.029 A 
ATOM     46  C   UNL     1      -8.336 -11.711  -2.657  1.00  0.00     0.049 A 
ATOM     47  H   UNL     1      -8.925 -12.138  -0.704  1.00  0.00     0.167 HD
ATOM     48  C   UNL     1      -9.931 -12.883   3.521  1.00  0.00     0.034 A 
ATOM     49  C   UNL     1      -8.283 -12.883  -3.320  1.00  0.00     0.034 A 
ATOM     50  C   UNL     1      -9.999 -14.168   2.872  1.00  0.00     0.049 A 
ATOM     51  C   UNL     1      -8.633 -14.150  -2.582  1.00  0.00     0.074 A 
ATOM     52  C   UNL     1     -10.373 -15.388   3.409  1.00  0.00     0.029 A 
ATOM     53  N   UNL     1      -9.680 -14.403   1.540  1.00  0.00    -0.354 N 
ATOM     54  N   UNL     1      -8.970 -14.306  -1.323  1.00  0.00    -0.248 NA
ATOM     55  C   UNL     1      -8.603 -15.396  -3.358  1.00  0.00     0.031 C 
ATOM     56  C   UNL     1     -10.223 -16.367   2.420  1.00  0.00     0.029 A 
ATOM     57  C   UNL     1      -9.820 -15.750   1.246  1.00  0.00     0.049 A 
ATOM     58  H   UNL     1      -9.396 -13.712   0.899  1.00  0.00     0.167 HD
ATOM     59  C   UNL     1      -9.217 -15.666  -1.163  1.00  0.00     0.074 A 
ATOM     60  C   UNL     1      -9.006 -16.281  -2.457  1.00  0.00     0.031 C 
ATOM     61  C   UNL     1      -9.589 -16.346  -0.048  1.00  0.00     0.034 A 
BRANCH  48  62
ATOM     62  C   UNL     1     -10.203 -12.791   5.003  1.00  0.00     0.023 A 
ATOM     63  C   UNL     1     -11.274 -12.033   5.509  1.00  0.00     0.031 A 
ATOM     64  C   UNL     1      -9.357 -13.431   5.925  1.00  0.00     0.131 A 
ATOM     65  C   UNL     1     -11.421 -11.864   6.894  1.00  0.00     0.055 A 
ATOM     66  C   UNL     1      -9.559 -13.329   7.303  1.00  0.00     0.041 A 
ATOM     67  F   UNL     1      -8.306 -14.152   5.503  1.00  0.00    -0.206 F 
ATOM     68  C   UNL     1     -10.586 -12.527   7.795  1.00  0.00     0.022 A 
BRANCH  65  69
ATOM     69  S   UNL     1     -12.622 -10.645   7.493  1.00  0.00     0.124 S 
ATOM     70  O   UNL     1     -12.126  -9.416   6.876  1.00  0.00    -0.237 OA
ATOM     71  O   UNL     1     -13.882 -11.159   6.968  1.00  0.00    -0.237 OA
ATOM     72  O   UNL     1     -12.478 -10.707   8.946  1.00  0.00    -0.744 OA
ENDBRANCH  65  69
ENDBRANCH  48  62
BRANCH  49  73
ATOM     73  C   UNL     1      -7.882 -12.923  -4.755  1.00  0.00     0.023 A 
ATOM     74  C   UNL     1      -8.794 -13.312  -5.749  1.00  0.00     0.031 A 
ATOM     75  C   UNL     1      -6.568 -12.612  -5.149  1.00  0.00     0.131 A 
ATOM     76  C   UNL     1      -8.370 -13.423  -7.082  1.00  0.00     0.055 A 
ATOM     77  C   UNL     1      -6.164 -12.679  -6.483  1.00  0.00     0.041 A 
ATOM     78  F   UNL     1      -5.660 -12.227  -4.238  1.00  0.00    -0.206 F 
ATOM     79  C   UNL     1      -7.064 -13.100  -7.457  1.00  0.00     0.022 A 
BRANCH  76  80
ATOM     80  S   UNL     1      -9.534 -14.074  -8.311  1.00  0.00     0.124 S 
ATOM     81  O   UNL     1      -9.861 -15.380  -7.749  1.00  0.00    -0.237 OA
ATOM     82  O   UNL     1     -10.598 -13.076  -8.278  1.00  0.00    -0.237 OA
ATOM     83  O   UNL     1      -8.748 -14.103  -9.543  1.00  0.00    -0.744 OA
ENDBRANCH  76  80
ENDBRANCH  49  73
BRANCH  61  84
ATOM     84  C   UNL     1      -9.820 -17.828  -0.202  1.00  0.00     0.023 A 
ATOM     85  C   UNL     1      -8.763 -18.716  -0.463  1.00  0.00     0.031 A 
ATOM     86  C   UNL     1     -11.120 -18.355  -0.098  1.00  0.00     0.131 A 
ATOM     87  C   UNL     1      -9.029 -20.078  -0.663  1.00  0.00     0.055 A 
ATOM     88  C   UNL     1     -11.371 -19.720  -0.242  1.00  0.00     0.041 A 
ATOM     89  F   UNL     1     -12.166 -17.550   0.149  1.00  0.00    -0.206 F 
ATOM     90  C   UNL     1     -10.324 -20.588  -0.539  1.00  0.00     0.022 A 
BRANCH  87  91
ATOM     91  S   UNL     1      -7.669 -21.166  -1.171  1.00  0.00     0.124 S 
ATOM     92  O   UNL     1      -7.242 -20.552  -2.424  1.00  0.00    -0.237 OA
ATOM     93  O   UNL     1      -6.739 -21.046  -0.053  1.00  0.00    -0.237 OA
ATOM     94  O   UNL     1      -8.308 -22.474  -1.306  1.00  0.00    -0.744 OA
ENDBRANCH  87  91
ENDBRANCH  61  84
ENDBRANCH  35  36
ENDBRANCH  27  30
ENDBRANCH  25  26
ENDBRANCH  24  25
ENDBRANCH  23  24
ENDBRANCH   1  23
TORSDOF 16
