REMARK SMILES Cc1cccc2c1[C@H]1c3c(C)cccc3[C@H](CC(=O)NCCCCNC(=O)c3ccc(-c4c5nc(c(-c6cc(S(=O)(=O)[O-])ccc6F)c6ccc([nH]6)c(-c6cc(S(=O)(=O)[O-])ccc6F)c6nc(c(-c7cc(S(=O)(=O)[O-])ccc7F)c7ccc4[nH]7)C=C6)C=C5)cc3)C[C@H]1CC2
REMARK SMILES IDX 23 1 22 2 21 3 20 4 18 5 19 6 17 8 16 9 1 10 2 11 3 12 7 13
REMARK SMILES IDX 4 14 6 15 8 16 5 17 94 18 9 19 92 20 93 21 10 22 15 23 91 24
REMARK SMILES IDX 12 25 11 26 14 27 13 28 24 29 25 30 26 31 27 33 28 34 29 35
REMARK SMILES IDX 90 36 30 37 89 38 31 39 32 40 33 41 83 42 34 43 88 44 82 45
REMARK SMILES IDX 84 46 35 47 87 48 81 49 80 50 36 52 68 53 48 54 67 55 49 56
REMARK SMILES IDX 52 57 66 58 85 59 50 60 51 61 65 63 86 64 53 65 37 66 38 67
REMARK SMILES IDX 46 68 39 69 45 70 47 71 44 72 40 73 41 74 42 75 43 76 69 77
REMARK SMILES IDX 70 78 78 79 71 80 77 81 79 82 76 83 72 84 73 85 74 86 75 87
REMARK SMILES IDX 54 88 55 89 63 90 56 91 62 92 64 93 61 94 57 95 58 96 59 97
REMARK SMILES IDX 60 98
REMARK H PARENT 20 7 25 32 84 51 52 62
REMARK Flexibility Score: inf
ROOT
ATOM      1  C   UNL     1       8.225  -6.112   2.925  1.00  0.00     0.023 C 
ENDROOT
BRANCH   1   2
ATOM      2  C   UNL     1       7.602  -4.813   3.450  1.00  0.00     0.023 C 
BRANCH   2   3
ATOM      3  C   UNL     1       8.399  -3.557   3.091  1.00  0.00     0.116 C 
BRANCH   3   4
ATOM      4  N   UNL     1       8.423  -3.369   1.656  1.00  0.00    -0.356 N 
ATOM      5  C   UNL     1       7.716  -2.509   0.876  1.00  0.00     0.220 C 
ATOM      6  O   UNL     1       7.771  -2.640  -0.346  1.00  0.00    -0.275 OA
ATOM      7  H   UNL     1       9.047  -3.954   1.169  1.00  0.00     0.163 HD
BRANCH   5   8
ATOM      8  C   UNL     1       6.954  -1.363   1.499  1.00  0.00     0.108 C 
BRANCH   8   9
ATOM      9  C   UNL     1       5.682  -1.708   2.300  1.00  0.00     0.029 C 
ATOM     10  C   UNL     1       0.611  -0.256  -0.228  1.00  0.00     0.044 C 
ATOM     11  C   UNL     1       0.292  -0.773   1.152  1.00  0.00    -0.047 A 
ATOM     12  C   UNL     1      -1.059  -0.760   1.543  1.00  0.00     0.004 A 
ATOM     13  C   UNL     1       1.265  -1.330   2.022  1.00  0.00    -0.034 A 
ATOM     14  C   UNL     1      -1.460  -1.308   2.756  1.00  0.00     0.001 A 
ATOM     15  C   UNL     1       0.824  -2.008   3.183  1.00  0.00    -0.044 A 
ATOM     16  C   UNL     1       2.765  -1.244   1.735  1.00  0.00     0.053 C 
ATOM     17  C   UNL     1      -0.528  -1.955   3.557  1.00  0.00     0.004 A 
ATOM     18  C   UNL     1       1.724  -2.932   3.973  1.00  0.00     0.036 C 
ATOM     19  C   UNL     1       3.593  -0.148   2.462  1.00  0.00    -0.034 A 
ATOM     20  C   UNL     1       3.340  -2.651   2.022  1.00  0.00     0.002 C 
ATOM     21  C   UNL     1       3.177  -3.015   3.508  1.00  0.00     0.009 C 
ATOM     22  C   UNL     1       3.098   1.135   2.836  1.00  0.00    -0.047 A 
ATOM     23  C   UNL     1       4.970  -0.419   2.734  1.00  0.00    -0.040 A 
ATOM     24  C   UNL     1       4.785  -2.683   1.533  1.00  0.00     0.013 C 
ATOM     25  C   UNL     1       3.926   2.039   3.538  1.00  0.00     0.004 A 
ATOM     26  C   UNL     1       1.716   1.650   2.545  1.00  0.00     0.044 C 
ATOM     27  C   UNL     1       5.741   0.499   3.481  1.00  0.00     0.004 A 
ATOM     28  C   UNL     1       5.228   1.720   3.876  1.00  0.00     0.001 A 
ENDBRANCH   8   9
ENDBRANCH   5   8
ENDBRANCH   3   4
ENDBRANCH   2   3
ENDBRANCH   1   2
BRANCH   1  29
ATOM     29  C   UNL     1       9.618  -6.405   3.470  1.00  0.00     0.116 C 
BRANCH  29  30
ATOM     30  N   UNL     1       9.602  -6.598   4.911  1.00  0.00    -0.352 N 
ATOM     31  C   UNL     1      10.193  -7.605   5.632  1.00  0.00     0.251 C 
ATOM     32  H   UNL     1       9.108  -5.925   5.433  1.00  0.00     0.163 HD
ATOM     33  O   UNL     1       9.942  -7.751   6.824  1.00  0.00    -0.269 OA
BRANCH  31  34
ATOM     34  C   UNL     1      11.127  -8.513   4.943  1.00  0.00     0.039 A 
ATOM     35  C   UNL     1      10.916  -9.892   5.013  1.00  0.00     0.014 A 
ATOM     36  C   UNL     1      12.199  -7.987   4.215  1.00  0.00     0.014 A 
ATOM     37  C   UNL     1      11.771 -10.751   4.324  1.00  0.00     0.010 A 
ATOM     38  C   UNL     1      13.024  -8.842   3.494  1.00  0.00     0.010 A 
ATOM     39  C   UNL     1      12.825 -10.230   3.558  1.00  0.00    -0.014 A 
BRANCH  39  40
ATOM     40  C   UNL     1      13.783 -11.120   2.865  1.00  0.00     0.031 A 
ATOM     41  C   UNL     1      15.184 -11.235   3.391  1.00  0.00     0.074 A 
ATOM     42  C   UNL     1      13.417 -11.764   1.742  1.00  0.00     0.049 A 
ATOM     43  N   UNL     1      16.198 -11.891   2.896  1.00  0.00    -0.248 NA
ATOM     44  C   UNL     1      15.490 -10.497   4.629  1.00  0.00     0.031 C 
ATOM     45  C   UNL     1      12.089 -11.701   1.131  1.00  0.00     0.029 A 
ATOM     46  N   UNL     1      14.133 -12.582   0.905  1.00  0.00    -0.354 N 
ATOM     47  C   UNL     1      17.262 -11.641   3.753  1.00  0.00     0.074 A 
ATOM     48  C   UNL     1      16.785 -10.735   4.773  1.00  0.00     0.031 C 
ATOM     49  C   UNL     1      12.086 -12.451   0.017  1.00  0.00     0.029 A 
ATOM     50  C   UNL     1      13.417 -13.021  -0.184  1.00  0.00     0.049 A 
ATOM     51  H   UNL     1      15.072 -12.831   1.068  1.00  0.00     0.167 HD
ATOM     52  C   UNL     1      18.517 -12.143   3.705  1.00  0.00     0.034 A 
ATOM     53  C   UNL     1      13.795 -13.787  -1.228  1.00  0.00     0.034 A 
ATOM     54  C   UNL     1      18.971 -13.063   2.698  1.00  0.00     0.049 A 
ATOM     55  C   UNL     1      15.206 -14.319  -1.272  1.00  0.00     0.074 A 
ATOM     56  C   UNL     1      20.205 -13.678   2.600  1.00  0.00     0.029 A 
ATOM     57  N   UNL     1      18.214 -13.500   1.622  1.00  0.00    -0.354 N 
ATOM     58  N   UNL     1      16.177 -14.146  -0.406  1.00  0.00    -0.248 NA
ATOM     59  C   UNL     1      15.577 -15.149  -2.426  1.00  0.00     0.031 C 
ATOM     60  C   UNL     1      20.210 -14.454   1.440  1.00  0.00     0.029 A 
ATOM     61  C   UNL     1      18.963 -14.360   0.840  1.00  0.00     0.049 A 
ATOM     62  H   UNL     1      17.282 -13.237   1.441  1.00  0.00     0.167 HD
ATOM     63  C   UNL     1      17.263 -14.864  -0.897  1.00  0.00     0.074 A 
ATOM     64  C   UNL     1      16.827 -15.485  -2.131  1.00  0.00     0.031 C 
ATOM     65  C   UNL     1      18.508 -14.992  -0.375  1.00  0.00     0.034 A 
BRANCH  52  66
ATOM     66  C   UNL     1      19.487 -11.742   4.781  1.00  0.00     0.023 A 
ATOM     67  C   UNL     1      20.619 -10.972   4.460  1.00  0.00     0.031 A 
ATOM     68  C   UNL     1      19.346 -12.210   6.099  1.00  0.00     0.131 A 
ATOM     69  C   UNL     1      21.581 -10.713   5.443  1.00  0.00     0.055 A 
ATOM     70  C   UNL     1      20.291 -11.922   7.082  1.00  0.00     0.041 A 
ATOM     71  F   UNL     1      18.277 -12.944   6.449  1.00  0.00    -0.206 F 
ATOM     72  C   UNL     1      21.419 -11.177   6.754  1.00  0.00     0.022 A 
BRANCH  69  73
ATOM     73  S   UNL     1      23.089  -9.785   5.056  1.00  0.00     0.124 S 
ATOM     74  O   UNL     1      23.069  -8.736   6.074  1.00  0.00    -0.237 OA
ATOM     75  O   UNL     1      24.123 -10.801   5.226  1.00  0.00    -0.237 OA
ATOM     76  O   UNL     1      22.874  -9.322   3.689  1.00  0.00    -0.744 OA
ENDBRANCH  69  73
ENDBRANCH  52  66
BRANCH  53  77
ATOM     77  C   UNL     1      12.796 -14.131  -2.278  1.00  0.00     0.023 A 
ATOM     78  C   UNL     1      12.244 -13.141  -3.110  1.00  0.00     0.031 A 
ATOM     79  C   UNL     1      12.313 -15.445  -2.399  1.00  0.00     0.131 A 
ATOM     80  C   UNL     1      11.205 -13.472  -3.990  1.00  0.00     0.055 A 
ATOM     81  C   UNL     1      11.317 -15.781  -3.317  1.00  0.00     0.041 A 
ATOM     82  F   UNL     1      12.804 -16.419  -1.618  1.00  0.00    -0.206 F 
ATOM     83  C   UNL     1      10.749 -14.789  -4.110  1.00  0.00     0.022 A 
BRANCH  80  84
ATOM     84  S   UNL     1      10.349 -12.189  -4.944  1.00  0.00     0.124 S 
ATOM     85  O   UNL     1      10.457 -12.697  -6.309  1.00  0.00    -0.237 OA
ATOM     86  O   UNL     1       9.011 -12.231  -4.360  1.00  0.00    -0.237 OA
ATOM     87  O   UNL     1      11.115 -10.980  -4.661  1.00  0.00    -0.744 OA
ENDBRANCH  80  84
ENDBRANCH  53  77
BRANCH  65  88
ATOM     88  C   UNL     1      19.519 -15.837  -1.106  1.00  0.00     0.023 A 
ATOM     89  C   UNL     1      20.002 -17.019  -0.513  1.00  0.00     0.031 A 
ATOM     90  C   UNL     1      20.133 -15.375  -2.281  1.00  0.00     0.131 A 
ATOM     91  C   UNL     1      21.108 -17.671  -1.071  1.00  0.00     0.055 A 
ATOM     92  C   UNL     1      21.209 -16.053  -2.856  1.00  0.00     0.041 A 
ATOM     93  F   UNL     1      19.710 -14.247  -2.873  1.00  0.00    -0.206 F 
ATOM     94  C   UNL     1      21.710 -17.199  -2.242  1.00  0.00     0.022 A 
BRANCH  91  95
ATOM     95  S   UNL     1      21.851 -19.111  -0.255  1.00  0.00     0.124 S 
ATOM     96  O   UNL     1      21.879 -20.094  -1.335  1.00  0.00    -0.237 OA
ATOM     97  O   UNL     1      23.154 -18.593   0.151  1.00  0.00    -0.237 OA
ATOM     98  O   UNL     1      20.927 -19.414   0.833  1.00  0.00    -0.744 OA
ENDBRANCH  91  95
ENDBRANCH  65  88
ENDBRANCH  39  40
ENDBRANCH  31  34
ENDBRANCH  29  30
ENDBRANCH   1  29
TORSDOF 15
