REMARK SMILES C[C@@H]1CCC[C@@H]([C@@H](Cc2ccc(Cl)cc2)C(=O)NCCCCNC(=O)c2ccc(-c3c4nc(c(-c5cc(S(=O)(=O)[O-])ccc5F)c5ccc([nH]5)c(-c5cc(S(=O)(=O)[O-])ccc5F)c5nc(c(-c6cc(S(=O)(=O)[O-])ccc6F)c6ccc3[nH]6)C=C5)C=C4)cc2)C1
REMARK SMILES IDX 21 1 20 2 19 3 18 4 16 5 17 6 7 8 6 9 1 10 2 11 3 12 89 13
REMARK SMILES IDX 4 14 5 15 8 16 9 17 10 18 15 19 11 20 14 21 12 22 13 23
REMARK SMILES IDX 22 24 23 25 24 26 25 28 26 29 27 30 88 31 28 32 87 33 29 34
REMARK SMILES IDX 30 35 31 36 81 37 32 38 86 39 80 40 82 41 33 42 85 43 79 44
REMARK SMILES IDX 78 45 34 47 66 48 46 49 65 50 47 51 50 52 64 53 83 54 48 55
REMARK SMILES IDX 49 56 63 58 84 59 51 60 35 61 36 62 44 63 37 64 43 65 45 66
REMARK SMILES IDX 42 67 38 68 39 69 40 70 41 71 67 72 68 73 76 74 69 75 75 76
REMARK SMILES IDX 77 77 74 78 70 79 71 80 72 81 73 82 52 83 53 84 61 85 54 86
REMARK SMILES IDX 60 87 62 88 59 89 55 90 56 91 57 92 58 93
REMARK H PARENT 18 7 23 27 82 46 50 57
REMARK Flexibility Score: inf
ROOT
ATOM      1  C   UNL     1      -3.657   1.143   3.697  1.00  0.00     0.023 C 
ENDROOT
BRANCH   1   2
ATOM      2  C   UNL     1      -2.597   0.333   2.965  1.00  0.00     0.023 C 
BRANCH   2   3
ATOM      3  C   UNL     1      -2.987  -1.098   2.617  1.00  0.00     0.116 C 
BRANCH   3   4
ATOM      4  N   UNL     1      -3.756  -1.238   1.394  1.00  0.00    -0.356 N 
ATOM      5  C   UNL     1      -3.431  -1.832   0.209  1.00  0.00     0.223 C 
ATOM      6  O   UNL     1      -4.351  -2.063  -0.583  1.00  0.00    -0.275 OA
ATOM      7  H   UNL     1      -4.656  -0.841   1.424  1.00  0.00     0.163 HD
BRANCH   5   8
ATOM      8  C   UNL     1      -1.990  -2.212  -0.173  1.00  0.00     0.086 C 
BRANCH   8   9
ATOM      9  C   UNL     1      -0.979  -1.061   0.080  1.00  0.00     0.002 C 
ATOM     10  C   UNL     1       1.555  -0.044   1.605  1.00  0.00     0.007 C 
ATOM     11  C   UNL     1       1.419  -0.206   0.085  1.00  0.00    -0.014 C 
ATOM     12  C   UNL     1       0.962   1.102  -0.578  1.00  0.00     0.003 C 
ATOM     13  C   UNL     1       0.480  -1.374  -0.285  1.00  0.00     0.007 C 
ATOM     14  C   UNL     1      -0.515   1.410  -0.357  1.00  0.00     0.001 C 
ATOM     15  C   UNL     1      -1.408   0.216  -0.683  1.00  0.00     0.004 C 
ENDBRANCH   8   9
BRANCH   8  16
ATOM     16  C   UNL     1      -1.632  -3.653   0.279  1.00  0.00     0.049 C 
BRANCH  16  17
ATOM     17  C   UNL     1      -1.702  -3.992   1.750  1.00  0.00    -0.047 A 
ATOM     18  C   UNL     1      -0.569  -3.897   2.570  1.00  0.00     0.005 A 
ATOM     19  C   UNL     1      -2.930  -4.355   2.331  1.00  0.00     0.005 A 
ATOM     20  C   UNL     1      -0.677  -4.092   3.951  1.00  0.00     0.021 A 
ATOM     21  C   UNL     1      -3.039  -4.541   3.711  1.00  0.00     0.021 A 
ATOM     22  C   UNL     1      -1.914  -4.394   4.517  1.00  0.00     0.041 A 
ATOM     23  Cl  UNL     1      -2.056  -4.563   6.222  1.00  0.00    -0.084 Cl
ENDBRANCH  16  17
ENDBRANCH   8  16
ENDBRANCH   5   8
ENDBRANCH   3   4
ENDBRANCH   2   3
ENDBRANCH   1   2
BRANCH   1  24
ATOM     24  C   UNL     1      -4.321   0.444   4.876  1.00  0.00     0.116 C 
BRANCH  24  25
ATOM     25  N   UNL     1      -3.394  -0.169   5.819  1.00  0.00    -0.352 N 
ATOM     26  C   UNL     1      -3.585  -0.385   7.168  1.00  0.00     0.251 C 
ATOM     27  H   UNL     1      -2.530  -0.463   5.449  1.00  0.00     0.163 HD
ATOM     28  O   UNL     1      -2.694  -0.856   7.857  1.00  0.00    -0.269 OA
BRANCH  26  29
ATOM     29  C   UNL     1      -4.870   0.039   7.765  1.00  0.00     0.039 A 
ATOM     30  C   UNL     1      -4.843   0.937   8.832  1.00  0.00     0.014 A 
ATOM     31  C   UNL     1      -6.081  -0.342   7.182  1.00  0.00     0.014 A 
ATOM     32  C   UNL     1      -6.031   1.537   9.246  1.00  0.00     0.010 A 
ATOM     33  C   UNL     1      -7.250   0.320   7.540  1.00  0.00     0.010 A 
ATOM     34  C   UNL     1      -7.232   1.278   8.564  1.00  0.00    -0.014 A 
BRANCH  34  35
ATOM     35  C   UNL     1      -8.464   2.042   8.885  1.00  0.00     0.031 A 
ATOM     36  C   UNL     1      -9.669   1.339   9.439  1.00  0.00     0.074 A 
ATOM     37  C   UNL     1      -8.506   3.363   8.617  1.00  0.00     0.049 A 
ATOM     38  N   UNL     1     -10.831   1.835   9.780  1.00  0.00    -0.248 NA
ATOM     39  C   UNL     1      -9.567  -0.119   9.598  1.00  0.00     0.031 C 
ATOM     40  C   UNL     1      -7.421   4.136   8.005  1.00  0.00     0.029 A 
ATOM     41  N   UNL     1      -9.495   4.291   8.823  1.00  0.00    -0.354 N 
ATOM     42  C   UNL     1     -11.598   0.751  10.191  1.00  0.00     0.074 A 
ATOM     43  C   UNL     1     -10.793  -0.434   9.985  1.00  0.00     0.031 C 
ATOM     44  C   UNL     1      -7.790   5.425   7.922  1.00  0.00     0.029 A 
ATOM     45  C   UNL     1      -9.146   5.566   8.442  1.00  0.00     0.049 A 
ATOM     46  H   UNL     1     -10.373   4.066   9.208  1.00  0.00     0.167 HD
ATOM     47  C   UNL     1     -12.848   0.750  10.719  1.00  0.00     0.034 A 
ATOM     48  C   UNL     1      -9.839   6.720   8.510  1.00  0.00     0.034 A 
ATOM     49  C   UNL     1     -13.630   1.945  10.920  1.00  0.00     0.049 A 
ATOM     50  C   UNL     1     -11.221   6.696   9.108  1.00  0.00     0.074 A 
ATOM     51  C   UNL     1     -14.879   2.072  11.503  1.00  0.00     0.029 A 
ATOM     52  N   UNL     1     -13.242   3.223  10.533  1.00  0.00    -0.354 N 
ATOM     53  N   UNL     1     -11.904   5.673   9.570  1.00  0.00    -0.248 NA
ATOM     54  C   UNL     1     -11.918   7.984   9.212  1.00  0.00     0.031 C 
ATOM     55  C   UNL     1     -15.271   3.413  11.412  1.00  0.00     0.029 A 
ATOM     56  C   UNL     1     -14.239   4.138  10.837  1.00  0.00     0.049 A 
ATOM     57  H   UNL     1     -12.384   3.446  10.106  1.00  0.00     0.167 HD
ATOM     58  C   UNL     1     -13.104   6.199  10.038  1.00  0.00     0.074 A 
ATOM     59  C   UNL     1     -13.038   7.631   9.824  1.00  0.00     0.031 C 
ATOM     60  C   UNL     1     -14.164   5.560  10.594  1.00  0.00     0.034 A 
BRANCH  47  61
ATOM     61  C   UNL     1     -13.437  -0.590  11.091  1.00  0.00     0.023 A 
ATOM     62  C   UNL     1     -12.847  -1.407  12.073  1.00  0.00     0.031 A 
ATOM     63  C   UNL     1     -14.578  -1.078  10.431  1.00  0.00     0.131 A 
ATOM     64  C   UNL     1     -13.345  -2.697  12.305  1.00  0.00     0.055 A 
ATOM     65  C   UNL     1     -15.120  -2.331  10.726  1.00  0.00     0.041 A 
ATOM     66  F   UNL     1     -15.174  -0.355   9.470  1.00  0.00    -0.206 F 
ATOM     67  C   UNL     1     -14.493  -3.156  11.656  1.00  0.00     0.022 A 
BRANCH  64  68
ATOM     68  S   UNL     1     -12.383  -3.820  13.356  1.00  0.00     0.124 S 
ATOM     69  O   UNL     1     -11.112  -3.877  12.639  1.00  0.00    -0.237 OA
ATOM     70  O   UNL     1     -12.366  -3.119  14.634  1.00  0.00    -0.237 OA
ATOM     71  O   UNL     1     -13.159  -5.059  13.333  1.00  0.00    -0.744 OA
ENDBRANCH  64  68
ENDBRANCH  47  61
BRANCH  48  72
ATOM     72  C   UNL     1      -9.242   7.992   8.012  1.00  0.00     0.023 A 
ATOM     73  C   UNL     1      -8.939   9.043   8.892  1.00  0.00     0.031 A 
ATOM     74  C   UNL     1      -8.993   8.186   6.642  1.00  0.00     0.131 A 
ATOM     75  C   UNL     1      -8.446  10.257   8.389  1.00  0.00     0.055 A 
ATOM     76  C   UNL     1      -8.458   9.379   6.151  1.00  0.00     0.041 A 
ATOM     77  F   UNL     1      -9.255   7.209   5.759  1.00  0.00    -0.206 F 
ATOM     78  C   UNL     1      -8.193  10.428   7.026  1.00  0.00     0.022 A 
BRANCH  75  79
ATOM     79  S   UNL     1      -8.205  11.640   9.538  1.00  0.00     0.124 S 
ATOM     80  O   UNL     1      -9.544  11.803  10.093  1.00  0.00    -0.237 OA
ATOM     81  O   UNL     1      -7.194  11.107  10.445  1.00  0.00    -0.237 OA
ATOM     82  O   UNL     1      -7.751  12.726   8.672  1.00  0.00    -0.744 OA
ENDBRANCH  75  79
ENDBRANCH  48  72
BRANCH  60  83
ATOM     83  C   UNL     1     -15.323   6.423  11.029  1.00  0.00     0.023 A 
ATOM     84  C   UNL     1     -16.114   7.115  10.096  1.00  0.00     0.031 A 
ATOM     85  C   UNL     1     -15.620   6.576  12.394  1.00  0.00     0.131 A 
ATOM     86  C   UNL     1     -17.124   7.981  10.542  1.00  0.00     0.055 A 
ATOM     87  C   UNL     1     -16.666   7.390  12.830  1.00  0.00     0.041 A 
ATOM     88  F   UNL     1     -14.896   5.939  13.328  1.00  0.00    -0.206 F 
ATOM     89  C   UNL     1     -17.415   8.110  11.903  1.00  0.00     0.022 A 
BRANCH  86  90
ATOM     90  S   UNL     1     -17.984   9.014   9.325  1.00  0.00     0.124 S 
ATOM     91  O   UNL     1     -16.881   9.753   8.720  1.00  0.00    -0.237 OA
ATOM     92  O   UNL     1     -18.629   8.020   8.473  1.00  0.00    -0.237 OA
ATOM     93  O   UNL     1     -18.896   9.816  10.139  1.00  0.00    -0.744 OA
ENDBRANCH  86  90
ENDBRANCH  60  83
ENDBRANCH  34  35
ENDBRANCH  26  29
ENDBRANCH  24  25
ENDBRANCH   1  24
TORSDOF 17
