REMARK SMILES CCN(Cc1ccccn1)C(=O)[C@H]1CC[C@@H](C(=O)NCCCCNC(=O)c2ccc(-c3c4nc(c(-c5cc(S(=O)(=O)[O-])ccc5F)c5ccc([nH]5)c(-c5cc(S(=O)(=O)[O-])ccc5F)c5nc(c(-c6cc(S(=O)(=O)[O-])ccc6F)c6ccc3[nH]6)C=C5)C=C4)cc2)CC1
REMARK SMILES IDX 21 1 20 2 19 3 17 4 18 5 16 7 13 8 91 9 14 10 90 11 15 12
REMARK SMILES IDX 11 13 12 14 3 15 2 16 1 17 4 18 5 19 6 20 10 21 7 22 9 23
REMARK SMILES IDX 8 24 22 25 23 26 24 27 25 28 26 30 27 31 28 32 89 33 29 34
REMARK SMILES IDX 88 35 30 36 31 37 32 38 82 39 33 40 87 41 81 42 83 43 34 44
REMARK SMILES IDX 86 45 80 46 79 47 35 49 67 50 47 51 66 52 48 53 51 54 65 55
REMARK SMILES IDX 84 56 49 57 50 58 64 60 85 61 52 62 36 63 37 64 45 65 38 66
REMARK SMILES IDX 44 67 46 68 43 69 39 70 40 71 41 72 42 73 68 74 69 75 77 76
REMARK SMILES IDX 70 77 76 78 78 79 75 80 71 81 72 82 73 83 74 84 53 85 54 86
REMARK SMILES IDX 62 87 55 88 61 89 63 90 60 91 56 92 57 93 58 94 59 95
REMARK H PARENT 19 6 24 29 83 48 51 59
REMARK Flexibility Score: inf
ROOT
ATOM      1  C   UNL     1       6.222   2.482  -0.824  1.00  0.00     0.023 C 
ENDROOT
BRANCH   1   2
ATOM      2  C   UNL     1       5.530   3.703  -1.409  1.00  0.00     0.116 C 
BRANCH   2   3
ATOM      3  N   UNL     1       6.348   4.492  -2.292  1.00  0.00    -0.356 N 
ATOM      4  C   UNL     1       6.111   4.898  -3.566  1.00  0.00     0.223 C 
ATOM      5  O   UNL     1       6.911   5.712  -4.045  1.00  0.00    -0.275 OA
ATOM      6  H   UNL     1       7.211   4.781  -1.916  1.00  0.00     0.163 HD
BRANCH   4   7
ATOM      7  C   UNL     1       4.912   4.435  -4.417  1.00  0.00     0.078 C 
ATOM      8  C   UNL     1       2.476   2.980  -3.319  1.00  0.00     0.079 C 
ATOM      9  C   UNL     1       2.746   4.473  -3.063  1.00  0.00     0.014 C 
ATOM     10  C   UNL     1       3.689   2.180  -3.848  1.00  0.00     0.014 C 
ATOM     11  C   UNL     1       3.601   5.147  -4.116  1.00  0.00     0.014 C 
ATOM     12  C   UNL     1       4.752   2.933  -4.654  1.00  0.00     0.014 C 
BRANCH   8  13
ATOM     13  C   UNL     1       2.006   2.368  -1.981  1.00  0.00     0.226 C 
ATOM     14  O   UNL     1       2.846   2.078  -1.119  1.00  0.00    -0.275 OA
BRANCH  13  15
ATOM     15  N   UNL     1       0.653   2.217  -1.717  1.00  0.00    -0.337 N 
BRANCH  15  16
ATOM     16  C   UNL     1       0.275   1.711  -0.392  1.00  0.00     0.116 C 
ATOM     17  C   UNL     1       0.487   0.210  -0.260  1.00  0.00     0.027 C 
ENDBRANCH  15  16
BRANCH  15  18
ATOM     18  C   UNL     1      -0.433   2.526  -2.657  1.00  0.00     0.175 C 
BRANCH  18  19
ATOM     19  C   UNL     1      -0.656   4.014  -2.849  1.00  0.00     0.060 A 
ATOM     20  C   UNL     1      -0.837   4.857  -1.752  1.00  0.00     0.026 A 
ATOM     21  N   UNL     1      -0.572   4.491  -4.120  1.00  0.00    -0.259 NA
ATOM     22  C   UNL     1      -0.872   6.234  -1.957  1.00  0.00     0.004 A 
ATOM     23  C   UNL     1      -0.611   5.833  -4.287  1.00  0.00     0.111 A 
ATOM     24  C   UNL     1      -0.744   6.735  -3.246  1.00  0.00     0.020 A 
ENDBRANCH  18  19
ENDBRANCH  15  18
ENDBRANCH  13  15
ENDBRANCH   8  13
ENDBRANCH   4   7
ENDBRANCH   2   3
ENDBRANCH   1   2
BRANCH   1  25
ATOM     25  C   UNL     1       6.684   2.647   0.618  1.00  0.00     0.023 C 
BRANCH  25  26
ATOM     26  C   UNL     1       5.640   3.142   1.614  1.00  0.00     0.116 C 
BRANCH  26  27
ATOM     27  N   UNL     1       4.406   2.369   1.679  1.00  0.00    -0.352 N 
ATOM     28  C   UNL     1       3.668   2.072   2.813  1.00  0.00     0.251 C 
ATOM     29  H   UNL     1       4.060   2.021   0.825  1.00  0.00     0.163 HD
ATOM     30  O   UNL     1       2.651   1.397   2.757  1.00  0.00    -0.269 OA
BRANCH  28  31
ATOM     31  C   UNL     1       4.169   2.567   4.119  1.00  0.00     0.039 A 
ATOM     32  C   UNL     1       4.457   1.652   5.133  1.00  0.00     0.014 A 
ATOM     33  C   UNL     1       4.471   3.921   4.285  1.00  0.00     0.014 A 
ATOM     34  C   UNL     1       5.143   2.082   6.275  1.00  0.00     0.010 A 
ATOM     35  C   UNL     1       5.230   4.327   5.380  1.00  0.00     0.010 A 
ATOM     36  C   UNL     1       5.587   3.411   6.383  1.00  0.00    -0.014 A 
BRANCH  36  37
ATOM     37  C   UNL     1       6.430   3.864   7.526  1.00  0.00     0.031 A 
ATOM     38  C   UNL     1       5.941   4.960   8.436  1.00  0.00     0.074 A 
ATOM     39  C   UNL     1       7.667   3.354   7.699  1.00  0.00     0.049 A 
ATOM     40  N   UNL     1       6.559   5.561   9.421  1.00  0.00    -0.248 NA
ATOM     41  C   UNL     1       4.591   5.477   8.171  1.00  0.00     0.031 C 
ATOM     42  C   UNL     1       8.292   2.335   6.852  1.00  0.00     0.029 A 
ATOM     43  N   UNL     1       8.628   3.631   8.642  1.00  0.00    -0.354 N 
ATOM     44  C   UNL     1       5.684   6.542   9.876  1.00  0.00     0.074 A 
ATOM     45  C   UNL     1       4.525   6.498   9.009  1.00  0.00     0.031 C 
ATOM     46  C   UNL     1       9.514   2.050   7.332  1.00  0.00     0.029 A 
ATOM     47  C   UNL     1       9.780   2.891   8.496  1.00  0.00     0.049 A 
ATOM     48  H   UNL     1       8.505   4.297   9.356  1.00  0.00     0.167 HD
ATOM     49  C   UNL     1       5.815   7.380  10.935  1.00  0.00     0.034 A 
ATOM     50  C   UNL     1      10.920   2.889   9.215  1.00  0.00     0.034 A 
ATOM     51  C   UNL     1       6.963   7.397  11.809  1.00  0.00     0.049 A 
ATOM     52  C   UNL     1      11.039   3.813  10.401  1.00  0.00     0.074 A 
ATOM     53  C   UNL     1       7.179   8.168  12.939  1.00  0.00     0.029 A 
ATOM     54  N   UNL     1       8.093   6.604  11.652  1.00  0.00    -0.354 N 
ATOM     55  N   UNL     1      10.180   4.700  10.848  1.00  0.00    -0.248 NA
ATOM     56  C   UNL     1      12.276   3.723  11.188  1.00  0.00     0.031 C 
ATOM     57  C   UNL     1       8.455   7.876  13.435  1.00  0.00     0.029 A 
ATOM     58  C   UNL     1       9.012   6.876  12.654  1.00  0.00     0.049 A 
ATOM     59  H   UNL     1       8.222   5.944  10.933  1.00  0.00     0.167 HD
ATOM     60  C   UNL     1      10.761   5.247  11.990  1.00  0.00     0.074 A 
ATOM     61  C   UNL     1      12.035   4.582  12.167  1.00  0.00     0.031 C 
ATOM     62  C   UNL     1      10.281   6.208  12.819  1.00  0.00     0.034 A 
BRANCH  49  63
ATOM     63  C   UNL     1       4.686   8.353  11.186  1.00  0.00     0.023 A 
ATOM     64  C   UNL     1       3.385   7.907  11.479  1.00  0.00     0.031 A 
ATOM     65  C   UNL     1       4.896   9.739  11.076  1.00  0.00     0.131 A 
ATOM     66  C   UNL     1       2.328   8.826  11.551  1.00  0.00     0.055 A 
ATOM     67  C   UNL     1       3.855  10.656  11.243  1.00  0.00     0.041 A 
ATOM     68  F   UNL     1       6.112  10.226  10.782  1.00  0.00    -0.206 F 
ATOM     69  C   UNL     1       2.558  10.200  11.462  1.00  0.00     0.022 A 
BRANCH  66  70
ATOM     70  S   UNL     1       0.631   8.187  11.594  1.00  0.00     0.124 S 
ATOM     71  O   UNL     1       0.570   7.433  10.344  1.00  0.00    -0.237 OA
ATOM     72  O   UNL     1       0.621   7.397  12.819  1.00  0.00    -0.237 OA
ATOM     73  O   UNL     1      -0.190   9.396  11.623  1.00  0.00    -0.744 OA
ENDBRANCH  66  70
ENDBRANCH  49  63
BRANCH  50  74
ATOM     74  C   UNL     1      12.044   1.979   8.854  1.00  0.00     0.023 A 
ATOM     75  C   UNL     1      12.424   0.931   9.708  1.00  0.00     0.031 A 
ATOM     76  C   UNL     1      12.786   2.172   7.676  1.00  0.00     0.131 A 
ATOM     77  C   UNL     1      13.546   0.146   9.399  1.00  0.00     0.055 A 
ATOM     78  C   UNL     1      13.873   1.359   7.349  1.00  0.00     0.041 A 
ATOM     79  F   UNL     1      12.459   3.155   6.822  1.00  0.00    -0.206 F 
ATOM     80  C   UNL     1      14.267   0.347   8.220  1.00  0.00     0.022 A 
BRANCH  77  81
ATOM     81  S   UNL     1      14.098  -1.092  10.604  1.00  0.00     0.124 S 
ATOM     82  O   UNL     1      14.349  -0.271  11.782  1.00  0.00    -0.237 OA
ATOM     83  O   UNL     1      12.943  -1.981  10.675  1.00  0.00    -0.237 OA
ATOM     84  O   UNL     1      15.287  -1.668   9.979  1.00  0.00    -0.744 OA
ENDBRANCH  77  81
ENDBRANCH  50  74
BRANCH  62  85
ATOM     85  C   UNL     1      11.119   6.551  14.026  1.00  0.00     0.023 A 
ATOM     86  C   UNL     1      12.367   7.187  13.906  1.00  0.00     0.031 A 
ATOM     87  C   UNL     1      10.668   6.214  15.314  1.00  0.00     0.131 A 
ATOM     88  C   UNL     1      13.147   7.415  15.051  1.00  0.00     0.055 A 
ATOM     89  C   UNL     1      11.423   6.493  16.454  1.00  0.00     0.041 A 
ATOM     90  F   UNL     1       9.484   5.605  15.486  1.00  0.00    -0.206 F 
ATOM     91  C   UNL     1      12.677   7.084  16.325  1.00  0.00     0.022 A 
BRANCH  88  92
ATOM     92  S   UNL     1      14.829   8.064  14.845  1.00  0.00     0.124 S 
ATOM     93  O   UNL     1      15.434   7.070  13.965  1.00  0.00    -0.237 OA
ATOM     94  O   UNL     1      14.585   9.376  14.253  1.00  0.00    -0.237 OA
ATOM     95  O   UNL     1      15.357   8.088  16.208  1.00  0.00    -0.744 OA
ENDBRANCH  88  92
ENDBRANCH  62  85
ENDBRANCH  36  37
ENDBRANCH  28  31
ENDBRANCH  26  27
ENDBRANCH  25  26
ENDBRANCH   1  25
TORSDOF 19
