REMARK SMILES CC(C)(C)OC(=O)N1CCN(C(=O)c2ccc3c(c2)OCO3)[C@H](C(=O)NCCCCNC(=O)c2ccc(-c3c4nc(c(-c5cc(S(=O)(=O)[O-])ccc5F)c5ccc([nH]5)c(-c5cc(S(=O)(=O)[O-])ccc5F)c5nc(c(-c6cc(S(=O)(=O)[O-])ccc6F)c6ccc3[nH]6)C=C5)C=C4)cc2)C1
REMARK SMILES IDX 28 1 27 2 26 3 24 4 25 5 23 7 8 8 9 9 97 10 10 11 11 12 6 13
REMARK SMILES IDX 7 14 5 15 2 16 1 17 3 18 4 19 12 20 13 21 14 22 15 23 19 24
REMARK SMILES IDX 16 25 18 26 17 27 20 28 22 29 21 30 29 31 30 32 31 33 32 34
REMARK SMILES IDX 33 36 34 37 35 38 96 39 36 40 95 41 37 42 38 43 39 44 89 45
REMARK SMILES IDX 40 46 94 47 88 48 90 49 41 50 93 51 87 52 86 53 42 55 74 56
REMARK SMILES IDX 54 57 73 58 55 59 58 60 72 61 91 62 56 63 57 64 71 66 92 67
REMARK SMILES IDX 59 68 43 69 44 70 52 71 45 72 51 73 53 74 50 75 46 76 47 77
REMARK SMILES IDX 48 78 49 79 75 80 76 81 84 82 77 83 83 84 85 85 82 86 78 87
REMARK SMILES IDX 79 88 80 89 81 90 60 91 61 92 69 93 62 94 68 95 70 96 67 97
REMARK SMILES IDX 63 98 64 99 65 100 66 101
REMARK H PARENT 26 6 31 35 90 54 58 65
REMARK Flexibility Score: inf
ROOT
ATOM      1  C   UNL     1       4.167   3.029  -4.055  1.00  0.00     0.023 C 
ENDROOT
BRANCH   1   2
ATOM      2  C   UNL     1       3.647   2.549  -5.410  1.00  0.00     0.116 C 
BRANCH   2   3
ATOM      3  N   UNL     1       4.392   1.374  -5.822  1.00  0.00    -0.354 N 
ATOM      4  C   UNL     1       4.044   0.061  -5.671  1.00  0.00     0.244 C 
ATOM      5  O   UNL     1       4.940  -0.784  -5.636  1.00  0.00    -0.273 OA
ATOM      6  H   UNL     1       5.254   1.543  -6.265  1.00  0.00     0.163 HD
BRANCH   4   7
ATOM      7  C   UNL     1       2.556  -0.315  -5.675  1.00  0.00     0.194 C 
ATOM      8  N   UNL     1       1.041  -1.880  -4.466  1.00  0.00    -0.304 N 
ATOM      9  C   UNL     1       0.364  -2.272  -5.696  1.00  0.00     0.144 C 
ATOM     10  C   UNL     1       2.429  -1.447  -4.629  1.00  0.00     0.158 C 
ATOM     11  C   UNL     1       0.497  -1.173  -6.758  1.00  0.00     0.142 C 
ATOM     12  N   UNL     1       1.892  -0.740  -6.953  1.00  0.00    -0.323 N 
BRANCH   8  13
ATOM     13  C   UNL     1       0.411  -2.002  -3.250  1.00  0.00     0.410 C 
ATOM     14  O   UNL     1      -0.609  -2.661  -3.089  1.00  0.00    -0.224 OA
BRANCH  13  15
ATOM     15  O   UNL     1       1.021  -1.268  -2.287  1.00  0.00    -0.444 OA
BRANCH  15  16
ATOM     16  C   UNL     1       0.539  -1.256  -0.917  1.00  0.00     0.106 C 
ATOM     17  C   UNL     1       1.223  -0.044  -0.264  1.00  0.00     0.056 C 
ATOM     18  C   UNL     1       1.004  -2.535  -0.220  1.00  0.00     0.056 C 
ATOM     19  C   UNL     1      -0.978  -1.059  -0.793  1.00  0.00     0.056 C 
ENDBRANCH  15  16
ENDBRANCH  13  15
ENDBRANCH   8  13
BRANCH  12  20
ATOM     20  C   UNL     1       2.204  -0.305  -8.246  1.00  0.00     0.254 C 
ATOM     21  O   UNL     1       1.363  -0.212  -9.140  1.00  0.00    -0.269 OA
BRANCH  20  22
ATOM     22  C   UNL     1       3.598  -0.010  -8.633  1.00  0.00     0.044 A 
ATOM     23  C   UNL     1       4.606  -0.983  -8.475  1.00  0.00     0.018 A 
ATOM     24  C   UNL     1       3.884   1.228  -9.222  1.00  0.00     0.064 A 
ATOM     25  C   UNL     1       5.934  -0.683  -8.800  1.00  0.00     0.051 A 
ATOM     26  C   UNL     1       5.200   1.487  -9.541  1.00  0.00     0.166 A 
ATOM     27  C   UNL     1       6.198   0.565  -9.322  1.00  0.00     0.165 A 
ATOM     28  O   UNL     1       5.675   2.646 -10.071  1.00  0.00    -0.454 OA
ATOM     29  O   UNL     1       7.425   1.035  -9.671  1.00  0.00    -0.454 OA
ATOM     30  C   UNL     1       7.088   2.354 -10.151  1.00  0.00     0.468 C 
ENDBRANCH  20  22
ENDBRANCH  12  20
ENDBRANCH   4   7
ENDBRANCH   2   3
ENDBRANCH   1   2
BRANCH   1  31
ATOM     31  C   UNL     1       5.598   3.578  -4.106  1.00  0.00     0.023 C 
BRANCH  31  32
ATOM     32  C   UNL     1       5.803   4.730  -5.086  1.00  0.00     0.116 C 
BRANCH  32  33
ATOM     33  N   UNL     1       4.915   5.846  -4.809  1.00  0.00    -0.352 N 
ATOM     34  C   UNL     1       5.201   7.185  -4.727  1.00  0.00     0.251 C 
ATOM     35  H   UNL     1       3.973   5.607  -4.657  1.00  0.00     0.163 HD
ATOM     36  O   UNL     1       4.352   7.952  -4.280  1.00  0.00    -0.269 OA
BRANCH  34  37
ATOM     37  C   UNL     1       6.526   7.691  -5.145  1.00  0.00     0.039 A 
ATOM     38  C   UNL     1       7.146   8.662  -4.357  1.00  0.00     0.014 A 
ATOM     39  C   UNL     1       7.153   7.224  -6.305  1.00  0.00     0.014 A 
ATOM     40  C   UNL     1       8.416   9.123  -4.702  1.00  0.00     0.010 A 
ATOM     41  C   UNL     1       8.453   7.629  -6.604  1.00  0.00     0.010 A 
ATOM     42  C   UNL     1       9.099   8.583  -5.806  1.00  0.00    -0.014 A 
BRANCH  42  43
ATOM     43  C   UNL     1      10.494   9.005  -6.105  1.00  0.00     0.031 A 
ATOM     44  C   UNL     1      10.823   9.727  -7.383  1.00  0.00     0.074 A 
ATOM     45  C   UNL     1      11.468   8.723  -5.215  1.00  0.00     0.049 A 
ATOM     46  N   UNL     1      11.976  10.189  -7.796  1.00  0.00    -0.248 NA
ATOM     47  C   UNL     1       9.720   9.939  -8.332  1.00  0.00     0.031 C 
ATOM     48  C   UNL     1      11.277   7.987  -3.962  1.00  0.00     0.029 A 
ATOM     49  N   UNL     1      12.805   9.029  -5.215  1.00  0.00    -0.354 N 
ATOM     50  C   UNL     1      11.737  10.755  -9.044  1.00  0.00     0.074 A 
ATOM     51  C   UNL     1      10.344  10.512  -9.352  1.00  0.00     0.031 C 
ATOM     52  C   UNL     1      12.440   7.942  -3.295  1.00  0.00     0.029 A 
ATOM     53  C   UNL     1      13.472   8.599  -4.090  1.00  0.00     0.049 A 
ATOM     54  H   UNL     1      13.247   9.512  -5.951  1.00  0.00     0.167 HD
ATOM     55  C   UNL     1      12.593  11.437  -9.845  1.00  0.00     0.034 A 
ATOM     56  C   UNL     1      14.768   8.716  -3.740  1.00  0.00     0.034 A 
ATOM     57  C   UNL     1      13.981  11.671  -9.525  1.00  0.00     0.049 A 
ATOM     58  C   UNL     1      15.704   9.449  -4.670  1.00  0.00     0.074 A 
ATOM     59  C   UNL     1      14.925  12.378 -10.249  1.00  0.00     0.029 A 
ATOM     60  N   UNL     1      14.629  11.199  -8.390  1.00  0.00    -0.354 N 
ATOM     61  N   UNL     1      15.444  10.027  -5.820  1.00  0.00    -0.248 NA
ATOM     62  C   UNL     1      17.104   9.558  -4.243  1.00  0.00     0.031 C 
ATOM     63  C   UNL     1      16.156  12.271  -9.594  1.00  0.00     0.029 A 
ATOM     64  C   UNL     1      15.965  11.572  -8.413  1.00  0.00     0.049 A 
ATOM     65  H   UNL     1      14.202  10.676  -7.673  1.00  0.00     0.167 HD
ATOM     66  C   UNL     1      16.645  10.596  -6.236  1.00  0.00     0.074 A 
ATOM     67  C   UNL     1      17.614  10.322  -5.196  1.00  0.00     0.031 C 
ATOM     68  C   UNL     1      16.927  11.278  -7.377  1.00  0.00     0.034 A 
BRANCH  55  69
ATOM     69  C   UNL     1      12.055  11.968 -11.153  1.00  0.00     0.023 A 
ATOM     70  C   UNL     1      11.040  12.941 -11.192  1.00  0.00     0.031 A 
ATOM     71  C   UNL     1      12.567  11.504 -12.378  1.00  0.00     0.131 A 
ATOM     72  C   UNL     1      10.532  13.376 -12.425  1.00  0.00     0.055 A 
ATOM     73  C   UNL     1      12.112  11.999 -13.602  1.00  0.00     0.041 A 
ATOM     74  F   UNL     1      13.520  10.559 -12.406  1.00  0.00    -0.206 F 
ATOM     75  C   UNL     1      11.080  12.933 -13.631  1.00  0.00     0.022 A 
BRANCH  72  76
ATOM     76  S   UNL     1       9.060  14.436 -12.431  1.00  0.00     0.124 S 
ATOM     77  O   UNL     1       8.085  13.588 -11.749  1.00  0.00    -0.237 OA
ATOM     78  O   UNL     1       9.513  15.610 -11.694  1.00  0.00    -0.237 OA
ATOM     79  O   UNL     1       8.800  14.653 -13.853  1.00  0.00    -0.744 OA
ENDBRANCH  72  76
ENDBRANCH  55  69
BRANCH  56  80
ATOM     80  C   UNL     1      15.275   8.126  -2.465  1.00  0.00     0.023 A 
ATOM     81  C   UNL     1      15.864   8.932  -1.478  1.00  0.00     0.031 A 
ATOM     82  C   UNL     1      15.255   6.736  -2.251  1.00  0.00     0.131 A 
ATOM     83  C   UNL     1      16.473   8.340  -0.360  1.00  0.00     0.055 A 
ATOM     84  C   UNL     1      15.798   6.157  -1.102  1.00  0.00     0.041 A 
ATOM     85  F   UNL     1      14.704   5.915  -3.160  1.00  0.00    -0.206 F 
ATOM     86  C   UNL     1      16.430   6.960  -0.158  1.00  0.00     0.022 A 
BRANCH  83  87
ATOM     87  S   UNL     1      17.440   9.392   0.757  1.00  0.00     0.124 S 
ATOM     88  O   UNL     1      18.387  10.009  -0.164  1.00  0.00    -0.237 OA
ATOM     89  O   UNL     1      16.414  10.271   1.308  1.00  0.00    -0.237 OA
ATOM     90  O   UNL     1      18.018   8.440   1.704  1.00  0.00    -0.744 OA
ENDBRANCH  83  87
ENDBRANCH  56  80
BRANCH  68  91
ATOM     91  C   UNL     1      18.338  11.800  -7.526  1.00  0.00     0.023 A 
ATOM     92  C   UNL     1      19.442  10.931  -7.585  1.00  0.00     0.031 A 
ATOM     93  C   UNL     1      18.587  13.183  -7.552  1.00  0.00     0.131 A 
ATOM     94  C   UNL     1      20.744  11.451  -7.573  1.00  0.00     0.055 A 
ATOM     95  C   UNL     1      19.883  13.696  -7.624  1.00  0.00     0.041 A 
ATOM     96  F   UNL     1      17.574  14.063  -7.496  1.00  0.00    -0.206 F 
ATOM     97  C   UNL     1      20.972  12.829  -7.612  1.00  0.00     0.022 A 
BRANCH  94  98
ATOM     98  S   UNL     1      22.133  10.305  -7.357  1.00  0.00     0.124 S 
ATOM     99  O   UNL     1      21.777   9.630  -6.113  1.00  0.00    -0.237 OA
ATOM    100  O   UNL     1      22.057   9.492  -8.566  1.00  0.00    -0.237 OA
ATOM    101  O   UNL     1      23.296  11.187  -7.274  1.00  0.00    -0.744 OA
ENDBRANCH  94  98
ENDBRANCH  68  91
ENDBRANCH  42  43
ENDBRANCH  34  37
ENDBRANCH  32  33
ENDBRANCH  31  32
ENDBRANCH   1  31
TORSDOF 19
