REMARK SMILES C[C@@H]1[C@@H](C(=O)NCCCCNC(=O)c2ccc(-c3c4nc(c(-c5cc(S(=O)(=O)[O-])ccc5F)c5ccc([nH]5)c(-c5cc(S(=O)(=O)[O-])ccc5F)c5nc(c(-c6cc(S(=O)(=O)[O-])ccc6F)c6ccc3[nH]6)C=C5)C=C4)cc2)CCN1C(=O)[C@@H](C)OCc1ccccc1
REMARK SMILES IDX 7 1 6 2 4 3 5 4 3 6 1 7 2 8 79 9 77 10 78 11 80 12 81 13
REMARK SMILES IDX 82 14 83 15 84 16 85 17 86 18 87 19 91 20 88 21 90 22 89 23
REMARK SMILES IDX 8 24 9 25 10 26 11 27 12 28 13 30 14 31 15 32 76 33 16 34
REMARK SMILES IDX 75 35 17 36 18 37 19 38 69 39 20 40 74 41 68 42 70 43 21 44
REMARK SMILES IDX 73 45 67 46 66 47 22 49 54 50 34 51 53 52 35 53 38 54 52 55
REMARK SMILES IDX 71 56 36 57 37 58 51 60 72 61 39 62 23 63 24 64 32 65 25 66
REMARK SMILES IDX 31 67 33 68 30 69 26 70 27 71 28 72 29 73 55 74 56 75 64 76
REMARK SMILES IDX 57 77 63 78 65 79 62 80 58 81 59 82 60 83 61 84 40 85 41 86
REMARK SMILES IDX 49 87 42 88 48 89 50 90 47 91 43 92 44 93 45 94 46 95
REMARK H PARENT 6 5 11 29 70 48 38 59
REMARK Flexibility Score: inf
ROOT
ATOM      1  C   UNL     1      -2.641   3.035  -0.729  1.00  0.00     0.116 C 
ENDROOT
BRANCH   1   2
ATOM      2  N   UNL     1      -1.898   2.241  -1.688  1.00  0.00    -0.356 N 
ATOM      3  C   UNL     1      -1.018   1.224  -1.439  1.00  0.00     0.225 C 
ATOM      4  O   UNL     1      -0.533   0.620  -2.392  1.00  0.00    -0.275 OA
ATOM      5  H   UNL     1      -2.045   2.461  -2.636  1.00  0.00     0.163 HD
BRANCH   3   6
ATOM      6  C   UNL     1      -0.652   0.929   0.008  1.00  0.00     0.102 C 
ATOM      7  C   UNL     1       1.246   0.175   1.456  1.00  0.00     0.032 C 
ATOM      8  C   UNL     1       0.480  -0.098   0.150  1.00  0.00     0.094 C 
ATOM      9  N   UNL     1      -0.190  -1.385   0.230  1.00  0.00    -0.337 N 
ATOM     10  C   UNL     1      -1.799   0.276   0.785  1.00  0.00     0.037 C 
ATOM     11  C   UNL     1      -1.589  -1.220   0.587  1.00  0.00     0.121 C 
BRANCH   9  12
ATOM     12  C   UNL     1       0.295  -2.648  -0.034  1.00  0.00     0.251 C 
ATOM     13  O   UNL     1      -0.328  -3.632   0.392  1.00  0.00    -0.272 OA
BRANCH  12  14
ATOM     14  C   UNL     1       1.519  -2.889  -0.998  1.00  0.00     0.204 C 
ATOM     15  C   UNL     1       1.169  -2.448  -2.421  1.00  0.00     0.049 C 
BRANCH  14  16
ATOM     16  O   UNL     1       2.898  -2.811  -0.683  1.00  0.00    -0.364 OA
BRANCH  16  17
ATOM     17  C   UNL     1       3.575  -1.574  -0.537  1.00  0.00     0.196 C 
BRANCH  17  18
ATOM     18  C   UNL     1       3.758  -0.753  -1.789  1.00  0.00    -0.022 A 
ATOM     19  C   UNL     1       4.211  -1.341  -2.975  1.00  0.00     0.006 A 
ATOM     20  C   UNL     1       3.470   0.622  -1.786  1.00  0.00     0.006 A 
ATOM     21  C   UNL     1       4.275  -0.596  -4.154  1.00  0.00     0.000 A 
ATOM     22  C   UNL     1       3.523   1.363  -2.966  1.00  0.00     0.000 A 
ATOM     23  C   UNL     1       3.912   0.750  -4.153  1.00  0.00     0.000 A 
ENDBRANCH  17  18
ENDBRANCH  16  17
ENDBRANCH  14  16
ENDBRANCH  12  14
ENDBRANCH   9  12
ENDBRANCH   3   6
ENDBRANCH   1   2
BRANCH   1  24
ATOM     24  C   UNL     1      -2.884   4.466  -1.194  1.00  0.00     0.023 C 
BRANCH  24  25
ATOM     25  C   UNL     1      -3.716   4.609  -2.467  1.00  0.00     0.023 C 
BRANCH  25  26
ATOM     26  C   UNL     1      -4.999   3.786  -2.512  1.00  0.00     0.116 C 
BRANCH  26  27
ATOM     27  N   UNL     1      -5.889   4.055  -1.393  1.00  0.00    -0.352 N 
ATOM     28  C   UNL     1      -7.204   4.464  -1.395  1.00  0.00     0.251 C 
ATOM     29  H   UNL     1      -5.492   3.926  -0.502  1.00  0.00     0.163 HD
ATOM     30  O   UNL     1      -7.745   4.766  -0.341  1.00  0.00    -0.269 OA
BRANCH  28  31
ATOM     31  C   UNL     1      -7.934   4.572  -2.677  1.00  0.00     0.039 A 
ATOM     32  C   UNL     1      -8.674   5.728  -2.936  1.00  0.00     0.014 A 
ATOM     33  C   UNL     1      -7.863   3.554  -3.630  1.00  0.00     0.014 A 
ATOM     34  C   UNL     1      -9.279   5.895  -4.184  1.00  0.00     0.010 A 
ATOM     35  C   UNL     1      -8.391   3.760  -4.900  1.00  0.00     0.010 A 
ATOM     36  C   UNL     1      -9.107   4.933  -5.191  1.00  0.00    -0.014 A 
BRANCH  36  37
ATOM     37  C   UNL     1      -9.681   5.119  -6.550  1.00  0.00     0.031 A 
ATOM     38  C   UNL     1     -10.710   4.149  -7.066  1.00  0.00     0.074 A 
ATOM     39  C   UNL     1      -9.229   6.112  -7.341  1.00  0.00     0.049 A 
ATOM     40  N   UNL     1     -11.258   4.074  -8.252  1.00  0.00    -0.248 NA
ATOM     41  C   UNL     1     -11.149   3.102  -6.133  1.00  0.00     0.031 C 
ATOM     42  C   UNL     1      -8.204   7.091  -6.970  1.00  0.00     0.029 A 
ATOM     43  N   UNL     1      -9.566   6.459  -8.626  1.00  0.00    -0.354 N 
ATOM     44  C   UNL     1     -12.092   2.960  -8.212  1.00  0.00     0.074 A 
ATOM     45  C   UNL     1     -11.919   2.355  -6.908  1.00  0.00     0.031 C 
ATOM     46  C   UNL     1      -8.016   7.941  -7.993  1.00  0.00     0.029 A 
ATOM     47  C   UNL     1      -8.869   7.543  -9.108  1.00  0.00     0.049 A 
ATOM     48  H   UNL     1     -10.242   5.976  -9.154  1.00  0.00     0.167 HD
ATOM     49  C   UNL     1     -12.943   2.501  -9.163  1.00  0.00     0.034 A 
ATOM     50  C   UNL     1      -8.908   8.143 -10.315  1.00  0.00     0.034 A 
ATOM     51  C   UNL     1     -13.114   3.127 -10.452  1.00  0.00     0.049 A 
ATOM     52  C   UNL     1      -9.852   7.610 -11.363  1.00  0.00     0.074 A 
ATOM     53  C   UNL     1     -13.979   2.776 -11.474  1.00  0.00     0.029 A 
ATOM     54  N   UNL     1     -12.404   4.235 -10.898  1.00  0.00    -0.354 N 
ATOM     55  N   UNL     1     -10.665   6.580 -11.296  1.00  0.00    -0.248 NA
ATOM     56  C   UNL     1      -9.894   8.328 -12.643  1.00  0.00     0.031 C 
ATOM     57  C   UNL     1     -13.749   3.631 -12.557  1.00  0.00     0.029 A 
ATOM     58  C   UNL     1     -12.795   4.566 -12.187  1.00  0.00     0.049 A 
ATOM     59  H   UNL     1     -11.722   4.715 -10.375  1.00  0.00     0.167 HD
ATOM     60  C   UNL     1     -11.341   6.552 -12.513  1.00  0.00     0.074 A 
ATOM     61  C   UNL     1     -10.847   7.673 -13.287  1.00  0.00     0.031 C 
ATOM     62  C   UNL     1     -12.290   5.684 -12.948  1.00  0.00     0.034 A 
BRANCH  49  63
ATOM     63  C   UNL     1     -13.727   1.250  -8.842  1.00  0.00     0.023 A 
ATOM     64  C   UNL     1     -14.632   1.203  -7.766  1.00  0.00     0.031 A 
ATOM     65  C   UNL     1     -13.534   0.073  -9.588  1.00  0.00     0.131 A 
ATOM     66  C   UNL     1     -15.236  -0.012  -7.410  1.00  0.00     0.055 A 
ATOM     67  C   UNL     1     -14.210  -1.111  -9.284  1.00  0.00     0.041 A 
ATOM     68  F   UNL     1     -12.669   0.048 -10.614  1.00  0.00    -0.206 F 
ATOM     69  C   UNL     1     -15.052  -1.164  -8.177  1.00  0.00     0.022 A 
BRANCH  66  70
ATOM     70  S   UNL     1     -16.130  -0.101  -5.834  1.00  0.00     0.124 S 
ATOM     71  O   UNL     1     -15.086   0.273  -4.882  1.00  0.00    -0.237 OA
ATOM     72  O   UNL     1     -17.200   0.871  -6.023  1.00  0.00    -0.237 OA
ATOM     73  O   UNL     1     -16.558  -1.496  -5.761  1.00  0.00    -0.744 OA
ENDBRANCH  66  70
ENDBRANCH  49  63
BRANCH  50  74
ATOM     74  C   UNL     1      -8.032   9.314 -10.605  1.00  0.00     0.023 A 
ATOM     75  C   UNL     1      -8.581  10.583 -10.850  1.00  0.00     0.031 A 
ATOM     76  C   UNL     1      -6.635   9.175 -10.681  1.00  0.00     0.131 A 
ATOM     77  C   UNL     1      -7.743  11.652 -11.204  1.00  0.00     0.055 A 
ATOM     78  C   UNL     1      -5.801  10.253 -10.983  1.00  0.00     0.041 A 
ATOM     79  F   UNL     1      -6.057   7.985 -10.448  1.00  0.00    -0.206 F 
ATOM     80  C   UNL     1      -6.356  11.498 -11.260  1.00  0.00     0.022 A 
BRANCH  77  81
ATOM     81  S   UNL     1      -8.502  13.233 -11.667  1.00  0.00     0.124 S 
ATOM     82  O   UNL     1      -9.344  12.840 -12.791  1.00  0.00    -0.237 OA
ATOM     83  O   UNL     1      -9.200  13.604 -10.441  1.00  0.00    -0.237 OA
ATOM     84  O   UNL     1      -7.356  14.073 -12.008  1.00  0.00    -0.744 OA
ENDBRANCH  77  81
ENDBRANCH  50  74
BRANCH  62  85
ATOM     85  C   UNL     1     -12.896   5.954 -14.304  1.00  0.00     0.023 A 
ATOM     86  C   UNL     1     -12.148   5.843 -15.489  1.00  0.00     0.031 A 
ATOM     87  C   UNL     1     -14.245   6.340 -14.407  1.00  0.00     0.131 A 
ATOM     88  C   UNL     1     -12.736   6.171 -16.720  1.00  0.00     0.055 A 
ATOM     89  C   UNL     1     -14.842   6.606 -15.639  1.00  0.00     0.041 A 
ATOM     90  F   UNL     1     -15.005   6.463 -13.307  1.00  0.00    -0.206 F 
ATOM     91  C   UNL     1     -14.083   6.536 -16.804  1.00  0.00     0.022 A 
BRANCH  88  92
ATOM     92  S   UNL     1     -11.693   6.208 -18.203  1.00  0.00     0.124 S 
ATOM     93  O   UNL     1     -10.667   7.176 -17.828  1.00  0.00    -0.237 OA
ATOM     94  O   UNL     1     -11.253   4.821 -18.309  1.00  0.00    -0.237 OA
ATOM     95  O   UNL     1     -12.607   6.650 -19.255  1.00  0.00    -0.744 OA
ENDBRANCH  88  92
ENDBRANCH  62  85
ENDBRANCH  36  37
ENDBRANCH  28  31
ENDBRANCH  26  27
ENDBRANCH  25  26
ENDBRANCH  24  25
ENDBRANCH   1  24
TORSDOF 19
