REMARK SMILES C[C@]12CCC[C@](C)(C(=O)NCCCCNC(=O)c3ccc(-c4c5nc(c(-c6cc(S(=O)(=O)[O-])ccc6F)c6ccc([nH]6)c(-c6cc(S(=O)(=O)[O-])ccc6F)c6nc(c(-c7cc(S(=O)(=O)[O-])ccc7F)c7ccc4[nH]7)C=C6)C=C5)cc3)[C@@H]1CC[C@]13C=C(CO)[C@H](CC[C@H]12)C3
REMARK SMILES IDX 13 1 12 2 11 3 10 4 8 5 9 6 6 8 1 9 2 10 3 11 81 12 92 13
REMARK SMILES IDX 4 14 82 15 84 16 91 17 5 18 7 19 83 20 85 21 93 22 90 23
REMARK SMILES IDX 86 24 89 25 87 26 88 27 14 29 15 30 16 31 17 33 18 34 19 35
REMARK SMILES IDX 80 36 20 37 79 38 21 39 22 40 23 41 73 42 24 43 78 44 72 45
REMARK SMILES IDX 74 46 25 47 77 48 71 49 70 50 26 52 58 53 38 54 57 55 39 56
REMARK SMILES IDX 42 57 56 58 75 59 40 60 41 61 55 63 76 64 43 65 27 66 28 67
REMARK SMILES IDX 36 68 29 69 35 70 37 71 34 72 30 73 31 74 32 75 33 76 59 77
REMARK SMILES IDX 60 78 68 79 61 80 67 81 69 82 66 83 62 84 63 85 64 86 65 87
REMARK SMILES IDX 44 88 45 89 53 90 46 91 52 92 54 93 51 94 47 95 48 96 49 97
REMARK SMILES IDX 50 98
REMARK H PARENT 10 7 88 28 15 32 74 51 42 62
REMARK Flexibility Score: inf
ROOT
ATOM      1  C   UNL     1       6.548  -3.081   1.392  1.00  0.00     0.023 C 
ENDROOT
BRANCH   1   2
ATOM      2  C   UNL     1       5.303  -3.930   1.683  1.00  0.00     0.023 C 
BRANCH   2   3
ATOM      3  C   UNL     1       3.976  -3.168   1.721  1.00  0.00     0.116 C 
BRANCH   3   4
ATOM      4  N   UNL     1       3.600  -2.690   0.405  1.00  0.00    -0.356 N 
ATOM      5  C   UNL     1       2.467  -2.274  -0.198  1.00  0.00     0.226 C 
ATOM      6  O   UNL     1       2.650  -1.975  -1.388  1.00  0.00    -0.274 OA
ATOM      7  H   UNL     1       4.370  -2.661  -0.207  1.00  0.00     0.163 HD
BRANCH   5   8
ATOM      8  C   UNL     1       1.032  -2.152   0.411  1.00  0.00     0.050 C 
ATOM      9  C   UNL     1       2.642   0.314   1.246  1.00  0.00     0.012 C 
ATOM     10  C   UNL     1       1.078   0.305   1.338  1.00  0.00    -0.025 C 
ATOM     11  C   UNL     1       0.679  -0.218   2.736  1.00  0.00     0.007 C 
ATOM     12  C   UNL     1       0.459  -0.670   0.280  1.00  0.00     0.010 C 
ATOM     13  C   UNL     1       0.661   1.802   1.144  1.00  0.00     0.005 C 
ATOM     14  C   UNL     1       1.109  -1.663   2.992  1.00  0.00     0.002 C 
ATOM     15  C   UNL     1       0.449  -0.097  -1.152  1.00  0.00     0.006 C 
ATOM     16  C   UNL     1       0.436   2.297  -0.342  1.00  0.00    -0.008 C 
ATOM     17  C   UNL     1      -0.224   2.612   2.098  1.00  0.00     0.006 C 
ATOM     18  C   UNL     1       0.760  -2.628   1.860  1.00  0.00     0.017 C 
ATOM     19  C   UNL     1       0.200  -3.115  -0.491  1.00  0.00     0.022 C 
ATOM     20  C   UNL     1      -0.230   1.265  -1.231  1.00  0.00     0.012 C 
ATOM     21  C   UNL     1       1.786   2.832  -0.737  1.00  0.00    -0.018 C 
ATOM     22  C   UNL     1      -0.309   3.652  -0.412  1.00  0.00     0.019 C 
ATOM     23  C   UNL     1       0.232   4.112   1.943  1.00  0.00     0.008 C 
ATOM     24  C   UNL     1       1.956   4.003  -0.085  1.00  0.00    -0.045 C 
ATOM     25  C   UNL     1       0.606   4.498   0.475  1.00  0.00     0.018 C 
BRANCH  24  26
ATOM     26  C   UNL     1       3.255   4.679   0.199  1.00  0.00     0.187 C 
BRANCH  26  27
ATOM     27  O   UNL     1       4.348   3.900  -0.275  1.00  0.00    -0.392 OA
ATOM     28  H   UNL     1       4.350   3.039   0.173  1.00  0.00     0.211 HD
ENDBRANCH  26  27
ENDBRANCH  24  26
ENDBRANCH   5   8
ENDBRANCH   3   4
ENDBRANCH   2   3
ENDBRANCH   1   2
BRANCH   1  29
ATOM     29  C   UNL     1       6.843  -1.964   2.395  1.00  0.00     0.116 C 
BRANCH  29  30
ATOM     30  N   UNL     1       6.967  -2.457   3.759  1.00  0.00    -0.352 N 
ATOM     31  C   UNL     1       8.072  -2.557   4.571  1.00  0.00     0.251 C 
ATOM     32  H   UNL     1       6.126  -2.768   4.165  1.00  0.00     0.163 HD
ATOM     33  O   UNL     1       7.997  -3.195   5.616  1.00  0.00    -0.269 OA
BRANCH  31  34
ATOM     34  C   UNL     1       9.349  -1.920   4.179  1.00  0.00     0.039 A 
ATOM     35  C   UNL     1      10.531  -2.660   4.269  1.00  0.00     0.014 A 
ATOM     36  C   UNL     1       9.383  -0.596   3.736  1.00  0.00     0.014 A 
ATOM     37  C   UNL     1      11.735  -2.100   3.831  1.00  0.00     0.010 A 
ATOM     38  C   UNL     1      10.572  -0.060   3.243  1.00  0.00     0.010 A 
ATOM     39  C   UNL     1      11.757  -0.812   3.271  1.00  0.00    -0.014 A 
BRANCH  39  40
ATOM     40  C   UNL     1      12.998  -0.251   2.675  1.00  0.00     0.031 A 
ATOM     41  C   UNL     1      13.651   0.964   3.275  1.00  0.00     0.074 A 
ATOM     42  C   UNL     1      13.490  -0.795   1.543  1.00  0.00     0.049 A 
ATOM     43  N   UNL     1      14.683   1.645   2.847  1.00  0.00    -0.248 NA
ATOM     44  C   UNL     1      13.044   1.498   4.502  1.00  0.00     0.031 C 
ATOM     45  C   UNL     1      12.916  -1.947   0.842  1.00  0.00     0.029 A 
ATOM     46  N   UNL     1      14.571  -0.446   0.773  1.00  0.00    -0.354 N 
ATOM     47  C   UNL     1      14.844   2.695   3.744  1.00  0.00     0.074 A 
ATOM     48  C   UNL     1      13.768   2.588   4.708  1.00  0.00     0.031 C 
ATOM     49  C   UNL     1      13.659  -2.217  -0.243  1.00  0.00     0.029 A 
ATOM     50  C   UNL     1      14.734  -1.236  -0.342  1.00  0.00     0.049 A 
ATOM     51  H   UNL     1      15.173   0.299   0.998  1.00  0.00     0.167 HD
ATOM     52  C   UNL     1      15.809   3.648   3.770  1.00  0.00     0.034 A 
ATOM     53  C   UNL     1      15.636  -1.168  -1.341  1.00  0.00     0.034 A 
ATOM     54  C   UNL     1      16.879   3.735   2.806  1.00  0.00     0.049 A 
ATOM     55  C   UNL     1      16.687  -0.089  -1.300  1.00  0.00     0.074 A 
ATOM     56  C   UNL     1      17.945   4.618   2.776  1.00  0.00     0.029 A 
ATOM     57  N   UNL     1      17.015   2.916   1.692  1.00  0.00    -0.354 N 
ATOM     58  N   UNL     1      16.860   0.862  -0.410  1.00  0.00    -0.248 NA
ATOM     59  C   UNL     1      17.669  -0.080  -2.391  1.00  0.00     0.031 C 
ATOM     60  C   UNL     1      18.687   4.375   1.615  1.00  0.00     0.029 A 
ATOM     61  C   UNL     1      18.127   3.293   0.953  1.00  0.00     0.049 A 
ATOM     62  H   UNL     1      16.411   2.174   1.460  1.00  0.00     0.167 HD
ATOM     63  C   UNL     1      17.986   1.567  -0.825  1.00  0.00     0.074 A 
ATOM     64  C   UNL     1      18.460   0.920  -2.031  1.00  0.00     0.031 C 
ATOM     65  C   UNL     1      18.577   2.650  -0.259  1.00  0.00     0.034 A 
BRANCH  52  66
ATOM     66  C   UNL     1      15.731   4.685   4.865  1.00  0.00     0.023 A 
ATOM     67  C   UNL     1      15.854   4.337   6.222  1.00  0.00     0.031 A 
ATOM     68  C   UNL     1      15.509   6.038   4.552  1.00  0.00     0.131 A 
ATOM     69  C   UNL     1      15.681   5.312   7.216  1.00  0.00     0.055 A 
ATOM     70  C   UNL     1      15.416   7.018   5.543  1.00  0.00     0.041 A 
ATOM     71  F   UNL     1      15.366   6.430   3.276  1.00  0.00    -0.206 F 
ATOM     72  C   UNL     1      15.487   6.655   6.885  1.00  0.00     0.022 A 
BRANCH  69  73
ATOM     73  S   UNL     1      15.576   4.778   8.946  1.00  0.00     0.124 S 
ATOM     74  O   UNL     1      14.427   3.877   8.908  1.00  0.00    -0.237 OA
ATOM     75  O   UNL     1      16.875   4.148   9.160  1.00  0.00    -0.237 OA
ATOM     76  O   UNL     1      15.359   6.024   9.677  1.00  0.00    -0.744 OA
ENDBRANCH  69  73
ENDBRANCH  52  66
BRANCH  53  77
ATOM     77  C   UNL     1      15.584  -2.136  -2.474  1.00  0.00     0.023 A 
ATOM     78  C   UNL     1      16.620  -3.059  -2.683  1.00  0.00     0.031 A 
ATOM     79  C   UNL     1      14.517  -2.122  -3.389  1.00  0.00     0.131 A 
ATOM     80  C   UNL     1      16.590  -3.902  -3.805  1.00  0.00     0.055 A 
ATOM     81  C   UNL     1      14.467  -2.996  -4.476  1.00  0.00     0.041 A 
ATOM     82  F   UNL     1      13.497  -1.263  -3.230  1.00  0.00    -0.206 F 
ATOM     83  C   UNL     1      15.515  -3.884  -4.697  1.00  0.00     0.022 A 
BRANCH  80  84
ATOM     84  S   UNL     1      18.021  -4.968  -4.128  1.00  0.00     0.124 S 
ATOM     85  O   UNL     1      19.105  -3.996  -4.213  1.00  0.00    -0.237 OA
ATOM     86  O   UNL     1      18.025  -5.832  -2.952  1.00  0.00    -0.237 OA
ATOM     87  O   UNL     1      17.675  -5.631  -5.384  1.00  0.00    -0.744 OA
ENDBRANCH  80  84
ENDBRANCH  53  77
BRANCH  65  88
ATOM     88  C   UNL     1      19.823   3.173  -0.929  1.00  0.00     0.023 A 
ATOM     89  C   UNL     1      19.780   3.777  -2.197  1.00  0.00     0.031 A 
ATOM     90  C   UNL     1      21.073   3.046  -0.297  1.00  0.00     0.131 A 
ATOM     91  C   UNL     1      20.971   4.183  -2.818  1.00  0.00     0.055 A 
ATOM     92  C   UNL     1      22.247   3.503  -0.895  1.00  0.00     0.041 A 
ATOM     93  F   UNL     1      21.171   2.474   0.914  1.00  0.00    -0.206 F 
ATOM     94  C   UNL     1      22.202   4.064  -2.168  1.00  0.00     0.022 A 
BRANCH  91  95
ATOM     95  S   UNL     1      20.901   4.790  -4.526  1.00  0.00     0.124 S 
ATOM     96  O   UNL     1      20.332   3.645  -5.232  1.00  0.00    -0.237 OA
ATOM     97  O   UNL     1      20.037   5.959  -4.407  1.00  0.00    -0.237 OA
ATOM     98  O   UNL     1      22.297   5.082  -4.844  1.00  0.00    -0.744 OA
ENDBRANCH  91  95
ENDBRANCH  65  88
ENDBRANCH  39  40
ENDBRANCH  31  34
ENDBRANCH  29  30
ENDBRANCH   1  29
TORSDOF 16
