REMARK SMILES C[C@H](Nc1ccc(N(C)C)cc1)[C@@H](C)C(=O)NCCCCNC(=O)c1ccc(-c2c3nc(c(-c4cc(S(=O)(=O)[O-])ccc4F)c4ccc([nH]4)c(-c4cc(S(=O)(=O)[O-])ccc4F)c4nc(c(-c5cc(S(=O)(=O)[O-])ccc5F)c5ccc2[nH]5)C=C4)C=C3)cc1
REMARK SMILES IDX 19 1 18 2 17 3 15 4 16 5 13 7 14 8 2 9 1 10 3 11 4 13 5 14
REMARK SMILES IDX 12 15 6 16 11 17 7 18 8 19 9 20 10 21 20 22 21 23 22 24
REMARK SMILES IDX 23 25 24 27 25 28 26 29 87 30 27 31 86 32 28 33 29 34 30 35
REMARK SMILES IDX 80 36 31 37 85 38 79 39 81 40 32 41 84 42 78 43 77 44 33 46
REMARK SMILES IDX 65 47 45 48 64 49 46 50 49 51 63 52 82 53 47 54 48 55 62 57
REMARK SMILES IDX 83 58 50 59 34 60 35 61 43 62 36 63 42 64 44 65 41 66 37 67
REMARK SMILES IDX 38 68 39 69 40 70 66 71 67 72 75 73 68 74 74 75 76 76 73 77
REMARK SMILES IDX 69 78 70 79 71 80 72 81 51 82 52 83 60 84 53 85 59 86 61 87
REMARK SMILES IDX 58 88 54 89 55 90 56 91 57 92
REMARK H PARENT 17 6 3 12 22 26 81 45 49 56
REMARK Flexibility Score: inf
ROOT
ATOM      1  C   UNL     1       0.844  -0.360   4.707  1.00  0.00     0.023 C 
ENDROOT
BRANCH   1   2
ATOM      2  C   UNL     1      -0.458  -0.805   4.039  1.00  0.00     0.116 C 
BRANCH   2   3
ATOM      3  N   UNL     1      -1.327   0.318   3.744  1.00  0.00    -0.356 N 
ATOM      4  C   UNL     1      -1.616   0.949   2.574  1.00  0.00     0.224 C 
ATOM      5  O   UNL     1      -2.399   1.902   2.621  1.00  0.00    -0.275 OA
ATOM      6  H   UNL     1      -1.791   0.689   4.529  1.00  0.00     0.163 HD
BRANCH   4   7
ATOM      7  C   UNL     1      -1.028   0.505   1.235  1.00  0.00     0.097 C 
ATOM      8  C   UNL     1      -1.658  -0.829   0.823  1.00  0.00     0.020 C 
BRANCH   7   9
ATOM      9  C   UNL     1       0.518   0.565   1.212  1.00  0.00     0.088 C 
ATOM     10  C   UNL     1       1.004   1.968   1.595  1.00  0.00     0.031 C 
BRANCH   9  11
ATOM     11  N   UNL     1       1.042   0.043  -0.062  1.00  0.00    -0.382 N 
ATOM     12  H   UNL     1       1.026  -0.936  -0.167  1.00  0.00     0.160 HD
BRANCH  11  13
ATOM     13  C   UNL     1       1.552   0.755  -1.123  1.00  0.00     0.034 A 
ATOM     14  C   UNL     1       1.008   0.588  -2.394  1.00  0.00     0.028 A 
ATOM     15  C   UNL     1       2.591   1.667  -1.002  1.00  0.00     0.028 A 
ATOM     16  C   UNL     1       1.466   1.336  -3.494  1.00  0.00     0.028 A 
ATOM     17  C   UNL     1       3.041   2.417  -2.097  1.00  0.00     0.028 A 
ATOM     18  C   UNL     1       2.489   2.287  -3.380  1.00  0.00     0.036 A 
BRANCH  18  19
ATOM     19  N   UNL     1       2.952   3.043  -4.448  1.00  0.00    -0.378 N 
ATOM     20  C   UNL     1       2.456   2.909  -5.810  1.00  0.00     0.143 C 
ATOM     21  C   UNL     1       3.850   4.170  -4.208  1.00  0.00     0.143 C 
ENDBRANCH  18  19
ENDBRANCH  11  13
ENDBRANCH   9  11
ENDBRANCH   7   9
ENDBRANCH   4   7
ENDBRANCH   2   3
ENDBRANCH   1   2
BRANCH   1  22
ATOM     22  C   UNL     1       0.685   0.136   6.143  1.00  0.00     0.023 C 
BRANCH  22  23
ATOM     23  C   UNL     1      -0.017  -0.836   7.083  1.00  0.00     0.116 C 
BRANCH  23  24
ATOM     24  N   UNL     1       0.609  -2.149   7.108  1.00  0.00    -0.352 N 
ATOM     25  C   UNL     1       0.852  -2.968   8.182  1.00  0.00     0.251 C 
ATOM     26  H   UNL     1       0.899  -2.498   6.235  1.00  0.00     0.163 HD
ATOM     27  O   UNL     1       1.530  -3.982   8.030  1.00  0.00    -0.269 OA
BRANCH  25  28
ATOM     28  C   UNL     1       0.329  -2.605   9.516  1.00  0.00     0.039 A 
ATOM     29  C   UNL     1       1.167  -2.736  10.624  1.00  0.00     0.014 A 
ATOM     30  C   UNL     1      -0.974  -2.122   9.673  1.00  0.00     0.014 A 
ATOM     31  C   UNL     1       0.716  -2.329  11.880  1.00  0.00     0.010 A 
ATOM     32  C   UNL     1      -1.389  -1.635  10.909  1.00  0.00     0.010 A 
ATOM     33  C   UNL     1      -0.552  -1.742  12.028  1.00  0.00    -0.014 A 
BRANCH  33  34
ATOM     34  C   UNL     1      -1.009  -1.247  13.353  1.00  0.00     0.031 A 
ATOM     35  C   UNL     1      -2.207  -1.865  14.023  1.00  0.00     0.074 A 
ATOM     36  C   UNL     1      -0.356  -0.223  13.938  1.00  0.00     0.049 A 
ATOM     37  N   UNL     1      -2.752  -1.572  15.176  1.00  0.00    -0.248 NA
ATOM     38  C   UNL     1      -2.901  -2.932  13.287  1.00  0.00     0.031 C 
ATOM     39  C   UNL     1       0.787   0.488  13.361  1.00  0.00     0.029 A 
ATOM     40  N   UNL     1      -0.552   0.394  15.148  1.00  0.00    -0.354 N 
ATOM     41  C   UNL     1      -3.851  -2.415  15.302  1.00  0.00     0.074 A 
ATOM     42  C   UNL     1      -3.937  -3.175  14.074  1.00  0.00     0.031 C 
ATOM     43  C   UNL     1       1.218   1.411  14.236  1.00  0.00     0.029 A 
ATOM     44  C   UNL     1       0.356   1.393  15.413  1.00  0.00     0.049 A 
ATOM     45  H   UNL     1      -1.275   0.145  15.768  1.00  0.00     0.167 HD
ATOM     46  C   UNL     1      -4.691  -2.563  16.357  1.00  0.00     0.034 A 
ATOM     47  C   UNL     1       0.479   2.205  16.482  1.00  0.00     0.034 A 
ATOM     48  C   UNL     1      -4.588  -1.796  17.575  1.00  0.00     0.049 A 
ATOM     49  C   UNL     1      -0.484   2.039  17.630  1.00  0.00     0.074 A 
ATOM     50  C   UNL     1      -5.356  -1.893  18.722  1.00  0.00     0.029 A 
ATOM     51  N   UNL     1      -3.665  -0.782  17.803  1.00  0.00    -0.354 N 
ATOM     52  N   UNL     1      -1.482   1.194  17.759  1.00  0.00    -0.248 NA
ATOM     53  C   UNL     1      -0.291   2.925  18.784  1.00  0.00     0.031 C 
ATOM     54  C   UNL     1      -4.951  -0.890  19.609  1.00  0.00     0.029 A 
ATOM     55  C   UNL     1      -3.868  -0.224  19.057  1.00  0.00     0.049 A 
ATOM     56  H   UNL     1      -2.969  -0.500  17.166  1.00  0.00     0.167 HD
ATOM     57  C   UNL     1      -2.014   1.427  19.025  1.00  0.00     0.074 A 
ATOM     58  C   UNL     1      -1.210   2.473  19.624  1.00  0.00     0.031 C 
ATOM     59  C   UNL     1      -3.070   0.831  19.638  1.00  0.00     0.034 A 
BRANCH  46  60
ATOM     60  C   UNL     1      -5.807  -3.575  16.221  1.00  0.00     0.023 A 
ATOM     61  C   UNL     1      -5.544  -4.944  16.027  1.00  0.00     0.031 A 
ATOM     62  C   UNL     1      -7.151  -3.166  16.260  1.00  0.00     0.131 A 
ATOM     63  C   UNL     1      -6.603  -5.837  15.802  1.00  0.00     0.055 A 
ATOM     64  C   UNL     1      -8.203  -4.074  16.124  1.00  0.00     0.041 A 
ATOM     65  F   UNL     1      -7.468  -1.871  16.418  1.00  0.00    -0.206 F 
ATOM     66  C   UNL     1      -7.932  -5.417  15.878  1.00  0.00     0.022 A 
BRANCH  63  67
ATOM     67  S   UNL     1      -6.212  -7.522  15.256  1.00  0.00     0.124 S 
ATOM     68  O   UNL     1      -5.455  -7.268  14.033  1.00  0.00    -0.237 OA
ATOM     69  O   UNL     1      -5.450  -8.050  16.381  1.00  0.00    -0.237 OA
ATOM     70  O   UNL     1      -7.526  -8.129  15.051  1.00  0.00    -0.744 OA
ENDBRANCH  63  67
ENDBRANCH  46  60
BRANCH  47  71
ATOM     71  C   UNL     1       1.548   3.246  16.525  1.00  0.00     0.023 A 
ATOM     72  C   UNL     1       2.556   3.211  17.501  1.00  0.00     0.031 A 
ATOM     73  C   UNL     1       1.548   4.321  15.618  1.00  0.00     0.131 A 
ATOM     74  C   UNL     1       3.489   4.256  17.583  1.00  0.00     0.055 A 
ATOM     75  C   UNL     1       2.515   5.327  15.665  1.00  0.00     0.041 A 
ATOM     76  F   UNL     1       0.609   4.403  14.662  1.00  0.00    -0.206 F 
ATOM     77  C   UNL     1       3.484   5.306  16.662  1.00  0.00     0.022 A 
BRANCH  74  78
ATOM     78  S   UNL     1       4.651   4.277  18.976  1.00  0.00     0.124 S 
ATOM     79  O   UNL     1       3.745   4.271  20.119  1.00  0.00    -0.237 OA
ATOM     80  O   UNL     1       5.412   3.053  18.753  1.00  0.00    -0.237 OA
ATOM     81  O   UNL     1       5.397   5.518  18.777  1.00  0.00    -0.744 OA
ENDBRANCH  74  78
ENDBRANCH  47  71
BRANCH  59  82
ATOM     82  C   UNL     1      -3.379   1.273  21.050  1.00  0.00     0.023 A 
ATOM     83  C   UNL     1      -3.778   2.589  21.345  1.00  0.00     0.031 A 
ATOM     84  C   UNL     1      -3.237   0.372  22.121  1.00  0.00     0.131 A 
ATOM     85  C   UNL     1      -3.941   2.988  22.680  1.00  0.00     0.055 A 
ATOM     86  C   UNL     1      -3.478   0.755  23.441  1.00  0.00     0.041 A 
ATOM     87  F   UNL     1      -2.856  -0.896  21.903  1.00  0.00    -0.206 F 
ATOM     88  C   UNL     1      -3.813   2.074  23.729  1.00  0.00     0.022 A 
BRANCH  85  89
ATOM     89  S   UNL     1      -4.193   4.749  23.035  1.00  0.00     0.124 S 
ATOM     90  O   UNL     1      -3.026   5.355  22.402  1.00  0.00    -0.237 OA
ATOM     91  O   UNL     1      -5.476   5.016  22.394  1.00  0.00    -0.237 OA
ATOM     92  O   UNL     1      -4.205   4.805  24.496  1.00  0.00    -0.744 OA
ENDBRANCH  85  89
ENDBRANCH  59  82
ENDBRANCH  33  34
ENDBRANCH  25  28
ENDBRANCH  23  24
ENDBRANCH  22  23
ENDBRANCH   1  22
TORSDOF 18
