REMARK SMILES COC(=O)c1c(NC(=O)[C@@H]2C[C@@H]2C(=O)NCCCCNC(=O)c2ccc(-c3c4nc(c(-c5cc(S(=O)(=O)[O-])ccc5F)c5ccc([nH]5)c(-c5cc(S(=O)(=O)[O-])ccc5F)c5nc(c(-c6cc(S(=O)(=O)[O-])ccc6F)c6ccc3[nH]6)C=C5)C=C4)cc2)sc2c1CC[N@@H+](Cc1ccccc1)C2
REMARK SMILES IDX 17 1 16 2 15 3 13 4 14 5 12 7 10 8 11 9 8 10 7 11 9 13 6 14
REMARK SMILES IDX 5 15 88 16 86 17 87 18 89 19 99 20 90 21 91 22 3 24 4 25
REMARK SMILES IDX 2 26 1 27 92 28 93 29 94 30 98 31 95 32 97 33 96 34 18 35
REMARK SMILES IDX 19 36 20 37 21 38 22 40 23 41 24 42 85 43 25 44 84 45 26 46
REMARK SMILES IDX 27 47 28 48 78 49 29 50 83 51 77 52 79 53 30 54 82 55 76 56
REMARK SMILES IDX 75 57 31 59 63 60 43 61 62 62 44 63 47 64 61 65 80 66 45 67
REMARK SMILES IDX 46 68 60 70 81 71 48 72 32 73 33 74 41 75 34 76 40 77 42 78
REMARK SMILES IDX 39 79 35 80 36 81 37 82 38 83 64 84 65 85 73 86 66 87 72 88
REMARK SMILES IDX 74 89 71 90 67 91 68 92 69 93 70 94 49 95 50 96 58 97 51 98
REMARK SMILES IDX 57 99 59 100 56 101 52 102 53 103 54 104 55 105
REMARK H PARENT 15 6 7 12 91 23 20 39 79 58 47 69
REMARK Flexibility Score: inf
ROOT
ATOM      1  C   UNL     1      -5.096  -0.921  -1.749  1.00  0.00     0.023 C 
ENDROOT
BRANCH   1   2
ATOM      2  C   UNL     1      -3.946  -1.834  -2.153  1.00  0.00     0.116 C 
BRANCH   2   3
ATOM      3  N   UNL     1      -3.030  -1.272  -3.115  1.00  0.00    -0.356 N 
ATOM      4  C   UNL     1      -1.782  -0.724  -3.027  1.00  0.00     0.223 C 
ATOM      5  O   UNL     1      -1.215  -0.495  -4.095  1.00  0.00    -0.275 OA
ATOM      6  H   UNL     1      -3.381  -1.286  -4.035  1.00  0.00     0.163 HD
BRANCH   4   7
ATOM      7  C   UNL     1      -1.079  -0.276  -1.797  1.00  0.00     0.091 C 
ATOM      8  C   UNL     1      -1.072  -0.688  -0.353  1.00  0.00     0.092 C 
ATOM      9  C   UNL     1      -1.819   0.552  -0.783  1.00  0.00     0.028 C 
BRANCH   8  10
ATOM     10  C   UNL     1      -1.774  -1.812   0.270  1.00  0.00     0.228 C 
ATOM     11  N   UNL     1      -1.568  -3.104  -0.106  1.00  0.00    -0.317 N 
ATOM     12  H   UNL     1      -2.251  -3.717   0.249  1.00  0.00     0.170 HD
ATOM     13  O   UNL     1      -2.620  -1.565   1.129  1.00  0.00    -0.274 OA
BRANCH  11  14
ATOM     14  C   UNL     1      -0.624  -3.746  -0.867  1.00  0.00     0.110 A 
ATOM     15  C   UNL     1       0.637  -3.537  -1.399  1.00  0.00     0.098 A 
ATOM     16  C   UNL     1       1.153  -4.783  -1.949  1.00  0.00    -0.006 A 
ATOM     17  S   UNL     1      -1.222  -5.327  -1.195  1.00  0.00    -0.116 S 
ATOM     18  C   UNL     1       0.280  -5.835  -1.768  1.00  0.00     0.065 A 
ATOM     19  C   UNL     1       2.565  -5.043  -2.408  1.00  0.00     0.099 C 
ATOM     20  C   UNL     1       0.651  -7.281  -1.915  1.00  0.00     0.310 C 
ATOM     21  C   UNL     1       2.900  -6.556  -2.490  1.00  0.00     0.267 C 
ATOM     22  N   UNL     1       2.093  -7.469  -1.667  1.00  0.00    -0.326 N 
ATOM     23  H   UNL     1       2.323  -8.406  -1.998  1.00  0.00     0.348 HD
BRANCH  15  24
ATOM     24  C   UNL     1       1.488  -2.356  -1.312  1.00  0.00     0.341 C 
ATOM     25  O   UNL     1       2.166  -1.951  -2.238  1.00  0.00    -0.246 OA
BRANCH  24  26
ATOM     26  O   UNL     1       1.528  -1.819  -0.055  1.00  0.00    -0.465 OA
ATOM     27  C   UNL     1       2.370  -0.669   0.057  1.00  0.00     0.282 C 
ENDBRANCH  24  26
ENDBRANCH  15  24
BRANCH  22  28
ATOM     28  C   UNL     1       2.488  -7.613  -0.258  1.00  0.00     0.299 C 
BRANCH  28  29
ATOM     29  C   UNL     1       2.369  -6.415   0.666  1.00  0.00     0.006 A 
ATOM     30  C   UNL     1       3.454  -5.550   0.872  1.00  0.00     0.009 A 
ATOM     31  C   UNL     1       1.162  -6.134   1.326  1.00  0.00     0.009 A 
ATOM     32  C   UNL     1       3.313  -4.400   1.655  1.00  0.00     0.001 A 
ATOM     33  C   UNL     1       1.014  -4.975   2.091  1.00  0.00     0.001 A 
ATOM     34  C   UNL     1       2.088  -4.103   2.248  1.00  0.00     0.000 A 
ENDBRANCH  28  29
ENDBRANCH  22  28
ENDBRANCH  11  14
ENDBRANCH   8  10
ENDBRANCH   4   7
ENDBRANCH   2   3
ENDBRANCH   1   2
BRANCH   1  35
ATOM     35  C   UNL     1      -6.338  -1.000  -2.639  1.00  0.00     0.023 C 
BRANCH  35  36
ATOM     36  C   UNL     1      -6.975  -2.384  -2.748  1.00  0.00     0.116 C 
BRANCH  36  37
ATOM     37  N   UNL     1      -7.379  -2.936  -1.460  1.00  0.00    -0.352 N 
ATOM     38  C   UNL     1      -7.749  -4.239  -1.194  1.00  0.00     0.251 C 
ATOM     39  H   UNL     1      -7.389  -2.313  -0.699  1.00  0.00     0.163 HD
ATOM     40  O   UNL     1      -8.425  -4.511  -0.209  1.00  0.00    -0.269 OA
BRANCH  38  41
ATOM     41  C   UNL     1      -7.323  -5.294  -2.132  1.00  0.00     0.039 A 
ATOM     42  C   UNL     1      -8.264  -6.146  -2.708  1.00  0.00     0.014 A 
ATOM     43  C   UNL     1      -5.974  -5.370  -2.487  1.00  0.00     0.014 A 
ATOM     44  C   UNL     1      -7.856  -7.005  -3.726  1.00  0.00     0.010 A 
ATOM     45  C   UNL     1      -5.586  -6.171  -3.547  1.00  0.00     0.010 A 
ATOM     46  C   UNL     1      -6.522  -6.991  -4.178  1.00  0.00    -0.014 A 
BRANCH  46  47
ATOM     47  C   UNL     1      -6.179  -7.715  -5.409  1.00  0.00     0.031 A 
ATOM     48  C   UNL     1      -7.068  -7.447  -6.577  1.00  0.00     0.074 A 
ATOM     49  C   UNL     1      -5.059  -8.439  -5.616  1.00  0.00     0.049 A 
ATOM     50  N   UNL     1      -7.893  -8.264  -7.143  1.00  0.00    -0.248 NA
ATOM     51  C   UNL     1      -7.128  -6.081  -7.116  1.00  0.00     0.031 C 
ATOM     52  C   UNL     1      -3.906  -8.602  -4.729  1.00  0.00     0.029 A 
ATOM     53  N   UNL     1      -4.677  -9.115  -6.741  1.00  0.00    -0.354 N 
ATOM     54  C   UNL     1      -8.419  -7.596  -8.247  1.00  0.00     0.074 A 
ATOM     55  C   UNL     1      -8.044  -6.216  -8.078  1.00  0.00     0.031 C 
ATOM     56  C   UNL     1      -2.875  -9.132  -5.424  1.00  0.00     0.029 A 
ATOM     57  C   UNL     1      -3.341  -9.496  -6.752  1.00  0.00     0.049 A 
ATOM     58  H   UNL     1      -5.296  -9.315  -7.480  1.00  0.00     0.167 HD
ATOM     59  C   UNL     1      -8.948  -8.279  -9.303  1.00  0.00     0.034 A 
ATOM     60  C   UNL     1      -2.647 -10.058  -7.775  1.00  0.00     0.034 A 
ATOM     61  C   UNL     1      -9.211  -9.659  -8.949  1.00  0.00     0.049 A 
ATOM     62  C   UNL     1      -3.630 -10.729  -8.658  1.00  0.00     0.074 A 
ATOM     63  C   UNL     1      -9.950 -10.283  -7.960  1.00  0.00     0.029 A 
ATOM     64  N   UNL     1      -8.371 -10.635  -9.439  1.00  0.00    -0.354 N 
ATOM     65  N   UNL     1      -4.330 -11.765  -8.289  1.00  0.00    -0.248 NA
ATOM     66  C   UNL     1      -4.164  -9.999  -9.796  1.00  0.00     0.031 C 
ATOM     67  C   UNL     1      -9.151 -11.394  -7.556  1.00  0.00     0.029 A 
ATOM     68  C   UNL     1      -8.021 -11.431  -8.376  1.00  0.00     0.049 A 
ATOM     69  H   UNL     1      -8.079 -10.742 -10.373  1.00  0.00     0.167 HD
ATOM     70  C   UNL     1      -5.589 -11.556  -8.827  1.00  0.00     0.074 A 
ATOM     71  C   UNL     1      -5.392 -10.524  -9.843  1.00  0.00     0.031 C 
ATOM     72  C   UNL     1      -6.712 -12.033  -8.211  1.00  0.00     0.034 A 
BRANCH  59  73
ATOM     73  C   UNL     1      -8.920  -7.827 -10.752  1.00  0.00     0.023 A 
ATOM     74  C   UNL     1      -9.477  -8.701 -11.709  1.00  0.00     0.031 A 
ATOM     75  C   UNL     1      -8.140  -6.773 -11.275  1.00  0.00     0.131 A 
ATOM     76  C   UNL     1      -9.147  -8.597 -13.072  1.00  0.00     0.055 A 
ATOM     77  C   UNL     1      -7.876  -6.628 -12.643  1.00  0.00     0.041 A 
ATOM     78  F   UNL     1      -7.517  -5.878 -10.501  1.00  0.00    -0.206 F 
ATOM     79  C   UNL     1      -8.346  -7.565 -13.546  1.00  0.00     0.022 A 
BRANCH  76  80
ATOM     80  S   UNL     1      -9.611  -9.961 -14.171  1.00  0.00     0.124 S 
ATOM     81  O   UNL     1      -9.058 -11.108 -13.458  1.00  0.00    -0.237 OA
ATOM     82  O   UNL     1     -11.065  -9.851 -14.187  1.00  0.00    -0.237 OA
ATOM     83  O   UNL     1      -8.945  -9.625 -15.427  1.00  0.00    -0.744 OA
ENDBRANCH  76  80
ENDBRANCH  59  73
BRANCH  60  84
ATOM     84  C   UNL     1      -1.225  -9.835  -8.137  1.00  0.00     0.023 A 
ATOM     85  C   UNL     1      -0.502 -10.719  -8.964  1.00  0.00     0.031 A 
ATOM     86  C   UNL     1      -0.622  -8.587  -7.859  1.00  0.00     0.131 A 
ATOM     87  C   UNL     1       0.760 -10.340  -9.477  1.00  0.00     0.055 A 
ATOM     88  C   UNL     1       0.627  -8.220  -8.363  1.00  0.00     0.041 A 
ATOM     89  F   UNL     1      -1.270  -7.643  -7.158  1.00  0.00    -0.206 F 
ATOM     90  C   UNL     1       1.320  -9.094  -9.185  1.00  0.00     0.022 A 
BRANCH  87  91
ATOM     91  S   UNL     1       1.647 -11.429 -10.638  1.00  0.00     0.124 S 
ATOM     92  O   UNL     1       2.117 -12.497  -9.764  1.00  0.00    -0.237 OA
ATOM     93  O   UNL     1       0.606 -11.783 -11.596  1.00  0.00    -0.237 OA
ATOM     94  O   UNL     1       2.700 -10.566 -11.175  1.00  0.00    -0.744 OA
ENDBRANCH  87  91
ENDBRANCH  60  84
BRANCH  72  95
ATOM     95  C   UNL     1      -6.560 -13.082  -7.125  1.00  0.00     0.023 A 
ATOM     96  C   UNL     1      -5.716 -12.966  -5.997  1.00  0.00     0.031 A 
ATOM     97  C   UNL     1      -7.388 -14.218  -7.198  1.00  0.00     0.131 A 
ATOM     98  C   UNL     1      -5.702 -13.976  -5.015  1.00  0.00     0.055 A 
ATOM     99  C   UNL     1      -7.391 -15.204  -6.211  1.00  0.00     0.041 A 
ATOM    100  F   UNL     1      -8.235 -14.381  -8.228  1.00  0.00    -0.206 F 
ATOM    101  C   UNL     1      -6.539 -15.091  -5.120  1.00  0.00     0.022 A 
BRANCH  98 102
ATOM    102  S   UNL     1      -4.563 -13.880  -3.596  1.00  0.00     0.124 S 
ATOM    103  O   UNL     1      -3.311 -13.419  -4.185  1.00  0.00    -0.237 OA
ATOM    104  O   UNL     1      -5.239 -12.932  -2.714  1.00  0.00    -0.237 OA
ATOM    105  O   UNL     1      -4.530 -15.257  -3.097  1.00  0.00    -0.744 OA
ENDBRANCH  98 102
ENDBRANCH  72  95
ENDBRANCH  46  47
ENDBRANCH  38  41
ENDBRANCH  36  37
ENDBRANCH  35  36
ENDBRANCH   1  35
TORSDOF 20
