REMARK SMILES COC(=O)c1ccc([C@H]2CC(=O)Nc3c(C(=O)NCCCCNC(=O)c4ccc(-c5c6nc(c(-c7cc(S(=O)(=O)[O-])ccc7F)c7ccc([nH]7)c(-c7cc(S(=O)(=O)[O-])ccc7F)c7nc(c(-c8cc(S(=O)(=O)[O-])ccc8F)c8ccc5[nH]8)C=C7)C=C6)cc4)cn(-c4cc(OC)ccc4OC)c32)cc1
REMARK SMILES IDX 20 1 19 2 18 3 16 4 17 5 15 7 9 8 10 9 101 10 11 11 14 12
REMARK SMILES IDX 90 13 12 14 13 15 89 16 8 18 5 19 6 20 103 21 7 22 102 23
REMARK SMILES IDX 3 24 4 25 2 26 1 27 91 28 92 29 98 30 93 31 97 32 96 33
REMARK SMILES IDX 99 34 100 35 94 36 95 37 21 38 22 39 23 40 24 41 25 43 26 44
REMARK SMILES IDX 27 45 88 46 28 47 87 48 29 49 30 50 31 51 81 52 32 53 86 54
REMARK SMILES IDX 80 55 82 56 33 57 85 58 79 59 78 60 34 62 66 63 46 64 65 65
REMARK SMILES IDX 47 66 50 67 64 68 83 69 48 70 49 71 63 73 84 74 51 75 35 76
REMARK SMILES IDX 36 77 44 78 37 79 43 80 45 81 42 82 38 83 39 84 40 85 41 86
REMARK SMILES IDX 67 87 68 88 76 89 69 90 75 91 77 92 74 93 70 94 71 95 72 96
REMARK SMILES IDX 73 97 52 98 53 99 61 100 54 101 60 102 62 103 59 104 55 105
REMARK SMILES IDX 56 106 57 107 58 108
REMARK H PARENT 18 6 13 17 23 42 82 61 50 72
REMARK Flexibility Score: inf
ROOT
ATOM      1  C   UNL     1      -3.253 -11.783   2.797  1.00  0.00     0.023 C 
ENDROOT
BRANCH   1   2
ATOM      2  C   UNL     1      -3.347 -10.688   3.873  1.00  0.00     0.116 C 
BRANCH   2   3
ATOM      3  N   UNL     1      -2.055 -10.285   4.389  1.00  0.00    -0.352 N 
ATOM      4  C   UNL     1      -1.068  -9.423   3.994  1.00  0.00     0.254 C 
ATOM      5  O   UNL     1      -0.154  -9.296   4.818  1.00  0.00    -0.269 OA
ATOM      6  H   UNL     1      -1.833 -10.744   5.231  1.00  0.00     0.163 HD
BRANCH   4   7
ATOM      7  C   UNL     1      -0.968  -8.737   2.696  1.00  0.00     0.081 A 
ATOM      8  C   UNL     1      -1.554  -7.605  -0.827  1.00  0.00     0.078 C 
ATOM      9  C   UNL     1      -2.494  -8.776  -1.220  1.00  0.00     0.115 C 
ATOM     10  C   UNL     1      -0.945  -7.946   0.516  1.00  0.00     0.055 A 
ATOM     11  C   UNL     1      -3.434  -9.143  -0.122  1.00  0.00     0.225 C 
ATOM     12  C   UNL     1      -1.671  -8.675   1.465  1.00  0.00     0.076 A 
ATOM     13  N   UNL     1       0.213  -7.529   1.144  1.00  0.00    -0.314 N 
ATOM     14  O   UNL     1      -4.575  -9.541  -0.338  1.00  0.00    -0.275 OA
ATOM     15  N   UNL     1      -2.918  -9.143   1.134  1.00  0.00    -0.324 N 
ATOM     16  C   UNL     1       0.084  -7.852   2.479  1.00  0.00     0.107 A 
ATOM     17  H   UNL     1      -3.478  -9.503   1.859  1.00  0.00     0.170 HD
BRANCH   8  18
ATOM     18  C   UNL     1      -0.813  -7.358  -2.144  1.00  0.00    -0.038 A 
ATOM     19  C   UNL     1      -0.414  -7.748  -4.916  1.00  0.00     0.060 A 
ATOM     20  C   UNL     1      -1.421  -6.894  -4.470  1.00  0.00     0.016 A 
ATOM     21  C   UNL     1       0.479  -8.298  -3.980  1.00  0.00     0.016 A 
ATOM     22  C   UNL     1      -1.589  -6.666  -3.108  1.00  0.00     0.005 A 
ATOM     23  C   UNL     1       0.279  -8.109  -2.595  1.00  0.00     0.005 A 
BRANCH  19  24
ATOM     24  C   UNL     1      -0.419  -8.076  -6.369  1.00  0.00     0.337 C 
ATOM     25  O   UNL     1      -1.117  -7.483  -7.183  1.00  0.00    -0.246 OA
BRANCH  24  26
ATOM     26  O   UNL     1       0.376  -9.138  -6.655  1.00  0.00    -0.465 OA
ATOM     27  C   UNL     1       0.310  -9.525  -8.032  1.00  0.00     0.282 C 
ENDBRANCH  24  26
ENDBRANCH  19  24
ENDBRANCH   8  18
BRANCH  13  28
ATOM     28  C   UNL     1       1.301  -6.772   0.659  1.00  0.00     0.091 A 
ATOM     29  C   UNL     1       0.995  -5.509   0.114  1.00  0.00     0.077 A 
ATOM     30  C   UNL     1       2.645  -7.168   0.803  1.00  0.00     0.143 A 
ATOM     31  C   UNL     1       2.006  -4.647  -0.318  1.00  0.00     0.121 A 
ATOM     32  C   UNL     1       3.640  -6.278   0.364  1.00  0.00     0.052 A 
ATOM     33  C   UNL     1       3.334  -5.033  -0.185  1.00  0.00     0.050 A 
BRANCH  30  34
ATOM     34  O   UNL     1       3.230  -8.325   1.231  1.00  0.00    -0.495 OA
ATOM     35  C   UNL     1       2.537  -9.363   1.893  1.00  0.00     0.278 C 
ENDBRANCH  30  34
BRANCH  31  36
ATOM     36  O   UNL     1       1.581  -3.447  -0.819  1.00  0.00    -0.497 OA
ATOM     37  C   UNL     1       2.528  -2.729  -1.603  1.00  0.00     0.278 C 
ENDBRANCH  31  36
ENDBRANCH  13  28
ENDBRANCH   4   7
ENDBRANCH   2   3
ENDBRANCH   1   2
BRANCH   1  38
ATOM     38  C   UNL     1      -3.568 -13.204   3.293  1.00  0.00     0.023 C 
BRANCH  38  39
ATOM     39  C   UNL     1      -5.041 -13.469   3.611  1.00  0.00     0.116 C 
BRANCH  39  40
ATOM     40  N   UNL     1      -5.921 -13.437   2.432  1.00  0.00    -0.352 N 
ATOM     41  C   UNL     1      -7.300 -13.275   2.410  1.00  0.00     0.251 C 
ATOM     42  H   UNL     1      -5.481 -13.542   1.557  1.00  0.00     0.163 HD
ATOM     43  O   UNL     1      -7.980 -13.742   1.494  1.00  0.00    -0.269 OA
BRANCH  41  44
ATOM     44  C   UNL     1      -7.920 -12.498   3.494  1.00  0.00     0.039 A 
ATOM     45  C   UNL     1      -9.137 -12.823   4.104  1.00  0.00     0.014 A 
ATOM     46  C   UNL     1      -7.155 -11.434   3.954  1.00  0.00     0.014 A 
ATOM     47  C   UNL     1      -9.537 -12.088   5.223  1.00  0.00     0.010 A 
ATOM     48  C   UNL     1      -7.409 -10.926   5.189  1.00  0.00     0.010 A 
ATOM     49  C   UNL     1      -8.655 -11.137   5.758  1.00  0.00    -0.014 A 
BRANCH  49  50
ATOM     50  C   UNL     1      -8.896 -10.389   6.985  1.00  0.00     0.031 A 
ATOM     51  C   UNL     1      -9.049 -11.250   8.182  1.00  0.00     0.074 A 
ATOM     52  C   UNL     1      -8.656  -9.057   7.059  1.00  0.00     0.049 A 
ATOM     53  N   UNL     1     -10.133 -11.505   8.833  1.00  0.00    -0.248 NA
ATOM     54  C   UNL     1      -7.908 -12.092   8.589  1.00  0.00     0.031 C 
ATOM     55  C   UNL     1      -8.174  -8.156   6.000  1.00  0.00     0.029 A 
ATOM     56  N   UNL     1      -8.671  -8.234   8.141  1.00  0.00    -0.354 N 
ATOM     57  C   UNL     1      -9.740 -12.290   9.911  1.00  0.00     0.074 A 
ATOM     58  C   UNL     1      -8.465 -12.840   9.544  1.00  0.00     0.031 C 
ATOM     59  C   UNL     1      -7.727  -7.000   6.542  1.00  0.00     0.029 A 
ATOM     60  C   UNL     1      -8.041  -7.000   7.960  1.00  0.00     0.049 A 
ATOM     61  H   UNL     1      -9.095  -8.490   8.992  1.00  0.00     0.167 HD
ATOM     62  C   UNL     1     -10.339 -12.152  11.127  1.00  0.00     0.034 A 
ATOM     63  C   UNL     1      -7.788  -6.051   8.908  1.00  0.00     0.034 A 
ATOM     64  C   UNL     1     -11.562 -11.381  11.008  1.00  0.00     0.049 A 
ATOM     65  C   UNL     1      -8.734  -6.324  10.021  1.00  0.00     0.074 A 
ATOM     66  C   UNL     1     -12.716 -11.505  10.256  1.00  0.00     0.029 A 
ATOM     67  N   UNL     1     -11.529 -10.061  11.409  1.00  0.00    -0.354 N 
ATOM     68  N   UNL     1     -10.030  -6.230   9.887  1.00  0.00    -0.248 NA
ATOM     69  C   UNL     1      -8.287  -7.211  11.086  1.00  0.00     0.031 C 
ATOM     70  C   UNL     1     -13.006 -10.179   9.815  1.00  0.00     0.029 A 
ATOM     71  C   UNL     1     -12.091  -9.306  10.407  1.00  0.00     0.049 A 
ATOM     72  H   UNL     1     -11.169  -9.722  12.260  1.00  0.00     0.167 HD
ATOM     73  C   UNL     1     -10.539  -7.356  10.518  1.00  0.00     0.074 A 
ATOM     74  C   UNL     1      -9.426  -7.874  11.317  1.00  0.00     0.031 C 
ATOM     75  C   UNL     1     -11.705  -7.938  10.101  1.00  0.00     0.034 A 
BRANCH  62  76
ATOM     76  C   UNL     1      -9.649 -12.341  12.463  1.00  0.00     0.023 A 
ATOM     77  C   UNL     1     -10.440 -12.170  13.614  1.00  0.00     0.031 A 
ATOM     78  C   UNL     1      -8.252 -12.389  12.684  1.00  0.00     0.131 A 
ATOM     79  C   UNL     1      -9.853 -11.940  14.870  1.00  0.00     0.055 A 
ATOM     80  C   UNL     1      -7.676 -12.230  13.948  1.00  0.00     0.041 A 
ATOM     81  F   UNL     1      -7.358 -12.497  11.697  1.00  0.00    -0.206 F 
ATOM     82  C   UNL     1      -8.474 -11.967  15.045  1.00  0.00     0.022 A 
BRANCH  79  83
ATOM     83  S   UNL     1     -10.925 -11.415  16.230  1.00  0.00     0.124 S 
ATOM     84  O   UNL     1     -11.606 -10.269  15.639  1.00  0.00    -0.237 OA
ATOM     85  O   UNL     1     -11.737 -12.608  16.447  1.00  0.00    -0.237 OA
ATOM     86  O   UNL     1      -9.981 -11.099  17.300  1.00  0.00    -0.744 OA
ENDBRANCH  79  83
ENDBRANCH  62  76
BRANCH  63  87
ATOM     87  C   UNL     1      -6.568  -5.195   9.049  1.00  0.00     0.023 A 
ATOM     88  C   UNL     1      -6.519  -4.014   9.830  1.00  0.00     0.031 A 
ATOM     89  C   UNL     1      -5.325  -5.691   8.591  1.00  0.00     0.131 A 
ATOM     90  C   UNL     1      -5.274  -3.393  10.118  1.00  0.00     0.055 A 
ATOM     91  C   UNL     1      -4.103  -5.079   8.884  1.00  0.00     0.041 A 
ATOM     92  F   UNL     1      -5.249  -6.847   7.912  1.00  0.00    -0.206 F 
ATOM     93  C   UNL     1      -4.071  -3.931   9.657  1.00  0.00     0.022 A 
BRANCH  90  94
ATOM     94  S   UNL     1      -5.182  -1.900  11.172  1.00  0.00     0.124 S 
ATOM     95  O   UNL     1      -5.845  -0.896  10.348  1.00  0.00    -0.237 OA
ATOM     96  O   UNL     1      -5.886  -2.321  12.377  1.00  0.00    -0.237 OA
ATOM     97  O   UNL     1      -3.743  -1.692  11.349  1.00  0.00    -0.744 OA
ENDBRANCH  90  94
ENDBRANCH  63  87
BRANCH  75  98
ATOM     98  C   UNL     1     -12.572  -7.187   9.104  1.00  0.00     0.023 A 
ATOM     99  C   UNL     1     -12.170  -6.782   7.808  1.00  0.00     0.031 A 
ATOM    100  C   UNL     1     -13.918  -6.986   9.455  1.00  0.00     0.131 A 
ATOM    101  C   UNL     1     -13.104  -6.192   6.928  1.00  0.00     0.055 A 
ATOM    102  C   UNL     1     -14.843  -6.425   8.576  1.00  0.00     0.041 A 
ATOM    103  F   UNL     1     -14.370  -7.372  10.660  1.00  0.00    -0.206 F 
ATOM    104  C   UNL     1     -14.438  -6.021   7.310  1.00  0.00     0.022 A 
BRANCH 101 105
ATOM    105  S   UNL     1     -12.601  -5.617   5.271  1.00  0.00     0.124 S 
ATOM    106  O   UNL     1     -11.402  -4.829   5.533  1.00  0.00    -0.237 OA
ATOM    107  O   UNL     1     -12.397  -6.869   4.548  1.00  0.00    -0.237 OA
ATOM    108  O   UNL     1     -13.754  -4.836   4.817  1.00  0.00    -0.744 OA
ENDBRANCH 101 105
ENDBRANCH  75  98
ENDBRANCH  49  50
ENDBRANCH  41  44
ENDBRANCH  39  40
ENDBRANCH  38  39
ENDBRANCH   1  38
TORSDOF 20
