REMARK SMILES CC(=O)Nc1cnc(N2CC=C(c3ccccc3C)CC2)c(C(=O)NCCCCNC(=O)c2ccc(-c3c4nc(c(-c5cc(S(=O)(=O)[O-])ccc5F)c5ccc([nH]5)c(-c5cc(S(=O)(=O)[O-])ccc5F)c5nc(c(-c6cc(S(=O)(=O)[O-])ccc6F)c6ccc3[nH]6)C=C5)C=C4)cc2)c1
REMARK SMILES IDX 28 1 27 2 26 3 25 4 23 5 24 6 22 8 5 9 6 10 96 11 7 12 8 13
REMARK SMILES IDX 4 14 1 15 2 16 3 17 9 19 10 20 21 21 11 22 20 23 12 24 13 25
REMARK SMILES IDX 14 26 18 27 15 28 17 29 19 30 16 31 29 32 30 33 31 34 32 36
REMARK SMILES IDX 33 37 34 38 95 39 35 40 94 41 36 42 37 43 38 44 88 45 39 46
REMARK SMILES IDX 93 47 87 48 89 49 40 50 92 51 86 52 85 53 41 55 73 56 53 57
REMARK SMILES IDX 72 58 54 59 57 60 71 61 90 62 55 63 56 64 70 66 91 67 58 68
REMARK SMILES IDX 42 69 43 70 51 71 44 72 50 73 52 74 49 75 45 76 46 77 47 78
REMARK SMILES IDX 48 79 74 80 75 81 83 82 76 83 82 84 84 85 81 86 77 87 78 88
REMARK SMILES IDX 79 89 80 90 59 91 60 92 68 93 61 94 67 95 69 96 66 97 62 98
REMARK SMILES IDX 63 99 64 100 65 101
REMARK H PARENT 25 7 4 18 30 35 89 54 57 65
REMARK Flexibility Score: inf
ROOT
ATOM      1  C   UNL     1       6.830  -0.207   1.195  1.00  0.00     0.023 C 
ENDROOT
BRANCH   1   2
ATOM      2  C   UNL     1       5.332  -0.498   1.016  1.00  0.00     0.023 C 
BRANCH   2   3
ATOM      3  C   UNL     1       4.716   0.071  -0.269  1.00  0.00     0.116 C 
BRANCH   3   4
ATOM      4  N   UNL     1       5.126  -0.652  -1.467  1.00  0.00    -0.352 N 
ATOM      5  C   UNL     1       4.646  -1.694  -2.222  1.00  0.00     0.255 C 
ATOM      6  O   UNL     1       5.260  -1.834  -3.283  1.00  0.00    -0.269 OA
ATOM      7  H   UNL     1       5.970  -0.301  -1.831  1.00  0.00     0.163 HD
BRANCH   5   8
ATOM      8  C   UNL     1       3.489  -2.599  -1.879  1.00  0.00     0.084 A 
ATOM      9  C   UNL     1       1.449  -3.057  -0.604  1.00  0.00     0.060 A 
ATOM     10  C   UNL     1       1.271  -4.173  -1.394  1.00  0.00     0.139 A 
ATOM     11  C   UNL     1       2.600  -2.306  -0.827  1.00  0.00     0.045 A 
ATOM     12  N   UNL     1       2.094  -4.515  -2.400  1.00  0.00    -0.236 NA
ATOM     13  C   UNL     1       3.187  -3.741  -2.663  1.00  0.00     0.141 A 
BRANCH   9  14
ATOM     14  N   UNL     1       0.485  -2.776   0.374  1.00  0.00    -0.325 N 
ATOM     15  C   UNL     1       0.418  -0.286   0.239  1.00  0.00     0.114 C 
ATOM     16  C   UNL     1       0.012  -1.591   0.867  1.00  0.00     0.221 C 
ATOM     17  O   UNL     1      -0.860  -1.647   1.738  1.00  0.00    -0.275 OA
ATOM     18  H   UNL     1       0.075  -3.575   0.779  1.00  0.00     0.169 HD
ENDBRANCH   9  14
BRANCH  13  19
ATOM     19  N   UNL     1       3.901  -4.217  -3.731  1.00  0.00    -0.352 N 
ATOM     20  C   UNL     1       3.266  -4.169  -5.036  1.00  0.00     0.146 C 
ATOM     21  C   UNL     1       5.299  -4.604  -3.651  1.00  0.00     0.123 C 
ATOM     22  C   UNL     1       3.765  -5.290  -5.911  1.00  0.00    -0.002 C 
ATOM     23  C   UNL     1       5.466  -6.010  -4.249  1.00  0.00     0.057 C 
ATOM     24  C   UNL     1       4.748  -6.148  -5.572  1.00  0.00    -0.041 C 
BRANCH  24  25
ATOM     25  C   UNL     1       5.147  -7.226  -6.501  1.00  0.00    -0.020 A 
ATOM     26  C   UNL     1       5.620  -6.857  -7.774  1.00  0.00     0.008 A 
ATOM     27  C   UNL     1       5.055  -8.596  -6.181  1.00  0.00    -0.044 A 
ATOM     28  C   UNL     1       5.999  -7.818  -8.712  1.00  0.00     0.001 A 
ATOM     29  C   UNL     1       5.459  -9.553  -7.130  1.00  0.00     0.004 A 
ATOM     30  C   UNL     1       4.551  -9.084  -4.850  1.00  0.00     0.045 C 
ATOM     31  C   UNL     1       5.921  -9.167  -8.389  1.00  0.00     0.000 A 
ENDBRANCH  24  25
ENDBRANCH  13  19
ENDBRANCH   5   8
ENDBRANCH   3   4
ENDBRANCH   2   3
ENDBRANCH   1   2
BRANCH   1  32
ATOM     32  C   UNL     1       7.179   1.280   1.248  1.00  0.00     0.116 C 
BRANCH  32  33
ATOM     33  N   UNL     1       7.434   1.849   2.559  1.00  0.00    -0.352 N 
ATOM     34  C   UNL     1       7.615   3.189   2.896  1.00  0.00     0.251 C 
ATOM     35  H   UNL     1       7.486   1.208   3.304  1.00  0.00     0.163 HD
ATOM     36  O   UNL     1       7.944   3.519   4.016  1.00  0.00    -0.269 OA
BRANCH  34  37
ATOM     37  C   UNL     1       7.279   4.234   1.884  1.00  0.00     0.039 A 
ATOM     38  C   UNL     1       6.415   5.261   2.284  1.00  0.00     0.014 A 
ATOM     39  C   UNL     1       7.615   4.094   0.540  1.00  0.00     0.014 A 
ATOM     40  C   UNL     1       5.711   5.985   1.321  1.00  0.00     0.010 A 
ATOM     41  C   UNL     1       6.851   4.743  -0.416  1.00  0.00     0.010 A 
ATOM     42  C   UNL     1       5.857   5.644  -0.024  1.00  0.00    -0.014 A 
BRANCH  42  43
ATOM     43  C   UNL     1       4.933   6.092  -1.062  1.00  0.00     0.031 A 
ATOM     44  C   UNL     1       5.306   7.168  -2.001  1.00  0.00     0.074 A 
ATOM     45  C   UNL     1       3.703   5.544  -1.173  1.00  0.00     0.049 A 
ATOM     46  N   UNL     1       4.464   7.997  -2.522  1.00  0.00    -0.248 NA
ATOM     47  C   UNL     1       6.685   7.413  -2.401  1.00  0.00     0.031 C 
ATOM     48  C   UNL     1       2.741   5.736  -2.256  1.00  0.00     0.029 A 
ATOM     49  N   UNL     1       2.975   4.915  -0.172  1.00  0.00    -0.354 N 
ATOM     50  C   UNL     1       5.118   8.677  -3.520  1.00  0.00     0.074 A 
ATOM     51  C   UNL     1       6.513   8.332  -3.357  1.00  0.00     0.031 C 
ATOM     52  C   UNL     1       1.508   5.488  -1.788  1.00  0.00     0.029 A 
ATOM     53  C   UNL     1       1.625   5.250  -0.361  1.00  0.00     0.049 A 
ATOM     54  H   UNL     1       3.339   4.341   0.539  1.00  0.00     0.167 HD
ATOM     55  C   UNL     1       4.407   9.345  -4.473  1.00  0.00     0.034 A 
ATOM     56  C   UNL     1       0.907   5.879   0.614  1.00  0.00     0.034 A 
ATOM     57  C   UNL     1       2.963   9.236  -4.268  1.00  0.00     0.049 A 
ATOM     58  C   UNL     1       0.318   7.204   0.188  1.00  0.00     0.074 A 
ATOM     59  C   UNL     1       1.979   8.464  -4.865  1.00  0.00     0.029 A 
ATOM     60  N   UNL     1       2.375   9.815  -3.150  1.00  0.00    -0.354 N 
ATOM     61  N   UNL     1       0.640   7.844  -0.901  1.00  0.00    -0.248 NA
ATOM     62  C   UNL     1      -0.651   7.935   0.994  1.00  0.00     0.031 C 
ATOM     63  C   UNL     1       0.794   8.577  -4.092  1.00  0.00     0.029 A 
ATOM     64  C   UNL     1       1.050   9.432  -3.035  1.00  0.00     0.049 A 
ATOM     65  H   UNL     1       2.838  10.417  -2.524  1.00  0.00     0.167 HD
ATOM     66  C   UNL     1      -0.007   9.059  -0.939  1.00  0.00     0.074 A 
ATOM     67  C   UNL     1      -0.822   9.050   0.263  1.00  0.00     0.031 C 
ATOM     68  C   UNL     1       0.222   9.956  -1.952  1.00  0.00     0.034 A 
BRANCH  55  69
ATOM     69  C   UNL     1       5.028   9.829  -5.764  1.00  0.00     0.023 A 
ATOM     70  C   UNL     1       4.277   9.803  -6.957  1.00  0.00     0.031 A 
ATOM     71  C   UNL     1       6.353  10.287  -5.892  1.00  0.00     0.131 A 
ATOM     72  C   UNL     1       4.866  10.093  -8.201  1.00  0.00     0.055 A 
ATOM     73  C   UNL     1       6.961  10.509  -7.135  1.00  0.00     0.041 A 
ATOM     74  F   UNL     1       7.098  10.577  -4.815  1.00  0.00    -0.206 F 
ATOM     75  C   UNL     1       6.221  10.394  -8.302  1.00  0.00     0.022 A 
BRANCH  72  76
ATOM     76  S   UNL     1       3.832  10.080  -9.691  1.00  0.00     0.124 S 
ATOM     77  O   UNL     1       3.267   8.734  -9.669  1.00  0.00    -0.237 OA
ATOM     78  O   UNL     1       2.904  11.174  -9.430  1.00  0.00    -0.237 OA
ATOM     79  O   UNL     1       4.788  10.328 -10.770  1.00  0.00    -0.744 OA
ENDBRANCH  72  76
ENDBRANCH  55  69
BRANCH  56  80
ATOM     80  C   UNL     1       1.370   5.541   1.992  1.00  0.00     0.023 A 
ATOM     81  C   UNL     1       1.432   4.170   2.318  1.00  0.00     0.031 A 
ATOM     82  C   UNL     1       2.115   6.434   2.772  1.00  0.00     0.131 A 
ATOM     83  C   UNL     1       2.391   3.710   3.229  1.00  0.00     0.055 A 
ATOM     84  C   UNL     1       2.987   5.974   3.767  1.00  0.00     0.041 A 
ATOM     85  F   UNL     1       2.116   7.747   2.498  1.00  0.00    -0.206 F 
ATOM     86  C   UNL     1       3.169   4.603   3.963  1.00  0.00     0.022 A 
BRANCH  83  87
ATOM     87  S   UNL     1       2.839   1.954   3.141  1.00  0.00     0.124 S 
ATOM     88  O   UNL     1       1.748   1.312   3.861  1.00  0.00    -0.237 OA
ATOM     89  O   UNL     1       2.870   1.719   1.696  1.00  0.00    -0.237 OA
ATOM     90  O   UNL     1       4.148   1.883   3.783  1.00  0.00    -0.744 OA
ENDBRANCH  83  87
ENDBRANCH  56  80
BRANCH  68  91
ATOM     91  C   UNL     1      -0.318  11.379  -2.081  1.00  0.00     0.023 A 
ATOM     92  C   UNL     1      -1.150  12.004  -1.142  1.00  0.00     0.031 A 
ATOM     93  C   UNL     1       0.026  12.189  -3.198  1.00  0.00     0.131 A 
ATOM     94  C   UNL     1      -1.612  13.325  -1.319  1.00  0.00     0.055 A 
ATOM     95  C   UNL     1      -0.406  13.512  -3.358  1.00  0.00     0.041 A 
ATOM     96  F   UNL     1       0.807  11.742  -4.191  1.00  0.00    -0.206 F 
ATOM     97  C   UNL     1      -1.235  14.090  -2.415  1.00  0.00     0.022 A 
BRANCH  94  98
ATOM     98  S   UNL     1      -2.744  14.011  -0.079  1.00  0.00     0.124 S 
ATOM     99  O   UNL     1      -3.891  13.113  -0.184  1.00  0.00    -0.237 OA
ATOM    100  O   UNL     1      -1.964  13.899   1.149  1.00  0.00    -0.237 OA
ATOM    101  O   UNL     1      -2.981  15.377  -0.542  1.00  0.00    -0.744 OA
ENDBRANCH  94  98
ENDBRANCH  68  91
ENDBRANCH  42  43
ENDBRANCH  34  37
ENDBRANCH  32  33
ENDBRANCH   1  32
TORSDOF 17
