REMARK SMILES N#C/C(=C\c1ccc(Oc2ccccc2Cl)c([N+](=O)[O-])c1)C(=O)NCCCCNC(=O)c1ccc(-c2c3nc(c(-c4cc(S(=O)(=O)[O-])ccc4F)c4ccc([nH]4)c(-c4cc(S(=O)(=O)[O-])ccc4F)c4nc(c(-c5cc(S(=O)(=O)[O-])ccc5F)c5ccc2[nH]5)C=C4)C=C3)cc1
REMARK SMILES IDX 26 1 25 2 24 3 22 4 23 5 3 7 4 8 2 9 1 10 5 11 6 12 21 13
REMARK SMILES IDX 7 14 17 15 8 16 18 17 19 18 20 19 9 20 10 21 11 22 15 23
REMARK SMILES IDX 12 24 14 25 16 26 13 27 27 28 28 29 29 30 30 31 31 33 32 34
REMARK SMILES IDX 33 35 94 36 34 37 93 38 35 39 36 40 37 41 87 42 38 43 92 44
REMARK SMILES IDX 86 45 88 46 39 47 91 48 85 49 84 50 40 52 72 53 52 54 71 55
REMARK SMILES IDX 53 56 56 57 70 58 89 59 54 60 55 61 69 63 90 64 57 65 41 66
REMARK SMILES IDX 42 67 50 68 43 69 49 70 51 71 48 72 44 73 45 74 46 75 47 76
REMARK SMILES IDX 73 77 74 78 82 79 75 80 81 81 83 82 80 83 76 84 77 85 78 86
REMARK SMILES IDX 79 87 58 88 59 89 67 90 60 91 66 92 68 93 65 94 61 95 62 96
REMARK SMILES IDX 63 97 64 98
REMARK H PARENT 24 6 29 32 88 51 56 62
REMARK Flexibility Score: inf
ROOT
ATOM      1  C   UNL     1       7.544   0.457  -0.873  1.00  0.00     0.023 C 
ENDROOT
BRANCH   1   2
ATOM      2  C   UNL     1       6.944   0.446   0.537  1.00  0.00     0.116 C 
BRANCH   2   3
ATOM      3  N   UNL     1       5.859   1.400   0.659  1.00  0.00    -0.351 N 
ATOM      4  C   UNL     1       4.517   1.302   0.449  1.00  0.00     0.261 C 
ATOM      5  O   UNL     1       3.837   2.302   0.687  1.00  0.00    -0.268 OA
ATOM      6  H   UNL     1       6.149   2.295   0.951  1.00  0.00     0.163 HD
BRANCH   4   7
ATOM      7  C   UNL     1       3.847   0.064  -0.040  1.00  0.00     0.117 C 
ATOM      8  C   UNL     1       4.408  -1.001  -0.666  1.00  0.00     0.033 C 
BRANCH   7   9
ATOM      9  C   UNL     1       2.327   0.064  -0.040  1.00  0.00     0.105 C 
ATOM     10  N   UNL     1       1.066   0.064  -0.040  1.00  0.00    -0.192 NA
ENDBRANCH   7   9
BRANCH   8  11
ATOM     11  C   UNL     1       3.679  -2.184  -1.186  1.00  0.00    -0.017 A 
ATOM     12  C   UNL     1       4.068  -3.463  -0.780  1.00  0.00     0.012 A 
ATOM     13  C   UNL     1       2.579  -2.067  -2.043  1.00  0.00     0.098 A 
ATOM     14  C   UNL     1       3.350  -4.595  -1.198  1.00  0.00     0.055 A 
ATOM     15  C   UNL     1       1.813  -3.198  -2.378  1.00  0.00     0.312 A 
ATOM     16  C   UNL     1       2.204  -4.485  -2.003  1.00  0.00     0.204 A 
BRANCH  15  17
ATOM     17  N   UNL     1       0.542  -2.911  -3.011  1.00  0.00     0.066 N 
ATOM     18  O   UNL     1      -0.483  -3.154  -2.360  1.00  0.00    -0.258 OA
ATOM     19  O   UNL     1       0.578  -2.389  -4.134  1.00  0.00    -0.258 OA
ENDBRANCH  15  17
BRANCH  16  20
ATOM     20  O   UNL     1       1.633  -5.708  -2.283  1.00  0.00    -0.449 OA
BRANCH  20  21
ATOM     21  C   UNL     1       0.707  -5.839  -3.286  1.00  0.00     0.146 A 
ATOM     22  C   UNL     1      -0.567  -6.256  -2.885  1.00  0.00     0.049 A 
ATOM     23  C   UNL     1       0.975  -5.627  -4.644  1.00  0.00     0.083 A 
ATOM     24  C   UNL     1      -1.597  -6.357  -3.819  1.00  0.00     0.004 A 
ATOM     25  C   UNL     1      -0.065  -5.710  -5.573  1.00  0.00     0.024 A 
ATOM     26  Cl  UNL     1       2.557  -5.244  -5.218  1.00  0.00    -0.080 Cl
ATOM     27  C   UNL     1      -1.352  -6.062  -5.159  1.00  0.00     0.002 A 
ENDBRANCH  20  21
ENDBRANCH  16  20
ENDBRANCH   8  11
ENDBRANCH   4   7
ENDBRANCH   2   3
ENDBRANCH   1   2
BRANCH   1  28
ATOM     28  C   UNL     1       8.592   1.545  -1.112  1.00  0.00     0.023 C 
BRANCH  28  29
ATOM     29  C   UNL     1       9.831   1.440  -0.231  1.00  0.00     0.116 C 
BRANCH  29  30
ATOM     30  N   UNL     1      10.519   0.165  -0.348  1.00  0.00    -0.352 N 
ATOM     31  C   UNL     1      11.840  -0.108  -0.071  1.00  0.00     0.251 C 
ATOM     32  H   UNL     1       9.976  -0.594  -0.663  1.00  0.00     0.163 HD
ATOM     33  O   UNL     1      12.307  -1.208  -0.326  1.00  0.00    -0.269 OA
BRANCH  31  34
ATOM     34  C   UNL     1      12.685   0.970   0.485  1.00  0.00     0.039 A 
ATOM     35  C   UNL     1      13.897   1.269  -0.140  1.00  0.00     0.014 A 
ATOM     36  C   UNL     1      12.251   1.716   1.584  1.00  0.00     0.014 A 
ATOM     37  C   UNL     1      14.649   2.358   0.304  1.00  0.00     0.010 A 
ATOM     38  C   UNL     1      12.961   2.845   1.973  1.00  0.00     0.010 A 
ATOM     39  C   UNL     1      14.172   3.173   1.344  1.00  0.00    -0.014 A 
BRANCH  39  40
ATOM     40  C   UNL     1      14.941   4.352   1.816  1.00  0.00     0.031 A 
ATOM     41  C   UNL     1      15.481   4.375   3.220  1.00  0.00     0.074 A 
ATOM     42  C   UNL     1      15.093   5.421   1.011  1.00  0.00     0.049 A 
ATOM     43  N   UNL     1      16.111   5.330   3.852  1.00  0.00    -0.248 NA
ATOM     44  C   UNL     1      15.239   3.173   4.031  1.00  0.00     0.031 C 
ATOM     45  C   UNL     1      14.574   5.535  -0.353  1.00  0.00     0.029 A 
ATOM     46  N   UNL     1      15.724   6.620   1.226  1.00  0.00    -0.354 N 
ATOM     47  C   UNL     1      16.321   4.854   5.143  1.00  0.00     0.074 A 
ATOM     48  C   UNL     1      15.683   3.556   5.217  1.00  0.00     0.031 C 
ATOM     49  C   UNL     1      14.936   6.723  -0.864  1.00  0.00     0.029 A 
ATOM     50  C   UNL     1      15.677   7.471   0.147  1.00  0.00     0.049 A 
ATOM     51  H   UNL     1      16.168   6.850   2.074  1.00  0.00     0.167 HD
ATOM     52  C   UNL     1      17.004   5.433   6.162  1.00  0.00     0.034 A 
ATOM     53  C   UNL     1      16.176   8.713  -0.007  1.00  0.00     0.034 A 
ATOM     54  C   UNL     1      17.649   6.719   6.059  1.00  0.00     0.049 A 
ATOM     55  C   UNL     1      16.932   9.340   1.136  1.00  0.00     0.074 A 
ATOM     56  C   UNL     1      18.421   7.378   7.000  1.00  0.00     0.029 A 
ATOM     57  N   UNL     1      17.593   7.548   4.944  1.00  0.00    -0.354 N 
ATOM     58  N   UNL     1      17.172   8.857   2.333  1.00  0.00    -0.248 NA
ATOM     59  C   UNL     1      17.497  10.674   0.899  1.00  0.00     0.031 C 
ATOM     60  C   UNL     1      18.776   8.628   6.480  1.00  0.00     0.029 A 
ATOM     61  C   UNL     1      18.293   8.721   5.184  1.00  0.00     0.049 A 
ATOM     62  H   UNL     1      17.124   7.334   4.105  1.00  0.00     0.167 HD
ATOM     63  C   UNL     1      17.951   9.814   2.979  1.00  0.00     0.074 A 
ATOM     64  C   UNL     1      18.142  10.897   2.035  1.00  0.00     0.031 C 
ATOM     65  C   UNL     1      18.469   9.795   4.234  1.00  0.00     0.034 A 
BRANCH  52  66
ATOM     66  C   UNL     1      17.052   4.682   7.474  1.00  0.00     0.023 A 
ATOM     67  C   UNL     1      17.616   3.397   7.569  1.00  0.00     0.031 A 
ATOM     68  C   UNL     1      16.464   5.225   8.629  1.00  0.00     0.131 A 
ATOM     69  C   UNL     1      17.484   2.658   8.754  1.00  0.00     0.055 A 
ATOM     70  C   UNL     1      16.424   4.523   9.836  1.00  0.00     0.041 A 
ATOM     71  F   UNL     1      15.891   6.439   8.600  1.00  0.00    -0.206 F 
ATOM     72  C   UNL     1      16.915   3.222   9.898  1.00  0.00     0.022 A 
BRANCH  69  73
ATOM     73  S   UNL     1      17.889   0.890   8.717  1.00  0.00     0.124 S 
ATOM     74  O   UNL     1      17.011   0.409   7.652  1.00  0.00    -0.237 OA
ATOM     75  O   UNL     1      19.315   0.899   8.414  1.00  0.00    -0.237 OA
ATOM     76  O   UNL     1      17.537   0.429  10.058  1.00  0.00    -0.744 OA
ENDBRANCH  69  73
ENDBRANCH  52  66
BRANCH  53  77
ATOM     77  C   UNL     1      16.002   9.439  -1.296  1.00  0.00     0.023 A 
ATOM     78  C   UNL     1      17.105   9.721  -2.116  1.00  0.00     0.031 A 
ATOM     79  C   UNL     1      14.735   9.882  -1.717  1.00  0.00     0.131 A 
ATOM     80  C   UNL     1      16.930  10.461  -3.296  1.00  0.00     0.055 A 
ATOM     81  C   UNL     1      14.559  10.578  -2.913  1.00  0.00     0.041 A 
ATOM     82  F   UNL     1      13.646   9.627  -0.974  1.00  0.00    -0.206 F 
ATOM     83  C   UNL     1      15.663  10.882  -3.705  1.00  0.00     0.022 A 
BRANCH  80  84
ATOM     84  S   UNL     1      18.396  10.918  -4.260  1.00  0.00     0.124 S 
ATOM     85  O   UNL     1      19.150  11.711  -3.296  1.00  0.00    -0.237 OA
ATOM     86  O   UNL     1      18.956   9.613  -4.596  1.00  0.00    -0.237 OA
ATOM     87  O   UNL     1      17.843  11.665  -5.387  1.00  0.00    -0.744 OA
ENDBRANCH  80  84
ENDBRANCH  53  77
BRANCH  65  88
ATOM     88  C   UNL     1      19.344  10.960   4.630  1.00  0.00     0.023 A 
ATOM     89  C   UNL     1      18.829  12.259   4.784  1.00  0.00     0.031 A 
ATOM     90  C   UNL     1      20.720  10.764   4.842  1.00  0.00     0.131 A 
ATOM     91  C   UNL     1      19.696  13.322   5.082  1.00  0.00     0.055 A 
ATOM     92  C   UNL     1      21.567  11.814   5.198  1.00  0.00     0.041 A 
ATOM     93  F   UNL     1      21.265   9.544   4.706  1.00  0.00    -0.206 F 
ATOM     94  C   UNL     1      21.058  13.105   5.306  1.00  0.00     0.022 A 
BRANCH  91  95
ATOM     95  S   UNL     1      19.035  15.011   5.078  1.00  0.00     0.124 S 
ATOM     96  O   UNL     1      18.489  15.121   3.729  1.00  0.00    -0.237 OA
ATOM     97  O   UNL     1      18.057  14.966   6.160  1.00  0.00    -0.237 OA
ATOM     98  O   UNL     1      20.211  15.840   5.340  1.00  0.00    -0.744 OA
ENDBRANCH  91  95
ENDBRANCH  65  88
ENDBRANCH  39  40
ENDBRANCH  31  34
ENDBRANCH  29  30
ENDBRANCH  28  29
ENDBRANCH   1  28
TORSDOF 19
