REMARK SMILES O=C(NCCCCNC(=O)[C@H]1CSC2(CCCCC2)[NH2+]1)c1ccc(-c2c3nc(c(-c4cc(S(=O)(=O)[O-])ccc4F)c4ccc([nH]4)c(-c4cc(S(=O)(=O)[O-])ccc4F)c4nc(c(-c5cc(S(=O)(=O)[O-])ccc5F)c5ccc2[nH]5)C=C4)C=C3)cc1
REMARK SMILES IDX 4 1 3 2 1 3 2 4 21 6 22 7 83 8 23 9 82 10 24 11 25 12 26 13
REMARK SMILES IDX 76 14 27 15 81 16 75 17 77 18 28 19 80 20 74 21 73 22 29 24
REMARK SMILES IDX 61 25 41 26 60 27 42 28 45 29 59 30 78 31 43 32 44 33 58 35
REMARK SMILES IDX 79 36 46 37 30 38 31 39 39 40 32 41 38 42 40 43 37 44 33 45
REMARK SMILES IDX 34 46 35 47 36 48 62 49 63 50 71 51 64 52 70 53 72 54 69 55
REMARK SMILES IDX 65 56 66 57 67 58 68 59 47 60 48 61 56 62 49 63 55 64 57 65
REMARK SMILES IDX 54 66 50 67 51 68 52 69 53 70 5 71 6 72 7 73 8 74 9 75 10 77
REMARK SMILES IDX 11 78 12 79 20 80 13 81 14 82 15 85 19 86 16 87 18 88 17 89
REMARK H PARENT 3 5 77 23 45 34 8 76 20 83 20 84
REMARK Flexibility Score: inf
ROOT
ATOM      1  C   UNL     1       4.153   6.343  10.043  1.00  0.00     0.116 C 
ENDROOT
BRANCH   1   2
ATOM      2  N   UNL     1       4.504   7.753  10.101  1.00  0.00    -0.352 N 
ATOM      3  O   UNL     1       4.882   9.714  11.182  1.00  0.00    -0.269 OA
ATOM      4  C   UNL     1       4.629   8.522  11.243  1.00  0.00     0.251 C 
ATOM      5  H   UNL     1       4.670   8.205   9.242  1.00  0.00     0.163 HD
BRANCH   4   6
ATOM      6  C   UNL     1       4.400   7.857  12.547  1.00  0.00     0.039 A 
ATOM      7  C   UNL     1       5.108   6.696  12.866  1.00  0.00     0.014 A 
ATOM      8  C   UNL     1       3.393   8.331  13.390  1.00  0.00     0.014 A 
ATOM      9  C   UNL     1       4.710   5.929  13.953  1.00  0.00     0.010 A 
ATOM     10  C   UNL     1       3.054   7.601  14.533  1.00  0.00     0.010 A 
ATOM     11  C   UNL     1       3.691   6.380  14.809  1.00  0.00    -0.014 A 
BRANCH  11  12
ATOM     12  C   UNL     1       3.381   5.605  16.037  1.00  0.00     0.031 A 
ATOM     13  C   UNL     1       2.043   4.949  16.239  1.00  0.00     0.074 A 
ATOM     14  C   UNL     1       4.346   5.499  16.973  1.00  0.00     0.049 A 
ATOM     15  N   UNL     1       1.612   4.268  17.270  1.00  0.00    -0.248 NA
ATOM     16  C   UNL     1       1.060   5.074  15.152  1.00  0.00     0.031 C 
ATOM     17  C   UNL     1       5.679   6.104  16.875  1.00  0.00     0.029 A 
ATOM     18  N   UNL     1       4.367   4.851  18.180  1.00  0.00    -0.354 N 
ATOM     19  C   UNL     1       0.302   3.906  16.973  1.00  0.00     0.074 A 
ATOM     20  C   UNL     1       0.006   4.449  15.664  1.00  0.00     0.031 C 
ATOM     21  C   UNL     1       6.393   5.776  17.959  1.00  0.00     0.029 A 
ATOM     22  C   UNL     1       5.548   5.012  18.867  1.00  0.00     0.049 A 
ATOM     23  H   UNL     1       3.610   4.323  18.523  1.00  0.00     0.167 HD
ATOM     24  C   UNL     1      -0.566   3.190  17.731  1.00  0.00     0.034 A 
ATOM     25  C   UNL     1       5.901   4.630  20.109  1.00  0.00     0.034 A 
ATOM     26  C   UNL     1      -0.238   2.640  19.026  1.00  0.00     0.049 A 
ATOM     27  C   UNL     1       4.899   3.876  20.938  1.00  0.00     0.074 A 
ATOM     28  C   UNL     1      -1.011   1.823  19.834  1.00  0.00     0.029 A 
ATOM     29  N   UNL     1       0.948   2.866  19.711  1.00  0.00    -0.354 N 
ATOM     30  N   UNL     1       3.683   3.501  20.617  1.00  0.00    -0.248 NA
ATOM     31  C   UNL     1       5.313   3.501  22.294  1.00  0.00     0.031 C 
ATOM     32  C   UNL     1      -0.324   1.617  21.035  1.00  0.00     0.029 A 
ATOM     33  C   UNL     1       0.907   2.249  20.952  1.00  0.00     0.049 A 
ATOM     34  H   UNL     1       1.708   3.388  19.366  1.00  0.00     0.167 HD
ATOM     35  C   UNL     1       3.186   2.842  21.736  1.00  0.00     0.074 A 
ATOM     36  C   UNL     1       4.247   2.843  22.723  1.00  0.00     0.031 C 
ATOM     37  C   UNL     1       1.962   2.292  21.934  1.00  0.00     0.034 A 
BRANCH  24  38
ATOM     38  C   UNL     1      -1.970   2.994  17.216  1.00  0.00     0.023 A 
ATOM     39  C   UNL     1      -2.257   2.173  16.113  1.00  0.00     0.031 A 
ATOM     40  C   UNL     1      -3.048   3.608  17.881  1.00  0.00     0.131 A 
ATOM     41  C   UNL     1      -3.587   2.013  15.689  1.00  0.00     0.055 A 
ATOM     42  C   UNL     1      -4.372   3.401  17.489  1.00  0.00     0.041 A 
ATOM     43  F   UNL     1      -2.830   4.415  18.932  1.00  0.00    -0.206 F 
ATOM     44  C   UNL     1      -4.647   2.604  16.383  1.00  0.00     0.022 A 
BRANCH  41  45
ATOM     45  S   UNL     1      -3.914   1.077  14.170  1.00  0.00     0.124 S 
ATOM     46  O   UNL     1      -3.191   1.866  13.175  1.00  0.00    -0.237 OA
ATOM     47  O   UNL     1      -3.350  -0.232  14.478  1.00  0.00    -0.237 OA
ATOM     48  O   UNL     1      -5.370   1.115  14.048  1.00  0.00    -0.744 OA
ENDBRANCH  41  45
ENDBRANCH  24  38
BRANCH  25  49
ATOM     49  C   UNL     1       7.226   5.021  20.666  1.00  0.00     0.023 A 
ATOM     50  C   UNL     1       8.174   4.056  21.034  1.00  0.00     0.031 A 
ATOM     51  C   UNL     1       7.548   6.376  20.872  1.00  0.00     0.131 A 
ATOM     52  C   UNL     1       9.381   4.456  21.627  1.00  0.00     0.055 A 
ATOM     53  C   UNL     1       8.774   6.771  21.407  1.00  0.00     0.041 A 
ATOM     54  F   UNL     1       6.676   7.341  20.536  1.00  0.00    -0.206 F 
ATOM     55  C   UNL     1       9.694   5.806  21.802  1.00  0.00     0.022 A 
BRANCH  52  56
ATOM     56  S   UNL     1      10.499   3.177  22.262  1.00  0.00     0.124 S 
ATOM     57  O   UNL     1       9.612   2.410  23.131  1.00  0.00    -0.237 OA
ATOM     58  O   UNL     1      10.926   2.514  21.035  1.00  0.00    -0.237 OA
ATOM     59  O   UNL     1      11.536   3.944  22.950  1.00  0.00    -0.744 OA
ENDBRANCH  52  56
ENDBRANCH  25  49
BRANCH  37  60
ATOM     60  C   UNL     1       1.729   1.646  23.274  1.00  0.00     0.023 A 
ATOM     61  C   UNL     1       1.645   2.416  24.448  1.00  0.00     0.031 A 
ATOM     62  C   UNL     1       1.626   0.249  23.385  1.00  0.00     0.131 A 
ATOM     63  C   UNL     1       1.521   1.780  25.691  1.00  0.00     0.055 A 
ATOM     64  C   UNL     1       1.445  -0.375  24.620  1.00  0.00     0.041 A 
ATOM     65  F   UNL     1       1.705  -0.531  22.295  1.00  0.00    -0.206 F 
ATOM     66  C   UNL     1       1.405   0.390  25.783  1.00  0.00     0.022 A 
BRANCH  63  67
ATOM     67  S   UNL     1       1.597   2.790  27.195  1.00  0.00     0.124 S 
ATOM     68  O   UNL     1       2.937   3.361  27.108  1.00  0.00    -0.237 OA
ATOM     69  O   UNL     1       0.493   3.724  27.003  1.00  0.00    -0.237 OA
ATOM     70  O   UNL     1       1.405   1.818  28.270  1.00  0.00    -0.744 OA
ENDBRANCH  63  67
ENDBRANCH  37  60
ENDBRANCH  11  12
ENDBRANCH   4   6
ENDBRANCH   1   2
BRANCH   1  71
ATOM     71  C   UNL     1       3.379   5.926   8.798  1.00  0.00     0.023 C 
BRANCH  71  72
ATOM     72  C   UNL     1       4.130   6.085   7.477  1.00  0.00     0.023 C 
BRANCH  72  73
ATOM     73  C   UNL     1       5.466   5.345   7.422  1.00  0.00     0.116 C 
BRANCH  73  74
ATOM     74  N   UNL     1       5.516   4.265   6.464  1.00  0.00    -0.351 N 
ATOM     75  C   UNL     1       6.113   4.143   5.250  1.00  0.00     0.279 C 
ATOM     76  H   UNL     1       5.020   3.462   6.745  1.00  0.00     0.163 HD
ATOM     77  O   UNL     1       6.218   2.986   4.819  1.00  0.00    -0.268 OA
BRANCH  75  78
ATOM     78  C   UNL     1       6.526   5.317   4.336  1.00  0.00     0.283 C 
ATOM     79  C   UNL     1       5.304   5.884   3.630  1.00  0.00     0.151 C 
ATOM     80  N   UNL     1       7.393   6.367   4.926  1.00  0.00    -0.322 N 
ATOM     81  S   UNL     1       5.000   7.442   4.464  1.00  0.00    -0.089 SA
ATOM     82  C   UNL     1       6.764   7.695   4.862  1.00  0.00     0.143 C 
ATOM     83  H   UNL     1       8.274   6.393   4.412  1.00  0.00     0.348 HD
ATOM     84  H   UNL     1       7.547   6.136   5.907  1.00  0.00     0.348 HD
ATOM     85  C   UNL     1       6.969   8.480   6.177  1.00  0.00     0.081 C 
ATOM     86  C   UNL     1       7.413   8.520   3.725  1.00  0.00     0.081 C 
ATOM     87  C   UNL     1       6.388   9.892   6.140  1.00  0.00     0.007 C 
ATOM     88  C   UNL     1       6.878   9.960   3.644  1.00  0.00     0.007 C 
ATOM     89  C   UNL     1       6.955  10.698   4.980  1.00  0.00     0.001 C 
ENDBRANCH  75  78
ENDBRANCH  73  74
ENDBRANCH  72  73
ENDBRANCH  71  72
ENDBRANCH   1  71
TORSDOF 14
