REMARK SMILES O=C(Nc1cccc(C(=O)NCCCCNC(=O)c2ccc(-c3c4nc(c(-c5cc(S(=O)(=O)[O-])ccc5F)c5ccc([nH]5)c(-c5cc(S(=O)(=O)[O-])ccc5F)c5nc(c(-c6cc(S(=O)(=O)[O-])ccc6F)c6ccc3[nH]6)C=C5)C=C4)cc2)c1)Nc1cc(Cl)c(Cl)cc1Cl
REMARK SMILES IDX 14 1 13 2 12 3 11 4 9 5 10 6 8 8 4 9 5 10 82 11 6 12 7 13
REMARK SMILES IDX 3 14 1 15 2 16 83 17 84 20 85 21 91 22 86 23 90 24 92 25
REMARK SMILES IDX 87 26 88 27 89 28 15 29 16 30 17 31 18 33 19 34 20 35 81 36
REMARK SMILES IDX 21 37 80 38 22 39 23 40 24 41 74 42 25 43 79 44 73 45 75 46
REMARK SMILES IDX 26 47 78 48 72 49 71 50 27 52 59 53 39 54 58 55 40 56 43 57
REMARK SMILES IDX 57 58 76 59 41 60 42 61 56 63 77 64 44 65 28 66 29 67 37 68
REMARK SMILES IDX 30 69 36 70 38 71 35 72 31 73 32 74 33 75 34 76 60 77 61 78
REMARK SMILES IDX 69 79 62 80 68 81 70 82 67 83 63 84 64 85 65 86 66 87 45 88
REMARK SMILES IDX 46 89 54 90 47 91 53 92 55 93 52 94 48 95 49 96 50 97 51 98
REMARK H PARENT 11 7 3 18 83 19 16 32 75 51 43 62
REMARK Flexibility Score: inf
ROOT
ATOM      1  C   UNL     1       4.605   5.024  -1.773  1.00  0.00     0.023 C 
ENDROOT
BRANCH   1   2
ATOM      2  C   UNL     1       4.423   3.591  -1.263  1.00  0.00     0.023 C 
BRANCH   2   3
ATOM      3  C   UNL     1       5.371   2.570  -1.898  1.00  0.00     0.116 C 
BRANCH   3   4
ATOM      4  N   UNL     1       6.652   2.549  -1.219  1.00  0.00    -0.352 N 
ATOM      5  C   UNL     1       7.140   1.852  -0.144  1.00  0.00     0.251 C 
ATOM      6  O   UNL     1       8.314   2.066   0.166  1.00  0.00    -0.269 OA
ATOM      7  H   UNL     1       7.310   3.166  -1.614  1.00  0.00     0.163 HD
BRANCH   5   8
ATOM      8  C   UNL     1       6.370   0.842   0.648  1.00  0.00     0.041 A 
ATOM      9  C   UNL     1       4.357  -0.344   1.357  1.00  0.00     0.043 A 
ATOM     10  C   UNL     1       5.100  -1.091   2.268  1.00  0.00     0.026 A 
ATOM     11  C   UNL     1       4.987   0.655   0.602  1.00  0.00     0.040 A 
ATOM     12  C   UNL     1       6.479  -0.907   2.350  1.00  0.00     0.003 A 
ATOM     13  C   UNL     1       7.107   0.038   1.535  1.00  0.00     0.014 A 
BRANCH   9  14
ATOM     14  N   UNL     1       2.980  -0.605   1.246  1.00  0.00    -0.308 N 
ATOM     15  O   UNL     1       0.926  -0.513   0.338  1.00  0.00    -0.248 OA
ATOM     16  C   UNL     1       2.139  -0.429   0.171  1.00  0.00     0.323 C 
ATOM     17  N   UNL     1       2.763  -0.359  -1.052  1.00  0.00    -0.306 N 
ATOM     18  H   UNL     1       2.555  -0.968   2.056  1.00  0.00     0.171 HD
ATOM     19  H   UNL     1       3.737  -0.505  -1.060  1.00  0.00     0.171 HD
BRANCH  17  20
ATOM     20  C   UNL     1       2.151  -0.098  -2.297  1.00  0.00     0.063 A 
ATOM     21  C   UNL     1       2.666  -0.818  -3.386  1.00  0.00     0.049 A 
ATOM     22  C   UNL     1       1.121   0.832  -2.527  1.00  0.00     0.066 A 
ATOM     23  C   UNL     1       2.111  -0.685  -4.663  1.00  0.00     0.061 A 
ATOM     24  C   UNL     1       0.576   0.972  -3.810  1.00  0.00     0.044 A 
ATOM     25  Cl  UNL     1       0.596   1.972  -1.339  1.00  0.00    -0.082 Cl
ATOM     26  Cl  UNL     1       2.777  -1.658  -5.927  1.00  0.00    -0.083 Cl
ATOM     27  C   UNL     1       1.054   0.203  -4.873  1.00  0.00     0.061 A 
ATOM     28  Cl  UNL     1       0.312   0.404  -6.418  1.00  0.00    -0.083 Cl
ENDBRANCH  17  20
ENDBRANCH   9  14
ENDBRANCH   5   8
ENDBRANCH   3   4
ENDBRANCH   2   3
ENDBRANCH   1   2
BRANCH   1  29
ATOM     29  C   UNL     1       4.252   5.225  -3.243  1.00  0.00     0.116 C 
BRANCH  29  30
ATOM     30  N   UNL     1       2.875   4.883  -3.565  1.00  0.00    -0.352 N 
ATOM     31  C   UNL     1       2.139   5.311  -4.650  1.00  0.00     0.251 C 
ATOM     32  H   UNL     1       2.417   4.277  -2.938  1.00  0.00     0.163 HD
ATOM     33  O   UNL     1       0.965   5.006  -4.767  1.00  0.00    -0.269 OA
BRANCH  31  34
ATOM     34  C   UNL     1       2.804   6.195  -5.634  1.00  0.00     0.039 A 
ATOM     35  C   UNL     1       2.281   7.470  -5.862  1.00  0.00     0.014 A 
ATOM     36  C   UNL     1       3.987   5.790  -6.255  1.00  0.00     0.014 A 
ATOM     37  C   UNL     1       2.990   8.373  -6.662  1.00  0.00     0.010 A 
ATOM     38  C   UNL     1       4.718   6.708  -7.003  1.00  0.00     0.010 A 
ATOM     39  C   UNL     1       4.232   8.011  -7.206  1.00  0.00    -0.014 A 
BRANCH  39  40
ATOM     40  C   UNL     1       5.050   8.963  -8.005  1.00  0.00     0.031 A 
ATOM     41  C   UNL     1       5.325   8.663  -9.453  1.00  0.00     0.074 A 
ATOM     42  C   UNL     1       5.628  10.025  -7.409  1.00  0.00     0.049 A 
ATOM     43  N   UNL     1       6.158   9.244 -10.276  1.00  0.00    -0.248 NA
ATOM     44  C   UNL     1       4.588   7.532 -10.038  1.00  0.00     0.031 C 
ATOM     45  C   UNL     1       5.457  10.409  -6.006  1.00  0.00     0.029 A 
ATOM     46  N   UNL     1       6.498  10.966  -7.903  1.00  0.00    -0.354 N 
ATOM     47  C   UNL     1       6.077   8.525 -11.464  1.00  0.00     0.074 A 
ATOM     48  C   UNL     1       5.136   7.448 -11.241  1.00  0.00     0.031 C 
ATOM     49  C   UNL     1       6.194  11.505  -5.755  1.00  0.00     0.029 A 
ATOM     50  C   UNL     1       6.928  11.875  -6.962  1.00  0.00     0.049 A 
ATOM     51  H   UNL     1       6.788  10.989  -8.844  1.00  0.00     0.167 HD
ATOM     52  C   UNL     1       6.723   8.750 -12.635  1.00  0.00     0.034 A 
ATOM     53  C   UNL     1       7.828  12.875  -7.056  1.00  0.00     0.034 A 
ATOM     54  C   UNL     1       7.621   9.855 -12.857  1.00  0.00     0.049 A 
ATOM     55  C   UNL     1       8.524  13.110  -8.375  1.00  0.00     0.074 A 
ATOM     56  C   UNL     1       8.268  10.217 -14.025  1.00  0.00     0.029 A 
ATOM     57  N   UNL     1       7.995  10.779 -11.891  1.00  0.00    -0.354 N 
ATOM     58  N   UNL     1       8.408  12.442  -9.499  1.00  0.00    -0.248 NA
ATOM     59  C   UNL     1       9.468  14.235  -8.439  1.00  0.00     0.031 C 
ATOM     60  C   UNL     1       9.072  11.330 -13.754  1.00  0.00     0.029 A 
ATOM     61  C   UNL     1       8.879  11.698 -12.432  1.00  0.00     0.049 A 
ATOM     62  H   UNL     1       7.679  10.780 -10.958  1.00  0.00     0.167 HD
ATOM     63  C   UNL     1       9.229  13.097 -10.414  1.00  0.00     0.074 A 
ATOM     64  C   UNL     1       9.835  14.208  -9.712  1.00  0.00     0.031 C 
ATOM     65  C   UNL     1       9.455  12.811 -11.720  1.00  0.00     0.034 A 
BRANCH  52  66
ATOM     66  C   UNL     1       6.502   7.764 -13.753  1.00  0.00     0.023 A 
ATOM     67  C   UNL     1       5.250   7.615 -14.373  1.00  0.00     0.031 A 
ATOM     68  C   UNL     1       7.560   6.952 -14.198  1.00  0.00     0.131 A 
ATOM     69  C   UNL     1       5.071   6.631 -15.356  1.00  0.00     0.055 A 
ATOM     70  C   UNL     1       7.394   6.027 -15.229  1.00  0.00     0.041 A 
ATOM     71  F   UNL     1       8.773   7.039 -13.629  1.00  0.00    -0.206 F 
ATOM     72  C   UNL     1       6.140   5.853 -15.806  1.00  0.00     0.022 A 
BRANCH  69  73
ATOM     73  S   UNL     1       3.392   6.305 -15.959  1.00  0.00     0.124 S 
ATOM     74  O   UNL     1       2.727   5.850 -14.740  1.00  0.00    -0.237 OA
ATOM     75  O   UNL     1       2.977   7.609 -16.464  1.00  0.00    -0.237 OA
ATOM     76  O   UNL     1       3.588   5.275 -16.977  1.00  0.00    -0.744 OA
ENDBRANCH  69  73
ENDBRANCH  52  66
BRANCH  53  77
ATOM     77  C   UNL     1       8.150  13.728  -5.875  1.00  0.00     0.023 A 
ATOM     78  C   UNL     1       7.861  15.102  -5.881  1.00  0.00     0.031 A 
ATOM     79  C   UNL     1       8.816  13.200  -4.755  1.00  0.00     0.131 A 
ATOM     80  C   UNL     1       8.290  15.913  -4.819  1.00  0.00     0.055 A 
ATOM     81  C   UNL     1       9.191  14.001  -3.675  1.00  0.00     0.041 A 
ATOM     82  F   UNL     1       9.112  11.892  -4.695  1.00  0.00    -0.206 F 
ATOM     83  C   UNL     1       8.944  15.370  -3.711  1.00  0.00     0.022 A 
BRANCH  80  84
ATOM     84  S   UNL     1       8.076  17.709  -4.960  1.00  0.00     0.124 S 
ATOM     85  O   UNL     1       8.753  17.991  -6.220  1.00  0.00    -0.237 OA
ATOM     86  O   UNL     1       6.623  17.839  -4.968  1.00  0.00    -0.237 OA
ATOM     87  O   UNL     1       8.740  18.224  -3.765  1.00  0.00    -0.744 OA
ENDBRANCH  80  84
ENDBRANCH  53  77
BRANCH  65  88
ATOM     88  C   UNL     1      10.331  13.763 -12.492  1.00  0.00     0.023 A 
ATOM     89  C   UNL     1      11.717  13.837 -12.278  1.00  0.00     0.031 A 
ATOM     90  C   UNL     1       9.760  14.599 -13.468  1.00  0.00     0.131 A 
ATOM     91  C   UNL     1      12.484  14.758 -13.008  1.00  0.00     0.055 A 
ATOM     92  C   UNL     1      10.535  15.480 -14.222  1.00  0.00     0.041 A 
ATOM     93  F   UNL     1       8.440  14.564 -13.709  1.00  0.00    -0.206 F 
ATOM     94  C   UNL     1      11.904  15.569 -13.988  1.00  0.00     0.022 A 
BRANCH  91  95
ATOM     95  S   UNL     1      14.250  14.921 -12.625  1.00  0.00     0.124 S 
ATOM     96  O   UNL     1      14.220  15.364 -11.235  1.00  0.00    -0.237 OA
ATOM     97  O   UNL     1      14.746  13.568 -12.852  1.00  0.00    -0.237 OA
ATOM     98  O   UNL     1      14.719  15.919 -13.584  1.00  0.00    -0.744 OA
ENDBRANCH  91  95
ENDBRANCH  65  88
ENDBRANCH  39  40
ENDBRANCH  31  34
ENDBRANCH  29  30
ENDBRANCH   1  29
TORSDOF 16
