REMARK SMILES C[C@H]1CCC[C@@](NC(=O)N2CCO[C@H](C#N)C2)(C(=O)NCCCCNC(=O)c2ccc(-c3c4nc(c(-c5cc(S(=O)(=O)[O-])ccc5F)c5ccc([nH]5)c(-c5cc(S(=O)(=O)[O-])ccc5F)c5nc(c(-c6cc(S(=O)(=O)[O-])ccc6F)c6ccc3[nH]6)C=C5)C=C4)cc2)C1
REMARK SMILES IDX 22 1 21 2 20 3 18 4 19 5 6 7 1 8 2 9 3 10 91 11 4 12 5 13
REMARK SMILES IDX 7 14 8 15 9 17 10 18 11 19 17 20 12 21 14 22 13 23 15 24
REMARK SMILES IDX 16 25 23 26 24 27 25 28 26 29 27 31 28 32 29 33 90 34 30 35
REMARK SMILES IDX 89 36 31 37 32 38 33 39 83 40 34 41 88 42 82 43 84 44 35 45
REMARK SMILES IDX 87 46 81 47 80 48 36 50 68 51 48 52 67 53 49 54 52 55 66 56
REMARK SMILES IDX 85 57 50 58 51 59 65 61 86 62 53 63 37 64 38 65 46 66 39 67
REMARK SMILES IDX 45 68 47 69 44 70 40 71 41 72 42 73 43 74 69 75 70 76 78 77
REMARK SMILES IDX 71 78 77 79 79 80 76 81 72 82 73 83 74 84 75 85 54 86 55 87
REMARK SMILES IDX 63 88 56 89 62 90 64 91 61 92 57 93 58 94 59 95 60 96
REMARK H PARENT 20 6 7 16 25 30 84 49 52 60
REMARK Flexibility Score: inf
ROOT
ATOM      1  C   UNL     1      -5.569  -0.703  -0.227  1.00  0.00     0.023 C 
ENDROOT
BRANCH   1   2
ATOM      2  C   UNL     1      -4.281  -1.287   0.333  1.00  0.00     0.116 C 
BRANCH   2   3
ATOM      3  N   UNL     1      -3.440  -1.786  -0.748  1.00  0.00    -0.354 N 
ATOM      4  C   UNL     1      -2.081  -1.769  -0.897  1.00  0.00     0.245 C 
ATOM      5  O   UNL     1      -1.619  -2.319  -1.901  1.00  0.00    -0.272 OA
ATOM      6  H   UNL     1      -3.931  -2.204  -1.493  1.00  0.00     0.163 HD
BRANCH   4   7
ATOM      7  C   UNL     1      -1.184  -0.997   0.101  1.00  0.00     0.121 C 
ATOM      8  C   UNL     1       2.666  -0.131  -0.070  1.00  0.00     0.008 C 
ATOM      9  C   UNL     1       1.214  -0.006   0.394  1.00  0.00    -0.011 C 
ATOM     10  C   UNL     1       0.696   1.381   0.009  1.00  0.00     0.003 C 
ATOM     11  C   UNL     1       0.336  -1.142  -0.194  1.00  0.00     0.042 C 
ATOM     12  C   UNL     1      -0.735   1.550   0.462  1.00  0.00     0.003 C 
ATOM     13  C   UNL     1      -1.599   0.487  -0.180  1.00  0.00     0.039 C 
BRANCH   7  14
ATOM     14  N   UNL     1      -1.466  -1.413   1.496  1.00  0.00    -0.323 N 
ATOM     15  C   UNL     1      -1.822  -2.566   2.120  1.00  0.00     0.318 C 
ATOM     16  H   UNL     1      -1.370  -0.666   2.130  1.00  0.00     0.166 HD
ATOM     17  O   UNL     1      -1.952  -2.495   3.345  1.00  0.00    -0.249 OA
BRANCH  15  18
ATOM     18  N   UNL     1      -2.242  -3.668   1.423  1.00  0.00    -0.319 N 
ATOM     19  C   UNL     1      -3.313  -4.485   2.020  1.00  0.00     0.150 C 
ATOM     20  C   UNL     1      -1.454  -4.426   0.432  1.00  0.00     0.169 C 
ATOM     21  C   UNL     1      -4.159  -5.150   0.924  1.00  0.00     0.183 C 
ATOM     22  C   UNL     1      -2.368  -5.102  -0.619  1.00  0.00     0.240 C 
ATOM     23  O   UNL     1      -3.341  -5.941   0.051  1.00  0.00    -0.360 OA
BRANCH  22  24
ATOM     24  C   UNL     1      -1.575  -5.887  -1.582  1.00  0.00     0.096 C 
ATOM     25  N   UNL     1      -0.943  -6.476  -2.354  1.00  0.00    -0.195 NA
ENDBRANCH  22  24
ENDBRANCH  15  18
ENDBRANCH   7  14
ENDBRANCH   4   7
ENDBRANCH   2   3
ENDBRANCH   1   2
BRANCH   1  26
ATOM     26  C   UNL     1      -6.529  -1.786  -0.713  1.00  0.00     0.023 C 
BRANCH  26  27
ATOM     27  C   UNL     1      -7.064  -2.674   0.402  1.00  0.00     0.116 C 
BRANCH  27  28
ATOM     28  N   UNL     1      -7.941  -1.967   1.313  1.00  0.00    -0.352 N 
ATOM     29  C   UNL     1      -9.207  -2.323   1.711  1.00  0.00     0.251 C 
ATOM     30  H   UNL     1      -7.587  -1.131   1.693  1.00  0.00     0.163 HD
ATOM     31  O   UNL     1      -9.879  -1.556   2.391  1.00  0.00    -0.269 OA
BRANCH  29  32
ATOM     32  C   UNL     1      -9.754  -3.619   1.260  1.00  0.00     0.039 A 
ATOM     33  C   UNL     1     -10.991  -3.634   0.617  1.00  0.00     0.014 A 
ATOM     34  C   UNL     1      -9.015  -4.797   1.410  1.00  0.00     0.014 A 
ATOM     35  C   UNL     1     -11.469  -4.829   0.077  1.00  0.00     0.010 A 
ATOM     36  C   UNL     1      -9.453  -5.965   0.795  1.00  0.00     0.010 A 
ATOM     37  C   UNL     1     -10.693  -5.997   0.134  1.00  0.00    -0.014 A 
BRANCH  37  38
ATOM     38  C   UNL     1     -11.181  -7.277  -0.443  1.00  0.00     0.031 A 
ATOM     39  C   UNL     1     -11.418  -8.453   0.466  1.00  0.00     0.074 A 
ATOM     40  C   UNL     1     -11.375  -7.400  -1.771  1.00  0.00     0.049 A 
ATOM     41  N   UNL     1     -11.740  -9.683   0.163  1.00  0.00    -0.248 NA
ATOM     42  C   UNL     1     -11.242  -8.214   1.907  1.00  0.00     0.031 C 
ATOM     43  C   UNL     1     -11.180  -6.335  -2.756  1.00  0.00     0.029 A 
ATOM     44  N   UNL     1     -11.773  -8.478  -2.525  1.00  0.00    -0.354 N 
ATOM     45  C   UNL     1     -11.794 -10.368   1.373  1.00  0.00     0.074 A 
ATOM     46  C   UNL     1     -11.403  -9.431   2.403  1.00  0.00     0.031 C 
ATOM     47  C   UNL     1     -11.479  -6.806  -3.978  1.00  0.00     0.029 A 
ATOM     48  C   UNL     1     -11.825  -8.221  -3.876  1.00  0.00     0.049 A 
ATOM     49  H   UNL     1     -11.999  -9.353  -2.135  1.00  0.00     0.167 HD
ATOM     50  C   UNL     1     -12.159 -11.652   1.605  1.00  0.00     0.034 A 
ATOM     51  C   UNL     1     -12.092  -9.038  -4.917  1.00  0.00     0.034 A 
ATOM     52  C   UNL     1     -12.545 -12.573   0.565  1.00  0.00     0.049 A 
ATOM     53  C   UNL     1     -12.418 -10.488  -4.643  1.00  0.00     0.074 A 
ATOM     54  C   UNL     1     -12.957 -13.888   0.692  1.00  0.00     0.029 A 
ATOM     55  N   UNL     1     -12.557 -12.283  -0.794  1.00  0.00    -0.354 N 
ATOM     56  N   UNL     1     -12.479 -11.117  -3.491  1.00  0.00    -0.248 NA
ATOM     57  C   UNL     1     -12.717 -11.336  -5.804  1.00  0.00     0.031 C 
ATOM     58  C   UNL     1     -13.127 -14.419  -0.589  1.00  0.00     0.029 A 
ATOM     59  C   UNL     1     -12.933 -13.406  -1.514  1.00  0.00     0.049 A 
ATOM     60  H   UNL     1     -12.331 -11.409  -1.187  1.00  0.00     0.167 HD
ATOM     61  C   UNL     1     -12.872 -12.420  -3.790  1.00  0.00     0.074 A 
ATOM     62  C   UNL     1     -13.030 -12.487  -5.227  1.00  0.00     0.031 C 
ATOM     63  C   UNL     1     -13.097 -13.461  -2.949  1.00  0.00     0.034 A 
BRANCH  50  64
ATOM     64  C   UNL     1     -12.117 -12.140   3.033  1.00  0.00     0.023 A 
ATOM     65  C   UNL     1     -12.911 -11.558   4.037  1.00  0.00     0.031 A 
ATOM     66  C   UNL     1     -11.250 -13.183   3.404  1.00  0.00     0.131 A 
ATOM     67  C   UNL     1     -12.760 -11.962   5.371  1.00  0.00     0.055 A 
ATOM     68  C   UNL     1     -11.177 -13.648   4.719  1.00  0.00     0.041 A 
ATOM     69  F   UNL     1     -10.447 -13.761   2.497  1.00  0.00    -0.206 F 
ATOM     70  C   UNL     1     -11.922 -13.025   5.715  1.00  0.00     0.022 A 
BRANCH  67  71
ATOM     71  S   UNL     1     -13.543 -10.965   6.668  1.00  0.00     0.124 S 
ATOM     72  O   UNL     1     -12.958  -9.649   6.419  1.00  0.00    -0.237 OA
ATOM     73  O   UNL     1     -14.961 -11.102   6.360  1.00  0.00    -0.237 OA
ATOM     74  O   UNL     1     -13.105 -11.608   7.905  1.00  0.00    -0.744 OA
ENDBRANCH  67  71
ENDBRANCH  50  64
BRANCH  51  75
ATOM     75  C   UNL     1     -12.037  -8.524  -6.318  1.00  0.00     0.023 A 
ATOM     76  C   UNL     1     -13.172  -8.539  -7.144  1.00  0.00     0.031 A 
ATOM     77  C   UNL     1     -10.828  -8.063  -6.872  1.00  0.00     0.131 A 
ATOM     78  C   UNL     1     -13.063  -8.156  -8.490  1.00  0.00     0.055 A 
ATOM     79  C   UNL     1     -10.741  -7.619  -8.192  1.00  0.00     0.041 A 
ATOM     80  F   UNL     1      -9.709  -8.030  -6.130  1.00  0.00    -0.206 F 
ATOM     81  C   UNL     1     -11.861  -7.679  -9.015  1.00  0.00     0.022 A 
BRANCH  78  82
ATOM     82  S   UNL     1     -14.492  -8.402  -9.581  1.00  0.00     0.124 S 
ATOM     83  O   UNL     1     -14.725  -9.835  -9.442  1.00  0.00    -0.237 OA
ATOM     84  O   UNL     1     -15.490  -7.527  -8.975  1.00  0.00    -0.237 OA
ATOM     85  O   UNL     1     -14.000  -7.972 -10.888  1.00  0.00    -0.744 OA
ENDBRANCH  78  82
ENDBRANCH  51  75
BRANCH  63  86
ATOM     86  C   UNL     1     -13.628 -14.745  -3.543  1.00  0.00     0.023 A 
ATOM     87  C   UNL     1     -12.871 -15.544  -4.416  1.00  0.00     0.031 A 
ATOM     88  C   UNL     1     -14.917 -15.189  -3.192  1.00  0.00     0.131 A 
ATOM     89  C   UNL     1     -13.425 -16.724  -4.939  1.00  0.00     0.055 A 
ATOM     90  C   UNL     1     -15.435 -16.397  -3.659  1.00  0.00     0.041 A 
ATOM     91  F   UNL     1     -15.690 -14.462  -2.369  1.00  0.00    -0.206 F 
ATOM     92  C   UNL     1     -14.691 -17.167  -4.546  1.00  0.00     0.022 A 
BRANCH  89  93
ATOM     93  S   UNL     1     -12.505 -17.636  -6.209  1.00  0.00     0.124 S 
ATOM     94  O   UNL     1     -12.348 -16.628  -7.252  1.00  0.00    -0.237 OA
ATOM     95  O   UNL     1     -11.287 -18.016  -5.501  1.00  0.00    -0.237 OA
ATOM     96  O   UNL     1     -13.396 -18.745  -6.548  1.00  0.00    -0.744 OA
ENDBRANCH  89  93
ENDBRANCH  63  86
ENDBRANCH  37  38
ENDBRANCH  29  32
ENDBRANCH  27  28
ENDBRANCH  26  27
ENDBRANCH   1  26
TORSDOF 17
