REMARK SMILES CC[C@@H](NC(=O)N[C@H]1CCCCC[C@@H]1C(=O)NCCCCNC(=O)c1ccc(-c2c3nc(c(-c4cc(S(=O)(=O)[O-])ccc4F)c4ccc([nH]4)c(-c4cc(S(=O)(=O)[O-])ccc4F)c4nc(c(-c5cc(S(=O)(=O)[O-])ccc5F)c5ccc2[nH]5)C=C4)C=C3)cc1)C(C)C
REMARK SMILES IDX 19 1 18 2 17 3 15 4 16 5 14 7 8 8 7 9 4 10 5 11 6 13 3 15
REMARK SMILES IDX 2 16 1 17 88 18 89 19 90 20 9 21 10 22 11 23 13 25 12 26
REMARK SMILES IDX 20 28 21 29 22 30 23 31 24 33 25 34 26 35 87 36 27 37 86 38
REMARK SMILES IDX 28 39 29 40 30 41 80 42 31 43 85 44 79 45 81 46 32 47 84 48
REMARK SMILES IDX 78 49 77 50 33 52 65 53 45 54 64 55 46 56 49 57 63 58 82 59
REMARK SMILES IDX 47 60 48 61 62 63 83 64 50 65 34 66 35 67 43 68 36 69 42 70
REMARK SMILES IDX 44 71 41 72 37 73 38 74 39 75 40 76 66 77 67 78 75 79 68 80
REMARK SMILES IDX 74 81 76 82 73 83 69 84 70 85 71 86 72 87 51 88 52 89 60 90
REMARK SMILES IDX 53 91 59 92 61 93 58 94 54 95 55 96 56 97 57 98
REMARK H PARENT 17 6 4 12 7 14 22 32 81 51 49 62
REMARK Flexibility Score: 100.00
ROOT
ATOM      1  C   UNL     1       3.583  -0.470   2.529  1.00  0.00     0.023 C 
ENDROOT
BRANCH   1   2
ATOM      2  C   UNL     1       3.615  -1.973   2.882  1.00  0.00     0.116 C 
BRANCH   2   3
ATOM      3  N   UNL     1       2.450  -2.794   2.572  1.00  0.00    -0.356 N 
ATOM      4  C   UNL     1       1.820  -2.657   1.369  1.00  0.00     0.225 C 
ATOM      5  O   UNL     1       1.134  -1.639   1.301  1.00  0.00    -0.275 OA
ATOM      6  H   UNL     1       2.117  -3.446   3.231  1.00  0.00     0.163 HD
BRANCH   4   7
ATOM      7  C   UNL     1       1.918  -3.758   0.241  1.00  0.00     0.101 C 
BRANCH   7   8
ATOM      8  C   UNL     1       0.759  -4.842   0.196  1.00  0.00     0.096 C 
BRANCH   8   9
ATOM      9  N   UNL     1      -0.153  -4.879  -1.024  1.00  0.00    -0.335 N 
ATOM     10  N   UNL     1      -1.933  -3.298  -1.174  1.00  0.00    -0.335 N 
ATOM     11  C   UNL     1      -1.292  -4.406  -1.545  1.00  0.00     0.315 C 
ATOM     12  H   UNL     1      -2.819  -3.172  -1.584  1.00  0.00     0.165 HD
ATOM     13  O   UNL     1      -1.782  -5.055  -2.476  1.00  0.00    -0.249 OA
ATOM     14  H   UNL     1       0.251  -5.486  -1.685  1.00  0.00     0.165 HD
BRANCH  10  15
ATOM     15  C   UNL     1      -1.524  -2.240  -0.249  1.00  0.00     0.086 C 
BRANCH  15  16
ATOM     16  C   UNL     1      -0.315  -1.605  -1.005  1.00  0.00     0.022 C 
ATOM     17  C   UNL     1      -0.446  -0.135  -1.382  1.00  0.00     0.006 C 
ENDBRANCH  15  16
BRANCH  15  18
ATOM     18  C   UNL     1      -1.828  -2.893   1.174  1.00  0.00     0.005 C 
ATOM     19  C   UNL     1      -1.062  -2.740   2.486  1.00  0.00     0.009 C 
ATOM     20  C   UNL     1      -3.298  -2.580   1.543  1.00  0.00     0.009 C 
ENDBRANCH  15  18
ENDBRANCH  10  15
ENDBRANCH   8   9
BRANCH   8  21
ATOM     21  C   UNL     1       1.271  -6.310   0.344  1.00  0.00     0.026 C 
BRANCH  21  22
ATOM     22  C   UNL     1       2.048  -6.882  -0.857  1.00  0.00     0.002 C 
BRANCH  22  23
ATOM     23  C   UNL     1       3.524  -6.528  -0.888  1.00  0.00     0.000 CG0
ATOM     24  G   UNL     1       3.793  -5.036  -0.963  1.00  0.00     0.000 G0
ENDBRANCH  22  23
ENDBRANCH  21  22
ENDBRANCH   8  21
ENDBRANCH   7   8
BRANCH   7  25
ATOM     25  C   UNL     1       3.359  -4.293   0.290  1.00  0.00     0.015 C 
BRANCH  25  26
ATOM     26  C   UNL     1       3.793  -5.036  -0.963  1.00  0.00     0.001 CG0
ATOM     27  G   UNL     1       3.524  -6.528  -0.888  1.00  0.00     0.000 G0
ENDBRANCH  25  26
ENDBRANCH   7  25
ENDBRANCH   4   7
ENDBRANCH   2   3
ENDBRANCH   1   2
BRANCH   1  28
ATOM     28  C   UNL     1       2.532   0.470   3.142  1.00  0.00     0.023 C 
BRANCH  28  29
ATOM     29  C   UNL     1       2.148   0.286   4.606  1.00  0.00     0.116 C 
BRANCH  29  30
ATOM     30  N   UNL     1       3.289   0.192   5.496  1.00  0.00    -0.352 N 
ATOM     31  C   UNL     1       3.614   0.883   6.637  1.00  0.00     0.251 C 
ATOM     32  H   UNL     1       3.950  -0.490   5.235  1.00  0.00     0.163 HD
ATOM     33  O   UNL     1       4.701   0.665   7.161  1.00  0.00    -0.269 OA
BRANCH  31  34
ATOM     34  C   UNL     1       2.705   1.899   7.215  1.00  0.00     0.039 A 
ATOM     35  C   UNL     1       3.268   3.090   7.687  1.00  0.00     0.014 A 
ATOM     36  C   UNL     1       1.331   1.685   7.341  1.00  0.00     0.014 A 
ATOM     37  C   UNL     1       2.451   4.087   8.224  1.00  0.00     0.010 A 
ATOM     38  C   UNL     1       0.507   2.707   7.819  1.00  0.00     0.010 A 
ATOM     39  C   UNL     1       1.058   3.920   8.263  1.00  0.00    -0.014 A 
BRANCH  39  40
ATOM     40  C   UNL     1       0.173   5.008   8.759  1.00  0.00     0.031 A 
ATOM     41  C   UNL     1      -0.649   4.811  10.004  1.00  0.00     0.074 A 
ATOM     42  C   UNL     1       0.080   6.159   8.062  1.00  0.00     0.049 A 
ATOM     43  N   UNL     1      -1.517   5.617  10.560  1.00  0.00    -0.248 NA
ATOM     44  C   UNL     1      -0.491   3.527  10.701  1.00  0.00     0.031 C 
ATOM     45  C   UNL     1       0.805   6.454   6.824  1.00  0.00     0.029 A 
ATOM     46  N   UNL     1      -0.664   7.291   8.286  1.00  0.00    -0.354 N 
ATOM     47  C   UNL     1      -2.017   4.936  11.665  1.00  0.00     0.074 A 
ATOM     48  C   UNL     1      -1.397   3.627  11.662  1.00  0.00     0.031 C 
ATOM     49  C   UNL     1       0.491   7.693   6.415  1.00  0.00     0.029 A 
ATOM     50  C   UNL     1      -0.495   8.264   7.327  1.00  0.00     0.049 A 
ATOM     51  H   UNL     1      -1.262   7.397   9.061  1.00  0.00     0.167 HD
ATOM     52  C   UNL     1      -2.894   5.370  12.605  1.00  0.00     0.034 A 
ATOM     53  C   UNL     1      -1.077   9.471   7.189  1.00  0.00     0.034 A 
ATOM     54  C   UNL     1      -3.498   6.681  12.593  1.00  0.00     0.049 A 
ATOM     55  C   UNL     1      -2.079   9.917   8.226  1.00  0.00     0.074 A 
ATOM     56  C   UNL     1      -4.361   7.241  13.519  1.00  0.00     0.029 A 
ATOM     57  N   UNL     1      -3.312   7.635  11.600  1.00  0.00    -0.354 N 
ATOM     58  N   UNL     1      -2.504   9.278   9.292  1.00  0.00    -0.248 NA
ATOM     59  C   UNL     1      -2.669  11.249   8.047  1.00  0.00     0.031 C 
ATOM     60  C   UNL     1      -4.755   8.499  13.048  1.00  0.00     0.029 A 
ATOM     61  C   UNL     1      -4.071   8.764  11.873  1.00  0.00     0.049 A 
ATOM     62  H   UNL     1      -2.726   7.526  10.816  1.00  0.00     0.167 HD
ATOM     63  C   UNL     1      -3.387  10.147   9.927  1.00  0.00     0.074 A 
ATOM     64  C   UNL     1      -3.419  11.358   9.134  1.00  0.00     0.031 C 
ATOM     65  C   UNL     1      -4.103   9.962  11.066  1.00  0.00     0.034 A 
BRANCH  52  66
ATOM     66  C   UNL     1      -3.271   4.404  13.705  1.00  0.00     0.023 A 
ATOM     67  C   UNL     1      -2.317   3.899  14.606  1.00  0.00     0.031 A 
ATOM     68  C   UNL     1      -4.599   3.960  13.841  1.00  0.00     0.131 A 
ATOM     69  C   UNL     1      -2.685   2.925  15.547  1.00  0.00     0.055 A 
ATOM     70  C   UNL     1      -4.976   3.056  14.837  1.00  0.00     0.041 A 
ATOM     71  F   UNL     1      -5.553   4.388  12.999  1.00  0.00    -0.206 F 
ATOM     72  C   UNL     1      -4.014   2.519  15.686  1.00  0.00     0.022 A 
BRANCH  69  73
ATOM     73  S   UNL     1      -1.376   2.084  16.479  1.00  0.00     0.124 S 
ATOM     74  O   UNL     1      -0.569   1.512  15.404  1.00  0.00    -0.237 OA
ATOM     75  O   UNL     1      -0.765   3.179  17.224  1.00  0.00    -0.237 OA
ATOM     76  O   UNL     1      -2.103   1.108  17.288  1.00  0.00    -0.744 OA
ENDBRANCH  69  73
ENDBRANCH  52  66
BRANCH  53  77
ATOM     77  C   UNL     1      -0.747  10.344   6.024  1.00  0.00     0.023 A 
ATOM     78  C   UNL     1      -0.137  11.595   6.205  1.00  0.00     0.031 A 
ATOM     79  C   UNL     1      -1.079   9.957   4.713  1.00  0.00     0.131 A 
ATOM     80  C   UNL     1       0.077  12.436   5.101  1.00  0.00     0.055 A 
ATOM     81  C   UNL     1      -0.810  10.773   3.612  1.00  0.00     0.041 A 
ATOM     82  F   UNL     1      -1.662   8.770   4.481  1.00  0.00    -0.206 F 
ATOM     83  C   UNL     1      -0.241  12.027   3.805  1.00  0.00     0.022 A 
BRANCH  80  84
ATOM     84  S   UNL     1       0.693  14.117   5.397  1.00  0.00     0.124 S 
ATOM     85  O   UNL     1      -0.325  14.652   6.293  1.00  0.00    -0.237 OA
ATOM     86  O   UNL     1       2.000  13.859   5.992  1.00  0.00    -0.237 OA
ATOM     87  O   UNL     1       0.723  14.708   4.061  1.00  0.00    -0.744 OA
ENDBRANCH  80  84
ENDBRANCH  53  77
BRANCH  65  88
ATOM     88  C   UNL     1      -4.944  11.122  11.545  1.00  0.00     0.023 A 
ATOM     89  C   UNL     1      -6.053  11.586  10.816  1.00  0.00     0.031 A 
ATOM     90  C   UNL     1      -4.622  11.778  12.747  1.00  0.00     0.131 A 
ATOM     91  C   UNL     1      -6.765  12.709  11.265  1.00  0.00     0.055 A 
ATOM     92  C   UNL     1      -5.375  12.853  13.223  1.00  0.00     0.041 A 
ATOM     93  F   UNL     1      -3.571  11.381  13.482  1.00  0.00    -0.206 F 
ATOM     94  C   UNL     1      -6.444  13.333  12.473  1.00  0.00     0.022 A 
BRANCH  91  95
ATOM     95  S   UNL     1      -8.056  13.406  10.199  1.00  0.00     0.124 S 
ATOM     96  O   UNL     1      -7.311  13.711   8.981  1.00  0.00    -0.237 OA
ATOM     97  O   UNL     1      -9.010  12.306  10.104  1.00  0.00    -0.237 OA
ATOM     98  O   UNL     1      -8.526  14.571  10.946  1.00  0.00    -0.744 OA
ENDBRANCH  91  95
ENDBRANCH  65  88
ENDBRANCH  39  40
ENDBRANCH  31  34
ENDBRANCH  29  30
ENDBRANCH  28  29
ENDBRANCH   1  28
TORSDOF 18
