REMARK SMILES COc1ccc(OCCNc2c(Cl)cccc2C(=O)NCCCCNC(=O)c2ccc(-c3c4nc(c(-c5cc(S(=O)(=O)[O-])ccc5F)c5ccc([nH]5)c(-c5cc(S(=O)(=O)[O-])ccc5F)c5nc(c(-c6cc(S(=O)(=O)[O-])ccc6F)c6ccc3[nH]6)C=C5)C=C4)cc2)cc1
REMARK SMILES IDX 21 1 20 2 18 3 19 4 17 6 11 7 12 8 13 9 14 10 16 11 15 12
REMARK SMILES IDX 10 13 9 15 8 16 7 17 6 18 3 19 4 20 92 21 5 22 91 23 2 24
REMARK SMILES IDX 1 25 22 26 23 27 24 28 25 29 26 30 27 32 28 33 29 34 90 35
REMARK SMILES IDX 30 36 89 37 31 38 32 39 33 40 83 41 34 42 88 43 82 44 84 45
REMARK SMILES IDX 35 46 87 47 81 48 80 49 36 51 68 52 48 53 67 54 49 55 52 56
REMARK SMILES IDX 66 57 85 58 50 59 51 60 65 62 86 63 53 64 37 65 38 66 46 67
REMARK SMILES IDX 39 68 45 69 47 70 44 71 40 72 41 73 42 74 43 75 69 76 70 77
REMARK SMILES IDX 78 78 71 79 77 80 79 81 76 82 72 83 73 84 74 85 75 86 54 87
REMARK SMILES IDX 55 88 63 89 56 90 62 91 64 92 61 93 57 94 58 95 59 96 60 97
REMARK H PARENT 20 5 10 14 25 31 84 50 52 61
REMARK Flexibility Score: inf
ROOT
ATOM      1  C   UNL     1       2.453   1.192  -5.624  1.00  0.00     0.116 C 
ENDROOT
BRANCH   1   2
ATOM      2  N   UNL     1       3.594   1.788  -6.285  1.00  0.00    -0.352 N 
ATOM      3  C   UNL     1       4.920   1.811  -5.929  1.00  0.00     0.253 C 
ATOM      4  O   UNL     1       5.719   2.340  -6.705  1.00  0.00    -0.269 OA
ATOM      5  H   UNL     1       3.385   2.254  -7.127  1.00  0.00     0.163 HD
BRANCH   3   6
ATOM      6  C   UNL     1       5.441   1.337  -4.618  1.00  0.00     0.064 A 
ATOM      7  C   UNL     1       5.283   0.053  -4.064  1.00  0.00     0.066 A 
ATOM      8  C   UNL     1       5.888  -0.178  -2.796  1.00  0.00     0.065 A 
ATOM      9  Cl  UNL     1       5.722  -1.707  -1.986  1.00  0.00    -0.082 Cl
ATOM     10  C   UNL     1       6.649   0.789  -2.134  1.00  0.00     0.023 A 
ATOM     11  C   UNL     1       6.235   2.299  -3.948  1.00  0.00     0.016 A 
ATOM     12  C   UNL     1       6.827   2.033  -2.714  1.00  0.00     0.003 A 
BRANCH   7  13
ATOM     13  N   UNL     1       4.420  -0.915  -4.544  1.00  0.00    -0.380 N 
ATOM     14  H   UNL     1       3.663  -1.153  -3.962  1.00  0.00     0.160 HD
BRANCH  13  15
ATOM     15  C   UNL     1       4.507  -1.622  -5.811  1.00  0.00     0.154 C 
BRANCH  15  16
ATOM     16  C   UNL     1       3.538  -2.838  -5.827  1.00  0.00     0.250 C 
BRANCH  16  17
ATOM     17  O   UNL     1       2.149  -2.503  -5.633  1.00  0.00    -0.492 OA
BRANCH  17  18
ATOM     18  C   UNL     1       1.632  -2.428  -4.365  1.00  0.00     0.119 A 
ATOM     19  C   UNL     1       0.513  -1.732  -1.891  1.00  0.00     0.119 A 
ATOM     20  C   UNL     1      -0.264  -1.675  -3.043  1.00  0.00     0.050 A 
ATOM     21  C   UNL     1       1.800  -2.256  -1.952  1.00  0.00     0.050 A 
ATOM     22  C   UNL     1       0.299  -2.013  -4.278  1.00  0.00     0.050 A 
ATOM     23  C   UNL     1       2.343  -2.633  -3.184  1.00  0.00     0.050 A 
BRANCH  19  24
ATOM     24  O   UNL     1      -0.048  -1.331  -0.710  1.00  0.00    -0.497 OA
ATOM     25  C   UNL     1       0.666  -0.236  -0.132  1.00  0.00     0.278 C 
ENDBRANCH  19  24
ENDBRANCH  17  18
ENDBRANCH  16  17
ENDBRANCH  15  16
ENDBRANCH  13  15
ENDBRANCH   7  13
ENDBRANCH   3   6
ENDBRANCH   1   2
BRANCH   1  26
ATOM     26  C   UNL     1       1.096   1.597  -6.194  1.00  0.00     0.023 C 
BRANCH  26  27
ATOM     27  C   UNL     1       0.900   1.394  -7.704  1.00  0.00     0.023 C 
BRANCH  27  28
ATOM     28  C   UNL     1       1.392   0.081  -8.315  1.00  0.00     0.116 C 
BRANCH  28  29
ATOM     29  N   UNL     1       0.650  -1.094  -7.886  1.00  0.00    -0.352 N 
ATOM     30  C   UNL     1      -0.312  -1.839  -8.532  1.00  0.00     0.251 C 
ATOM     31  H   UNL     1       0.874  -1.411  -6.981  1.00  0.00     0.163 HD
ATOM     32  O   UNL     1      -0.921  -2.712  -7.917  1.00  0.00    -0.269 OA
BRANCH  30  33
ATOM     33  C   UNL     1      -0.639  -1.576  -9.952  1.00  0.00     0.039 A 
ATOM     34  C   UNL     1      -1.979  -1.465 -10.335  1.00  0.00     0.014 A 
ATOM     35  C   UNL     1       0.369  -1.434 -10.908  1.00  0.00     0.014 A 
ATOM     36  C   UNL     1      -2.298  -1.077 -11.641  1.00  0.00     0.010 A 
ATOM     37  C   UNL     1       0.054  -0.976 -12.186  1.00  0.00     0.010 A 
ATOM     38  C   UNL     1      -1.282  -0.756 -12.556  1.00  0.00    -0.014 A 
BRANCH  38  39
ATOM     39  C   UNL     1      -1.581  -0.121 -13.870  1.00  0.00     0.031 A 
ATOM     40  C   UNL     1      -1.204  -0.806 -15.155  1.00  0.00     0.074 A 
ATOM     41  C   UNL     1      -2.106   1.122 -13.900  1.00  0.00     0.049 A 
ATOM     42  N   UNL     1      -1.240  -0.346 -16.379  1.00  0.00    -0.248 NA
ATOM     43  C   UNL     1      -0.703  -2.184 -15.043  1.00  0.00     0.031 C 
ATOM     44  C   UNL     1      -2.498   1.904 -12.724  1.00  0.00     0.029 A 
ATOM     45  N   UNL     1      -2.385   1.958 -14.955  1.00  0.00    -0.354 N 
ATOM     46  C   UNL     1      -0.770  -1.376 -17.187  1.00  0.00     0.074 A 
ATOM     47  C   UNL     1      -0.399  -2.462 -16.303  1.00  0.00     0.031 C 
ATOM     48  C   UNL     1      -2.979   3.092 -13.123  1.00  0.00     0.029 A 
ATOM     49  C   UNL     1      -2.872   3.189 -14.574  1.00  0.00     0.049 A 
ATOM     50  H   UNL     1      -2.249   1.701 -15.895  1.00  0.00     0.167 HD
ATOM     51  C   UNL     1      -0.679  -1.421 -18.540  1.00  0.00     0.034 A 
ATOM     52  C   UNL     1      -3.170   4.283 -15.304  1.00  0.00     0.034 A 
ATOM     53  C   UNL     1      -1.046  -0.330 -19.411  1.00  0.00     0.049 A 
ATOM     54  C   UNL     1      -2.970   4.238 -16.801  1.00  0.00     0.074 A 
ATOM     55  C   UNL     1      -1.007  -0.281 -20.795  1.00  0.00     0.029 A 
ATOM     56  N   UNL     1      -1.514   0.906 -18.986  1.00  0.00    -0.354 N 
ATOM     57  N   UNL     1      -2.548   3.244 -17.548  1.00  0.00    -0.248 NA
ATOM     58  C   UNL     1      -3.288   5.460 -17.551  1.00  0.00     0.031 C 
ATOM     59  C   UNL     1      -1.389   1.001 -21.202  1.00  0.00     0.029 A 
ATOM     60  C   UNL     1      -1.738   1.731 -20.078  1.00  0.00     0.049 A 
ATOM     61  H   UNL     1      -1.664   1.160 -18.047  1.00  0.00     0.167 HD
ATOM     62  C   UNL     1      -2.587   3.714 -18.858  1.00  0.00     0.074 A 
ATOM     63  C   UNL     1      -3.089   5.070 -18.801  1.00  0.00     0.031 C 
ATOM     64  C   UNL     1      -2.240   3.082 -20.008  1.00  0.00     0.034 A 
BRANCH  51  65
ATOM     65  C   UNL     1      -0.151  -2.691 -19.159  1.00  0.00     0.023 A 
ATOM     66  C   UNL     1      -0.850  -3.905 -19.042  1.00  0.00     0.031 A 
ATOM     67  C   UNL     1       1.059  -2.694 -19.875  1.00  0.00     0.131 A 
ATOM     68  C   UNL     1      -0.304  -5.082 -19.576  1.00  0.00     0.055 A 
ATOM     69  C   UNL     1       1.558  -3.854 -20.471  1.00  0.00     0.041 A 
ATOM     70  F   UNL     1       1.779  -1.569 -20.005  1.00  0.00    -0.206 F 
ATOM     71  C   UNL     1       0.882  -5.060 -20.313  1.00  0.00     0.022 A 
BRANCH  68  72
ATOM     72  S   UNL     1      -1.107  -6.660 -19.186  1.00  0.00     0.124 S 
ATOM     73  O   UNL     1      -1.015  -6.685 -17.728  1.00  0.00    -0.237 OA
ATOM     74  O   UNL     1      -2.444  -6.481 -19.739  1.00  0.00    -0.237 OA
ATOM     75  O   UNL     1      -0.274  -7.646 -19.873  1.00  0.00    -0.744 OA
ENDBRANCH  68  72
ENDBRANCH  51  65
BRANCH  52  76
ATOM     76  C   UNL     1      -3.652   5.536 -14.651  1.00  0.00     0.023 A 
ATOM     77  C   UNL     1      -4.907   6.077 -14.974  1.00  0.00     0.031 A 
ATOM     78  C   UNL     1      -2.834   6.261 -13.765  1.00  0.00     0.131 A 
ATOM     79  C   UNL     1      -5.278   7.336 -14.478  1.00  0.00     0.055 A 
ATOM     80  C   UNL     1      -3.238   7.481 -13.218  1.00  0.00     0.041 A 
ATOM     81  F   UNL     1      -1.623   5.795 -13.421  1.00  0.00    -0.206 F 
ATOM     82  C   UNL     1      -4.458   8.035 -13.590  1.00  0.00     0.022 A 
BRANCH  79  83
ATOM     83  S   UNL     1      -6.788   8.108 -15.122  1.00  0.00     0.124 S 
ATOM     84  O   UNL     1      -6.537   8.095 -16.558  1.00  0.00    -0.237 OA
ATOM     85  O   UNL     1      -7.821   7.197 -14.641  1.00  0.00    -0.237 OA
ATOM     86  O   UNL     1      -6.785   9.430 -14.499  1.00  0.00    -0.744 OA
ENDBRANCH  79  83
ENDBRANCH  52  76
BRANCH  64  87
ATOM     87  C   UNL     1      -2.443   3.839 -21.297  1.00  0.00     0.023 A 
ATOM     88  C   UNL     1      -1.679   4.975 -21.618  1.00  0.00     0.031 A 
ATOM     89  C   UNL     1      -3.420   3.417 -22.218  1.00  0.00     0.131 A 
ATOM     90  C   UNL     1      -1.937   5.678 -22.804  1.00  0.00     0.055 A 
ATOM     91  C   UNL     1      -3.631   4.086 -23.423  1.00  0.00     0.041 A 
ATOM     92  F   UNL     1      -4.180   2.340 -21.962  1.00  0.00    -0.206 F 
ATOM     93  C   UNL     1      -2.895   5.231 -23.717  1.00  0.00     0.022 A 
BRANCH  90  94
ATOM     94  S   UNL     1      -1.050   7.232 -23.107  1.00  0.00     0.124 S 
ATOM     95  O   UNL     1      -1.469   8.046 -21.971  1.00  0.00    -0.237 OA
ATOM     96  O   UNL     1       0.344   6.803 -23.103  1.00  0.00    -0.237 OA
ATOM     97  O   UNL     1      -1.558   7.669 -24.406  1.00  0.00    -0.744 OA
ENDBRANCH  90  94
ENDBRANCH  64  87
ENDBRANCH  38  39
ENDBRANCH  30  33
ENDBRANCH  28  29
ENDBRANCH  27  28
ENDBRANCH  26  27
ENDBRANCH   1  26
TORSDOF 20
