REMARK SMILES Cc1onc(-c2ccccc2)c1C(=O)N1CCC[C@@H]1C(=O)NCCCCNC(=O)c1ccc(-c2c3nc(c(-c4cc(S(=O)(=O)[O-])ccc4F)c4ccc([nH]4)c(-c4cc(S(=O)(=O)[O-])ccc4F)c4nc(c(-c5cc(S(=O)(=O)[O-])ccc5F)c5ccc2[nH]5)C=C4)C=C3)cc1
REMARK SMILES IDX 24 1 23 2 22 3 20 4 21 5 19 7 15 8 16 9 17 10 18 11 13 12
REMARK SMILES IDX 14 13 12 14 1 15 2 16 3 17 4 18 5 19 6 20 7 21 11 22 8 23
REMARK SMILES IDX 10 24 9 25 25 26 26 27 27 28 28 29 29 31 30 32 31 33 92 34
REMARK SMILES IDX 32 35 91 36 33 37 34 38 35 39 85 40 36 41 90 42 84 43 86 44
REMARK SMILES IDX 37 45 89 46 83 47 82 48 38 50 70 51 50 52 69 53 51 54 54 55
REMARK SMILES IDX 68 56 87 57 52 58 53 59 67 61 88 62 55 63 39 64 40 65 48 66
REMARK SMILES IDX 41 67 47 68 49 69 46 70 42 71 43 72 44 73 45 74 71 75 72 76
REMARK SMILES IDX 80 77 73 78 79 79 81 80 78 81 74 82 75 83 76 84 77 85 56 86
REMARK SMILES IDX 57 87 65 88 58 89 64 90 66 91 63 92 59 93 60 94 61 95 62 96
REMARK H PARENT 22 6 27 30 86 49 54 60
REMARK Flexibility Score: inf
ROOT
ATOM      1  C   UNL     1       4.397  -0.704  -2.965  1.00  0.00     0.023 C 
ENDROOT
BRANCH   1   2
ATOM      2  C   UNL     1       3.090  -1.214  -2.369  1.00  0.00     0.116 C 
BRANCH   2   3
ATOM      3  N   UNL     1       2.630  -2.426  -3.003  1.00  0.00    -0.354 N 
ATOM      4  C   UNL     1       2.296  -3.625  -2.445  1.00  0.00     0.242 C 
ATOM      5  O   UNL     1       2.130  -4.575  -3.218  1.00  0.00    -0.273 OA
ATOM      6  H   UNL     1       2.543  -2.380  -3.983  1.00  0.00     0.163 HD
BRANCH   4   7
ATOM      7  C   UNL     1       2.326  -3.866  -0.918  1.00  0.00     0.174 C 
ATOM      8  N   UNL     1       1.801  -2.804  -0.054  1.00  0.00    -0.326 N 
ATOM      9  C   UNL     1       2.538  -2.804   1.195  1.00  0.00     0.121 C 
ATOM     10  C   UNL     1       3.951  -3.160   0.770  1.00  0.00     0.024 C 
ATOM     11  C   UNL     1       3.759  -4.110  -0.415  1.00  0.00     0.037 C 
BRANCH   8  12
ATOM     12  C   UNL     1       0.459  -2.474  -0.158  1.00  0.00     0.260 C 
ATOM     13  O   UNL     1      -0.315  -3.255  -0.724  1.00  0.00    -0.269 OA
BRANCH  12  14
ATOM     14  C   UNL     1      -0.012  -1.181   0.317  1.00  0.00     0.110 A 
ATOM     15  C   UNL     1       2.046   0.525   0.490  1.00  0.00     0.092 C 
ATOM     16  C   UNL     1       0.665   0.008   0.554  1.00  0.00     0.147 A 
ATOM     17  O   UNL     1      -0.231   0.977   0.882  1.00  0.00    -0.360 OA
ATOM     18  N   UNL     1      -1.503   0.479   0.848  1.00  0.00    -0.079 NA
ATOM     19  C   UNL     1      -1.391  -0.807   0.497  1.00  0.00     0.126 A 
BRANCH  19  20
ATOM     20  C   UNL     1      -2.597  -1.610   0.349  1.00  0.00     0.004 A 
ATOM     21  C   UNL     1      -3.490  -1.352  -0.699  1.00  0.00     0.010 A 
ATOM     22  C   UNL     1      -2.899  -2.608   1.283  1.00  0.00     0.010 A 
ATOM     23  C   UNL     1      -4.671  -2.088  -0.814  1.00  0.00     0.001 A 
ATOM     24  C   UNL     1      -4.084  -3.338   1.170  1.00  0.00     0.001 A 
ATOM     25  C   UNL     1      -4.968  -3.078   0.123  1.00  0.00     0.000 A 
ENDBRANCH  19  20
ENDBRANCH  12  14
ENDBRANCH   8  12
ENDBRANCH   4   7
ENDBRANCH   2   3
ENDBRANCH   1   2
BRANCH   1  26
ATOM     26  C   UNL     1       4.260   0.009  -4.309  1.00  0.00     0.023 C 
BRANCH  26  27
ATOM     27  C   UNL     1       3.329   1.220  -4.323  1.00  0.00     0.116 C 
BRANCH  27  28
ATOM     28  N   UNL     1       3.654   2.219  -3.314  1.00  0.00    -0.352 N 
ATOM     29  C   UNL     1       3.622   3.590  -3.422  1.00  0.00     0.251 C 
ATOM     30  H   UNL     1       3.933   1.866  -2.438  1.00  0.00     0.163 HD
ATOM     31  O   UNL     1       4.005   4.288  -2.486  1.00  0.00    -0.269 OA
BRANCH  29  32
ATOM     32  C   UNL     1       3.175   4.203  -4.689  1.00  0.00     0.039 A 
ATOM     33  C   UNL     1       4.019   5.114  -5.331  1.00  0.00     0.014 A 
ATOM     34  C   UNL     1       1.968   3.817  -5.277  1.00  0.00     0.014 A 
ATOM     35  C   UNL     1       3.700   5.560  -6.615  1.00  0.00     0.010 A 
ATOM     36  C   UNL     1       1.679   4.221  -6.577  1.00  0.00     0.010 A 
ATOM     37  C   UNL     1       2.555   5.075  -7.267  1.00  0.00    -0.014 A 
BRANCH  37  38
ATOM     38  C   UNL     1       2.272   5.403  -8.686  1.00  0.00     0.031 A 
ATOM     39  C   UNL     1       1.062   6.215  -9.045  1.00  0.00     0.074 A 
ATOM     40  C   UNL     1       3.048   4.876  -9.654  1.00  0.00     0.049 A 
ATOM     41  N   UNL     1       0.560   6.477 -10.224  1.00  0.00    -0.248 NA
ATOM     42  C   UNL     1       0.300   6.779  -7.922  1.00  0.00     0.031 C 
ATOM     43  C   UNL     1       4.226   4.033  -9.431  1.00  0.00     0.029 A 
ATOM     44  N   UNL     1       2.947   4.949 -11.020  1.00  0.00    -0.354 N 
ATOM     45  C   UNL     1      -0.592   7.218  -9.987  1.00  0.00     0.074 A 
ATOM     46  C   UNL     1      -0.730   7.327  -8.549  1.00  0.00     0.031 C 
ATOM     47  C   UNL     1       4.739   3.673 -10.619  1.00  0.00     0.029 A 
ATOM     48  C   UNL     1       3.908   4.223 -11.684  1.00  0.00     0.049 A 
ATOM     49  H   UNL     1       2.253   5.472 -11.482  1.00  0.00     0.167 HD
ATOM     50  C   UNL     1      -1.447   7.765 -10.887  1.00  0.00     0.034 A 
ATOM     51  C   UNL     1       4.086   4.006 -13.001  1.00  0.00     0.034 A 
ATOM     52  C   UNL     1      -1.288   7.663 -12.316  1.00  0.00     0.049 A 
ATOM     53  C   UNL     1       3.126   4.623 -13.981  1.00  0.00     0.074 A 
ATOM     54  C   UNL     1      -2.061   8.228 -13.316  1.00  0.00     0.029 A 
ATOM     55  N   UNL     1      -0.287   6.940 -12.952  1.00  0.00    -0.354 N 
ATOM     56  N   UNL     1       2.056   5.345 -13.743  1.00  0.00    -0.248 NA
ATOM     57  C   UNL     1       3.400   4.397 -15.406  1.00  0.00     0.031 C 
ATOM     58  C   UNL     1      -1.552   7.814 -14.554  1.00  0.00     0.029 A 
ATOM     59  C   UNL     1      -0.434   7.029 -14.328  1.00  0.00     0.049 A 
ATOM     60  H   UNL     1       0.424   6.437 -12.492  1.00  0.00     0.167 HD
ATOM     61  C   UNL     1       1.539   5.675 -14.991  1.00  0.00     0.074 A 
ATOM     62  C   UNL     1       2.417   5.078 -15.977  1.00  0.00     0.031 C 
ATOM     63  C   UNL     1       0.442   6.412 -15.294  1.00  0.00     0.034 A 
BRANCH  50  64
ATOM     64  C   UNL     1      -2.644   8.494 -10.332  1.00  0.00     0.023 A 
ATOM     65  C   UNL     1      -2.501   9.674  -9.581  1.00  0.00     0.031 A 
ATOM     66  C   UNL     1      -3.938   7.975 -10.509  1.00  0.00     0.131 A 
ATOM     67  C   UNL     1      -3.622  10.249  -8.965  1.00  0.00     0.055 A 
ATOM     68  C   UNL     1      -5.060   8.595  -9.955  1.00  0.00     0.041 A 
ATOM     69  F   UNL     1      -4.131   6.842 -11.202  1.00  0.00    -0.206 F 
ATOM     70  C   UNL     1      -4.904   9.730  -9.164  1.00  0.00     0.022 A 
BRANCH  67  71
ATOM     71  S   UNL     1      -3.360  11.600  -7.784  1.00  0.00     0.124 S 
ATOM     72  O   UNL     1      -2.507  10.957  -6.786  1.00  0.00    -0.237 OA
ATOM     73  O   UNL     1      -2.721  12.620  -8.607  1.00  0.00    -0.237 OA
ATOM     74  O   UNL     1      -4.710  11.922  -7.326  1.00  0.00    -0.744 OA
ENDBRANCH  67  71
ENDBRANCH  50  64
BRANCH  51  75
ATOM     75  C   UNL     1       5.203   3.147 -13.474  1.00  0.00     0.023 A 
ATOM     76  C   UNL     1       6.309   3.705 -14.132  1.00  0.00     0.031 A 
ATOM     77  C   UNL     1       5.168   1.754 -13.293  1.00  0.00     0.131 A 
ATOM     78  C   UNL     1       7.326   2.868 -14.616  1.00  0.00     0.055 A 
ATOM     79  C   UNL     1       6.196   0.929 -13.748  1.00  0.00     0.041 A 
ATOM     80  F   UNL     1       4.135   1.180 -12.657  1.00  0.00    -0.206 F 
ATOM     81  C   UNL     1       7.280   1.484 -14.422  1.00  0.00     0.022 A 
BRANCH  78  82
ATOM     82  S   UNL     1       8.694   3.611 -15.545  1.00  0.00     0.124 S 
ATOM     83  O   UNL     1       7.993   4.236 -16.661  1.00  0.00    -0.237 OA
ATOM     84  O   UNL     1       9.270   4.520 -14.559  1.00  0.00    -0.237 OA
ATOM     85  O   UNL     1       9.530   2.466 -15.895  1.00  0.00    -0.744 OA
ENDBRANCH  78  82
ENDBRANCH  51  75
BRANCH  63  86
ATOM     86  C   UNL     1       0.165   6.638 -16.755  1.00  0.00     0.023 A 
ATOM     87  C   UNL     1      -0.332   5.611 -17.576  1.00  0.00     0.031 A 
ATOM     88  C   UNL     1       0.424   7.891 -17.334  1.00  0.00     0.131 A 
ATOM     89  C   UNL     1      -0.517   5.846 -18.947  1.00  0.00     0.055 A 
ATOM     90  C   UNL     1       0.200   8.130 -18.690  1.00  0.00     0.041 A 
ATOM     91  F   UNL     1       0.902   8.901 -16.590  1.00  0.00    -0.206 F 
ATOM     92  C   UNL     1      -0.264   7.102 -19.506  1.00  0.00     0.022 A 
BRANCH  89  93
ATOM     93  S   UNL     1      -1.041   4.469 -20.005  1.00  0.00     0.124 S 
ATOM     94  O   UNL     1       0.072   3.536 -19.862  1.00  0.00    -0.237 OA
ATOM     95  O   UNL     1      -2.299   4.061 -19.390  1.00  0.00    -0.237 OA
ATOM     96  O   UNL     1      -1.169   5.082 -21.326  1.00  0.00    -0.744 OA
ENDBRANCH  89  93
ENDBRANCH  63  86
ENDBRANCH  37  38
ENDBRANCH  29  32
ENDBRANCH  27  28
ENDBRANCH  26  27
ENDBRANCH   1  26
TORSDOF 17
