REMARK SMILES CC[N@@H+]1CCO[C@H](c2nc(C)c(C(=O)NCCCCNC(=O)c3ccc(-c4c5nc(c(-c6cc(S(=O)(=O)[O-])ccc6F)c6ccc([nH]6)c(-c6cc(S(=O)(=O)[O-])ccc6F)c6nc(c(-c7cc(S(=O)(=O)[O-])ccc7F)c7ccc4[nH]7)C=C6)C=C5)cc3)s2)C1
REMARK SMILES IDX 18 1 17 2 16 3 15 4 13 5 14 6 12 8 8 9 9 10 86 11 10 12
REMARK SMILES IDX 11 13 7 14 3 15 4 16 87 17 5 19 6 20 2 21 1 22 19 23 20 24
REMARK SMILES IDX 21 25 22 27 23 28 24 29 85 30 25 31 84 32 26 33 27 34 28 35
REMARK SMILES IDX 78 36 29 37 83 38 77 39 79 40 30 41 82 42 76 43 75 44 31 46
REMARK SMILES IDX 63 47 43 48 62 49 44 50 47 51 61 52 80 53 45 54 46 55 60 57
REMARK SMILES IDX 81 58 48 59 32 60 33 61 41 62 34 63 40 64 42 65 39 66 35 67
REMARK SMILES IDX 36 68 37 69 38 70 64 71 65 72 73 73 66 74 72 75 74 76 71 77
REMARK SMILES IDX 67 78 68 79 69 80 70 81 49 82 50 83 58 84 51 85 57 86 59 87
REMARK SMILES IDX 56 88 52 89 53 90 54 91 55 92
REMARK H PARENT 15 7 3 18 20 26 79 45 47 56
REMARK Flexibility Score: inf
ROOT
ATOM      1  C   UNL     1      -2.753  -0.225  -7.693  1.00  0.00     0.023 C 
ENDROOT
BRANCH   1   2
ATOM      2  C   UNL     1      -1.869  -1.152  -6.859  1.00  0.00     0.023 C 
BRANCH   2   3
ATOM      3  C   UNL     1      -0.848  -0.417  -5.993  1.00  0.00     0.116 C 
BRANCH   3   4
ATOM      4  N   UNL     1      -1.425  -0.112  -4.712  1.00  0.00    -0.351 N 
ATOM      5  C   UNL     1      -1.630  -0.855  -3.582  1.00  0.00     0.263 C 
ATOM      6  O   UNL     1      -2.337  -0.267  -2.752  1.00  0.00    -0.268 OA
ATOM      7  H   UNL     1      -1.733   0.820  -4.631  1.00  0.00     0.163 HD
BRANCH   5   8
ATOM      8  C   UNL     1      -1.021  -2.151  -3.299  1.00  0.00     0.115 A 
ATOM      9  C   UNL     1       0.015  -3.724  -1.753  1.00  0.00     0.128 A 
ATOM     10  N   UNL     1       0.422  -3.963  -2.980  1.00  0.00    -0.243 NA
ATOM     11  S   UNL     1      -1.419  -2.796  -1.716  1.00  0.00    -0.110 S 
ATOM     12  C   UNL     1      -0.217  -3.123  -3.893  1.00  0.00     0.062 A 
ATOM     13  C   UNL     1       0.163  -3.402  -5.300  1.00  0.00     0.068 C 
BRANCH   9  14
ATOM     14  C   UNL     1       0.670  -4.250  -0.496  1.00  0.00     0.232 C 
ATOM     15  N   UNL     1       1.364  -2.152   0.890  1.00  0.00    -0.331 N 
ATOM     16  C   UNL     1       2.743  -2.502   0.496  1.00  0.00     0.291 C 
ATOM     17  C   UNL     1       0.522  -3.374   0.781  1.00  0.00     0.302 C 
ATOM     18  H   UNL     1       1.370  -1.825   1.856  1.00  0.00     0.348 HD
ATOM     19  C   UNL     1       2.841  -3.296  -0.817  1.00  0.00     0.222 C 
ATOM     20  O   UNL     1       2.073  -4.505  -0.757  1.00  0.00    -0.359 OA
BRANCH  15  21
ATOM     21  C   UNL     1       0.814  -1.020   0.129  1.00  0.00     0.258 C 
ATOM     22  C   UNL     1       1.404   0.323   0.542  1.00  0.00     0.071 C 
ENDBRANCH  15  21
ENDBRANCH   9  14
ENDBRANCH   5   8
ENDBRANCH   3   4
ENDBRANCH   2   3
ENDBRANCH   1   2
BRANCH   1  23
ATOM     23  C   UNL     1      -2.009   0.518  -8.798  1.00  0.00     0.116 C 
BRANCH  23  24
ATOM     24  N   UNL     1      -1.287  -0.366  -9.702  1.00  0.00    -0.352 N 
ATOM     25  C   UNL     1      -0.997  -0.180 -11.034  1.00  0.00     0.251 C 
ATOM     26  H   UNL     1      -0.964  -1.208  -9.307  1.00  0.00     0.163 HD
ATOM     27  O   UNL     1      -0.457  -1.063 -11.675  1.00  0.00    -0.269 OA
BRANCH  25  28
ATOM     28  C   UNL     1      -1.406   1.087 -11.673  1.00  0.00     0.039 A 
ATOM     29  C   UNL     1      -2.171   1.030 -12.838  1.00  0.00     0.014 A 
ATOM     30  C   UNL     1      -1.095   2.313 -11.080  1.00  0.00     0.014 A 
ATOM     31  C   UNL     1      -2.693   2.209 -13.371  1.00  0.00     0.010 A 
ATOM     32  C   UNL     1      -1.674   3.476 -11.571  1.00  0.00     0.010 A 
ATOM     33  C   UNL     1      -2.483   3.434 -12.717  1.00  0.00    -0.014 A 
BRANCH  33  34
ATOM     34  C   UNL     1      -3.103   4.686 -13.214  1.00  0.00     0.031 A 
ATOM     35  C   UNL     1      -2.231   5.804 -13.710  1.00  0.00     0.074 A 
ATOM     36  C   UNL     1      -4.440   4.839 -13.143  1.00  0.00     0.049 A 
ATOM     37  N   UNL     1      -2.566   7.007 -14.096  1.00  0.00    -0.248 NA
ATOM     38  C   UNL     1      -0.784   5.543 -13.740  1.00  0.00     0.031 C 
ATOM     39  C   UNL     1      -5.381   3.840 -12.630  1.00  0.00     0.029 A 
ATOM     40  N   UNL     1      -5.239   5.898 -13.492  1.00  0.00    -0.354 N 
ATOM     41  C   UNL     1      -1.373   7.653 -14.398  1.00  0.00     0.074 A 
ATOM     42  C   UNL     1      -0.304   6.726 -14.089  1.00  0.00     0.031 C 
ATOM     43  C   UNL     1      -6.630   4.326 -12.717  1.00  0.00     0.029 A 
ATOM     44  C   UNL     1      -6.577   5.682 -13.253  1.00  0.00     0.049 A 
ATOM     45  H   UNL     1      -4.889   6.733 -13.876  1.00  0.00     0.167 HD
ATOM     46  C   UNL     1      -1.188   8.895 -14.909  1.00  0.00     0.034 A 
ATOM     47  C   UNL     1      -7.638   6.492 -13.438  1.00  0.00     0.034 A 
ATOM     48  C   UNL     1      -2.268   9.796 -15.229  1.00  0.00     0.049 A 
ATOM     49  C   UNL     1      -7.409   7.867 -14.010  1.00  0.00     0.074 A 
ATOM     50  C   UNL     1      -2.203  11.053 -15.805  1.00  0.00     0.029 A 
ATOM     51  N   UNL     1      -3.613   9.535 -14.997  1.00  0.00    -0.354 N 
ATOM     52  N   UNL     1      -6.277   8.446 -14.340  1.00  0.00    -0.248 NA
ATOM     53  C   UNL     1      -8.600   8.692 -14.247  1.00  0.00     0.031 C 
ATOM     54  C   UNL     1      -3.500  11.573 -15.870  1.00  0.00     0.029 A 
ATOM     55  C   UNL     1      -4.384  10.616 -15.396  1.00  0.00     0.049 A 
ATOM     56  H   UNL     1      -3.967   8.704 -14.606  1.00  0.00     0.167 HD
ATOM     57  C   UNL     1      -6.625   9.693 -14.850  1.00  0.00     0.074 A 
ATOM     58  C   UNL     1      -8.070   9.775 -14.795  1.00  0.00     0.031 C 
ATOM     59  C   UNL     1      -5.824  10.681 -15.323  1.00  0.00     0.034 A 
BRANCH  46  60
ATOM     60  C   UNL     1       0.236   9.347 -15.127  1.00  0.00     0.023 A 
ATOM     61  C   UNL     1       1.087   8.686 -16.032  1.00  0.00     0.031 A 
ATOM     62  C   UNL     1       0.764  10.422 -14.393  1.00  0.00     0.131 A 
ATOM     63  C   UNL     1       2.438   9.051 -16.116  1.00  0.00     0.055 A 
ATOM     64  C   UNL     1       2.090  10.835 -14.544  1.00  0.00     0.041 A 
ATOM     65  F   UNL     1       0.007  11.078 -13.500  1.00  0.00    -0.206 F 
ATOM     66  C   UNL     1       2.940  10.138 -15.397  1.00  0.00     0.022 A 
BRANCH  63  67
ATOM     67  S   UNL     1       3.562   7.990 -17.064  1.00  0.00     0.124 S 
ATOM     68  O   UNL     1       3.427   6.716 -16.361  1.00  0.00    -0.237 OA
ATOM     69  O   UNL     1       2.991   8.044 -18.405  1.00  0.00    -0.237 OA
ATOM     70  O   UNL     1       4.861   8.643 -16.912  1.00  0.00    -0.744 OA
ENDBRANCH  63  67
ENDBRANCH  46  60
BRANCH  47  71
ATOM     71  C   UNL     1      -9.009   6.034 -13.080  1.00  0.00     0.023 A 
ATOM     72  C   UNL     1      -9.985   5.836 -14.070  1.00  0.00     0.031 A 
ATOM     73  C   UNL     1      -9.376   5.824 -11.739  1.00  0.00     0.131 A 
ATOM     74  C   UNL     1     -11.293   5.485 -13.702  1.00  0.00     0.055 A 
ATOM     75  C   UNL     1     -10.667   5.430 -11.382  1.00  0.00     0.041 A 
ATOM     76  F   UNL     1      -8.478   5.990 -10.755  1.00  0.00    -0.206 F 
ATOM     77  C   UNL     1     -11.638   5.271 -12.366  1.00  0.00     0.022 A 
BRANCH  74  78
ATOM     78  S   UNL     1     -12.560   5.387 -14.996  1.00  0.00     0.124 S 
ATOM     79  O   UNL     1     -12.507   6.728 -15.566  1.00  0.00    -0.237 OA
ATOM     80  O   UNL     1     -12.050   4.311 -15.838  1.00  0.00    -0.237 OA
ATOM     81  O   UNL     1     -13.779   5.071 -14.254  1.00  0.00    -0.744 OA
ENDBRANCH  74  78
ENDBRANCH  47  71
BRANCH  59  82
ATOM     82  C   UNL     1      -6.508  11.913 -15.858  1.00  0.00     0.023 A 
ATOM     83  C   UNL     1      -7.193  12.803 -15.012  1.00  0.00     0.031 A 
ATOM     84  C   UNL     1      -6.484  12.191 -17.236  1.00  0.00     0.131 A 
ATOM     85  C   UNL     1      -7.872  13.902 -15.560  1.00  0.00     0.055 A 
ATOM     86  C   UNL     1      -7.115  13.316 -17.768  1.00  0.00     0.041 A 
ATOM     87  F   UNL     1      -5.845  11.373 -18.087  1.00  0.00    -0.206 F 
ATOM     88  C   UNL     1      -7.824  14.172 -16.930  1.00  0.00     0.022 A 
BRANCH  85  89
ATOM     89  S   UNL     1      -8.887  14.931 -14.465  1.00  0.00     0.124 S 
ATOM     90  O   UNL     1      -9.841  13.961 -13.936  1.00  0.00    -0.237 OA
ATOM     91  O   UNL     1      -7.904  15.441 -13.515  1.00  0.00    -0.237 OA
ATOM     92  O   UNL     1      -9.456  15.932 -15.365  1.00  0.00    -0.744 OA
ENDBRANCH  85  89
ENDBRANCH  59  82
ENDBRANCH  33  34
ENDBRANCH  25  28
ENDBRANCH  23  24
ENDBRANCH   1  23
TORSDOF 16
