REMARK SMILES O=C(NCCCCNC(=O)c1ccc(-c2c3nc(c(-c4cc(S(=O)(=O)[O-])ccc4F)c4ccc([nH]4)c(-c4cc(S(=O)(=O)[O-])ccc4F)c4nc(c(-c5cc(S(=O)(=O)[O-])ccc5F)c5ccc2[nH]5)C=C4)C=C3)cc1)C1=Cc2cc(Cl)cc(C#Cc3ccccc3)c2O[C@@H]1C(F)(F)F
REMARK SMILES IDX 6 1 5 2 4 3 3 4 1 5 2 6 74 8 75 9 92 10 76 11 91 12 77 13
REMARK SMILES IDX 90 14 78 15 81 16 79 17 80 18 93 19 94 20 95 21 96 22 82 23
REMARK SMILES IDX 83 24 84 25 85 26 89 27 86 28 88 29 87 30 7 31 8 32 9 33
REMARK SMILES IDX 10 35 11 36 12 37 73 38 13 39 72 40 14 41 15 42 16 43 66 44
REMARK SMILES IDX 17 45 71 46 65 47 67 48 18 49 70 50 64 51 63 52 19 54 51 55
REMARK SMILES IDX 31 56 50 57 32 58 35 59 49 60 68 61 33 62 34 63 48 65 69 66
REMARK SMILES IDX 36 67 20 68 21 69 29 70 22 71 28 72 30 73 27 74 23 75 24 76
REMARK SMILES IDX 25 77 26 78 52 79 53 80 61 81 54 82 60 83 62 84 59 85 55 86
REMARK SMILES IDX 56 87 57 88 58 89 37 90 38 91 46 92 39 93 45 94 47 95 44 96
REMARK SMILES IDX 40 97 41 98 42 99 43 100
REMARK H PARENT 3 7 8 34 67 53 35 64
REMARK Flexibility Score: inf
ROOT
ATOM      1  C   UNL     1       4.058  -4.201  -1.928  1.00  0.00     0.023 C 
ENDROOT
BRANCH   1   2
ATOM      2  C   UNL     1       4.201  -3.339  -0.682  1.00  0.00     0.023 C 
BRANCH   2   3
ATOM      3  C   UNL     1       3.658  -1.924  -0.832  1.00  0.00     0.116 C 
BRANCH   3   4
ATOM      4  N   UNL     1       2.462  -1.611  -0.073  1.00  0.00    -0.352 N 
ATOM      5  O   UNL     1       0.957  -0.277   0.931  1.00  0.00    -0.270 OA
ATOM      6  C   UNL     1       2.122  -0.458   0.581  1.00  0.00     0.251 C 
ATOM      7  H   UNL     1       1.797  -2.335  -0.021  1.00  0.00     0.163 HD
BRANCH   6   8
ATOM      8  C   UNL     1       3.100   0.647   0.814  1.00  0.00     0.067 C 
ATOM      9  C   UNL     1       4.327   0.429   1.322  1.00  0.00     0.025 C 
ATOM     10  C   UNL     1       2.914   1.809  -0.130  1.00  0.00     0.314 C 
ATOM     11  C   UNL     1       5.396   0.637   0.302  1.00  0.00     0.020 A 
ATOM     12  O   UNL     1       3.841   1.715  -1.244  1.00  0.00    -0.474 OA
ATOM     13  C   UNL     1       6.607  -0.033   0.518  1.00  0.00     0.032 A 
ATOM     14  C   UNL     1       5.035   1.072  -0.996  1.00  0.00     0.143 A 
ATOM     15  C   UNL     1       7.400  -0.370  -0.576  1.00  0.00     0.043 A 
ATOM     16  C   UNL     1       5.803   0.651  -2.095  1.00  0.00     0.069 A 
ATOM     17  Cl  UNL     1       8.789  -1.357  -0.331  1.00  0.00    -0.084 Cl
ATOM     18  C   UNL     1       6.994  -0.058  -1.875  1.00  0.00     0.041 A 
BRANCH  10  19
ATOM     19  C   UNL     1       3.002   3.153   0.617  1.00  0.00     0.429 C 
ATOM     20  F   UNL     1       2.670   4.196  -0.178  1.00  0.00    -0.167 F 
ATOM     21  F   UNL     1       2.158   3.186   1.679  1.00  0.00    -0.167 F 
ATOM     22  F   UNL     1       4.244   3.400   1.102  1.00  0.00    -0.167 F 
ENDBRANCH  10  19
BRANCH  16  23
ATOM     23  C   UNL     1       5.271   0.670  -3.435  1.00  0.00    -0.058 C 
ATOM     24  C   UNL     1       4.840   0.532  -4.548  1.00  0.00    -0.062 C 
BRANCH  24  25
ATOM     25  C   UNL     1       4.407   0.312  -5.902  1.00  0.00     0.025 A 
ATOM     26  C   UNL     1       4.611   1.306  -6.860  1.00  0.00     0.017 A 
ATOM     27  C   UNL     1       3.840  -0.905  -6.294  1.00  0.00     0.017 A 
ATOM     28  C   UNL     1       4.295   1.070  -8.201  1.00  0.00     0.001 A 
ATOM     29  C   UNL     1       3.545  -1.149  -7.641  1.00  0.00     0.001 A 
ATOM     30  C   UNL     1       3.783  -0.165  -8.595  1.00  0.00     0.000 A 
ENDBRANCH  24  25
ENDBRANCH  16  23
ENDBRANCH   6   8
ENDBRANCH   3   4
ENDBRANCH   2   3
ENDBRANCH   1   2
BRANCH   1  31
ATOM     31  C   UNL     1       4.693  -3.642  -3.201  1.00  0.00     0.116 C 
BRANCH  31  32
ATOM     32  N   UNL     1       6.149  -3.534  -3.152  1.00  0.00    -0.352 N 
ATOM     33  C   UNL     1       7.077  -4.034  -4.049  1.00  0.00     0.251 C 
ATOM     34  H   UNL     1       6.518  -3.043  -2.382  1.00  0.00     0.163 HD
ATOM     35  O   UNL     1       8.279  -3.930  -3.838  1.00  0.00    -0.269 OA
BRANCH  33  36
ATOM     36  C   UNL     1       6.576  -4.712  -5.264  1.00  0.00     0.039 A 
ATOM     37  C   UNL     1       6.895  -6.044  -5.525  1.00  0.00     0.014 A 
ATOM     38  C   UNL     1       5.649  -4.041  -6.056  1.00  0.00     0.014 A 
ATOM     39  C   UNL     1       6.178  -6.736  -6.511  1.00  0.00     0.010 A 
ATOM     40  C   UNL     1       4.856  -4.761  -6.937  1.00  0.00     0.010 A 
ATOM     41  C   UNL     1       5.101  -6.121  -7.173  1.00  0.00    -0.014 A 
BRANCH  41  42
ATOM     42  C   UNL     1       4.174  -6.858  -8.079  1.00  0.00     0.031 A 
ATOM     43  C   UNL     1       3.964  -6.372  -9.493  1.00  0.00     0.074 A 
ATOM     44  C   UNL     1       3.413  -7.859  -7.586  1.00  0.00     0.049 A 
ATOM     45  N   UNL     1       3.103  -6.783 -10.388  1.00  0.00    -0.248 NA
ATOM     46  C   UNL     1       4.798  -5.244  -9.944  1.00  0.00     0.031 C 
ATOM     47  C   UNL     1       3.458  -8.359  -6.208  1.00  0.00     0.029 A 
ATOM     48  N   UNL     1       2.431  -8.621  -8.173  1.00  0.00    -0.354 N 
ATOM     49  C   UNL     1       3.274  -5.952 -11.491  1.00  0.00     0.074 A 
ATOM     50  C   UNL     1       4.275  -4.973 -11.131  1.00  0.00     0.031 C 
ATOM     51  C   UNL     1       2.568  -9.355  -6.067  1.00  0.00     0.029 A 
ATOM     52  C   UNL     1       1.847  -9.535  -7.322  1.00  0.00     0.049 A 
ATOM     53  H   UNL     1       2.168  -8.522  -9.117  1.00  0.00     0.167 HD
ATOM     54  C   UNL     1       2.667  -6.015 -12.700  1.00  0.00     0.034 A 
ATOM     55  C   UNL     1       0.838 -10.408  -7.524  1.00  0.00     0.034 A 
ATOM     56  C   UNL     1       1.698  -7.021 -13.054  1.00  0.00     0.049 A 
ATOM     57  C   UNL     1       0.190 -10.464  -8.889  1.00  0.00     0.074 A 
ATOM     58  C   UNL     1       1.107  -7.246 -14.285  1.00  0.00     0.029 A 
ATOM     59  N   UNL     1       1.168  -7.959 -12.180  1.00  0.00    -0.354 N 
ATOM     60  N   UNL     1       0.444  -9.736  -9.953  1.00  0.00    -0.248 NA
ATOM     61  C   UNL     1      -0.868 -11.464  -9.088  1.00  0.00     0.031 C 
ATOM     62  C   UNL     1       0.155  -8.256 -14.134  1.00  0.00     0.029 A 
ATOM     63  C   UNL     1       0.227  -8.735 -12.836  1.00  0.00     0.049 A 
ATOM     64  H   UNL     1       1.423  -8.059 -11.234  1.00  0.00     0.167 HD
ATOM     65  C   UNL     1      -0.385 -10.232 -10.957  1.00  0.00     0.074 A 
ATOM     66  C   UNL     1      -1.140 -11.320 -10.376  1.00  0.00     0.031 C 
ATOM     67  C   UNL     1      -0.506  -9.829 -12.246  1.00  0.00     0.034 A 
BRANCH  54  68
ATOM     68  C   UNL     1       3.017  -4.974 -13.736  1.00  0.00     0.023 A 
ATOM     69  C   UNL     1       4.309  -4.868 -14.278  1.00  0.00     0.031 A 
ATOM     70  C   UNL     1       2.023  -4.109 -14.230  1.00  0.00     0.131 A 
ATOM     71  C   UNL     1       4.582  -3.894 -15.251  1.00  0.00     0.055 A 
ATOM     72  C   UNL     1       2.282  -3.195 -15.253  1.00  0.00     0.041 A 
ATOM     73  F   UNL     1       0.776  -4.146 -13.733  1.00  0.00    -0.206 F 
ATOM     74  C   UNL     1       3.571  -3.079 -15.765  1.00  0.00     0.022 A 
BRANCH  71  75
ATOM     75  S   UNL     1       6.302  -3.640 -15.765  1.00  0.00     0.124 S 
ATOM     76  O   UNL     1       6.934  -3.268 -14.502  1.00  0.00    -0.237 OA
ATOM     77  O   UNL     1       6.668  -4.945 -16.303  1.00  0.00    -0.237 OA
ATOM     78  O   UNL     1       6.210  -2.562 -16.748  1.00  0.00    -0.744 OA
ENDBRANCH  71  75
ENDBRANCH  54  68
BRANCH  55  79
ATOM     79  C   UNL     1       0.360 -11.305  -6.427  1.00  0.00     0.023 A 
ATOM     80  C   UNL     1       0.409 -12.702  -6.570  1.00  0.00     0.031 A 
ATOM     81  C   UNL     1      -0.235 -10.788  -5.263  1.00  0.00     0.131 A 
ATOM     82  C   UNL     1      -0.204 -13.528  -5.615  1.00  0.00     0.055 A 
ATOM     83  C   UNL     1      -0.773 -11.618  -4.275  1.00  0.00     0.041 A 
ATOM     84  F   UNL     1      -0.309  -9.462  -5.067  1.00  0.00    -0.206 F 
ATOM     85  C   UNL     1      -0.780 -12.997  -4.460  1.00  0.00     0.022 A 
BRANCH  82  86
ATOM     86  S   UNL     1      -0.377 -15.296  -5.987  1.00  0.00     0.124 S 
ATOM     87  O   UNL     1      -1.052 -15.257  -7.280  1.00  0.00    -0.237 OA
ATOM     88  O   UNL     1       1.013 -15.738  -6.001  1.00  0.00    -0.237 OA
ATOM     89  O   UNL     1      -1.181 -15.799  -4.876  1.00  0.00    -0.744 OA
ENDBRANCH  82  86
ENDBRANCH  55  79
BRANCH  67  90
ATOM     90  C   UNL     1      -1.428 -10.619 -13.143  1.00  0.00     0.023 A 
ATOM     91  C   UNL     1      -2.819 -10.640 -12.954  1.00  0.00     0.031 A 
ATOM     92  C   UNL     1      -0.894 -11.345 -14.224  1.00  0.00     0.131 A 
ATOM     93  C   UNL     1      -3.626 -11.408 -13.807  1.00  0.00     0.055 A 
ATOM     94  C   UNL     1      -1.708 -12.051 -15.109  1.00  0.00     0.041 A 
ATOM     95  F   UNL     1       0.430 -11.363 -14.448  1.00  0.00    -0.206 F 
ATOM     96  C   UNL     1      -3.082 -12.094 -14.896  1.00  0.00     0.022 A 
BRANCH  93  97
ATOM     97  S   UNL     1      -5.392 -11.566 -13.427  1.00  0.00     0.124 S 
ATOM     98  O   UNL     1      -5.364 -12.155 -12.092  1.00  0.00    -0.237 OA
ATOM     99  O   UNL     1      -5.854 -10.184 -13.505  1.00  0.00    -0.237 OA
ATOM    100  O   UNL     1      -5.892 -12.446 -14.482  1.00  0.00    -0.744 OA
ENDBRANCH  93  97
ENDBRANCH  67  90
ENDBRANCH  41  42
ENDBRANCH  33  36
ENDBRANCH  31  32
ENDBRANCH   1  31
TORSDOF 17
