REMARK SMILES COc1ccc(N2C(=O)/C(=C/c3c(C(=O)NCCCCNC(=O)c4ccc(-c5c6nc(c(-c7cc(S(=O)(=O)[O-])ccc7F)c7ccc([nH]7)c(-c7cc(S(=O)(=O)[O-])ccc7F)c7nc(c(-c8cc(S(=O)(=O)[O-])ccc8F)c8ccc5[nH]8)C=C7)C=C6)cc4)[nH]c4cc(OC)ccc34)SC2=S)cc1
REMARK SMILES IDX 18 1 17 2 16 3 14 4 15 5 13 7 12 8 95 9 87 10 88 11 94 12
REMARK SMILES IDX 89 14 93 15 90 16 11 17 7 18 8 19 97 20 9 21 10 22 96 23
REMARK SMILES IDX 98 24 6 25 3 26 4 27 100 28 5 29 99 30 2 31 1 32 91 33 92 34
REMARK SMILES IDX 19 35 20 36 21 37 22 38 23 40 24 41 25 42 86 43 26 44 85 45
REMARK SMILES IDX 27 46 28 47 29 48 79 49 30 50 84 51 78 52 80 53 31 54 83 55
REMARK SMILES IDX 77 56 76 57 32 59 64 60 44 61 63 62 45 63 48 64 62 65 81 66
REMARK SMILES IDX 46 67 47 68 61 70 82 71 49 72 33 73 34 74 42 75 35 76 41 77
REMARK SMILES IDX 43 78 40 79 36 80 37 81 38 82 39 83 65 84 66 85 74 86 67 87
REMARK SMILES IDX 73 88 75 89 72 90 68 91 69 92 70 93 71 94 50 95 51 96 59 97
REMARK SMILES IDX 52 98 58 99 60 100 57 101 53 102 54 103 55 104 56 105
REMARK H PARENT 16 6 87 13 21 39 80 58 48 69
REMARK Flexibility Score: inf
ROOT
ATOM      1  C   UNL     1      -1.383  -5.384  -6.260  1.00  0.00     0.023 C 
ENDROOT
BRANCH   1   2
ATOM      2  C   UNL     1      -0.176  -5.787  -7.126  1.00  0.00     0.116 C 
BRANCH   2   3
ATOM      3  N   UNL     1       0.722  -6.797  -6.569  1.00  0.00    -0.351 N 
ATOM      4  C   UNL     1       1.643  -7.609  -7.212  1.00  0.00     0.268 C 
ATOM      5  O   UNL     1       2.161  -8.518  -6.566  1.00  0.00    -0.268 OA
ATOM      6  H   UNL     1       0.663  -6.919  -5.594  1.00  0.00     0.163 HD
BRANCH   4   7
ATOM      7  C   UNL     1       1.944  -7.420  -8.615  1.00  0.00     0.112 A 
ATOM      8  C   UNL     1       2.176  -6.297  -9.415  1.00  0.00     0.014 A 
ATOM      9  C   UNL     1       1.825  -6.736 -10.751  1.00  0.00     0.008 A 
ATOM     10  N   UNL     1       2.256  -8.478  -9.435  1.00  0.00    -0.350 N 
ATOM     11  C   UNL     1       1.922  -8.132 -10.718  1.00  0.00     0.050 A 
ATOM     12  C   UNL     1       1.413  -6.178 -11.989  1.00  0.00     0.015 A 
ATOM     13  H   UNL     1       2.649  -9.334  -9.150  1.00  0.00     0.167 HD
ATOM     14  C   UNL     1       1.673  -8.973 -11.805  1.00  0.00     0.073 A 
ATOM     15  C   UNL     1       1.053  -7.032 -13.078  1.00  0.00     0.047 A 
ATOM     16  C   UNL     1       1.188  -8.416 -12.984  1.00  0.00     0.120 A 
BRANCH   8  17
ATOM     17  C   UNL     1       2.438  -5.023  -8.771  1.00  0.00     0.032 C 
ATOM     18  N   UNL     1       3.398  -4.824  -5.330  1.00  0.00    -0.261 N 
ATOM     19  C   UNL     1       2.918  -4.140  -6.464  1.00  0.00     0.270 C 
ATOM     20  C   UNL     1       4.346  -5.799  -5.567  1.00  0.00     0.152 C 
ATOM     21  O   UNL     1       2.262  -3.108  -6.506  1.00  0.00    -0.268 OA
ATOM     22  C   UNL     1       3.281  -4.913  -7.707  1.00  0.00     0.081 C 
ATOM     23  S   UNL     1       4.591  -5.972  -7.305  1.00  0.00    -0.054 SA
ATOM     24  S   UNL     1       5.185  -6.734  -4.469  1.00  0.00    -0.051 S 
BRANCH  18  25
ATOM     25  C   UNL     1       3.044  -4.403  -4.011  1.00  0.00     0.051 A 
ATOM     26  C   UNL     1       1.989  -2.971  -1.831  1.00  0.00     0.119 A 
ATOM     27  C   UNL     1       1.352  -4.133  -2.261  1.00  0.00     0.048 A 
ATOM     28  C   UNL     1       3.345  -2.871  -2.192  1.00  0.00     0.048 A 
ATOM     29  C   UNL     1       1.907  -4.869  -3.340  1.00  0.00     0.030 A 
ATOM     30  C   UNL     1       3.839  -3.499  -3.338  1.00  0.00     0.030 A 
BRANCH  26  31
ATOM     31  O   UNL     1       1.121  -1.921  -1.285  1.00  0.00    -0.497 OA
ATOM     32  C   UNL     1       0.580  -0.027  -0.917  1.00  0.00     0.278 C 
ENDBRANCH  26  31
ENDBRANCH  18  25
ENDBRANCH   8  17
BRANCH  16  33
ATOM     33  O   UNL     1       0.858  -9.367 -13.909  1.00  0.00    -0.497 OA
ATOM     34  C   UNL     1       0.506  -8.968 -15.222  1.00  0.00     0.278 C 
ENDBRANCH  16  33
ENDBRANCH   4   7
ENDBRANCH   2   3
ENDBRANCH   1   2
BRANCH   1  35
ATOM     35  C   UNL     1      -1.125  -4.651  -4.925  1.00  0.00     0.023 C 
BRANCH  35  36
ATOM     36  C   UNL     1      -0.461  -3.259  -4.986  1.00  0.00     0.116 C 
BRANCH  36  37
ATOM     37  N   UNL     1      -1.314  -2.128  -4.672  1.00  0.00    -0.352 N 
ATOM     38  C   UNL     1      -1.046  -1.084  -3.805  1.00  0.00     0.251 C 
ATOM     39  H   UNL     1      -2.185  -2.100  -5.130  1.00  0.00     0.163 HD
ATOM     40  O   UNL     1      -1.673  -0.031  -3.904  1.00  0.00    -0.269 OA
BRANCH  38  41
ATOM     41  C   UNL     1      -0.107  -1.226  -2.670  1.00  0.00     0.039 A 
ATOM     42  C   UNL     1      -0.827  -1.742  -1.119  1.00  0.00     0.014 A 
ATOM     43  C   UNL     1       1.590  -0.613  -2.710  1.00  0.00     0.014 A 
ATOM     44  C   UNL     1       0.149  -1.742   0.391  1.00  0.00     0.010 A 
ATOM     45  C   UNL     1       2.586  -0.600  -1.181  1.00  0.00     0.010 A 
ATOM     46  C   UNL     1       1.881  -1.223   0.387  1.00  0.00    -0.014 A 
BRANCH  46  47
ATOM     47  C   UNL     1       2.664  -1.418   1.675  1.00  0.00     0.031 A 
ATOM     48  C   UNL     1       3.758  -0.468   2.111  1.00  0.00     0.074 A 
ATOM     49  C   UNL     1       2.409  -2.486   2.477  1.00  0.00     0.049 A 
ATOM     50  N   UNL     1       4.544  -0.527   3.162  1.00  0.00    -0.248 NA
ATOM     51  C   UNL     1       4.059   0.660   1.228  1.00  0.00     0.031 C 
ATOM     52  C   UNL     1       1.502  -3.595   2.166  1.00  0.00     0.029 A 
ATOM     53  N   UNL     1       2.868  -2.823   3.737  1.00  0.00    -0.354 N 
ATOM     54  C   UNL     1       5.458   0.515   3.022  1.00  0.00     0.074 A 
ATOM     55  C   UNL     1       5.186   1.125   1.741  1.00  0.00     0.031 C 
ATOM     56  C   UNL     1       1.352  -4.385   3.237  1.00  0.00     0.029 A 
ATOM     57  C   UNL     1       2.261  -3.942   4.283  1.00  0.00     0.049 A 
ATOM     58  H   UNL     1       3.566  -2.312   4.206  1.00  0.00     0.167 HD
ATOM     59  C   UNL     1       6.401   0.969   3.890  1.00  0.00     0.034 A 
ATOM     60  C   UNL     1       2.420  -4.570   5.469  1.00  0.00     0.034 A 
ATOM     61  C   UNL     1       6.629   0.407   5.198  1.00  0.00     0.049 A 
ATOM     62  C   UNL     1       3.446  -4.033   6.434  1.00  0.00     0.074 A 
ATOM     63  C   UNL     1       7.511   0.829   6.178  1.00  0.00     0.029 A 
ATOM     64  N   UNL     1       5.964  -0.698   5.714  1.00  0.00    -0.354 N 
ATOM     65  N   UNL     1       4.245  -3.001   6.297  1.00  0.00    -0.248 NA
ATOM     66  C   UNL     1       3.598  -4.745   7.711  1.00  0.00     0.031 C 
ATOM     67  C   UNL     1       7.427  -0.057   7.257  1.00  0.00     0.029 A 
ATOM     68  C   UNL     1       6.435  -0.985   6.986  1.00  0.00     0.049 A 
ATOM     69  H   UNL     1       5.262  -1.204   5.245  1.00  0.00     0.167 HD
ATOM     70  C   UNL     1       4.973  -2.925   7.481  1.00  0.00     0.074 A 
ATOM     71  C   UNL     1       4.501  -3.998   8.330  1.00  0.00     0.031 C 
ATOM     72  C   UNL     1       5.948  -2.050   7.830  1.00  0.00     0.034 A 
BRANCH  59  73
ATOM     73  C   UNL     1       7.257   2.135   3.438  1.00  0.00     0.023 A 
ATOM     74  C   UNL     1       6.691   3.379   3.103  1.00  0.00     0.031 A 
ATOM     75  C   UNL     1       8.646   1.986   3.275  1.00  0.00     0.131 A 
ATOM     76  C   UNL     1       7.481   4.374   2.510  1.00  0.00     0.055 A 
ATOM     77  C   UNL     1       9.446   3.020   2.782  1.00  0.00     0.041 A 
ATOM     78  F   UNL     1       9.249   0.824   3.569  1.00  0.00    -0.206 F 
ATOM     79  C   UNL     1       8.861   4.215   2.371  1.00  0.00     0.022 A 
BRANCH  76  80
ATOM     80  S   UNL     1       6.646   5.792   1.746  1.00  0.00     0.124 S 
ATOM     81  O   UNL     1       5.807   5.133   0.747  1.00  0.00    -0.237 OA
ATOM     82  O   UNL     1       5.943   6.391   2.874  1.00  0.00    -0.237 OA
ATOM     83  O   UNL     1       7.746   6.585   1.201  1.00  0.00    -0.744 OA
ENDBRANCH  76  80
ENDBRANCH  59  73
BRANCH  60  84
ATOM     84  C   UNL     1       1.623  -5.794   5.819  1.00  0.00     0.023 A 
ATOM     85  C   UNL     1       0.768  -5.816   6.937  1.00  0.00     0.031 A 
ATOM     86  C   UNL     1       1.750  -6.985   5.080  1.00  0.00     0.131 A 
ATOM     87  C   UNL     1       0.121  -7.007   7.311  1.00  0.00     0.055 A 
ATOM     88  C   UNL     1       1.053  -8.149   5.417  1.00  0.00     0.041 A 
ATOM     89  F   UNL     1       2.552  -7.035   4.005  1.00  0.00    -0.206 F 
ATOM     90  C   UNL     1       0.245  -8.169   6.548  1.00  0.00     0.022 A 
BRANCH  87  91
ATOM     91  S   UNL     1      -0.806  -7.051   8.873  1.00  0.00     0.124 S 
ATOM     92  O   UNL     1       0.213  -6.648   9.835  1.00  0.00    -0.237 OA
ATOM     93  O   UNL     1      -1.870  -6.084   8.621  1.00  0.00    -0.237 OA
ATOM     94  O   UNL     1      -1.243  -8.442   8.972  1.00  0.00    -0.744 OA
ENDBRANCH  87  91
ENDBRANCH  60  84
BRANCH  72  95
ATOM     95  C   UNL     1       6.526  -2.178   9.217  1.00  0.00     0.023 A 
ATOM     96  C   UNL     1       7.286  -3.295   9.605  1.00  0.00     0.031 A 
ATOM     97  C   UNL     1       6.315  -1.159  10.164  1.00  0.00     0.131 A 
ATOM     98  C   UNL     1       7.764  -3.390  10.921  1.00  0.00     0.055 A 
ATOM     99  C   UNL     1       6.849  -1.229  11.450  1.00  0.00     0.041 A 
ATOM    100  F   UNL     1       5.592  -0.072   9.848  1.00  0.00    -0.206 F 
ATOM    101  C   UNL     1       7.568  -2.355  11.839  1.00  0.00     0.022 A 
BRANCH  98 102
ATOM    102  S   UNL     1       8.569  -4.928  11.444  1.00  0.00     0.124 S 
ATOM    103  O   UNL     1       7.524  -5.916  11.200  1.00  0.00    -0.237 OA
ATOM    104  O   UNL     1       9.727  -4.992  10.559  1.00  0.00    -0.237 OA
ATOM    105  O   UNL     1       8.880  -4.690  12.853  1.00  0.00    -0.744 OA
ENDBRANCH  98 102
ENDBRANCH  72  95
ENDBRANCH  46  47
ENDBRANCH  38  41
ENDBRANCH  36  37
ENDBRANCH  35  36
ENDBRANCH   1  35
TORSDOF 18
