REMARK SMILES Cc1ccc(S(=O)(=O)Nc2cc3c(cc2C(=O)NCCCCNC(=O)c2ccc(-c4c5nc(c(-c6cc(S(=O)(=O)[O-])ccc6F)c6ccc([nH]6)c(-c6cc(S(=O)(=O)[O-])ccc6F)c6nc(c(-c7cc(S(=O)(=O)[O-])ccc7F)c7ccc4[nH]7)C=C6)C=C5)cc2)OCCO3)s1
REMARK SMILES IDX 20 1 19 2 18 3 16 4 17 5 15 7 10 8 11 9 12 10 14 11 13 12
REMARK SMILES IDX 92 13 89 14 91 15 90 16 9 17 6 19 7 20 8 21 5 22 1 23 2 24
REMARK SMILES IDX 3 25 93 26 4 27 21 28 22 29 23 30 24 31 25 33 26 34 27 35
REMARK SMILES IDX 88 36 28 37 87 38 29 39 30 40 31 41 81 42 32 43 86 44 80 45
REMARK SMILES IDX 82 46 33 47 85 48 79 49 78 50 34 52 66 53 46 54 65 55 47 56
REMARK SMILES IDX 50 57 64 58 83 59 48 60 49 61 63 63 84 64 51 65 35 66 36 67
REMARK SMILES IDX 44 68 37 69 43 70 45 71 42 72 38 73 39 74 40 75 41 76 67 77
REMARK SMILES IDX 68 78 76 79 69 80 75 81 77 82 74 83 70 84 71 85 72 86 73 87
REMARK SMILES IDX 52 88 53 89 61 90 54 91 60 92 62 93 59 94 55 95 56 96 57 97
REMARK SMILES IDX 58 98
REMARK H PARENT 18 6 9 18 23 32 82 51 50 62
REMARK Flexibility Score: inf
ROOT
ATOM      1  C   UNL     1       0.960  -3.001   2.103  1.00  0.00     0.023 C 
ENDROOT
BRANCH   1   2
ATOM      2  C   UNL     1      -0.497  -3.314   2.416  1.00  0.00     0.116 C 
BRANCH   2   3
ATOM      3  N   UNL     1      -1.316  -2.169   2.782  1.00  0.00    -0.352 N 
ATOM      4  C   UNL     1      -2.603  -1.826   2.430  1.00  0.00     0.253 C 
ATOM      5  O   UNL     1      -3.140  -0.884   3.007  1.00  0.00    -0.269 OA
ATOM      6  H   UNL     1      -0.874  -1.528   3.384  1.00  0.00     0.163 HD
BRANCH   4   7
ATOM      7  C   UNL     1      -3.327  -2.549   1.352  1.00  0.00     0.067 A 
ATOM      8  C   UNL     1      -4.024  -1.843   0.349  1.00  0.00     0.066 A 
ATOM      9  C   UNL     1      -4.601  -2.541  -0.720  1.00  0.00     0.078 A 
ATOM     10  C   UNL     1      -4.468  -3.928  -0.799  1.00  0.00     0.163 A 
ATOM     11  C   UNL     1      -3.315  -3.948   1.324  1.00  0.00     0.066 A 
ATOM     12  C   UNL     1      -3.816  -4.625   0.220  1.00  0.00     0.162 A 
ATOM     13  O   UNL     1      -4.984  -4.542  -1.911  1.00  0.00    -0.486 OA
ATOM     14  O   UNL     1      -3.598  -5.978   0.186  1.00  0.00    -0.486 OA
ATOM     15  C   UNL     1      -4.992  -5.971  -1.786  1.00  0.00     0.271 C 
ATOM     16  C   UNL     1      -3.704  -6.472  -1.153  1.00  0.00     0.271 C 
BRANCH   8  17
ATOM     17  N   UNL     1      -4.164  -0.419   0.418  1.00  0.00    -0.278 N 
ATOM     18  H   UNL     1      -4.763  -0.008   1.083  1.00  0.00     0.180 HD
BRANCH  17  19
ATOM     19  S   UNL     1      -3.290   0.542  -0.654  1.00  0.00     0.271 S 
ATOM     20  O   UNL     1      -3.325   1.895  -0.155  1.00  0.00    -0.200 OA
ATOM     21  O   UNL     1      -3.778   0.240  -1.989  1.00  0.00    -0.200 OA
BRANCH  19  22
ATOM     22  C   UNL     1      -1.598  -0.008  -0.677  1.00  0.00     0.140 A 
ATOM     23  C   UNL     1       2.248   0.189   0.079  1.00  0.00     0.056 C 
ATOM     24  C   UNL     1       0.844  -0.102  -0.332  1.00  0.00     0.003 A 
ATOM     25  C   UNL     1       0.390  -1.142  -1.117  1.00  0.00     0.016 A 
ATOM     26  S   UNL     1      -0.440   0.910   0.177  1.00  0.00    -0.127 S 
ATOM     27  C   UNL     1      -1.018  -1.097  -1.300  1.00  0.00     0.034 A 
ENDBRANCH  19  22
ENDBRANCH  17  19
ENDBRANCH   8  17
ENDBRANCH   4   7
ENDBRANCH   2   3
ENDBRANCH   1   2
BRANCH   1  28
ATOM     28  C   UNL     1       1.734  -2.198   3.138  1.00  0.00     0.023 C 
BRANCH  28  29
ATOM     29  C   UNL     1       1.669  -2.727   4.563  1.00  0.00     0.116 C 
BRANCH  29  30
ATOM     30  N   UNL     1       2.046  -4.125   4.678  1.00  0.00    -0.352 N 
ATOM     31  C   UNL     1       2.878  -4.740   5.582  1.00  0.00     0.251 C 
ATOM     32  H   UNL     1       1.645  -4.723   4.006  1.00  0.00     0.163 HD
ATOM     33  O   UNL     1       3.138  -5.932   5.440  1.00  0.00    -0.269 OA
BRANCH  31  34
ATOM     34  C   UNL     1       3.488  -3.967   6.687  1.00  0.00     0.039 A 
ATOM     35  C   UNL     1       4.827  -4.204   7.011  1.00  0.00     0.014 A 
ATOM     36  C   UNL     1       2.756  -3.017   7.404  1.00  0.00     0.014 A 
ATOM     37  C   UNL     1       5.444  -3.450   8.011  1.00  0.00     0.010 A 
ATOM     38  C   UNL     1       3.395  -2.205   8.336  1.00  0.00     0.010 A 
ATOM     39  C   UNL     1       4.741  -2.425   8.664  1.00  0.00    -0.014 A 
BRANCH  39  40
ATOM     40  C   UNL     1       5.380  -1.610   9.728  1.00  0.00     0.031 A 
ATOM     41  C   UNL     1       4.853  -1.675  11.136  1.00  0.00     0.074 A 
ATOM     42  C   UNL     1       6.388  -0.772   9.417  1.00  0.00     0.049 A 
ATOM     43  N   UNL     1       5.228  -1.007  12.196  1.00  0.00    -0.248 NA
ATOM     44  C   UNL     1       3.720  -2.584  11.370  1.00  0.00     0.031 C 
ATOM     45  C   UNL     1       6.938  -0.570   8.074  1.00  0.00     0.029 A 
ATOM     46  N   UNL     1       7.123   0.074  10.207  1.00  0.00    -0.354 N 
ATOM     47  C   UNL     1       4.361  -1.393  13.214  1.00  0.00     0.074 A 
ATOM     48  C   UNL     1       3.400  -2.298  12.621  1.00  0.00     0.031 C 
ATOM     49  C   UNL     1       7.939   0.324   8.140  1.00  0.00     0.029 A 
ATOM     50  C   UNL     1       8.084   0.777   9.519  1.00  0.00     0.049 A 
ATOM     51  H   UNL     1       6.976   0.170  11.176  1.00  0.00     0.167 HD
ATOM     52  C   UNL     1       4.380  -1.048  14.526  1.00  0.00     0.034 A 
ATOM     53  C   UNL     1       8.983   1.681   9.955  1.00  0.00     0.034 A 
ATOM     54  C   UNL     1       5.365  -0.165  15.102  1.00  0.00     0.049 A 
ATOM     55  C   UNL     1       9.028   2.007  11.425  1.00  0.00     0.074 A 
ATOM     56  C   UNL     1       5.524   0.212  16.424  1.00  0.00     0.029 A 
ATOM     57  N   UNL     1       6.366   0.480  14.384  1.00  0.00    -0.354 N 
ATOM     58  N   UNL     1       8.243   1.587  12.389  1.00  0.00    -0.248 NA
ATOM     59  C   UNL     1      10.099   2.909  11.867  1.00  0.00     0.031 C 
ATOM     60  C   UNL     1       6.587   1.121  16.497  1.00  0.00     0.029 A 
ATOM     61  C   UNL     1       7.136   1.261  15.232  1.00  0.00     0.049 A 
ATOM     62  H   UNL     1       6.508   0.395  13.414  1.00  0.00     0.167 HD
ATOM     63  C   UNL     1       8.744   2.151  13.559  1.00  0.00     0.074 A 
ATOM     64  C   UNL     1       9.908   2.926  13.178  1.00  0.00     0.031 C 
ATOM     65  C   UNL     1       8.288   2.035  14.833  1.00  0.00     0.034 A 
BRANCH  52  66
ATOM     66  C   UNL     1       3.287  -1.616  15.403  1.00  0.00     0.023 A 
ATOM     67  C   UNL     1       3.130  -3.002  15.582  1.00  0.00     0.031 A 
ATOM     68  C   UNL     1       2.348  -0.767  16.014  1.00  0.00     0.131 A 
ATOM     69  C   UNL     1       2.006  -3.501  16.257  1.00  0.00     0.055 A 
ATOM     70  C   UNL     1       1.282  -1.268  16.765  1.00  0.00     0.041 A 
ATOM     71  F   UNL     1       2.431   0.565  15.867  1.00  0.00    -0.206 F 
ATOM     72  C   UNL     1       1.093  -2.643  16.872  1.00  0.00     0.022 A 
BRANCH  69  73
ATOM     73  S   UNL     1       1.662  -5.280  16.163  1.00  0.00     0.124 S 
ATOM     74  O   UNL     1       1.549  -5.482  14.720  1.00  0.00    -0.237 OA
ATOM     75  O   UNL     1       2.836  -5.863  16.800  1.00  0.00    -0.237 OA
ATOM     76  O   UNL     1       0.411  -5.427  16.904  1.00  0.00    -0.744 OA
ENDBRANCH  69  73
ENDBRANCH  52  66
BRANCH  53  77
ATOM     77  C   UNL     1       9.927   2.322   8.998  1.00  0.00     0.023 A 
ATOM     78  C   UNL     1      11.301   2.038   9.038  1.00  0.00     0.031 A 
ATOM     79  C   UNL     1       9.469   3.243   8.040  1.00  0.00     0.131 A 
ATOM     80  C   UNL     1      12.177   2.700   8.164  1.00  0.00     0.055 A 
ATOM     81  C   UNL     1      10.339   3.868   7.145  1.00  0.00     0.041 A 
ATOM     82  F   UNL     1       8.162   3.536   7.952  1.00  0.00    -0.206 F 
ATOM     83  C   UNL     1      11.704   3.606   7.211  1.00  0.00     0.022 A 
BRANCH  80  84
ATOM     84  S   UNL     1      13.959   2.399   8.326  1.00  0.00     0.124 S 
ATOM     85  O   UNL     1      14.209   2.825   9.698  1.00  0.00    -0.237 OA
ATOM     86  O   UNL     1      14.048   0.965   8.073  1.00  0.00    -0.237 OA
ATOM     87  O   UNL     1      14.543   3.249   7.291  1.00  0.00    -0.744 OA
ENDBRANCH  80  84
ENDBRANCH  53  77
BRANCH  65  88
ATOM     88  C   UNL     1       9.088   2.730  15.906  1.00  0.00     0.023 A 
ATOM     89  C   UNL     1       9.170   4.131  15.979  1.00  0.00     0.031 A 
ATOM     90  C   UNL     1       9.801   1.974  16.853  1.00  0.00     0.131 A 
ATOM     91  C   UNL     1      10.000   4.733  16.937  1.00  0.00     0.055 A 
ATOM     92  C   UNL     1      10.578   2.580  17.841  1.00  0.00     0.041 A 
ATOM     93  F   UNL     1       9.758   0.632  16.829  1.00  0.00    -0.206 F 
ATOM     94  C   UNL     1      10.693   3.966  17.877  1.00  0.00     0.022 A 
BRANCH  91  95
ATOM     95  S   UNL     1      10.246   6.529  16.869  1.00  0.00     0.124 S 
ATOM     96  O   UNL     1      10.717   6.721  15.501  1.00  0.00    -0.237 OA
ATOM     97  O   UNL     1       8.910   7.037  17.162  1.00  0.00    -0.237 OA
ATOM     98  O   UNL     1      11.245   6.777  17.908  1.00  0.00    -0.744 OA
ENDBRANCH  91  95
ENDBRANCH  65  88
ENDBRANCH  39  40
ENDBRANCH  31  34
ENDBRANCH  29  30
ENDBRANCH  28  29
ENDBRANCH   1  28
TORSDOF 17
