REMARK SMILES O=C(NCCCCNC(=O)[C@H]1C=C[C@H](NS(=O)(=O)c2ccc(F)c(F)c2F)C1)c1ccc(-c2c3nc(c(-c4cc(S(=O)(=O)[O-])ccc4F)c4ccc([nH]4)c(-c4cc(S(=O)(=O)[O-])ccc4F)c4nc(c(-c5cc(S(=O)(=O)[O-])ccc5F)c5ccc2[nH]5)C=C4)C=C3)cc1
REMARK SMILES IDX 5 1 4 2 3 3 1 4 2 5 29 7 30 8 91 9 31 10 90 11 32 12 33 13
REMARK SMILES IDX 34 14 84 15 35 16 89 17 83 18 85 19 36 20 88 21 82 22 81 23
REMARK SMILES IDX 37 25 69 26 49 27 68 28 50 29 53 30 67 31 86 32 51 33 52 34
REMARK SMILES IDX 66 36 87 37 54 38 38 39 39 40 47 41 40 42 46 43 48 44 45 45
REMARK SMILES IDX 41 46 42 47 43 48 44 49 70 50 71 51 79 52 72 53 78 54 80 55
REMARK SMILES IDX 77 56 73 57 74 58 75 59 76 60 55 61 56 62 64 63 57 64 63 65
REMARK SMILES IDX 65 66 62 67 58 68 59 69 60 70 61 71 6 72 7 73 8 74 9 75
REMARK SMILES IDX 10 77 11 78 12 79 28 80 13 81 14 82 15 83 16 85 17 86 18 87
REMARK SMILES IDX 19 88 20 89 26 90 21 91 24 92 27 93 22 94 25 95 23 96
REMARK H PARENT 3 6 85 24 53 35 8 76 15 84
REMARK Flexibility Score: inf
ROOT
ATOM      1  C   UNL     1       5.078   1.321  -2.040  1.00  0.00     0.023 C 
ENDROOT
BRANCH   1   2
ATOM      2  C   UNL     1       4.694   1.069  -0.589  1.00  0.00     0.116 C 
BRANCH   2   3
ATOM      3  N   UNL     1       3.252   1.005  -0.379  1.00  0.00    -0.352 N 
ATOM      4  O   UNL     1       1.256   0.018   0.012  1.00  0.00    -0.269 OA
ATOM      5  C   UNL     1       2.480  -0.062   0.025  1.00  0.00     0.251 C 
ATOM      6  H   UNL     1       2.762   1.841  -0.550  1.00  0.00     0.163 HD
BRANCH   5   7
ATOM      7  C   UNL     1       3.148  -1.310   0.448  1.00  0.00     0.039 A 
ATOM      8  C   UNL     1       4.244  -1.248   1.308  1.00  0.00     0.014 A 
ATOM      9  C   UNL     1       2.716  -2.539  -0.056  1.00  0.00     0.014 A 
ATOM     10  C   UNL     1       5.026  -2.376   1.500  1.00  0.00     0.010 A 
ATOM     11  C   UNL     1       3.433  -3.701   0.251  1.00  0.00     0.010 A 
ATOM     12  C   UNL     1       4.614  -3.624   1.005  1.00  0.00    -0.014 A 
BRANCH  12  13
ATOM     13  C   UNL     1       5.400  -4.829   1.381  1.00  0.00     0.031 A 
ATOM     14  C   UNL     1       6.076  -5.688   0.348  1.00  0.00     0.074 A 
ATOM     15  C   UNL     1       5.537  -5.106   2.694  1.00  0.00     0.049 A 
ATOM     16  N   UNL     1       6.813  -6.755   0.525  1.00  0.00    -0.248 NA
ATOM     17  C   UNL     1       5.901  -5.309  -1.062  1.00  0.00     0.031 C 
ATOM     18  C   UNL     1       4.922  -4.337   3.782  1.00  0.00     0.029 A 
ATOM     19  N   UNL     1       6.250  -6.078   3.344  1.00  0.00    -0.354 N 
ATOM     20  C   UNL     1       7.183  -7.184  -0.745  1.00  0.00     0.074 A 
ATOM     21  C   UNL     1       6.557  -6.279  -1.687  1.00  0.00     0.031 C 
ATOM     22  C   UNL     1       5.338  -4.824   4.957  1.00  0.00     0.029 A 
ATOM     23  C   UNL     1       6.161  -6.000   4.715  1.00  0.00     0.049 A 
ATOM     24  H   UNL     1       6.777  -6.766   2.876  1.00  0.00     0.167 HD
ATOM     25  C   UNL     1       7.976  -8.232  -1.087  1.00  0.00     0.034 A 
ATOM     26  C   UNL     1       6.653  -6.803   5.676  1.00  0.00     0.034 A 
ATOM     27  C   UNL     1       8.586  -9.125  -0.127  1.00  0.00     0.049 A 
ATOM     28  C   UNL     1       7.472  -7.995   5.260  1.00  0.00     0.074 A 
ATOM     29  C   UNL     1       9.421 -10.204  -0.366  1.00  0.00     0.029 A 
ATOM     30  N   UNL     1       8.421  -9.054   1.251  1.00  0.00    -0.354 N 
ATOM     31  N   UNL     1       7.822  -8.374   4.053  1.00  0.00    -0.248 NA
ATOM     32  C   UNL     1       7.963  -8.863   6.335  1.00  0.00     0.031 C 
ATOM     33  C   UNL     1       9.692 -10.831   0.855  1.00  0.00     0.029 A 
ATOM     34  C   UNL     1       9.107 -10.091   1.869  1.00  0.00     0.049 A 
ATOM     35  H   UNL     1       7.895  -8.368   1.721  1.00  0.00     0.167 HD
ATOM     36  C   UNL     1       8.597  -9.516   4.229  1.00  0.00     0.074 A 
ATOM     37  C   UNL     1       8.688  -9.738   5.657  1.00  0.00     0.031 C 
ATOM     38  C   UNL     1       9.177 -10.312   3.295  1.00  0.00     0.034 A 
BRANCH  25  39
ATOM     39  C   UNL     1       8.199  -8.499  -2.557  1.00  0.00     0.023 A 
ATOM     40  C   UNL     1       8.879  -7.587  -3.384  1.00  0.00     0.031 A 
ATOM     41  C   UNL     1       7.741  -9.695  -3.139  1.00  0.00     0.131 A 
ATOM     42  C   UNL     1       9.035  -7.862  -4.752  1.00  0.00     0.055 A 
ATOM     43  C   UNL     1       7.967  -9.997  -4.484  1.00  0.00     0.041 A 
ATOM     44  F   UNL     1       7.066 -10.596  -2.407  1.00  0.00    -0.206 F 
ATOM     45  C   UNL     1       8.608  -9.073  -5.302  1.00  0.00     0.022 A 
BRANCH  42  46
ATOM     46  S   UNL     1       9.695  -6.560  -5.829  1.00  0.00     0.124 S 
ATOM     47  O   UNL     1       8.736  -5.480  -5.611  1.00  0.00    -0.237 OA
ATOM     48  O   UNL     1      11.031  -6.346  -5.285  1.00  0.00    -0.237 OA
ATOM     49  O   UNL     1       9.653  -7.161  -7.160  1.00  0.00    -0.744 OA
ENDBRANCH  42  46
ENDBRANCH  25  39
BRANCH  26  50
ATOM     50  C   UNL     1       6.342  -6.545   7.111  1.00  0.00     0.023 A 
ATOM     51  C   UNL     1       7.364  -6.322   8.045  1.00  0.00     0.031 A 
ATOM     52  C   UNL     1       5.016  -6.577   7.582  1.00  0.00     0.131 A 
ATOM     53  C   UNL     1       7.050  -6.206   9.408  1.00  0.00     0.055 A 
ATOM     54  C   UNL     1       4.703  -6.384   8.927  1.00  0.00     0.041 A 
ATOM     55  F   UNL     1       3.997  -6.789   6.733  1.00  0.00    -0.206 F 
ATOM     56  C   UNL     1       5.726  -6.217   9.853  1.00  0.00     0.022 A 
BRANCH  53  57
ATOM     57  S   UNL     1       8.411  -6.175  10.606  1.00  0.00     0.124 S 
ATOM     58  O   UNL     1       9.127  -7.400  10.271  1.00  0.00    -0.237 OA
ATOM     59  O   UNL     1       9.083  -4.925  10.267  1.00  0.00    -0.237 OA
ATOM     60  O   UNL     1       7.726  -6.184  11.896  1.00  0.00    -0.744 OA
ENDBRANCH  53  57
ENDBRANCH  26  50
BRANCH  38  61
ATOM     61  C   UNL     1       9.995 -11.473   3.808  1.00  0.00     0.023 A 
ATOM     62  C   UNL     1       9.409 -12.524   4.537  1.00  0.00     0.031 A 
ATOM     63  C   UNL     1      11.385 -11.507   3.603  1.00  0.00     0.131 A 
ATOM     64  C   UNL     1      10.220 -13.521   5.100  1.00  0.00     0.055 A 
ATOM     65  C   UNL     1      12.177 -12.544   4.099  1.00  0.00     0.041 A 
ATOM     66  F   UNL     1      12.001 -10.528   2.920  1.00  0.00    -0.206 F 
ATOM     67  C   UNL     1      11.597 -13.548   4.869  1.00  0.00     0.022 A 
BRANCH  64  68
ATOM     68  S   UNL     1       9.466 -14.708   6.245  1.00  0.00     0.124 S 
ATOM     69  O   UNL     1       8.903 -13.828   7.265  1.00  0.00    -0.237 OA
ATOM     70  O   UNL     1       8.501 -15.395   5.393  1.00  0.00    -0.237 OA
ATOM     71  O   UNL     1      10.596 -15.524   6.685  1.00  0.00    -0.744 OA
ENDBRANCH  64  68
ENDBRANCH  38  61
ENDBRANCH  12  13
ENDBRANCH   5   7
ENDBRANCH   2   3
ENDBRANCH   1   2
BRANCH   1  72
ATOM     72  C   UNL     1       4.601   2.652  -2.606  1.00  0.00     0.023 C 
BRANCH  72  73
ATOM     73  C   UNL     1       4.955   3.864  -1.761  1.00  0.00     0.116 C 
BRANCH  73  74
ATOM     74  N   UNL     1       6.382   4.102  -1.653  1.00  0.00    -0.356 N 
ATOM     75  C   UNL     1       7.007   5.314  -1.500  1.00  0.00     0.226 C 
ATOM     76  H   UNL     1       6.965   3.309  -1.693  1.00  0.00     0.163 HD
ATOM     77  O   UNL     1       8.223   5.343  -1.325  1.00  0.00    -0.274 OA
BRANCH  75  78
ATOM     78  C   UNL     1       6.142   6.573  -1.588  1.00  0.00     0.103 C 
ATOM     79  C   UNL     1       5.258   6.704  -0.381  1.00  0.00    -0.016 C 
ATOM     80  C   UNL     1       6.944   7.884  -1.550  1.00  0.00     0.042 C 
ATOM     81  C   UNL     1       5.261   7.942   0.110  1.00  0.00    -0.011 C 
ATOM     82  C   UNL     1       6.144   8.848  -0.662  1.00  0.00     0.093 C 
BRANCH  82  83
ATOM     83  N   UNL     1       5.347   9.756  -1.496  1.00  0.00    -0.204 NA
ATOM     84  H   UNL     1       4.683   9.180  -2.013  1.00  0.00     0.142 HD
BRANCH  83  85
ATOM     85  S   UNL     1       4.459  10.991  -0.762  1.00  0.00     0.244 S 
ATOM     86  O   UNL     1       4.045  11.874  -1.835  1.00  0.00    -0.207 OA
ATOM     87  O   UNL     1       3.474  10.408   0.113  1.00  0.00    -0.207 OA
BRANCH  85  88
ATOM     88  C   UNL     1       5.683  11.837   0.178  1.00  0.00     0.121 A 
ATOM     89  C   UNL     1       6.484  12.802  -0.445  1.00  0.00     0.028 A 
ATOM     90  C   UNL     1       5.878  11.510   1.517  1.00  0.00     0.181 A 
ATOM     91  C   UNL     1       7.505  13.416   0.280  1.00  0.00     0.044 A 
ATOM     92  C   UNL     1       6.900  12.120   2.230  1.00  0.00     0.195 A 
ATOM     93  F   UNL     1       5.149  10.564   2.123  1.00  0.00    -0.202 F 
ATOM     94  C   UNL     1       7.709  13.066   1.613  1.00  0.00     0.161 A 
ATOM     95  F   UNL     1       7.121  11.777   3.507  1.00  0.00    -0.200 F 
ATOM     96  F   UNL     1       8.707  13.643   2.295  1.00  0.00    -0.204 F 
ENDBRANCH  85  88
ENDBRANCH  83  85
ENDBRANCH  82  83
ENDBRANCH  75  78
ENDBRANCH  73  74
ENDBRANCH  72  73
ENDBRANCH   1  72
TORSDOF 17
