REMARK SMILES O=C(NCCCCNC(=O)c1cccc(OCC(F)F)c1)c1ccc(-c2c3nc(c(-c4cc(S(=O)(=O)[O-])ccc4F)c4ccc([nH]4)c(-c4cc(S(=O)(=O)[O-])ccc4F)c4nc(c(-c5cc(S(=O)(=O)[O-])ccc5F)c5ccc2[nH]5)C=C4)C=C3)cc1
REMARK SMILES IDX 5 1 4 2 3 3 1 4 2 5 22 7 23 8 84 9 24 10 83 11 25 12 26 13
REMARK SMILES IDX 27 14 77 15 28 16 82 17 76 18 78 19 29 20 81 21 75 22 74 23
REMARK SMILES IDX 30 25 62 26 42 27 61 28 43 29 46 30 60 31 79 32 44 33 45 34
REMARK SMILES IDX 59 36 80 37 47 38 31 39 32 40 40 41 33 42 39 43 41 44 38 45
REMARK SMILES IDX 34 46 35 47 36 48 37 49 63 50 64 51 72 52 65 53 71 54 73 55
REMARK SMILES IDX 70 56 66 57 67 58 68 59 69 60 48 61 49 62 57 63 50 64 56 65
REMARK SMILES IDX 58 66 55 67 51 68 52 69 53 70 54 71 6 72 7 73 8 74 9 75
REMARK SMILES IDX 10 77 11 78 12 79 21 80 13 81 15 82 14 83 16 84 17 85 18 86
REMARK SMILES IDX 19 87 20 88
REMARK H PARENT 3 6 78 24 46 35 8 76
REMARK Flexibility Score: inf
ROOT
ATOM      1  C   UNL     1       4.930   0.130  -2.732  1.00  0.00     0.023 C 
ENDROOT
BRANCH   1   2
ATOM      2  C   UNL     1       4.599   0.473  -1.287  1.00  0.00     0.116 C 
BRANCH   2   3
ATOM      3  N   UNL     1       3.168   0.527  -1.016  1.00  0.00    -0.352 N 
ATOM      4  O   UNL     1       1.215  -0.081  -0.053  1.00  0.00    -0.269 OA
ATOM      5  C   UNL     1       2.442  -0.154  -0.064  1.00  0.00     0.251 C 
ATOM      6  H   UNL     1       2.650   1.133  -1.592  1.00  0.00     0.163 HD
BRANCH   5   7
ATOM      7  C   UNL     1       3.147  -0.999   0.926  1.00  0.00     0.039 A 
ATOM      8  C   UNL     1       4.290  -0.522   1.567  1.00  0.00     0.014 A 
ATOM      9  C   UNL     1       2.687  -2.294   1.185  1.00  0.00     0.014 A 
ATOM     10  C   UNL     1       5.072  -1.394   2.312  1.00  0.00     0.010 A 
ATOM     11  C   UNL     1       3.422  -3.139   2.026  1.00  0.00     0.010 A 
ATOM     12  C   UNL     1       4.646  -2.710   2.562  1.00  0.00    -0.014 A 
BRANCH  12  13
ATOM     13  C   UNL     1       5.494  -3.578   3.423  1.00  0.00     0.031 A 
ATOM     14  C   UNL     1       6.147  -4.824   2.887  1.00  0.00     0.074 A 
ATOM     15  C   UNL     1       5.738  -3.175   4.687  1.00  0.00     0.049 A 
ATOM     16  N   UNL     1       6.981  -5.638   3.485  1.00  0.00    -0.248 NA
ATOM     17  C   UNL     1       5.816  -5.215   1.509  1.00  0.00     0.031 C 
ATOM     18  C   UNL     1       5.142  -1.994   5.319  1.00  0.00     0.029 A 
ATOM     19  N   UNL     1       6.573  -3.678   5.650  1.00  0.00    -0.354 N 
ATOM     20  C   UNL     1       7.266  -6.642   2.565  1.00  0.00     0.074 A 
ATOM     21  C   UNL     1       6.487  -6.351   1.379  1.00  0.00     0.031 C 
ATOM     22  C   UNL     1       5.684  -1.822   6.532  1.00  0.00     0.029 A 
ATOM     23  C   UNL     1       6.610  -2.916   6.796  1.00  0.00     0.049 A 
ATOM     24  H   UNL     1       7.096  -4.504   5.534  1.00  0.00     0.167 HD
ATOM     25  C   UNL     1       8.106  -7.701   2.696  1.00  0.00     0.034 A 
ATOM     26  C   UNL     1       7.304  -3.080   7.938  1.00  0.00     0.034 A 
ATOM     27  C   UNL     1       8.878  -7.974   3.886  1.00  0.00     0.049 A 
ATOM     28  C   UNL     1       8.235  -4.255   8.050  1.00  0.00     0.074 A 
ATOM     29  C   UNL     1       9.757  -9.018   4.127  1.00  0.00     0.029 A 
ATOM     30  N   UNL     1       8.868  -7.198   5.039  1.00  0.00    -0.354 N 
ATOM     31  N   UNL     1       8.486  -5.195   7.168  1.00  0.00    -0.248 NA
ATOM     32  C   UNL     1       8.977  -4.389   9.308  1.00  0.00     0.031 C 
ATOM     33  C   UNL     1      10.236  -8.902   5.438  1.00  0.00     0.029 A 
ATOM     34  C   UNL     1       9.708  -7.749   5.996  1.00  0.00     0.049 A 
ATOM     35  H   UNL     1       8.341  -6.375   5.159  1.00  0.00     0.167 HD
ATOM     36  C   UNL     1       9.415  -6.036   7.769  1.00  0.00     0.074 A 
ATOM     37  C   UNL     1       9.713  -5.463   9.068  1.00  0.00     0.031 C 
ATOM     38  C   UNL     1       9.966  -7.184   7.299  1.00  0.00     0.034 A 
BRANCH  25  39
ATOM     39  C   UNL     1       8.201  -8.664   1.536  1.00  0.00     0.023 A 
ATOM     40  C   UNL     1       8.751  -8.283   0.299  1.00  0.00     0.031 A 
ATOM     41  C   UNL     1       7.731  -9.983   1.668  1.00  0.00     0.131 A 
ATOM     42  C   UNL     1       8.767  -9.192  -0.771  1.00  0.00     0.055 A 
ATOM     43  C   UNL     1       7.812 -10.904   0.620  1.00  0.00     0.041 A 
ATOM     44  F   UNL     1       7.178 -10.400   2.818  1.00  0.00    -0.206 F 
ATOM     45  C   UNL     1       8.323 -10.507  -0.612  1.00  0.00     0.022 A 
BRANCH  42  46
ATOM     46  S   UNL     1       9.276  -8.600  -2.408  1.00  0.00     0.124 S 
ATOM     47  O   UNL     1       8.287  -7.556  -2.666  1.00  0.00    -0.237 OA
ATOM     48  O   UNL     1      10.640  -8.142  -2.170  1.00  0.00    -0.237 OA
ATOM     49  O   UNL     1       9.156  -9.785  -3.255  1.00  0.00    -0.744 OA
ENDBRANCH  42  46
ENDBRANCH  25  39
BRANCH  26  50
ATOM     50  C   UNL     1       7.116  -2.131   9.070  1.00  0.00     0.023 A 
ATOM     51  C   UNL     1       8.168  -1.324   9.530  1.00  0.00     0.031 A 
ATOM     52  C   UNL     1       5.875  -2.038   9.727  1.00  0.00     0.131 A 
ATOM     53  C   UNL     1       7.970  -0.486  10.638  1.00  0.00     0.055 A 
ATOM     54  C   UNL     1       5.668  -1.163  10.793  1.00  0.00     0.041 A 
ATOM     55  F   UNL     1       4.835  -2.785   9.322  1.00  0.00    -0.206 F 
ATOM     56  C   UNL     1       6.724  -0.390  11.263  1.00  0.00     0.022 A 
BRANCH  53  57
ATOM     57  S   UNL     1       9.391   0.419  11.309  1.00  0.00     0.124 S 
ATOM     58  O   UNL     1      10.345  -0.658  11.552  1.00  0.00    -0.237 OA
ATOM     59  O   UNL     1       9.714   1.327  10.214  1.00  0.00    -0.237 OA
ATOM     60  O   UNL     1       8.853   1.058  12.508  1.00  0.00    -0.744 OA
ENDBRANCH  53  57
ENDBRANCH  26  50
BRANCH  38  61
ATOM     61  C   UNL     1      10.946  -7.877   8.211  1.00  0.00     0.023 A 
ATOM     62  C   UNL     1      10.530  -8.454   9.425  1.00  0.00     0.031 A 
ATOM     63  C   UNL     1      12.314  -7.910   7.895  1.00  0.00     0.131 A 
ATOM     64  C   UNL     1      11.482  -8.976  10.312  1.00  0.00     0.055 A 
ATOM     65  C   UNL     1      13.251  -8.485   8.755  1.00  0.00     0.041 A 
ATOM     66  F   UNL     1      12.764  -7.372   6.750  1.00  0.00    -0.206 F 
ATOM     67  C   UNL     1      12.838  -9.007   9.979  1.00  0.00     0.022 A 
BRANCH  64  68
ATOM     68  S   UNL     1      10.935  -9.513  11.956  1.00  0.00     0.124 S 
ATOM     69  O   UNL     1      10.302  -8.304  12.475  1.00  0.00    -0.237 OA
ATOM     70  O   UNL     1      10.035 -10.617  11.640  1.00  0.00    -0.237 OA
ATOM     71  O   UNL     1      12.178  -9.897  12.622  1.00  0.00    -0.744 OA
ENDBRANCH  64  68
ENDBRANCH  38  61
ENDBRANCH  12  13
ENDBRANCH   5   7
ENDBRANCH   2   3
ENDBRANCH   1   2
BRANCH   1  72
ATOM     72  C   UNL     1       4.479   1.156  -3.765  1.00  0.00     0.023 C 
BRANCH  72  73
ATOM     73  C   UNL     1       4.917   2.591  -3.495  1.00  0.00     0.116 C 
BRANCH  73  74
ATOM     74  N   UNL     1       6.362   2.758  -3.450  1.00  0.00    -0.352 N 
ATOM     75  C   UNL     1       7.138   3.669  -4.122  1.00  0.00     0.251 C 
ATOM     76  H   UNL     1       6.846   2.136  -2.859  1.00  0.00     0.163 HD
ATOM     77  O   UNL     1       8.361   3.655  -4.035  1.00  0.00    -0.269 OA
BRANCH  75  78
ATOM     78  C   UNL     1       6.482   4.661  -4.994  1.00  0.00     0.043 A 
ATOM     79  C   UNL     1       6.810   4.678  -6.349  1.00  0.00     0.014 A 
ATOM     80  C   UNL     1       5.516   5.532  -4.471  1.00  0.00     0.060 A 
ATOM     81  C   UNL     1       6.121   5.533  -7.203  1.00  0.00     0.005 A 
ATOM     82  C   UNL     1       4.800   6.360  -5.329  1.00  0.00     0.120 A 
ATOM     83  C   UNL     1       5.113   6.358  -6.694  1.00  0.00     0.046 A 
BRANCH  82  84
ATOM     84  O   UNL     1       3.774   7.192  -4.979  1.00  0.00    -0.488 OA
BRANCH  84  85
ATOM     85  C   UNL     1       3.298   7.171  -3.627  1.00  0.00     0.302 C 
BRANCH  85  86
ATOM     86  C   UNL     1       2.310   6.042  -3.367  1.00  0.00     0.379 C 
ATOM     87  F   UNL     1       2.968   4.902  -3.032  1.00  0.00    -0.207 F 
ATOM     88  F   UNL     1       1.534   6.357  -2.298  1.00  0.00    -0.207 F 
ENDBRANCH  85  86
ENDBRANCH  84  85
ENDBRANCH  82  84
ENDBRANCH  75  78
ENDBRANCH  73  74
ENDBRANCH  72  73
ENDBRANCH   1  72
TORSDOF 17
