REMARK SMILES CCCC1CN(c2ccc(C(=O)NCC(=O)NCCCCNC(=O)c3ccc(-c4c5nc(c(-c6cc(S(=O)(=O)[O-])ccc6F)c6ccc([nH]6)c(-c6cc(S(=O)(=O)[O-])ccc6F)c6nc(c(-c7cc(S(=O)(=O)[O-])ccc7F)c7ccc4[nH]7)C=C6)C=C5)cc3)cc2)C1
REMARK SMILES IDX 18 1 17 2 15 3 16 4 14 6 13 7 11 8 12 9 10 11 7 12 8 13
REMARK SMILES IDX 89 14 9 15 88 16 6 17 4 18 5 19 90 20 3 21 2 22 1 23 19 24
REMARK SMILES IDX 20 25 21 26 22 27 23 28 24 30 25 31 26 32 87 33 27 34 86 35
REMARK SMILES IDX 28 36 29 37 30 38 80 39 31 40 85 41 79 42 81 43 32 44 84 45
REMARK SMILES IDX 78 46 77 47 33 49 65 50 45 51 64 52 46 53 49 54 63 55 82 56
REMARK SMILES IDX 47 57 48 58 62 60 83 61 50 62 34 63 35 64 43 65 36 66 42 67
REMARK SMILES IDX 44 68 41 69 37 70 38 71 39 72 40 73 66 74 67 75 75 76 68 77
REMARK SMILES IDX 74 78 76 79 73 80 69 81 70 82 71 83 72 84 51 85 52 86 60 87
REMARK SMILES IDX 53 88 59 89 61 90 58 91 54 92 55 93 56 94 57 95
REMARK H PARENT 17 5 13 10 22 29 81 48 49 59
REMARK Flexibility Score: inf
ROOT
ATOM      1  C   UNL     1      -2.904   3.865  -7.627  1.00  0.00     0.116 C 
ENDROOT
BRANCH   1   2
ATOM      2  N   UNL     1      -2.169   4.640  -8.603  1.00  0.00    -0.355 N 
ATOM      3  C   UNL     1      -1.807   5.950  -8.614  1.00  0.00     0.239 C 
ATOM      4  O   UNL     1      -1.012   6.301  -9.495  1.00  0.00    -0.273 OA
ATOM      5  H   UNL     1      -1.881   4.131  -9.396  1.00  0.00     0.163 HD
BRANCH   3   6
ATOM      6  C   UNL     1      -2.207   6.958  -7.521  1.00  0.00     0.216 C 
BRANCH   6   7
ATOM      7  N   UNL     1      -3.478   6.801  -6.838  1.00  0.00    -0.343 N 
ATOM      8  C   UNL     1      -3.888   6.435  -5.586  1.00  0.00     0.251 C 
ATOM      9  O   UNL     1      -5.097   6.554  -5.371  1.00  0.00    -0.269 OA
ATOM     10  H   UNL     1      -4.239   7.013  -7.426  1.00  0.00     0.164 HD
BRANCH   8  11
ATOM     11  C   UNL     1      -3.023   5.872  -4.499  1.00  0.00     0.039 A 
ATOM     12  C   UNL     1      -1.615   4.687  -2.324  1.00  0.00     0.037 A 
ATOM     13  C   UNL     1      -2.994   4.886  -2.256  1.00  0.00     0.027 A 
ATOM     14  C   UNL     1      -0.956   5.068  -3.493  1.00  0.00     0.027 A 
ATOM     15  C   UNL     1      -3.683   5.486  -3.318  1.00  0.00     0.016 A 
ATOM     16  C   UNL     1      -1.651   5.629  -4.574  1.00  0.00     0.016 A 
BRANCH  12  17
ATOM     17  N   UNL     1      -0.935   4.112  -1.242  1.00  0.00    -0.371 N 
ATOM     18  C   UNL     1       0.394   2.686  -0.554  1.00  0.00     0.028 C 
ATOM     19  C   UNL     1      -1.130   2.790  -0.727  1.00  0.00     0.122 C 
ATOM     20  C   UNL     1       0.440   4.186  -0.867  1.00  0.00     0.122 C 
BRANCH  18  21
ATOM     21  C   UNL     1       0.945   2.275   0.804  1.00  0.00     0.007 C 
BRANCH  21  22
ATOM     22  C   UNL     1       0.601   0.825   1.148  1.00  0.00    -0.003 C 
ATOM     23  C   UNL     1       1.205  -0.189   0.187  1.00  0.00     0.004 C 
ENDBRANCH  21  22
ENDBRANCH  18  21
ENDBRANCH  12  17
ENDBRANCH   8  11
ENDBRANCH   6   7
ENDBRANCH   3   6
ENDBRANCH   1   2
BRANCH   1  24
ATOM     24  C   UNL     1      -4.382   3.718  -7.970  1.00  0.00     0.023 C 
BRANCH  24  25
ATOM     25  C   UNL     1      -4.670   2.772  -9.138  1.00  0.00     0.023 C 
BRANCH  25  26
ATOM     26  C   UNL     1      -4.151   1.345  -8.977  1.00  0.00     0.116 C 
BRANCH  26  27
ATOM     27  N   UNL     1      -4.671   0.666  -7.800  1.00  0.00    -0.352 N 
ATOM     28  C   UNL     1      -5.066  -0.648  -7.673  1.00  0.00     0.251 C 
ATOM     29  H   UNL     1      -4.750   1.217  -6.988  1.00  0.00     0.163 HD
ATOM     30  O   UNL     1      -5.573  -1.042  -6.630  1.00  0.00    -0.269 OA
BRANCH  28  31
ATOM     31  C   UNL     1      -4.911  -1.561  -8.827  1.00  0.00     0.039 A 
ATOM     32  C   UNL     1      -6.022  -2.284  -9.269  1.00  0.00     0.014 A 
ATOM     33  C   UNL     1      -3.692  -1.653  -9.503  1.00  0.00     0.014 A 
ATOM     34  C   UNL     1      -5.934  -3.030 -10.446  1.00  0.00     0.010 A 
ATOM     35  C   UNL     1      -3.624  -2.348 -10.707  1.00  0.00     0.010 A 
ATOM     36  C   UNL     1      -4.749  -3.028 -11.200  1.00  0.00    -0.014 A 
BRANCH  36  37
ATOM     37  C   UNL     1      -4.668  -3.704 -12.521  1.00  0.00     0.031 A 
ATOM     38  C   UNL     1      -3.740  -4.870 -12.715  1.00  0.00     0.074 A 
ATOM     39  C   UNL     1      -5.365  -3.213 -13.565  1.00  0.00     0.049 A 
ATOM     40  N   UNL     1      -3.438  -5.515 -13.812  1.00  0.00    -0.248 NA
ATOM     41  C   UNL     1      -3.039  -5.353 -11.517  1.00  0.00     0.031 C 
ATOM     42  C   UNL     1      -6.277  -2.068 -13.509  1.00  0.00     0.029 A 
ATOM     43  N   UNL     1      -5.406  -3.604 -14.880  1.00  0.00    -0.354 N 
ATOM     44  C   UNL     1      -2.503  -6.475 -13.441  1.00  0.00     0.074 A 
ATOM     45  C   UNL     1      -2.247  -6.282 -12.028  1.00  0.00     0.031 C 
ATOM     46  C   UNL     1      -6.799  -1.862 -14.729  1.00  0.00     0.029 A 
ATOM     47  C   UNL     1      -6.225  -2.825 -15.664  1.00  0.00     0.049 A 
ATOM     48  H   UNL     1      -4.896  -4.371 -15.229  1.00  0.00     0.167 HD
ATOM     49  C   UNL     1      -1.930  -7.441 -14.202  1.00  0.00     0.034 A 
ATOM     50  C   UNL     1      -6.470  -2.868 -16.988  1.00  0.00     0.034 A 
ATOM     51  C   UNL     1      -2.200  -7.622 -15.608  1.00  0.00     0.049 A 
ATOM     52  C   UNL     1      -5.777  -3.910 -17.826  1.00  0.00     0.074 A 
ATOM     53  C   UNL     1      -1.719  -8.601 -16.461  1.00  0.00     0.029 A 
ATOM     54  N   UNL     1      -3.016  -6.798 -16.373  1.00  0.00    -0.354 N 
ATOM     55  N   UNL     1      -4.924  -4.836 -17.453  1.00  0.00    -0.248 NA
ATOM     56  C   UNL     1      -6.078  -3.911 -19.264  1.00  0.00     0.031 C 
ATOM     57  C   UNL     1      -2.193  -8.332 -17.751  1.00  0.00     0.029 A 
ATOM     58  C   UNL     1      -3.023  -7.224 -17.693  1.00  0.00     0.049 A 
ATOM     59  H   UNL     1      -3.516  -6.023 -16.028  1.00  0.00     0.167 HD
ATOM     60  C   UNL     1      -4.606  -5.545 -18.608  1.00  0.00     0.074 A 
ATOM     61  C   UNL     1      -5.366  -4.946 -19.686  1.00  0.00     0.031 C 
ATOM     62  C   UNL     1      -3.768  -6.602 -18.762  1.00  0.00     0.034 A 
BRANCH  49  63
ATOM     63  C   UNL     1      -0.937  -8.353 -13.522  1.00  0.00     0.023 A 
ATOM     64  C   UNL     1      -1.318  -9.194 -12.462  1.00  0.00     0.031 A 
ATOM     65  C   UNL     1       0.416  -8.348 -13.904  1.00  0.00     0.131 A 
ATOM     66  C   UNL     1      -0.346  -9.924 -11.762  1.00  0.00     0.055 A 
ATOM     67  C   UNL     1       1.365  -9.144 -13.258  1.00  0.00     0.041 A 
ATOM     68  F   UNL     1       0.844  -7.553 -14.896  1.00  0.00    -0.206 F 
ATOM     69  C   UNL     1       0.990  -9.924 -12.168  1.00  0.00     0.022 A 
BRANCH  66  70
ATOM     70  S   UNL     1      -0.829 -10.743 -10.217  1.00  0.00     0.124 S 
ATOM     71  O   UNL     1      -1.330  -9.618  -9.431  1.00  0.00    -0.237 OA
ATOM     72  O   UNL     1      -1.828 -11.704 -10.668  1.00  0.00    -0.237 OA
ATOM     73  O   UNL     1       0.422 -11.323  -9.732  1.00  0.00    -0.744 OA
ENDBRANCH  66  70
ENDBRANCH  49  63
BRANCH  50  74
ATOM     74  C   UNL     1      -7.398  -1.886 -17.615  1.00  0.00     0.023 A 
ATOM     75  C   UNL     1      -8.616  -2.304 -18.173  1.00  0.00     0.031 A 
ATOM     76  C   UNL     1      -7.066  -0.522 -17.698  1.00  0.00     0.131 A 
ATOM     77  C   UNL     1      -9.442  -1.375 -18.824  1.00  0.00     0.055 A 
ATOM     78  C   UNL     1      -7.912   0.406 -18.306  1.00  0.00     0.041 A 
ATOM     79  F   UNL     1      -5.914  -0.071 -17.175  1.00  0.00    -0.206 F 
ATOM     80  C   UNL     1      -9.104  -0.021 -18.884  1.00  0.00     0.022 A 
BRANCH  77  81
ATOM     81  S   UNL     1     -10.940  -1.975 -19.652  1.00  0.00     0.124 S 
ATOM     82  O   UNL     1     -10.387  -2.919 -20.618  1.00  0.00    -0.237 OA
ATOM     83  O   UNL     1     -11.688  -2.556 -18.542  1.00  0.00    -0.237 OA
ATOM     84  O   UNL     1     -11.521  -0.763 -20.226  1.00  0.00    -0.744 OA
ENDBRANCH  77  81
ENDBRANCH  50  74
BRANCH  62  85
ATOM     85  C   UNL     1      -3.662  -7.191 -20.145  1.00  0.00     0.023 A 
ATOM     86  C   UNL     1      -3.034  -6.498 -21.195  1.00  0.00     0.031 A 
ATOM     87  C   UNL     1      -4.204  -8.459 -20.417  1.00  0.00     0.131 A 
ATOM     88  C   UNL     1      -3.003  -7.059 -22.480  1.00  0.00     0.055 A 
ATOM     89  C   UNL     1      -4.125  -9.034 -21.686  1.00  0.00     0.041 A 
ATOM     90  F   UNL     1      -4.816  -9.161 -19.450  1.00  0.00    -0.206 F 
ATOM     91  C   UNL     1      -3.530  -8.329 -22.729  1.00  0.00     0.022 A 
BRANCH  88  92
ATOM     92  S   UNL     1      -2.319  -6.079 -23.845  1.00  0.00     0.124 S 
ATOM     93  O   UNL     1      -3.219  -4.929 -23.872  1.00  0.00    -0.237 OA
ATOM     94  O   UNL     1      -0.959  -5.812 -23.390  1.00  0.00    -0.237 OA
ATOM     95  O   UNL     1      -2.422  -6.974 -24.996  1.00  0.00    -0.744 OA
ENDBRANCH  88  92
ENDBRANCH  62  85
ENDBRANCH  36  37
ENDBRANCH  28  31
ENDBRANCH  26  27
ENDBRANCH  25  26
ENDBRANCH  24  25
ENDBRANCH   1  24
TORSDOF 19
