REMARK SMILES O=C1CCCC2=C1[C@H](c1ccc([N+](=O)[O-])cc1)CC(=O)N2c1ccccc1C(=O)NCCCCNC(=O)c1ccc(-c2c3nc(c(-c4cc(S(=O)(=O)[O-])ccc4F)c4ccc([nH]4)c(-c4cc(S(=O)(=O)[O-])ccc4F)c4nc(c(-c5cc(S(=O)(=O)[O-])ccc5F)c5ccc2[nH]5)C=C4)C=C3)cc1
REMARK SMILES IDX 32 1 31 2 30 3 28 4 29 5 27 7 22 8 23 9 24 10 26 11 25 12
REMARK SMILES IDX 21 13 1 14 2 15 3 16 7 17 4 18 6 19 8 20 5 21 18 22 19 23
REMARK SMILES IDX 20 24 9 25 10 26 17 27 11 28 16 29 12 30 13 31 14 32 15 33
REMARK SMILES IDX 33 34 34 35 35 36 36 37 37 39 38 40 39 41 100 42 40 43 99 44
REMARK SMILES IDX 41 45 42 46 43 47 93 48 44 49 98 50 92 51 94 52 45 53 97 54
REMARK SMILES IDX 91 55 90 56 46 58 78 59 58 60 77 61 59 62 62 63 76 64 95 65
REMARK SMILES IDX 60 66 61 67 75 69 96 70 63 71 47 72 48 73 56 74 49 75 55 76
REMARK SMILES IDX 57 77 54 78 50 79 51 80 52 81 53 82 79 83 80 84 88 85 81 86
REMARK SMILES IDX 87 87 89 88 86 89 82 90 83 91 84 92 85 93 64 94 65 95 73 96
REMARK SMILES IDX 66 97 72 98 74 99 71 100 67 101 68 102 69 103 70 104
REMARK H PARENT 30 6 35 38 94 57 62 68
REMARK Flexibility Score: inf
ROOT
ATOM      1  C   UNL     1       4.327  -1.319   3.174  1.00  0.00     0.023 C 
ENDROOT
BRANCH   1   2
ATOM      2  C   UNL     1       4.959  -1.137   1.801  1.00  0.00     0.116 C 
BRANCH   2   3
ATOM      3  N   UNL     1       6.324  -0.698   1.836  1.00  0.00    -0.352 N 
ATOM      4  C   UNL     1       7.420  -0.871   1.036  1.00  0.00     0.253 C 
ATOM      5  O   UNL     1       8.389  -0.213   1.447  1.00  0.00    -0.269 OA
ATOM      6  H   UNL     1       6.519  -0.140   2.624  1.00  0.00     0.163 HD
BRANCH   4   7
ATOM      7  C   UNL     1       7.621  -1.705  -0.222  1.00  0.00     0.063 A 
ATOM      8  C   UNL     1       6.769  -2.471  -1.054  1.00  0.00     0.061 A 
ATOM      9  C   UNL     1       7.320  -3.126  -2.202  1.00  0.00     0.027 A 
ATOM     10  C   UNL     1       8.665  -3.070  -2.540  1.00  0.00     0.002 A 
ATOM     11  C   UNL     1       9.000  -1.695  -0.608  1.00  0.00     0.016 A 
ATOM     12  C   UNL     1       9.514  -2.353  -1.731  1.00  0.00     0.001 A 
BRANCH   8  13
ATOM     13  N   UNL     1       5.345  -2.656  -0.966  1.00  0.00    -0.284 N 
ATOM     14  O   UNL     1       1.284  -1.066  -2.275  1.00  0.00    -0.294 OA
ATOM     15  C   UNL     1       2.221  -0.790  -1.533  1.00  0.00     0.161 C 
ATOM     16  C   UNL     1       2.669   0.629  -1.263  1.00  0.00     0.081 C 
ATOM     17  C   UNL     1       3.104  -1.874  -1.014  1.00  0.00     0.023 C 
ATOM     18  C   UNL     1       3.974   0.822  -2.001  1.00  0.00     0.015 C 
ATOM     19  C   UNL     1       4.425  -1.617  -1.176  1.00  0.00     0.033 C 
ATOM     20  C   UNL     1       2.524  -3.255  -0.721  1.00  0.00     0.064 C 
ATOM     21  C   UNL     1       4.987  -0.268  -1.639  1.00  0.00     0.055 C 
ATOM     22  C   UNL     1       3.474  -4.259  -1.353  1.00  0.00     0.114 C 
ATOM     23  C   UNL     1       4.911  -4.007  -0.940  1.00  0.00     0.232 C 
ATOM     24  O   UNL     1       5.642  -4.968  -0.683  1.00  0.00    -0.274 OA
BRANCH  20  25
ATOM     25  C   UNL     1       2.194  -3.610   0.751  1.00  0.00    -0.039 A 
ATOM     26  C   UNL     1       3.082  -4.258   1.633  1.00  0.00     0.011 A 
ATOM     27  C   UNL     1       0.911  -3.332   1.257  1.00  0.00     0.011 A 
ATOM     28  C   UNL     1       2.759  -4.481   2.984  1.00  0.00     0.086 A 
ATOM     29  C   UNL     1       0.593  -3.490   2.617  1.00  0.00     0.086 A 
ATOM     30  C   UNL     1       1.540  -4.026   3.485  1.00  0.00     0.269 A 
BRANCH  30  31
ATOM     31  N   UNL     1       1.301  -4.029   4.933  1.00  0.00     0.062 N 
ATOM     32  O   UNL     1       2.022  -4.758   5.630  1.00  0.00    -0.258 OA
ATOM     33  O   UNL     1       0.426  -3.270   5.370  1.00  0.00    -0.258 OA
ENDBRANCH  30  31
ENDBRANCH  20  25
ENDBRANCH   8  13
ENDBRANCH   4   7
ENDBRANCH   2   3
ENDBRANCH   1   2
BRANCH   1  34
ATOM     34  C   UNL     1       3.416  -0.240   3.750  1.00  0.00     0.023 C 
BRANCH  34  35
ATOM     35  C   UNL     1       2.422   0.498   2.858  1.00  0.00     0.116 C 
BRANCH  35  36
ATOM     36  N   UNL     1       1.700  -0.286   1.871  1.00  0.00    -0.352 N 
ATOM     37  C   UNL     1       0.414  -0.136   1.384  1.00  0.00     0.251 C 
ATOM     38  H   UNL     1       2.204  -1.041   1.490  1.00  0.00     0.163 HD
ATOM     39  O   UNL     1       0.074  -0.648   0.332  1.00  0.00    -0.269 OA
BRANCH  37  40
ATOM     40  C   UNL     1      -0.606   0.522   2.196  1.00  0.00     0.039 A 
ATOM     41  C   UNL     1      -1.768  -0.202   2.498  1.00  0.00     0.014 A 
ATOM     42  C   UNL     1      -0.372   1.778   2.731  1.00  0.00     0.014 A 
ATOM     43  C   UNL     1      -2.637   0.286   3.463  1.00  0.00     0.010 A 
ATOM     44  C   UNL     1      -1.171   2.205   3.770  1.00  0.00     0.010 A 
ATOM     45  C   UNL     1      -2.301   1.458   4.148  1.00  0.00    -0.014 A 
BRANCH  45  46
ATOM     46  C   UNL     1      -3.134   1.990   5.241  1.00  0.00     0.031 A 
ATOM     47  C   UNL     1      -3.736   3.349   5.054  1.00  0.00     0.074 A 
ATOM     48  C   UNL     1      -3.213   1.321   6.405  1.00  0.00     0.049 A 
ATOM     49  N   UNL     1      -4.250   4.157   5.937  1.00  0.00    -0.248 NA
ATOM     50  C   UNL     1      -3.667   3.904   3.690  1.00  0.00     0.031 C 
ATOM     51  C   UNL     1      -2.609   0.013   6.681  1.00  0.00     0.029 A 
ATOM     52  N   UNL     1      -3.811   1.663   7.586  1.00  0.00    -0.354 N 
ATOM     53  C   UNL     1      -4.526   5.331   5.246  1.00  0.00     0.074 A 
ATOM     54  C   UNL     1      -4.041   5.155   3.895  1.00  0.00     0.031 C 
ATOM     55  C   UNL     1      -2.881  -0.339   7.948  1.00  0.00     0.029 A 
ATOM     56  C   UNL     1      -3.633   0.734   8.585  1.00  0.00     0.049 A 
ATOM     57  H   UNL     1      -4.321   2.497   7.710  1.00  0.00     0.167 HD
ATOM     58  C   UNL     1      -5.158   6.440   5.697  1.00  0.00     0.034 A 
ATOM     59  C   UNL     1      -4.028   0.771   9.872  1.00  0.00     0.034 A 
ATOM     60  C   UNL     1      -5.661   6.551   7.042  1.00  0.00     0.049 A 
ATOM     61  C   UNL     1      -4.787   1.990  10.333  1.00  0.00     0.074 A 
ATOM     62  C   UNL     1      -6.335   7.600   7.637  1.00  0.00     0.029 A 
ATOM     63  N   UNL     1      -5.557   5.547   8.001  1.00  0.00    -0.354 N 
ATOM     64  N   UNL     1      -5.053   3.097   9.673  1.00  0.00    -0.248 NA
ATOM     65  C   UNL     1      -5.318   1.959  11.699  1.00  0.00     0.031 C 
ATOM     66  C   UNL     1      -6.615   7.241   8.961  1.00  0.00     0.029 A 
ATOM     67  C   UNL     1      -6.165   5.946   9.178  1.00  0.00     0.049 A 
ATOM     68  H   UNL     1      -5.115   4.678   7.862  1.00  0.00     0.167 HD
ATOM     69  C   UNL     1      -5.804   3.884  10.539  1.00  0.00     0.074 A 
ATOM     70  C   UNL     1      -5.974   3.108  11.753  1.00  0.00     0.031 C 
ATOM     71  C   UNL     1      -6.305   5.134  10.363  1.00  0.00     0.034 A 
BRANCH  58  72
ATOM     72  C   UNL     1      -5.318   7.582   4.723  1.00  0.00     0.023 A 
ATOM     73  C   UNL     1      -6.033   7.422   3.521  1.00  0.00     0.031 A 
ATOM     74  C   UNL     1      -4.682   8.814   4.947  1.00  0.00     0.131 A 
ATOM     75  C   UNL     1      -6.007   8.431   2.548  1.00  0.00     0.055 A 
ATOM     76  C   UNL     1      -4.740   9.852   4.013  1.00  0.00     0.041 A 
ATOM     77  F   UNL     1      -3.963   9.021   6.062  1.00  0.00    -0.206 F 
ATOM     78  C   UNL     1      -5.388   9.657   2.797  1.00  0.00     0.022 A 
BRANCH  75  79
ATOM     79  S   UNL     1      -6.651   8.054   0.895  1.00  0.00     0.124 S 
ATOM     80  O   UNL     1      -5.727   7.011   0.453  1.00  0.00    -0.237 OA
ATOM     81  O   UNL     1      -8.015   7.620   1.177  1.00  0.00    -0.237 OA
ATOM     82  O   UNL     1      -6.534   9.325   0.184  1.00  0.00    -0.744 OA
ENDBRANCH  75  79
ENDBRANCH  58  72
BRANCH  59  83
ATOM     83  C   UNL     1      -3.733  -0.358  10.800  1.00  0.00     0.023 A 
ATOM     84  C   UNL     1      -4.771  -1.125  11.353  1.00  0.00     0.031 A 
ATOM     85  C   UNL     1      -2.415  -0.666  11.183  1.00  0.00     0.131 A 
ATOM     86  C   UNL     1      -4.484  -2.119  12.302  1.00  0.00     0.055 A 
ATOM     87  C   UNL     1      -2.130  -1.692  12.087  1.00  0.00     0.041 A 
ATOM     88  F   UNL     1      -1.382   0.026  10.678  1.00  0.00    -0.206 F 
ATOM     89  C   UNL     1      -3.169  -2.415  12.666  1.00  0.00     0.022 A 
BRANCH  86  90
ATOM     90  S   UNL     1      -5.867  -2.952  13.130  1.00  0.00     0.124 S 
ATOM     91  O   UNL     1      -6.631  -1.822  13.647  1.00  0.00    -0.237 OA
ATOM     92  O   UNL     1      -6.479  -3.688  12.029  1.00  0.00    -0.237 OA
ATOM     93  O   UNL     1      -5.211  -3.777  14.143  1.00  0.00    -0.744 OA
ENDBRANCH  86  90
ENDBRANCH  59  83
BRANCH  71  94
ATOM     94  C   UNL     1      -7.110   5.695  11.505  1.00  0.00     0.023 A 
ATOM     95  C   UNL     1      -6.512   6.011  12.735  1.00  0.00     0.031 A 
ATOM     96  C   UNL     1      -8.496   5.882  11.367  1.00  0.00     0.131 A 
ATOM     97  C   UNL     1      -7.309   6.428  13.808  1.00  0.00     0.055 A 
ATOM     98  C   UNL     1      -9.275   6.360  12.420  1.00  0.00     0.041 A 
ATOM     99  F   UNL     1      -9.114   5.597  10.210  1.00  0.00    -0.206 F 
ATOM    100  C   UNL     1      -8.685   6.619  13.654  1.00  0.00     0.022 A 
BRANCH  97 101
ATOM    101  S   UNL     1      -6.538   6.606  15.439  1.00  0.00     0.124 S 
ATOM    102  O   UNL     1      -5.968   5.280  15.652  1.00  0.00    -0.237 OA
ATOM    103  O   UNL     1      -5.579   7.683  15.213  1.00  0.00    -0.237 OA
ATOM    104  O   UNL     1      -7.660   6.948  16.312  1.00  0.00    -0.744 OA
ENDBRANCH  97 101
ENDBRANCH  71  94
ENDBRANCH  45  46
ENDBRANCH  37  40
ENDBRANCH  35  36
ENDBRANCH  34  35
ENDBRANCH   1  34
TORSDOF 17
