REMARK SMILES CCC[C@@H](C)C[NH2+][C@@](C)(CC)C(=O)NCCCCNC(=O)c1ccc(-c2c3nc(c(-c4cc(S(=O)(=O)[O-])ccc4F)c4ccc([nH]4)c(-c4cc(S(=O)(=O)[O-])ccc4F)c4nc(c(-c5cc(S(=O)(=O)[O-])ccc5F)c5ccc2[nH]5)C=C4)C=C3)cc1
REMARK SMILES IDX 15 1 14 2 12 3 13 4 8 6 9 7 7 8 6 11 4 12 5 13 3 14 2 15
REMARK SMILES IDX 1 16 10 17 11 18 16 19 17 20 18 21 19 22 20 23 21 25 22 26
REMARK SMILES IDX 23 27 84 28 24 29 83 30 25 31 26 32 27 33 77 34 28 35 82 36
REMARK SMILES IDX 76 37 78 38 29 39 81 40 75 41 74 42 30 44 62 45 42 46 61 47
REMARK SMILES IDX 43 48 46 49 60 50 79 51 44 52 45 53 59 55 80 56 47 57 31 58
REMARK SMILES IDX 32 59 40 60 33 61 39 62 41 63 38 64 34 65 35 66 36 67 37 68
REMARK SMILES IDX 63 69 64 70 72 71 65 72 71 73 73 74 70 75 66 76 67 77 68 78
REMARK SMILES IDX 69 79 48 80 49 81 57 82 50 83 56 84 58 85 55 86 51 87 52 88
REMARK SMILES IDX 53 89 54 90
REMARK H PARENT 14 5 7 9 7 10 19 24 78 43 46 54
REMARK Flexibility Score: inf
ROOT
ATOM      1  C   UNL     1       3.889  -0.291  -8.604  1.00  0.00     0.116 C 
ENDROOT
BRANCH   1   2
ATOM      2  N   UNL     1       2.981  -1.073  -7.791  1.00  0.00    -0.351 N 
ATOM      3  C   UNL     1       2.595  -0.987  -6.487  1.00  0.00     0.281 C 
ATOM      4  O   UNL     1       1.887  -1.922  -6.097  1.00  0.00    -0.268 OA
ATOM      5  H   UNL     1       2.558  -1.817  -8.278  1.00  0.00     0.163 HD
BRANCH   3   6
ATOM      6  C   UNL     1       3.028   0.204  -5.553  1.00  0.00     0.172 C 
ATOM      7  C   UNL     1       2.602   1.566  -6.140  1.00  0.00     0.090 C 
BRANCH   6   8
ATOM      8  N   UNL     1       2.417   0.069  -4.192  1.00  0.00    -0.334 N 
ATOM      9  H   UNL     1       2.679  -0.846  -3.823  1.00  0.00     0.347 HD
ATOM     10  H   UNL     1       2.776   0.857  -3.652  1.00  0.00     0.347 HD
BRANCH   8  11
ATOM     11  C   UNL     1       0.957   0.178  -4.124  1.00  0.00     0.264 C 
BRANCH  11  12
ATOM     12  C   UNL     1       0.451   0.060  -2.663  1.00  0.00     0.041 C 
ATOM     13  C   UNL     1      -1.079  -0.055  -2.678  1.00  0.00     0.013 C 
BRANCH  12  14
ATOM     14  C   UNL     1       0.916   1.257  -1.802  1.00  0.00     0.009 C 
BRANCH  14  15
ATOM     15  C   UNL     1       0.481   1.235  -0.333  1.00  0.00    -0.003 C 
ATOM     16  C   UNL     1       0.999   0.026   0.430  1.00  0.00     0.004 C 
ENDBRANCH  14  15
ENDBRANCH  12  14
ENDBRANCH  11  12
ENDBRANCH   8  11
ENDBRANCH   6   8
BRANCH   6  17
ATOM     17  C   UNL     1       4.565   0.184  -5.324  1.00  0.00     0.075 C 
ATOM     18  C   UNL     1       5.106  -1.116  -4.730  1.00  0.00     0.011 C 
ENDBRANCH   6  17
ENDBRANCH   3   6
ENDBRANCH   1   2
BRANCH   1  19
ATOM     19  C   UNL     1       5.184  -1.046  -8.897  1.00  0.00     0.023 C 
BRANCH  19  20
ATOM     20  C   UNL     1       5.021  -2.289  -9.774  1.00  0.00     0.023 C 
BRANCH  20  21
ATOM     21  C   UNL     1       4.289  -2.066 -11.093  1.00  0.00     0.116 C 
BRANCH  21  22
ATOM     22  N   UNL     1       4.901  -1.041 -11.925  1.00  0.00    -0.352 N 
ATOM     23  C   UNL     1       5.026  -1.026 -13.295  1.00  0.00     0.251 C 
ATOM     24  H   UNL     1       5.272  -0.263 -11.449  1.00  0.00     0.163 HD
ATOM     25  O   UNL     1       5.657  -0.133 -13.851  1.00  0.00    -0.269 OA
BRANCH  23  26
ATOM     26  C   UNL     1       4.423  -2.126 -14.075  1.00  0.00     0.039 A 
ATOM     27  C   UNL     1       5.229  -2.860 -14.947  1.00  0.00     0.014 A 
ATOM     28  C   UNL     1       3.083  -2.471 -13.881  1.00  0.00     0.014 A 
ATOM     29  C   UNL     1       4.708  -3.995 -15.573  1.00  0.00     0.010 A 
ATOM     30  C   UNL     1       2.586  -3.634 -14.457  1.00  0.00     0.010 A 
ATOM     31  C   UNL     1       3.396  -4.412 -15.302  1.00  0.00    -0.014 A 
BRANCH  31  32
ATOM     32  C   UNL     1       2.824  -5.645 -15.900  1.00  0.00     0.031 A 
ATOM     33  C   UNL     1       1.657  -5.531 -16.842  1.00  0.00     0.074 A 
ATOM     34  C   UNL     1       3.284  -6.856 -15.530  1.00  0.00     0.049 A 
ATOM     35  N   UNL     1       0.882  -6.468 -17.323  1.00  0.00    -0.248 NA
ATOM     36  C   UNL     1       1.297  -4.170 -17.267  1.00  0.00     0.031 C 
ATOM     37  C   UNL     1       4.401  -7.096 -14.614  1.00  0.00     0.029 A 
ATOM     38  N   UNL     1       2.855  -8.117 -15.864  1.00  0.00    -0.354 N 
ATOM     39  C   UNL     1      -0.074  -5.809 -18.087  1.00  0.00     0.074 A 
ATOM     40  C   UNL     1       0.192  -4.391 -17.962  1.00  0.00     0.031 C 
ATOM     41  C   UNL     1       4.574  -8.420 -14.468  1.00  0.00     0.029 A 
ATOM     42  C   UNL     1       3.552  -9.124 -15.236  1.00  0.00     0.049 A 
ATOM     43  H   UNL     1       2.117  -8.285 -16.494  1.00  0.00     0.167 HD
ATOM     44  C   UNL     1      -1.072  -6.339 -18.838  1.00  0.00     0.034 A 
ATOM     45  C   UNL     1       3.370 -10.459 -15.261  1.00  0.00     0.034 A 
ATOM     46  C   UNL     1      -1.311  -7.755 -18.966  1.00  0.00     0.049 A 
ATOM     47  C   UNL     1       2.243 -11.026 -16.089  1.00  0.00     0.074 A 
ATOM     48  C   UNL     1      -2.283  -8.405 -19.706  1.00  0.00     0.029 A 
ATOM     49  N   UNL     1      -0.560  -8.743 -18.343  1.00  0.00    -0.354 N 
ATOM     50  N   UNL     1       1.343 -10.390 -16.803  1.00  0.00    -0.248 NA
ATOM     51  C   UNL     1       2.111 -12.489 -16.119  1.00  0.00     0.031 C 
ATOM     52  C   UNL     1      -2.146  -9.782 -19.498  1.00  0.00     0.029 A 
ATOM     53  C   UNL     1      -1.050  -9.995 -18.677  1.00  0.00     0.049 A 
ATOM     54  H   UNL     1       0.208  -8.579 -17.750  1.00  0.00     0.167 HD
ATOM     55  C   UNL     1       0.568 -11.380 -17.402  1.00  0.00     0.074 A 
ATOM     56  C   UNL     1       1.104 -12.652 -16.964  1.00  0.00     0.031 C 
ATOM     57  C   UNL     1      -0.488 -11.250 -18.244  1.00  0.00     0.034 A 
BRANCH  44  58
ATOM     58  C   UNL     1      -1.984  -5.372 -19.550  1.00  0.00     0.023 A 
ATOM     59  C   UNL     1      -1.503  -4.511 -20.552  1.00  0.00     0.031 A 
ATOM     60  C   UNL     1      -3.341  -5.275 -19.194  1.00  0.00     0.131 A 
ATOM     61  C   UNL     1      -2.347  -3.537 -21.102  1.00  0.00     0.055 A 
ATOM     62  C   UNL     1      -4.198  -4.358 -19.807  1.00  0.00     0.041 A 
ATOM     63  F   UNL     1      -3.853  -6.056 -18.230  1.00  0.00    -0.206 F 
ATOM     64  C   UNL     1      -3.698  -3.471 -20.756  1.00  0.00     0.022 A 
BRANCH  61  65
ATOM     65  S   UNL     1      -1.617  -2.265 -22.169  1.00  0.00     0.124 S 
ATOM     66  O   UNL     1      -0.680  -1.617 -21.253  1.00  0.00    -0.237 OA
ATOM     67  O   UNL     1      -1.020  -3.053 -23.240  1.00  0.00    -0.237 OA
ATOM     68  O   UNL     1      -2.763  -1.446 -22.559  1.00  0.00    -0.744 OA
ENDBRANCH  61  65
ENDBRANCH  44  58
BRANCH  45  69
ATOM     69  C   UNL     1       4.258 -11.363 -14.476  1.00  0.00     0.023 A 
ATOM     70  C   UNL     1       5.100 -12.282 -15.122  1.00  0.00     0.031 A 
ATOM     71  C   UNL     1       4.236 -11.365 -13.070  1.00  0.00     0.131 A 
ATOM     72  C   UNL     1       5.845 -13.201 -14.368  1.00  0.00     0.055 A 
ATOM     73  C   UNL     1       5.018 -12.248 -12.322  1.00  0.00     0.041 A 
ATOM     74  F   UNL     1       3.453 -10.503 -12.402  1.00  0.00    -0.206 F 
ATOM     75  C   UNL     1       5.817 -13.184 -12.972  1.00  0.00     0.022 A 
BRANCH  72  76
ATOM     76  S   UNL     1       6.778 -14.486 -15.244  1.00  0.00     0.124 S 
ATOM     77  O   UNL     1       5.732 -15.126 -16.035  1.00  0.00    -0.237 OA
ATOM     78  O   UNL     1       7.754 -13.697 -15.987  1.00  0.00    -0.237 OA
ATOM     79  O   UNL     1       7.330 -15.302 -14.164  1.00  0.00    -0.744 OA
ENDBRANCH  72  76
ENDBRANCH  45  69
BRANCH  57  80
ATOM     80  C   UNL     1      -1.072 -12.517 -18.810  1.00  0.00     0.023 A 
ATOM     81  C   UNL     1      -1.817 -13.411 -18.022  1.00  0.00     0.031 A 
ATOM     82  C   UNL     1      -0.880 -12.826 -20.168  1.00  0.00     0.131 A 
ATOM     83  C   UNL     1      -2.310 -14.595 -18.592  1.00  0.00     0.055 A 
ATOM     84  C   UNL     1      -1.411 -13.982 -20.740  1.00  0.00     0.041 A 
ATOM     85  F   UNL     1      -0.176 -12.003 -20.962  1.00  0.00    -0.206 F 
ATOM     86  C   UNL     1      -2.123 -14.879 -19.948  1.00  0.00     0.022 A 
BRANCH  83  87
ATOM     87  S   UNL     1      -3.154 -15.792 -17.523  1.00  0.00     0.124 S 
ATOM     88  O   UNL     1      -2.107 -16.137 -16.566  1.00  0.00    -0.237 OA
ATOM     89  O   UNL     1      -4.267 -15.011 -16.995  1.00  0.00    -0.237 OA
ATOM     90  O   UNL     1      -3.533 -16.865 -18.441  1.00  0.00    -0.744 OA
ENDBRANCH  83  87
ENDBRANCH  57  80
ENDBRANCH  31  32
ENDBRANCH  23  26
ENDBRANCH  21  22
ENDBRANCH  20  21
ENDBRANCH  19  20
ENDBRANCH   1  19
TORSDOF 20
