REMARK SMILES N#C[C@H]1CN(c2cc(C(=O)NCCCCNC(=O)c3ccc(-c4c5nc(c(-c6cc(S(=O)(=O)[O-])ccc6F)c6ccc([nH]6)c(-c6cc(S(=O)(=O)[O-])ccc6F)c6nc(c(-c7cc(S(=O)(=O)[O-])ccc7F)c7ccc4[nH]7)C=C6)C=C5)cc3)c(N)cc2F)CCO1
REMARK SMILES IDX 14 1 13 2 12 3 11 4 9 5 10 6 8 8 6 9 7 10 85 11 84 12 86 13
REMARK SMILES IDX 82 14 5 15 3 16 4 17 89 18 88 19 87 20 2 21 1 22 83 23 15 26
REMARK SMILES IDX 16 27 17 28 18 30 19 31 20 32 81 33 21 34 80 35 22 36 23 37
REMARK SMILES IDX 24 38 74 39 25 40 79 41 73 42 75 43 26 44 78 45 72 46 71 47
REMARK SMILES IDX 27 49 59 50 39 51 58 52 40 53 43 54 57 55 76 56 41 57 42 58
REMARK SMILES IDX 56 60 77 61 44 62 28 63 29 64 37 65 30 66 36 67 38 68 35 69
REMARK SMILES IDX 31 70 32 71 33 72 34 73 60 74 61 75 69 76 62 77 68 78 70 79
REMARK SMILES IDX 67 80 63 81 64 82 65 83 66 84 45 85 46 86 54 87 47 88 53 89
REMARK SMILES IDX 55 90 52 91 48 92 49 93 50 94 51 95
REMARK H PARENT 11 7 83 24 83 25 16 29 75 48 43 59
REMARK Flexibility Score: inf
ROOT
ATOM      1  C   UNL     1       0.862   7.987  -6.566  1.00  0.00     0.023 C 
ENDROOT
BRANCH   1   2
ATOM      2  C   UNL     1       0.410   6.793  -5.732  1.00  0.00     0.023 C 
BRANCH   2   3
ATOM      3  C   UNL     1       1.192   5.502  -5.921  1.00  0.00     0.116 C 
BRANCH   3   4
ATOM      4  N   UNL     1       2.599   5.545  -5.574  1.00  0.00    -0.352 N 
ATOM      5  C   UNL     1       3.422   4.540  -5.106  1.00  0.00     0.253 C 
ATOM      6  O   UNL     1       4.612   4.805  -4.932  1.00  0.00    -0.269 OA
ATOM      7  H   UNL     1       3.033   6.422  -5.690  1.00  0.00     0.163 HD
BRANCH   5   8
ATOM      8  C   UNL     1       2.924   3.177  -4.724  1.00  0.00     0.065 A 
ATOM      9  C   UNL     1       3.228   1.300  -3.164  1.00  0.00     0.074 A 
ATOM     10  C   UNL     1       3.585   2.572  -3.626  1.00  0.00     0.045 A 
ATOM     11  C   UNL     1       2.075   0.729  -3.716  1.00  0.00     0.148 A 
ATOM     12  C   UNL     1       1.426   1.290  -4.805  1.00  0.00     0.067 A 
ATOM     13  F   UNL     1       1.606  -0.433  -3.232  1.00  0.00    -0.205 F 
ATOM     14  C   UNL     1       1.925   2.450  -5.401  1.00  0.00     0.047 A 
BRANCH   9  15
ATOM     15  N   UNL     1       4.033   0.601  -2.291  1.00  0.00    -0.363 N 
ATOM     16  C   UNL     1       3.874   0.011   0.094  1.00  0.00     0.240 C 
ATOM     17  C   UNL     1       4.369   1.058  -0.939  1.00  0.00     0.164 C 
ATOM     18  O   UNL     1       4.359  -1.320  -0.227  1.00  0.00    -0.360 OA
ATOM     19  C   UNL     1       3.909  -1.727  -1.530  1.00  0.00     0.183 C 
ATOM     20  C   UNL     1       4.428  -0.777  -2.614  1.00  0.00     0.145 C 
BRANCH  16  21
ATOM     21  C   UNL     1       4.325   0.387   1.448  1.00  0.00     0.096 C 
ATOM     22  N   UNL     1       4.668   0.688   2.513  1.00  0.00    -0.195 NA
ENDBRANCH  16  21
ENDBRANCH   9  15
BRANCH  14  23
ATOM     23  N   UNL     1       1.426   2.779  -6.653  1.00  0.00    -0.398 N 
ATOM     24  H   UNL     1       1.747   3.588  -7.114  1.00  0.00     0.156 HD
ATOM     25  H   UNL     1       0.751   2.204  -7.081  1.00  0.00     0.156 HD
ENDBRANCH  14  23
ENDBRANCH   5   8
ENDBRANCH   3   4
ENDBRANCH   2   3
ENDBRANCH   1   2
BRANCH   1  26
ATOM     26  C   UNL     1       1.069   7.729  -8.055  1.00  0.00     0.116 C 
BRANCH  26  27
ATOM     27  N   UNL     1      -0.141   7.309  -8.751  1.00  0.00    -0.352 N 
ATOM     28  C   UNL     1      -0.836   7.938  -9.762  1.00  0.00     0.251 C 
ATOM     29  H   UNL     1      -0.518   6.449  -8.456  1.00  0.00     0.163 HD
ATOM     30  O   UNL     1      -1.913   7.484 -10.137  1.00  0.00    -0.269 OA
BRANCH  28  31
ATOM     31  C   UNL     1      -0.297   9.180 -10.358  1.00  0.00     0.039 A 
ATOM     32  C   UNL     1      -1.131  10.292 -10.498  1.00  0.00     0.014 A 
ATOM     33  C   UNL     1       1.047   9.262 -10.725  1.00  0.00     0.014 A 
ATOM     34  C   UNL     1      -0.589  11.513 -10.912  1.00  0.00     0.010 A 
ATOM     35  C   UNL     1       1.603  10.499 -11.033  1.00  0.00     0.010 A 
ATOM     36  C   UNL     1       0.793  11.642 -11.131  1.00  0.00    -0.014 A 
BRANCH  36  37
ATOM     37  C   UNL     1       1.416  12.947 -11.485  1.00  0.00     0.031 A 
ATOM     38  C   UNL     1       2.165  13.084 -12.785  1.00  0.00     0.074 A 
ATOM     39  C   UNL     1       1.367  13.983 -10.621  1.00  0.00     0.049 A 
ATOM     40  N   UNL     1       2.882  14.086 -13.226  1.00  0.00    -0.248 NA
ATOM     41  C   UNL     1       2.127  11.929 -13.696  1.00  0.00     0.031 C 
ATOM     42  C   UNL     1       0.692  13.972  -9.321  1.00  0.00     0.029 A 
ATOM     43  N   UNL     1       1.903  15.246 -10.699  1.00  0.00    -0.354 N 
ATOM     44  C   UNL     1       3.381  13.680 -14.459  1.00  0.00     0.074 A 
ATOM     45  C   UNL     1       2.948  12.315 -14.660  1.00  0.00     0.031 C 
ATOM     46  C   UNL     1       0.831  15.176  -8.740  1.00  0.00     0.029 A 
ATOM     47  C   UNL     1       1.658  16.027  -9.591  1.00  0.00     0.049 A 
ATOM     48  H   UNL     1       2.416  15.565 -11.477  1.00  0.00     0.167 HD
ATOM     49  C   UNL     1       4.105  14.390 -15.357  1.00  0.00     0.034 A 
ATOM     50  C   UNL     1       2.070  17.275  -9.284  1.00  0.00     0.034 A 
ATOM     51  C   UNL     1       4.523  15.753 -15.152  1.00  0.00     0.049 A 
ATOM     52  C   UNL     1       2.940  18.018 -10.274  1.00  0.00     0.074 A 
ATOM     53  C   UNL     1       5.240  16.570 -16.009  1.00  0.00     0.029 A 
ATOM     54  N   UNL     1       4.264  16.503 -14.012  1.00  0.00    -0.354 N 
ATOM     55  N   UNL     1       3.379  17.625 -11.448  1.00  0.00    -0.248 NA
ATOM     56  C   UNL     1       3.362  19.376  -9.904  1.00  0.00     0.031 C 
ATOM     57  C   UNL     1       5.483  17.781 -15.358  1.00  0.00     0.029 A 
ATOM     58  C   UNL     1       4.831  17.761 -14.136  1.00  0.00     0.049 A 
ATOM     59  H   UNL     1       3.754  16.187 -13.232  1.00  0.00     0.167 HD
ATOM     60  C   UNL     1       4.079  18.709 -11.974  1.00  0.00     0.074 A 
ATOM     61  C   UNL     1       3.998  19.771 -10.996  1.00  0.00     0.031 C 
ATOM     62  C   UNL     1       4.726  18.819 -13.161  1.00  0.00     0.034 A 
BRANCH  49  63
ATOM     63  C   UNL     1       4.500  13.702 -16.640  1.00  0.00     0.023 A 
ATOM     64  C   UNL     1       3.537  13.269 -17.568  1.00  0.00     0.031 A 
ATOM     65  C   UNL     1       5.855  13.487 -16.948  1.00  0.00     0.131 A 
ATOM     66  C   UNL     1       3.938  12.595 -18.730  1.00  0.00     0.055 A 
ATOM     67  C   UNL     1       6.251  12.892 -18.146  1.00  0.00     0.041 A 
ATOM     68  F   UNL     1       6.818  13.855 -16.087  1.00  0.00    -0.206 F 
ATOM     69  C   UNL     1       5.290  12.432 -19.041  1.00  0.00     0.022 A 
BRANCH  66  70
ATOM     70  S   UNL     1       2.665  11.825 -19.765  1.00  0.00     0.124 S 
ATOM     71  O   UNL     1       2.050  10.889 -18.827  1.00  0.00    -0.237 OA
ATOM     72  O   UNL     1       1.846  12.965 -20.161  1.00  0.00    -0.237 OA
ATOM     73  O   UNL     1       3.431  11.203 -20.843  1.00  0.00    -0.744 OA
ENDBRANCH  66  70
ENDBRANCH  49  63
BRANCH  50  74
ATOM     74  C   UNL     1       1.706  17.912  -7.981  1.00  0.00     0.023 A 
ATOM     75  C   UNL     1       1.006  19.129  -7.943  1.00  0.00     0.031 A 
ATOM     76  C   UNL     1       2.143  17.372  -6.758  1.00  0.00     0.131 A 
ATOM     77  C   UNL     1       0.845  19.809  -6.725  1.00  0.00     0.055 A 
ATOM     78  C   UNL     1       1.907  18.012  -5.539  1.00  0.00     0.041 A 
ATOM     79  F   UNL     1       2.821  16.213  -6.728  1.00  0.00    -0.206 F 
ATOM     80  C   UNL     1       1.274  19.250  -5.521  1.00  0.00     0.022 A 
BRANCH  77  81
ATOM     81  S   UNL     1       0.214  21.510  -6.762  1.00  0.00     0.124 S 
ATOM     82  O   UNL     1       1.153  22.150  -7.676  1.00  0.00    -0.237 OA
ATOM     83  O   UNL     1      -1.142  21.319  -7.264  1.00  0.00    -0.237 OA
ATOM     84  O   UNL     1       0.308  21.937  -5.368  1.00  0.00    -0.744 OA
ENDBRANCH  77  81
ENDBRANCH  50  74
BRANCH  62  85
ATOM     85  C   UNL     1       5.321  20.162 -13.512  1.00  0.00     0.023 A 
ATOM     86  C   UNL     1       6.387  20.724 -12.789  1.00  0.00     0.031 A 
ATOM     87  C   UNL     1       4.811  20.886 -14.607  1.00  0.00     0.131 A 
ATOM     88  C   UNL     1       6.873  21.994 -13.136  1.00  0.00     0.055 A 
ATOM     89  C   UNL     1       5.347  22.115 -14.992  1.00  0.00     0.041 A 
ATOM     90  F   UNL     1       3.789  20.401 -15.331  1.00  0.00    -0.206 F 
ATOM     91  C   UNL     1       6.376  22.682 -14.247  1.00  0.00     0.022 A 
BRANCH  88  92
ATOM     92  S   UNL     1       8.100  22.782 -12.059  1.00  0.00     0.124 S 
ATOM     93  O   UNL     1       7.403  22.814 -10.778  1.00  0.00    -0.237 OA
ATOM     94  O   UNL     1       9.230  21.862 -12.147  1.00  0.00    -0.237 OA
ATOM     95  O   UNL     1       8.315  24.087 -12.681  1.00  0.00    -0.744 OA
ENDBRANCH  88  92
ENDBRANCH  62  85
ENDBRANCH  36  37
ENDBRANCH  28  31
ENDBRANCH  26  27
ENDBRANCH   1  26
TORSDOF 17
