REMARK SMILES NS(=O)(=O)c1ccc(-n2nc(C(=O)NCCCCNC(=O)c3ccc(-c4c5nc(c(-c6cc(S(=O)(=O)[O-])ccc6F)c6ccc([nH]6)c(-c6cc(S(=O)(=O)[O-])ccc6F)c6nc(c(-c7cc(S(=O)(=O)[O-])ccc7F)c7ccc4[nH]7)C=C6)C=C5)cc3)c(Cl)c2-c2ccc(Cl)cc2)cc1
REMARK SMILES IDX 16 1 15 2 14 3 12 4 13 5 11 7 9 8 10 9 87 10 85 11 86 12
REMARK SMILES IDX 8 13 5 14 6 15 96 16 7 17 95 18 2 19 3 20 4 21 1 22 88 25
REMARK SMILES IDX 89 26 94 27 90 28 93 29 91 30 92 31 17 32 18 33 19 34 20 35
REMARK SMILES IDX 21 37 22 38 23 39 84 40 24 41 83 42 25 43 26 44 27 45 77 46
REMARK SMILES IDX 28 47 82 48 76 49 78 50 29 51 81 52 75 53 74 54 30 56 62 57
REMARK SMILES IDX 42 58 61 59 43 60 46 61 60 62 79 63 44 64 45 65 59 67 80 68
REMARK SMILES IDX 47 69 31 70 32 71 40 72 33 73 39 74 41 75 38 76 34 77 35 78
REMARK SMILES IDX 36 79 37 80 63 81 64 82 72 83 65 84 71 85 73 86 70 87 66 88
REMARK SMILES IDX 67 89 68 90 69 91 48 92 49 93 57 94 50 95 56 96 58 97 55 98
REMARK SMILES IDX 51 99 52 100 53 101 54 102
REMARK H PARENT 14 6 1 23 1 24 19 36 78 55 46 66
REMARK Flexibility Score: inf
ROOT
ATOM      1  C   UNL     1       1.869  -0.301  12.678  1.00  0.00     0.023 C 
ENDROOT
BRANCH   1   2
ATOM      2  C   UNL     1       2.998   0.401  11.901  1.00  0.00     0.116 C 
BRANCH   2   3
ATOM      3  N   UNL     1       3.688  -0.522  11.009  1.00  0.00    -0.351 N 
ATOM      4  C   UNL     1       3.589  -0.809   9.660  1.00  0.00     0.273 C 
ATOM      5  O   UNL     1       4.385  -1.659   9.249  1.00  0.00    -0.267 OA
ATOM      6  H   UNL     1       4.375  -1.058  11.467  1.00  0.00     0.163 HD
BRANCH   4   7
ATOM      7  C   UNL     1       2.659  -0.117   8.735  1.00  0.00     0.169 A 
ATOM      8  N   UNL     1       2.010   0.732   6.853  1.00  0.00    -0.231 N 
ATOM      9  N   UNL     1       2.933  -0.091   7.403  1.00  0.00    -0.160 NA
ATOM     10  C   UNL     1       1.139   1.232   7.796  1.00  0.00     0.094 A 
ATOM     11  C   UNL     1       1.396   0.486   8.928  1.00  0.00     0.100 A 
ATOM     12  Cl  UNL     1       0.260   0.329  10.179  1.00  0.00    -0.079 Cl
BRANCH   8  13
ATOM     13  C   UNL     1       1.856   0.861   5.449  1.00  0.00     0.065 A 
ATOM     14  C   UNL     1       1.061   1.101   2.795  1.00  0.00     0.082 A 
ATOM     15  C   UNL     1       1.290  -0.171   3.335  1.00  0.00     0.024 A 
ATOM     16  C   UNL     1       1.281   2.251   3.558  1.00  0.00     0.024 A 
ATOM     17  C   UNL     1       1.715  -0.293   4.664  1.00  0.00     0.030 A 
ATOM     18  C   UNL     1       1.659   2.131   4.893  1.00  0.00     0.030 A 
BRANCH  14  19
ATOM     19  S   UNL     1       0.475   1.292   1.138  1.00  0.00     0.238 S 
ATOM     20  O   UNL     1       1.026   2.518   0.583  1.00  0.00    -0.207 OA
ATOM     21  O   UNL     1      -0.928   0.993   1.107  1.00  0.00    -0.207 OA
BRANCH  19  22
ATOM     22  N   UNL     1       1.238   0.062   0.286  1.00  0.00    -0.225 NA
ATOM     23  H   UNL     1       0.954   0.099  -0.693  1.00  0.00     0.137 HD
ATOM     24  H   UNL     1       0.976  -0.840   0.683  1.00  0.00     0.137 HD
ENDBRANCH  19  22
ENDBRANCH  14  19
ENDBRANCH   8  13
BRANCH  10  25
ATOM     25  C   UNL     1      -0.028   2.081   7.591  1.00  0.00     0.002 A 
ATOM     26  C   UNL     1      -0.020   3.372   8.135  1.00  0.00     0.012 A 
ATOM     27  C   UNL     1      -1.222   1.528   7.116  1.00  0.00     0.012 A 
ATOM     28  C   UNL     1      -1.212   4.085   8.256  1.00  0.00     0.021 A 
ATOM     29  C   UNL     1      -2.414   2.243   7.241  1.00  0.00     0.021 A 
ATOM     30  C   UNL     1      -2.406   3.508   7.829  1.00  0.00     0.041 A 
ATOM     31  Cl  UNL     1      -3.891   4.338   8.076  1.00  0.00    -0.084 Cl
ENDBRANCH  10  25
ENDBRANCH   4   7
ENDBRANCH   2   3
ENDBRANCH   1   2
BRANCH   1  32
ATOM     32  C   UNL     1       2.218  -0.954  14.018  1.00  0.00     0.023 C 
BRANCH  32  33
ATOM     33  C   UNL     1       2.475   0.031  15.148  1.00  0.00     0.116 C 
BRANCH  33  34
ATOM     34  N   UNL     1       1.310   0.856  15.497  1.00  0.00    -0.352 N 
ATOM     35  C   UNL     1       1.280   1.956  16.345  1.00  0.00     0.251 C 
ATOM     36  H   UNL     1       0.454   0.600  15.082  1.00  0.00     0.163 HD
ATOM     37  O   UNL     1       0.241   2.317  16.884  1.00  0.00    -0.269 OA
BRANCH  35  38
ATOM     38  C   UNL     1       2.541   2.688  16.553  1.00  0.00     0.039 A 
ATOM     39  C   UNL     1       2.989   3.104  17.810  1.00  0.00     0.014 A 
ATOM     40  C   UNL     1       3.333   2.845  15.422  1.00  0.00     0.014 A 
ATOM     41  C   UNL     1       4.292   3.593  17.921  1.00  0.00     0.010 A 
ATOM     42  C   UNL     1       4.664   3.097  15.577  1.00  0.00     0.010 A 
ATOM     43  C   UNL     1       5.134   3.562  16.798  1.00  0.00    -0.014 A 
BRANCH  43  44
ATOM     44  C   UNL     1       6.552   3.897  16.862  1.00  0.00     0.031 A 
ATOM     45  C   UNL     1       7.322   3.135  17.878  1.00  0.00     0.074 A 
ATOM     46  C   UNL     1       7.166   4.627  15.901  1.00  0.00     0.049 A 
ATOM     47  N   UNL     1       7.814   3.581  18.985  1.00  0.00    -0.248 NA
ATOM     48  C   UNL     1       7.420   1.672  17.741  1.00  0.00     0.031 C 
ATOM     49  C   UNL     1       6.599   5.182  14.664  1.00  0.00     0.029 A 
ATOM     50  N   UNL     1       8.484   4.926  15.766  1.00  0.00    -0.354 N 
ATOM     51  C   UNL     1       8.519   2.521  19.545  1.00  0.00     0.074 A 
ATOM     52  C   UNL     1       8.041   1.341  18.876  1.00  0.00     0.031 C 
ATOM     53  C   UNL     1       7.593   5.513  13.810  1.00  0.00     0.029 A 
ATOM     54  C   UNL     1       8.862   5.370  14.500  1.00  0.00     0.049 A 
ATOM     55  H   UNL     1       9.124   4.837  16.509  1.00  0.00     0.167 HD
ATOM     56  C   UNL     1       9.625   2.743  20.311  1.00  0.00     0.034 A 
ATOM     57  C   UNL     1      10.129   5.589  14.051  1.00  0.00     0.034 A 
ATOM     58  C   UNL     1       9.707   4.137  20.702  1.00  0.00     0.049 A 
ATOM     59  C   UNL     1      10.963   5.794  15.264  1.00  0.00     0.074 A 
ATOM     60  C   UNL     1       8.854   5.007  21.357  1.00  0.00     0.029 A 
ATOM     61  N   UNL     1      10.607   4.946  20.041  1.00  0.00    -0.354 N 
ATOM     62  N   UNL     1      10.796   6.803  16.077  1.00  0.00    -0.248 NA
ATOM     63  C   UNL     1      11.600   4.624  15.852  1.00  0.00     0.031 C 
ATOM     64  C   UNL     1       8.941   6.224  20.615  1.00  0.00     0.029 A 
ATOM     65  C   UNL     1       9.918   6.064  19.630  1.00  0.00     0.049 A 
ATOM     66  H   UNL     1      11.562   4.760  19.891  1.00  0.00     0.167 HD
ATOM     67  C   UNL     1      10.885   6.257  17.349  1.00  0.00     0.074 A 
ATOM     68  C   UNL     1      11.469   4.928  17.148  1.00  0.00     0.031 C 
ATOM     69  C   UNL     1      10.208   6.794  18.409  1.00  0.00     0.034 A 
BRANCH  56  70
ATOM     70  C   UNL     1      10.827   1.824  20.396  1.00  0.00     0.023 A 
ATOM     71  C   UNL     1      11.876   2.223  21.247  1.00  0.00     0.031 A 
ATOM     72  C   UNL     1      11.131   0.768  19.506  1.00  0.00     0.131 A 
ATOM     73  C   UNL     1      13.165   1.679  21.113  1.00  0.00     0.055 A 
ATOM     74  C   UNL     1      12.397   0.179  19.428  1.00  0.00     0.041 A 
ATOM     75  F   UNL     1      10.263   0.307  18.600  1.00  0.00    -0.206 F 
ATOM     76  C   UNL     1      13.434   0.658  20.207  1.00  0.00     0.022 A 
BRANCH  73  77
ATOM     77  S   UNL     1      14.523   2.469  22.012  1.00  0.00     0.124 S 
ATOM     78  O   UNL     1      14.383   3.859  21.590  1.00  0.00    -0.237 OA
ATOM     79  O   UNL     1      14.174   2.178  23.398  1.00  0.00    -0.237 OA
ATOM     80  O   UNL     1      15.709   1.779  21.509  1.00  0.00    -0.744 OA
ENDBRANCH  73  77
ENDBRANCH  56  70
BRANCH  57  81
ATOM     81  C   UNL     1      10.694   5.296  12.700  1.00  0.00     0.023 A 
ATOM     82  C   UNL     1      11.935   5.813  12.258  1.00  0.00     0.031 A 
ATOM     83  C   UNL     1      10.126   4.271  11.909  1.00  0.00     0.131 A 
ATOM     84  C   UNL     1      12.552   5.300  11.089  1.00  0.00     0.055 A 
ATOM     85  C   UNL     1      10.743   3.765  10.760  1.00  0.00     0.041 A 
ATOM     86  F   UNL     1       8.989   3.659  12.275  1.00  0.00    -0.206 F 
ATOM     87  C   UNL     1      11.966   4.269  10.352  1.00  0.00     0.022 A 
BRANCH  84  88
ATOM     88  S   UNL     1      14.192   5.899  10.556  1.00  0.00     0.124 S 
ATOM     89  O   UNL     1      13.880   7.222  10.027  1.00  0.00    -0.237 OA
ATOM     90  O   UNL     1      14.963   5.859  11.793  1.00  0.00    -0.237 OA
ATOM     91  O   UNL     1      14.603   4.918   9.550  1.00  0.00    -0.744 OA
ENDBRANCH  84  88
ENDBRANCH  57  81
BRANCH  69  92
ATOM     92  C   UNL     1       9.544   8.151  18.244  1.00  0.00     0.023 A 
ATOM     93  C   UNL     1       8.569   8.473  17.269  1.00  0.00     0.031 A 
ATOM     94  C   UNL     1       9.830   9.124  19.218  1.00  0.00     0.131 A 
ATOM     95  C   UNL     1       7.934   9.734  17.293  1.00  0.00     0.055 A 
ATOM     96  C   UNL     1       9.184  10.358  19.253  1.00  0.00     0.041 A 
ATOM     97  F   UNL     1      10.726   8.873  20.187  1.00  0.00    -0.206 F 
ATOM     98  C   UNL     1       8.236  10.671  18.286  1.00  0.00     0.022 A 
BRANCH  95  99
ATOM     99  S   UNL     1       6.709  10.193  16.020  1.00  0.00     0.124 S 
ATOM    100  O   UNL     1       7.360   9.823  14.769  1.00  0.00    -0.237 OA
ATOM    101  O   UNL     1       5.545   9.394  16.394  1.00  0.00    -0.237 OA
ATOM    102  O   UNL     1       6.541  11.635  16.214  1.00  0.00    -0.744 OA
ENDBRANCH  95  99
ENDBRANCH  69  92
ENDBRANCH  43  44
ENDBRANCH  35  38
ENDBRANCH  33  34
ENDBRANCH  32  33
ENDBRANCH   1  32
TORSDOF 18
