REMARK SMILES CCCN1CCC[C@@]2(CCN(c3ccc(C(=O)NCCCCNC(=O)c4ccc(-c5c6nc(c(-c7cc(S(=O)(=O)[O-])ccc7F)c7ccc([nH]7)c(-c7cc(S(=O)(=O)[O-])ccc7F)c7nc(c(-c8cc(S(=O)(=O)[O-])ccc8F)c8ccc5[nH]8)C=C7)C=C6)cc4)cn3)C2)C1=O
REMARK SMILES IDX 20 1 19 2 18 3 16 4 17 5 15 7 12 8 13 9 90 10 14 11 89 12
REMARK SMILES IDX 11 13 4 14 5 15 92 16 6 17 8 18 93 19 7 20 9 21 91 22 10 23
REMARK SMILES IDX 3 24 2 25 1 26 21 27 22 28 23 29 24 30 25 32 26 33 27 34
REMARK SMILES IDX 88 35 28 36 87 37 29 38 30 39 31 40 81 41 32 42 86 43 80 44
REMARK SMILES IDX 82 45 33 46 85 47 79 48 78 49 34 51 66 52 46 53 65 54 47 55
REMARK SMILES IDX 50 56 64 57 83 58 48 59 49 60 63 62 84 63 51 64 35 65 36 66
REMARK SMILES IDX 44 67 37 68 43 69 45 70 42 71 38 72 39 73 40 74 41 75 67 76
REMARK SMILES IDX 68 77 76 78 69 79 75 80 77 81 74 82 70 83 71 84 72 85 73 86
REMARK SMILES IDX 52 87 53 88 61 89 54 90 60 91 62 92 59 93 55 94 56 95 57 96
REMARK SMILES IDX 58 97
REMARK H PARENT 18 6 23 31 82 50 50 61
REMARK Flexibility Score: inf
ROOT
ATOM      1  C   UNL     1      -4.004   6.624  -1.259  1.00  0.00     0.023 C 
ENDROOT
BRANCH   1   2
ATOM      2  C   UNL     1      -3.278   5.635  -2.174  1.00  0.00     0.116 C 
BRANCH   2   3
ATOM      3  N   UNL     1      -1.892   6.016  -2.370  1.00  0.00    -0.352 N 
ATOM      4  C   UNL     1      -0.733   5.652  -1.728  1.00  0.00     0.252 C 
ATOM      5  O   UNL     1       0.327   6.089  -2.178  1.00  0.00    -0.269 OA
ATOM      6  H   UNL     1      -1.755   6.659  -3.102  1.00  0.00     0.163 HD
BRANCH   4   7
ATOM      7  C   UNL     1      -0.685   4.746  -0.550  1.00  0.00     0.058 A 
ATOM      8  C   UNL     1      -0.322   2.986   1.582  1.00  0.00     0.128 A 
ATOM      9  C   UNL     1      -1.566   3.559   1.351  1.00  0.00     0.048 A 
ATOM     10  N   UNL     1       0.737   3.296   0.812  1.00  0.00    -0.239 NA
ATOM     11  C   UNL     1      -1.739   4.467   0.308  1.00  0.00     0.019 A 
ATOM     12  C   UNL     1       0.532   4.147  -0.235  1.00  0.00     0.127 A 
BRANCH   8  13
ATOM     13  N   UNL     1      -0.201   2.079   2.607  1.00  0.00    -0.356 N 
ATOM     14  N   UNL     1       0.446  -1.995   1.811  1.00  0.00    -0.342 N 
ATOM     15  C   UNL     1      -0.631  -2.835   2.316  1.00  0.00     0.119 C 
ATOM     16  C   UNL     1       0.979  -0.982   2.597  1.00  0.00     0.230 C 
ATOM     17  C   UNL     1      -1.672  -2.074   3.123  1.00  0.00     0.023 C 
ATOM     18  C   UNL     1      -0.050  -0.172   3.393  1.00  0.00     0.069 C 
ATOM     19  O   UNL     1       2.177  -0.704   2.583  1.00  0.00    -0.274 OA
ATOM     20  C   UNL     1      -1.001  -1.130   4.120  1.00  0.00     0.021 C 
ATOM     21  C   UNL     1       0.657   0.818   4.337  1.00  0.00     0.040 C 
ATOM     22  C   UNL     1      -0.818   0.768   2.428  1.00  0.00     0.135 C 
ATOM     23  C   UNL     1       1.001   1.992   3.411  1.00  0.00     0.119 C 
BRANCH  14  24
ATOM     24  C   UNL     1       1.202  -2.456   0.648  1.00  0.00     0.119 C 
BRANCH  24  25
ATOM     25  C   UNL     1       0.863  -1.618  -0.592  1.00  0.00     0.018 C 
ATOM     26  C   UNL     1       1.587  -0.278  -0.638  1.00  0.00     0.006 C 
ENDBRANCH  24  25
ENDBRANCH  14  24
ENDBRANCH   8  13
ENDBRANCH   4   7
ENDBRANCH   2   3
ENDBRANCH   1   2
BRANCH   1  27
ATOM     27  C   UNL     1      -4.527   7.876  -1.965  1.00  0.00     0.023 C 
BRANCH  27  28
ATOM     28  C   UNL     1      -5.609   7.626  -3.012  1.00  0.00     0.116 C 
BRANCH  28  29
ATOM     29  N   UNL     1      -6.780   6.945  -2.480  1.00  0.00    -0.352 N 
ATOM     30  C   UNL     1      -8.097   7.093  -2.852  1.00  0.00     0.251 C 
ATOM     31  H   UNL     1      -6.608   6.294  -1.761  1.00  0.00     0.163 HD
ATOM     32  O   UNL     1      -8.980   6.511  -2.236  1.00  0.00    -0.269 OA
BRANCH  30  33
ATOM     33  C   UNL     1      -8.427   8.001  -3.971  1.00  0.00     0.039 A 
ATOM     34  C   UNL     1      -9.375   9.006  -3.765  1.00  0.00     0.014 A 
ATOM     35  C   UNL     1      -7.758   7.897  -5.192  1.00  0.00     0.014 A 
ATOM     36  C   UNL     1      -9.591   9.964  -4.758  1.00  0.00     0.010 A 
ATOM     37  C   UNL     1      -7.932   8.884  -6.158  1.00  0.00     0.010 A 
ATOM     38  C   UNL     1      -8.837   9.936  -5.943  1.00  0.00    -0.014 A 
BRANCH  38  39
ATOM     39  C   UNL     1      -8.947  11.017  -6.957  1.00  0.00     0.031 A 
ATOM     40  C   UNL     1      -9.470  10.707  -8.332  1.00  0.00     0.074 A 
ATOM     41  C   UNL     1      -8.479  12.248  -6.666  1.00  0.00     0.049 A 
ATOM     42  N   UNL     1      -9.521  11.476  -9.388  1.00  0.00    -0.248 NA
ATOM     43  C   UNL     1      -9.974   9.343  -8.555  1.00  0.00     0.031 C 
ATOM     44  C   UNL     1      -7.905  12.652  -5.379  1.00  0.00     0.029 A 
ATOM     45  N   UNL     1      -8.386  13.380  -7.437  1.00  0.00    -0.354 N 
ATOM     46  C   UNL     1     -10.037  10.685 -10.409  1.00  0.00     0.074 A 
ATOM     47  C   UNL     1     -10.251   9.367  -9.851  1.00  0.00     0.031 C 
ATOM     48  C   UNL     1      -7.519  13.936  -5.452  1.00  0.00     0.029 A 
ATOM     49  C   UNL     1      -7.776  14.436  -6.798  1.00  0.00     0.049 A 
ATOM     50  H   UNL     1      -8.723  13.431  -8.360  1.00  0.00     0.167 HD
ATOM     51  C   UNL     1     -10.314  11.033 -11.689  1.00  0.00     0.034 A 
ATOM     52  C   UNL     1      -7.437  15.659  -7.254  1.00  0.00     0.034 A 
ATOM     53  C   UNL     1     -10.123  12.360 -12.220  1.00  0.00     0.049 A 
ATOM     54  C   UNL     1      -7.764  16.020  -8.682  1.00  0.00     0.074 A 
ATOM     55  C   UNL     1     -10.462  12.841 -13.473  1.00  0.00     0.029 A 
ATOM     56  N   UNL     1      -9.535  13.415 -11.536  1.00  0.00    -0.354 N 
ATOM     57  N   UNL     1      -8.325  15.281  -9.612  1.00  0.00    -0.248 NA
ATOM     58  C   UNL     1      -7.424  17.380  -9.119  1.00  0.00     0.031 C 
ATOM     59  C   UNL     1     -10.021  14.166 -13.569  1.00  0.00     0.029 A 
ATOM     60  C   UNL     1      -9.470  14.534 -12.352  1.00  0.00     0.049 A 
ATOM     61  H   UNL     1      -9.212  13.375 -10.607  1.00  0.00     0.167 HD
ATOM     62  C   UNL     1      -8.430  16.099 -10.733  1.00  0.00     0.074 A 
ATOM     63  C   UNL     1      -7.892  17.390 -10.358  1.00  0.00     0.031 C 
ATOM     64  C   UNL     1      -8.925  15.812 -11.963  1.00  0.00     0.034 A 
BRANCH  51  65
ATOM     65  C   UNL     1     -10.825   9.958 -12.614  1.00  0.00     0.023 A 
ATOM     66  C   UNL     1     -12.082   9.357 -12.431  1.00  0.00     0.031 A 
ATOM     67  C   UNL     1     -10.044   9.538 -13.705  1.00  0.00     0.131 A 
ATOM     68  C   UNL     1     -12.499   8.334 -13.295  1.00  0.00     0.055 A 
ATOM     69  C   UNL     1     -10.493   8.566 -14.601  1.00  0.00     0.041 A 
ATOM     70  F   UNL     1      -8.827  10.064 -13.916  1.00  0.00    -0.206 F 
ATOM     71  C   UNL     1     -11.724   7.951 -14.393  1.00  0.00     0.022 A 
BRANCH  68  72
ATOM     72  S   UNL     1     -14.028   7.439 -12.908  1.00  0.00     0.124 S 
ATOM     73  O   UNL     1     -13.700   6.840 -11.617  1.00  0.00    -0.237 OA
ATOM     74  O   UNL     1     -15.022   8.506 -12.883  1.00  0.00    -0.237 OA
ATOM     75  O   UNL     1     -14.159   6.490 -14.012  1.00  0.00    -0.744 OA
ENDBRANCH  68  72
ENDBRANCH  51  65
BRANCH  52  76
ATOM     76  C   UNL     1      -6.719  16.629  -6.376  1.00  0.00     0.023 A 
ATOM     77  C   UNL     1      -7.304  17.855  -6.022  1.00  0.00     0.031 A 
ATOM     78  C   UNL     1      -5.407  16.375  -5.939  1.00  0.00     0.131 A 
ATOM     79  C   UNL     1      -6.559  18.807  -5.309  1.00  0.00     0.055 A 
ATOM     80  C   UNL     1      -4.689  17.302  -5.180  1.00  0.00     0.041 A 
ATOM     81  F   UNL     1      -4.801  15.217  -6.244  1.00  0.00    -0.206 F 
ATOM     82  C   UNL     1      -5.259  18.534  -4.876  1.00  0.00     0.022 A 
BRANCH  79  83
ATOM     83  S   UNL     1      -7.274  20.455  -5.055  1.00  0.00     0.124 S 
ATOM     84  O   UNL     1      -7.604  20.850  -6.420  1.00  0.00    -0.237 OA
ATOM     85  O   UNL     1      -8.404  20.160  -4.181  1.00  0.00    -0.237 OA
ATOM     86  O   UNL     1      -6.185  21.205  -4.433  1.00  0.00    -0.744 OA
ENDBRANCH  79  83
ENDBRANCH  52  76
BRANCH  64  87
ATOM     87  C   UNL     1      -8.947  16.934 -12.970  1.00  0.00     0.023 A 
ATOM     88  C   UNL     1      -7.763  17.469 -13.505  1.00  0.00     0.031 A 
ATOM     89  C   UNL     1     -10.172  17.485 -13.386  1.00  0.00     0.131 A 
ATOM     90  C   UNL     1      -7.825  18.558 -14.386  1.00  0.00     0.055 A 
ATOM     91  C   UNL     1     -10.230  18.531 -14.307  1.00  0.00     0.041 A 
ATOM     92  F   UNL     1     -11.333  17.013 -12.905  1.00  0.00    -0.206 F 
ATOM     93  C   UNL     1      -9.052  19.082 -14.803  1.00  0.00     0.022 A 
BRANCH  90  94
ATOM     94  S   UNL     1      -6.277  19.338 -14.918  1.00  0.00     0.124 S 
ATOM     95  O   UNL     1      -5.694  19.754 -13.646  1.00  0.00    -0.237 OA
ATOM     96  O   UNL     1      -5.596  18.245 -15.604  1.00  0.00    -0.237 OA
ATOM     97  O   UNL     1      -6.721  20.430 -15.783  1.00  0.00    -0.744 OA
ENDBRANCH  90  94
ENDBRANCH  64  87
ENDBRANCH  38  39
ENDBRANCH  30  33
ENDBRANCH  28  29
ENDBRANCH  27  28
ENDBRANCH   1  27
TORSDOF 17
