REMARK SMILES O=C(NCCCCNC(=O)c1ccc(S(=O)(=O)Nc2ccccc2I)cc1)c1ccc(-c2c3nc(c(-c4cc(S(=O)(=O)[O-])ccc4F)c4ccc([nH]4)c(-c4cc(S(=O)(=O)[O-])ccc4F)c4nc(c(-c5cc(S(=O)(=O)[O-])ccc5F)c5ccc2[nH]5)C=C4)C=C3)cc1
REMARK SMILES IDX 5 1 4 2 3 3 1 4 2 5 28 7 29 8 90 9 30 10 89 11 31 12 32 13
REMARK SMILES IDX 33 14 83 15 34 16 88 17 82 18 84 19 35 20 87 21 81 22 80 23
REMARK SMILES IDX 36 25 68 26 48 27 67 28 49 29 52 30 66 31 85 32 50 33 51 34
REMARK SMILES IDX 65 36 86 37 53 38 37 39 38 40 46 41 39 42 45 43 47 44 44 45
REMARK SMILES IDX 40 46 41 47 42 48 43 49 69 50 70 51 78 52 71 53 77 54 79 55
REMARK SMILES IDX 76 56 72 57 73 58 74 59 75 60 54 61 55 62 63 63 56 64 62 65
REMARK SMILES IDX 64 66 61 67 57 68 58 69 59 70 60 71 6 72 7 73 8 74 9 75
REMARK SMILES IDX 10 77 11 78 12 79 27 80 13 81 26 82 14 83 15 84 16 85 17 86
REMARK SMILES IDX 18 87 19 89 20 90 24 91 21 92 23 93 25 94 22 95
REMARK H PARENT 3 6 84 24 52 35 8 76 18 88
REMARK Flexibility Score: inf
ROOT
ATOM      1  C   UNL     1       4.930  -2.397   0.143  1.00  0.00     0.023 C 
ENDROOT
BRANCH   1   2
ATOM      2  C   UNL     1       4.567  -1.039  -0.441  1.00  0.00     0.116 C 
BRANCH   2   3
ATOM      3  N   UNL     1       3.130  -0.824  -0.583  1.00  0.00    -0.352 N 
ATOM      4  O   UNL     1       1.111   0.097  -0.149  1.00  0.00    -0.269 OA
ATOM      5  C   UNL     1       2.328   0.129   0.008  1.00  0.00     0.251 C 
ATOM      6  H   UNL     1       2.668  -1.450  -1.186  1.00  0.00     0.163 HD
BRANCH   5   7
ATOM      7  C   UNL     1       2.949   1.165   0.860  1.00  0.00     0.039 A 
ATOM      8  C   UNL     1       4.094   1.829   0.424  1.00  0.00     0.014 A 
ATOM      9  C   UNL     1       2.434   1.412   2.135  1.00  0.00     0.014 A 
ATOM     10  C   UNL     1       4.850   2.552   1.336  1.00  0.00     0.010 A 
ATOM     11  C   UNL     1       3.134   2.249   3.011  1.00  0.00     0.010 A 
ATOM     12  C   UNL     1       4.381   2.777   2.641  1.00  0.00    -0.014 A 
BRANCH  12  13
ATOM     13  C   UNL     1       5.216   3.578   3.578  1.00  0.00     0.031 A 
ATOM     14  C   UNL     1       5.738   2.986   4.863  1.00  0.00     0.074 A 
ATOM     15  C   UNL     1       5.556   4.835   3.229  1.00  0.00     0.049 A 
ATOM     16  N   UNL     1       6.507   3.534   5.771  1.00  0.00    -0.248 NA
ATOM     17  C   UNL     1       5.335   1.607   5.177  1.00  0.00     0.031 C 
ATOM     18  C   UNL     1       5.115   5.514   2.007  1.00  0.00     0.029 A 
ATOM     19  N   UNL     1       6.367   5.754   3.841  1.00  0.00    -0.354 N 
ATOM     20  C   UNL     1       6.660   2.581   6.774  1.00  0.00     0.074 A 
ATOM     21  C   UNL     1       5.872   1.433   6.377  1.00  0.00     0.031 C 
ATOM     22  C   UNL     1       5.715   6.709   1.926  1.00  0.00     0.029 A 
ATOM     23  C   UNL     1       6.511   6.922   3.128  1.00  0.00     0.049 A 
ATOM     24  H   UNL     1       6.806   5.594   4.708  1.00  0.00     0.167 HD
ATOM     25  C   UNL     1       7.394   2.656   7.914  1.00  0.00     0.034 A 
ATOM     26  C   UNL     1       7.188   8.050   3.414  1.00  0.00     0.034 A 
ATOM     27  C   UNL     1       8.183   3.808   8.288  1.00  0.00     0.049 A 
ATOM     28  C   UNL     1       7.959   8.121   4.703  1.00  0.00     0.074 A 
ATOM     29  C   UNL     1       8.990   3.976   9.401  1.00  0.00     0.029 A 
ATOM     30  N   UNL     1       8.260   4.994   7.566  1.00  0.00    -0.354 N 
ATOM     31  N   UNL     1       8.103   7.204   5.633  1.00  0.00    -0.248 NA
ATOM     32  C   UNL     1       8.665   9.377   4.978  1.00  0.00     0.031 C 
ATOM     33  C   UNL     1       9.485   5.285   9.394  1.00  0.00     0.029 A 
ATOM     34  C   UNL     1       9.070   5.906   8.228  1.00  0.00     0.049 A 
ATOM     35  H   UNL     1       7.806   5.162   6.708  1.00  0.00     0.167 HD
ATOM     36  C   UNL     1       8.948   7.764   6.586  1.00  0.00     0.074 A 
ATOM     37  C   UNL     1       9.292   9.087   6.107  1.00  0.00     0.031 C 
ATOM     38  C   UNL     1       9.401   7.229   7.749  1.00  0.00     0.034 A 
BRANCH  25  39
ATOM     39  C   UNL     1       7.334   1.481   8.867  1.00  0.00     0.023 A 
ATOM     40  C   UNL     1       7.786   0.199   8.505  1.00  0.00     0.031 A 
ATOM     41  C   UNL     1       6.797   1.643  10.157  1.00  0.00     0.131 A 
ATOM     42  C   UNL     1       7.623  -0.879   9.389  1.00  0.00     0.055 A 
ATOM     43  C   UNL     1       6.717   0.585  11.065  1.00  0.00     0.041 A 
ATOM     44  F   UNL     1       6.328   2.836  10.557  1.00  0.00    -0.206 F 
ATOM     45  C   UNL     1       7.117  -0.690  10.677  1.00  0.00     0.022 A 
BRANCH  42  46
ATOM     46  S   UNL     1       7.936  -2.558   8.777  1.00  0.00     0.124 S 
ATOM     47  O   UNL     1       7.034  -2.627   7.630  1.00  0.00    -0.237 OA
ATOM     48  O   UNL     1       9.360  -2.520   8.468  1.00  0.00    -0.237 OA
ATOM     49  O   UNL     1       7.563  -3.410   9.905  1.00  0.00    -0.744 OA
ENDBRANCH  42  46
ENDBRANCH  25  39
BRANCH  26  50
ATOM     50  C   UNL     1       7.146   9.210   2.478  1.00  0.00     0.023 A 
ATOM     51  C   UNL     1       8.315   9.687   1.866  1.00  0.00     0.031 A 
ATOM     52  C   UNL     1       5.939   9.882   2.211  1.00  0.00     0.131 A 
ATOM     53  C   UNL     1       8.261  10.833   1.058  1.00  0.00     0.055 A 
ATOM     54  C   UNL     1       5.880  10.982   1.355  1.00  0.00     0.041 A 
ATOM     55  F   UNL     1       4.791   9.465   2.768  1.00  0.00    -0.206 F 
ATOM     56  C   UNL     1       7.050  11.473   0.785  1.00  0.00     0.022 A 
BRANCH  53  57
ATOM     57  S   UNL     1       9.816  11.534   0.444  1.00  0.00     0.124 S 
ATOM     58  O   UNL     1      10.540  11.780   1.685  1.00  0.00    -0.237 OA
ATOM     59  O   UNL     1      10.325  10.452  -0.393  1.00  0.00    -0.237 OA
ATOM     60  O   UNL     1       9.388  12.729  -0.279  1.00  0.00    -0.744 OA
ENDBRANCH  53  57
ENDBRANCH  26  50
BRANCH  38  61
ATOM     61  C   UNL     1      10.374   8.064   8.550  1.00  0.00     0.023 A 
ATOM     62  C   UNL     1      10.008   9.297   9.117  1.00  0.00     0.031 A 
ATOM     63  C   UNL     1      11.703   7.632   8.713  1.00  0.00     0.131 A 
ATOM     64  C   UNL     1      10.977  10.090   9.752  1.00  0.00     0.055 A 
ATOM     65  C   UNL     1      12.643   8.390   9.411  1.00  0.00     0.041 A 
ATOM     66  F   UNL     1      12.112   6.465   8.189  1.00  0.00    -0.206 F 
ATOM     67  C   UNL     1      12.287   9.635   9.919  1.00  0.00     0.022 A 
BRANCH  64  68
ATOM     68  S   UNL     1      10.534  11.779  10.244  1.00  0.00     0.124 S 
ATOM     69  O   UNL     1      10.074  12.351   8.982  1.00  0.00    -0.237 OA
ATOM     70  O   UNL     1       9.504  11.550  11.252  1.00  0.00    -0.237 OA
ATOM     71  O   UNL     1      11.789  12.328  10.753  1.00  0.00    -0.744 OA
ENDBRANCH  64  68
ENDBRANCH  38  61
ENDBRANCH  12  13
ENDBRANCH   5   7
ENDBRANCH   2   3
ENDBRANCH   1   2
BRANCH   1  72
ATOM     72  C   UNL     1       4.500  -3.590  -0.691  1.00  0.00     0.023 C 
BRANCH  72  73
ATOM     73  C   UNL     1       4.940  -3.550  -2.143  1.00  0.00     0.116 C 
BRANCH  73  74
ATOM     74  N   UNL     1       6.384  -3.609  -2.346  1.00  0.00    -0.352 N 
ATOM     75  C   UNL     1       7.099  -4.383  -3.240  1.00  0.00     0.251 C 
ATOM     76  H   UNL     1       6.920  -3.019  -1.769  1.00  0.00     0.163 HD
ATOM     77  O   UNL     1       8.324  -4.390  -3.236  1.00  0.00    -0.269 OA
BRANCH  75  78
ATOM     78  C   UNL     1       6.362  -5.235  -4.201  1.00  0.00     0.039 A 
ATOM     79  C   UNL     1       6.727  -6.570  -4.401  1.00  0.00     0.015 A 
ATOM     80  C   UNL     1       5.231  -4.726  -4.828  1.00  0.00     0.015 A 
ATOM     81  C   UNL     1       5.913  -7.400  -5.187  1.00  0.00     0.023 A 
ATOM     82  C   UNL     1       4.344  -5.595  -5.439  1.00  0.00     0.023 A 
ATOM     83  C   UNL     1       4.702  -6.910  -5.700  1.00  0.00     0.087 A 
BRANCH  83  84
ATOM     84  S   UNL     1       3.620  -7.998  -6.596  1.00  0.00     0.261 S 
ATOM     85  O   UNL     1       4.450  -9.020  -7.210  1.00  0.00    -0.201 OA
ATOM     86  O   UNL     1       2.567  -8.374  -5.681  1.00  0.00    -0.201 OA
BRANCH  84  87
ATOM     87  N   UNL     1       2.828  -7.223  -7.903  1.00  0.00    -0.279 N 
ATOM     88  H   UNL     1       2.538  -7.759  -8.676  1.00  0.00     0.180 HD
BRANCH  87  89
ATOM     89  C   UNL     1       2.577  -5.806  -7.895  1.00  0.00     0.062 A 
ATOM     90  C   UNL     1       1.409  -5.321  -7.284  1.00  0.00     0.028 A 
ATOM     91  C   UNL     1       3.529  -4.890  -8.381  1.00  0.00     0.037 A 
ATOM     92  C   UNL     1       1.216  -3.943  -7.122  1.00  0.00     0.002 A 
ATOM     93  C   UNL     1       3.336  -3.514  -8.200  1.00  0.00     0.017 A 
ATOM     94  I   UNL     1       5.284  -5.502  -9.353  1.00  0.00    -0.042 I 
ATOM     95  C   UNL     1       2.186  -3.044  -7.563  1.00  0.00     0.001 A 
ENDBRANCH  87  89
ENDBRANCH  84  87
ENDBRANCH  83  84
ENDBRANCH  75  78
ENDBRANCH  73  74
ENDBRANCH  72  73
ENDBRANCH   1  72
TORSDOF 17
