REMARK SMILES CNC(=O)[C@H](C)S(=O)(=O)c1cc(C(=O)NCCCCNC(=O)c2ccc(-c3c4nc(c(-c5cc(S(=O)(=O)[O-])ccc5F)c5ccc([nH]5)c(-c5cc(S(=O)(=O)[O-])ccc5F)c5nc(c(-c6cc(S(=O)(=O)[O-])ccc6F)c6ccc3[nH]6)C=C5)C=C4)cc2)c(C)cc1C
REMARK SMILES IDX 17 1 16 2 15 3 13 4 14 5 12 7 10 8 11 9 89 10 88 11 90 12
REMARK SMILES IDX 86 13 87 14 7 15 8 16 9 17 5 18 6 19 3 20 1 21 2 22 4 24
REMARK SMILES IDX 18 25 19 26 20 27 21 28 22 30 23 31 24 32 85 33 25 34 84 35
REMARK SMILES IDX 26 36 27 37 28 38 78 39 29 40 83 41 77 42 79 43 30 44 82 45
REMARK SMILES IDX 76 46 75 47 31 49 63 50 43 51 62 52 44 53 47 54 61 55 80 56
REMARK SMILES IDX 45 57 46 58 60 60 81 61 48 62 32 63 33 64 41 65 34 66 40 67
REMARK SMILES IDX 42 68 39 69 35 70 36 71 37 72 38 73 64 74 65 75 73 76 66 77
REMARK SMILES IDX 72 78 74 79 71 80 67 81 68 82 69 83 70 84 49 85 50 86 58 87
REMARK SMILES IDX 51 88 57 89 59 90 56 91 52 92 53 93 54 94 55 95
REMARK H PARENT 15 6 2 23 20 29 79 48 47 59
REMARK Flexibility Score: inf
ROOT
ATOM      1  C   UNL     1       0.823  -6.354   2.453  1.00  0.00     0.023 C 
ENDROOT
BRANCH   1   2
ATOM      2  C   UNL     1       1.076  -6.075   0.969  1.00  0.00     0.116 C 
BRANCH   2   3
ATOM      3  N   UNL     1      -0.157  -5.647   0.356  1.00  0.00    -0.352 N 
ATOM      4  C   UNL     1      -0.787  -4.444   0.218  1.00  0.00     0.251 C 
ATOM      5  O   UNL     1      -1.946  -4.515  -0.204  1.00  0.00    -0.269 OA
ATOM      6  H   UNL     1      -0.657  -6.389  -0.054  1.00  0.00     0.163 HD
BRANCH   4   7
ATOM      7  C   UNL     1      -0.207  -3.070   0.426  1.00  0.00     0.044 A 
ATOM      8  C   UNL     1      -0.495  -0.741  -0.433  1.00  0.00     0.071 A 
ATOM      9  C   UNL     1      -0.752  -2.131  -0.480  1.00  0.00     0.034 A 
ATOM     10  C   UNL     1       0.358  -0.248   0.547  1.00  0.00    -0.032 A 
ATOM     11  C   UNL     1       0.940  -1.175   1.426  1.00  0.00     0.009 A 
ATOM     12  C   UNL     1       0.693   1.188   0.771  1.00  0.00     0.046 C 
ATOM     13  C   UNL     1       0.647  -2.561   1.417  1.00  0.00    -0.038 A 
ATOM     14  C   UNL     1       1.243  -3.311   2.564  1.00  0.00     0.045 C 
BRANCH   8  15
ATOM     15  S   UNL     1      -1.414   0.218  -1.624  1.00  0.00     0.190 S 
ATOM     16  O   UNL     1      -2.598   0.640  -0.891  1.00  0.00    -0.223 OA
ATOM     17  O   UNL     1      -1.587  -0.653  -2.778  1.00  0.00    -0.223 OA
BRANCH  15  18
ATOM     18  C   UNL     1      -0.664   1.651  -2.259  1.00  0.00     0.199 C 
ATOM     19  C   UNL     1      -0.824   2.931  -1.432  1.00  0.00     0.036 C 
BRANCH  18  20
ATOM     20  C   UNL     1       0.655   1.641  -2.985  1.00  0.00     0.238 C 
ATOM     21  C   UNL     1       1.811  -0.623  -2.522  1.00  0.00     0.142 C 
ATOM     22  N   UNL     1       1.625   0.713  -3.029  1.00  0.00    -0.358 N 
ATOM     23  H   UNL     1       2.409   1.025  -3.538  1.00  0.00     0.163 HD
ATOM     24  O   UNL     1       0.947   2.664  -3.633  1.00  0.00    -0.274 OA
ENDBRANCH  18  20
ENDBRANCH  15  18
ENDBRANCH   8  15
ENDBRANCH   4   7
ENDBRANCH   2   3
ENDBRANCH   1   2
BRANCH   1  25
ATOM     25  C   UNL     1       0.584  -7.810   2.821  1.00  0.00     0.023 C 
BRANCH  25  26
ATOM     26  C   UNL     1       1.801  -8.703   2.659  1.00  0.00     0.116 C 
BRANCH  26  27
ATOM     27  N   UNL     1       2.980  -8.236   3.380  1.00  0.00    -0.352 N 
ATOM     28  C   UNL     1       3.952  -8.993   3.992  1.00  0.00     0.251 C 
ATOM     29  H   UNL     1       3.094  -7.260   3.436  1.00  0.00     0.163 HD
ATOM     30  O   UNL     1       4.856  -8.455   4.623  1.00  0.00    -0.269 OA
BRANCH  28  31
ATOM     31  C   UNL     1       3.841 -10.462   3.916  1.00  0.00     0.039 A 
ATOM     32  C   UNL     1       3.839 -11.203   5.098  1.00  0.00     0.014 A 
ATOM     33  C   UNL     1       3.602 -11.076   2.684  1.00  0.00     0.014 A 
ATOM     34  C   UNL     1       3.505 -12.556   5.052  1.00  0.00     0.010 A 
ATOM     35  C   UNL     1       3.172 -12.394   2.655  1.00  0.00     0.010 A 
ATOM     36  C   UNL     1       3.119 -13.148   3.838  1.00  0.00    -0.014 A 
BRANCH  36  37
ATOM     37  C   UNL     1       2.673 -14.561   3.769  1.00  0.00     0.031 A 
ATOM     38  C   UNL     1       3.452 -15.539   2.933  1.00  0.00     0.074 A 
ATOM     39  C   UNL     1       1.530 -14.937   4.378  1.00  0.00     0.049 A 
ATOM     40  N   UNL     1       3.175 -16.781   2.636  1.00  0.00    -0.248 NA
ATOM     41  C   UNL     1       4.684 -15.031   2.310  1.00  0.00     0.031 C 
ATOM     42  C   UNL     1       0.659 -14.060   5.165  1.00  0.00     0.029 A 
ATOM     43  N   UNL     1       0.898 -16.153   4.420  1.00  0.00    -0.354 N 
ATOM     44  C   UNL     1       4.183 -17.194   1.771  1.00  0.00     0.074 A 
ATOM     45  C   UNL     1       5.032 -16.046   1.536  1.00  0.00     0.031 C 
ATOM     46  C   UNL     1      -0.377 -14.774   5.634  1.00  0.00     0.029 A 
ATOM     47  C   UNL     1      -0.269 -16.146   5.149  1.00  0.00     0.049 A 
ATOM     48  H   UNL     1       1.246 -16.956   3.971  1.00  0.00     0.167 HD
ATOM     49  C   UNL     1       4.398 -18.425   1.246  1.00  0.00     0.034 A 
ATOM     50  C   UNL     1      -1.153 -17.134   5.391  1.00  0.00     0.034 A 
ATOM     51  C   UNL     1       3.559 -19.564   1.521  1.00  0.00     0.049 A 
ATOM     52  C   UNL     1      -0.884 -18.500   4.812  1.00  0.00     0.074 A 
ATOM     53  C   UNL     1       3.712 -20.872   1.100  1.00  0.00     0.029 A 
ATOM     54  N   UNL     1       2.404 -19.528   2.294  1.00  0.00    -0.354 N 
ATOM     55  N   UNL     1       0.103 -18.890   4.038  1.00  0.00    -0.248 NA
ATOM     56  C   UNL     1      -1.842 -19.561   5.149  1.00  0.00     0.031 C 
ATOM     57  C   UNL     1       2.626 -21.616   1.575  1.00  0.00     0.029 A 
ATOM     58  C   UNL     1       1.826 -20.786   2.345  1.00  0.00     0.049 A 
ATOM     59  H   UNL     1       2.048 -18.725   2.740  1.00  0.00     0.167 HD
ATOM     60  C   UNL     1      -0.102 -20.249   3.820  1.00  0.00     0.074 A 
ATOM     61  C   UNL     1      -1.296 -20.612   4.556  1.00  0.00     0.031 C 
ATOM     62  C   UNL     1       0.631 -21.122   3.081  1.00  0.00     0.034 A 
BRANCH  49  63
ATOM     63  C   UNL     1       5.577 -18.581   0.318  1.00  0.00     0.023 A 
ATOM     64  C   UNL     1       6.895 -18.360   0.757  1.00  0.00     0.031 A 
ATOM     65  C   UNL     1       5.382 -18.903  -1.037  1.00  0.00     0.131 A 
ATOM     66  C   UNL     1       7.952 -18.370  -0.163  1.00  0.00     0.055 A 
ATOM     67  C   UNL     1       6.451 -18.999  -1.931  1.00  0.00     0.041 A 
ATOM     68  F   UNL     1       4.146 -19.105  -1.520  1.00  0.00    -0.206 F 
ATOM     69  C   UNL     1       7.743 -18.714  -1.500  1.00  0.00     0.022 A 
BRANCH  66  70
ATOM     70  S   UNL     1       9.576 -17.772   0.381  1.00  0.00     0.124 S 
ATOM     71  O   UNL     1       9.268 -16.397   0.767  1.00  0.00    -0.237 OA
ATOM     72  O   UNL     1       9.900 -18.685   1.471  1.00  0.00    -0.237 OA
ATOM     73  O   UNL     1      10.408 -17.905  -0.813  1.00  0.00    -0.744 OA
ENDBRANCH  66  70
ENDBRANCH  49  63
BRANCH  50  74
ATOM     74  C   UNL     1      -2.367 -16.882   6.217  1.00  0.00     0.023 A 
ATOM     75  C   UNL     1      -2.532 -17.504   7.465  1.00  0.00     0.031 A 
ATOM     76  C   UNL     1      -3.401 -16.050   5.753  1.00  0.00     0.131 A 
ATOM     77  C   UNL     1      -3.723 -17.324   8.185  1.00  0.00     0.055 A 
ATOM     78  C   UNL     1      -4.564 -15.836   6.495  1.00  0.00     0.041 A 
ATOM     79  F   UNL     1      -3.289 -15.424   4.571  1.00  0.00    -0.206 F 
ATOM     80  C   UNL     1      -4.736 -16.487   7.714  1.00  0.00     0.022 A 
BRANCH  77  81
ATOM     81  S   UNL     1      -3.961 -18.267   9.716  1.00  0.00     0.124 S 
ATOM     82  O   UNL     1      -3.820 -19.640   9.245  1.00  0.00    -0.237 OA
ATOM     83  O   UNL     1      -2.879 -17.762  10.554  1.00  0.00    -0.237 OA
ATOM     84  O   UNL     1      -5.306 -17.888  10.143  1.00  0.00    -0.744 OA
ENDBRANCH  77  81
ENDBRANCH  50  74
BRANCH  62  85
ATOM     85  C   UNL     1       0.176 -22.558   3.078  1.00  0.00     0.023 A 
ATOM     86  C   UNL     1      -1.018 -22.952   2.451  1.00  0.00     0.031 A 
ATOM     87  C   UNL     1       0.947 -23.543   3.720  1.00  0.00     0.131 A 
ATOM     88  C   UNL     1      -1.434 -24.290   2.524  1.00  0.00     0.055 A 
ATOM     89  C   UNL     1       0.556 -24.881   3.742  1.00  0.00     0.041 A 
ATOM     90  F   UNL     1       2.096 -23.218   4.334  1.00  0.00    -0.206 F 
ATOM     91  C   UNL     1      -0.648 -25.259   3.152  1.00  0.00     0.022 A 
BRANCH  88  92
ATOM     92  S   UNL     1      -3.061 -24.732   1.856  1.00  0.00     0.124 S 
ATOM     93  O   UNL     1      -3.952 -23.883   2.639  1.00  0.00    -0.237 OA
ATOM     94  O   UNL     1      -2.925 -24.383   0.445  1.00  0.00    -0.237 OA
ATOM     95  O   UNL     1      -3.167 -26.164   2.131  1.00  0.00    -0.744 OA
ENDBRANCH  88  92
ENDBRANCH  62  85
ENDBRANCH  36  37
ENDBRANCH  28  31
ENDBRANCH  26  27
ENDBRANCH  25  26
ENDBRANCH   1  25
TORSDOF 17
