REMARK SMILES C[N@@H+]1CC2(CCN(C(=O)c3cc(-c4ccncc4)n[nH]3)CC2)C[C@H]1C(=O)NCCCCNC(=O)c1ccc(-c2c3nc(c(-c4cc(S(=O)(=O)[O-])ccc4F)c4ccc([nH]4)c(-c4cc(S(=O)(=O)[O-])ccc4F)c4nc(c(-c5cc(S(=O)(=O)[O-])ccc5F)c5ccc2[nH]5)C=C4)C=C3)cc1
REMARK SMILES IDX 30 1 29 2 28 3 27 4 25 5 26 6 24 8 1 9 2 10 3 11 4 13 23 14
REMARK SMILES IDX 5 15 22 16 6 17 21 18 7 19 8 20 9 21 10 22 11 23 20 24 12 25
REMARK SMILES IDX 19 26 13 28 14 29 18 30 15 31 17 32 16 33 31 34 32 35 33 36
REMARK SMILES IDX 34 38 35 39 36 40 97 41 37 42 96 43 38 44 39 45 40 46 90 47
REMARK SMILES IDX 41 48 95 49 89 50 91 51 42 52 94 53 88 54 87 55 43 57 75 58
REMARK SMILES IDX 55 59 74 60 56 61 59 62 73 63 92 64 57 65 58 66 72 68 93 69
REMARK SMILES IDX 60 70 44 71 45 72 53 73 46 74 52 75 54 76 51 77 47 78 48 79
REMARK SMILES IDX 49 80 50 81 76 82 77 83 85 84 78 85 84 86 86 87 83 88 79 89
REMARK SMILES IDX 80 90 81 91 82 92 61 93 62 94 70 95 63 96 69 97 71 98 68 99
REMARK SMILES IDX 64 100 65 101 66 102 67 103
REMARK H PARENT 27 7 2 12 20 27 32 37 91 56 59 67
REMARK Flexibility Score: inf
ROOT
ATOM      1  C   UNL     1      -3.360  -4.556  -1.280  1.00  0.00     0.023 C 
ENDROOT
BRANCH   1   2
ATOM      2  C   UNL     1      -2.371  -3.519  -0.748  1.00  0.00     0.023 C 
BRANCH   2   3
ATOM      3  C   UNL     1      -1.331  -4.069   0.224  1.00  0.00     0.116 C 
BRANCH   3   4
ATOM      4  N   UNL     1      -0.003  -4.225  -0.312  1.00  0.00    -0.351 N 
ATOM      5  C   UNL     1       1.138  -3.522  -0.057  1.00  0.00     0.278 C 
ATOM      6  O   UNL     1       2.188  -4.011  -0.498  1.00  0.00    -0.268 OA
ATOM      7  H   UNL     1       0.097  -4.955  -0.965  1.00  0.00     0.163 HD
BRANCH   5   8
ATOM      8  C   UNL     1       1.202  -2.184   0.739  1.00  0.00     0.274 C 
ATOM      9  C   UNL     1       0.996   0.005  -0.258  1.00  0.00     0.333 C 
ATOM     10  N   UNL     1       0.266  -1.180   0.196  1.00  0.00    -0.327 N 
ATOM     11  C   UNL     1      -0.723  -0.857   1.228  1.00  0.00     0.269 C 
ATOM     12  H   UNL     1      -0.222  -1.554  -0.618  1.00  0.00     0.348 HD
ATOM     13  C   UNL     1      -0.239  -1.398   2.593  1.00  0.00     0.029 C 
ATOM     14  C   UNL     1       1.015  -2.228   2.254  1.00  0.00     0.088 C 
ATOM     15  C   UNL     1      -1.240  -2.301   3.356  1.00  0.00     0.034 C 
ATOM     16  C   UNL     1       0.028  -0.199   3.548  1.00  0.00     0.034 C 
ATOM     17  C   UNL     1      -2.546  -1.579   3.604  1.00  0.00     0.120 C 
ATOM     18  C   UNL     1      -1.278   0.508   3.995  1.00  0.00     0.120 C 
ATOM     19  N   UNL     1      -2.296  -0.434   4.468  1.00  0.00    -0.337 N 
ATOM     20  C   UNL     1      -3.159  -0.077   5.502  1.00  0.00     0.271 C 
ATOM     21  O   UNL     1      -3.232   1.090   5.912  1.00  0.00    -0.267 OA
BRANCH  20  22
ATOM     22  C   UNL     1      -3.979  -1.114   6.069  1.00  0.00     0.123 A 
ATOM     23  C   UNL     1      -3.685  -2.409   6.460  1.00  0.00     0.064 A 
ATOM     24  N   UNL     1      -5.304  -0.961   6.356  1.00  0.00    -0.272 N 
ATOM     25  C   UNL     1      -4.922  -2.991   6.837  1.00  0.00     0.093 A 
ATOM     26  N   UNL     1      -5.910  -2.090   6.764  1.00  0.00    -0.175 NA
ATOM     27  H   UNL     1      -5.774  -0.100   6.272  1.00  0.00     0.190 HD
BRANCH  25  28
ATOM     28  C   UNL     1      -5.154  -4.371   7.234  1.00  0.00     0.005 A 
ATOM     29  C   UNL     1      -4.418  -4.934   8.278  1.00  0.00     0.030 A 
ATOM     30  C   UNL     1      -6.091  -5.155   6.559  1.00  0.00     0.030 A 
ATOM     31  C   UNL     1      -4.651  -6.259   8.601  1.00  0.00     0.111 A 
ATOM     32  C   UNL     1      -6.242  -6.474   6.951  1.00  0.00     0.111 A 
ATOM     33  N   UNL     1      -5.537  -7.042   7.954  1.00  0.00    -0.265 NA
ENDBRANCH  25  28
ENDBRANCH  20  22
ENDBRANCH   5   8
ENDBRANCH   3   4
ENDBRANCH   2   3
ENDBRANCH   1   2
BRANCH   1  34
ATOM     34  C   UNL     1      -4.181  -5.303  -0.228  1.00  0.00     0.116 C 
BRANCH  34  35
ATOM     35  N   UNL     1      -5.027  -4.458   0.605  1.00  0.00    -0.352 N 
ATOM     36  C   UNL     1      -6.221  -4.814   1.205  1.00  0.00     0.251 C 
ATOM     37  H   UNL     1      -4.716  -3.537   0.757  1.00  0.00     0.163 HD
ATOM     38  O   UNL     1      -6.862  -4.000   1.859  1.00  0.00    -0.269 OA
BRANCH  36  39
ATOM     39  C   UNL     1      -6.727  -6.187   0.989  1.00  0.00     0.039 A 
ATOM     40  C   UNL     1      -7.948  -6.368   0.335  1.00  0.00     0.014 A 
ATOM     41  C   UNL     1      -5.920  -7.282   1.308  1.00  0.00     0.014 A 
ATOM     42  C   UNL     1      -8.314  -7.647  -0.096  1.00  0.00     0.010 A 
ATOM     43  C   UNL     1      -6.256  -8.540   0.820  1.00  0.00     0.010 A 
ATOM     44  C   UNL     1      -7.444  -8.733   0.093  1.00  0.00    -0.014 A 
BRANCH  44  45
ATOM     45  C   UNL     1      -7.730 -10.082  -0.463  1.00  0.00     0.031 A 
ATOM     46  C   UNL     1      -7.894 -11.248   0.471  1.00  0.00     0.074 A 
ATOM     47  C   UNL     1      -7.722 -10.282  -1.796  1.00  0.00     0.049 A 
ATOM     48  N   UNL     1      -7.942 -12.527   0.205  1.00  0.00    -0.248 NA
ATOM     49  C   UNL     1      -7.966 -10.924   1.903  1.00  0.00     0.031 C 
ATOM     50  C   UNL     1      -7.534  -9.242  -2.809  1.00  0.00     0.029 A 
ATOM     51  N   UNL     1      -7.847 -11.438  -2.529  1.00  0.00    -0.354 N 
ATOM     52  C   UNL     1      -8.020 -13.166   1.438  1.00  0.00     0.074 A 
ATOM     53  C   UNL     1      -7.953 -12.129   2.449  1.00  0.00     0.031 C 
ATOM     54  C   UNL     1      -7.559  -9.805  -4.029  1.00  0.00     0.029 A 
ATOM     55  C   UNL     1      -7.716 -11.249  -3.886  1.00  0.00     0.049 A 
ATOM     56  H   UNL     1      -8.014 -12.318  -2.121  1.00  0.00     0.167 HD
ATOM     57  C   UNL     1      -8.152 -14.490   1.704  1.00  0.00     0.034 A 
ATOM     58  C   UNL     1      -7.700 -12.140  -4.898  1.00  0.00     0.034 A 
ATOM     59  C   UNL     1      -8.236 -15.507   0.685  1.00  0.00     0.049 A 
ATOM     60  C   UNL     1      -7.855 -13.606  -4.586  1.00  0.00     0.074 A 
ATOM     61  C   UNL     1      -8.410 -16.872   0.838  1.00  0.00     0.029 A 
ATOM     62  N   UNL     1      -8.153 -15.270  -0.681  1.00  0.00    -0.354 N 
ATOM     63  N   UNL     1      -7.948 -14.195  -3.416  1.00  0.00    -0.248 NA
ATOM     64  C   UNL     1      -7.912 -14.527  -5.729  1.00  0.00     0.031 C 
ATOM     65  C   UNL     1      -8.386 -17.464  -0.431  1.00  0.00     0.029 A 
ATOM     66  C   UNL     1      -8.260 -16.462  -1.381  1.00  0.00     0.049 A 
ATOM     67  H   UNL     1      -8.036 -14.383  -1.093  1.00  0.00     0.167 HD
ATOM     68  C   UNL     1      -8.105 -15.551  -3.685  1.00  0.00     0.074 A 
ATOM     69  C   UNL     1      -8.098 -15.693  -5.127  1.00  0.00     0.031 C 
ATOM     70  C   UNL     1      -8.251 -16.585  -2.819  1.00  0.00     0.034 A 
BRANCH  57  71
ATOM     71  C   UNL     1      -8.184 -14.896   3.157  1.00  0.00     0.023 A 
ATOM     72  C   UNL     1      -9.199 -14.447   4.021  1.00  0.00     0.031 A 
ATOM     73  C   UNL     1      -7.155 -15.681   3.705  1.00  0.00     0.131 A 
ATOM     74  C   UNL     1      -9.108 -14.697   5.398  1.00  0.00     0.055 A 
ATOM     75  C   UNL     1      -7.120 -16.005   5.063  1.00  0.00     0.041 A 
ATOM     76  F   UNL     1      -6.150 -16.126   2.935  1.00  0.00    -0.206 F 
ATOM     77  C   UNL     1      -8.089 -15.493   5.923  1.00  0.00     0.022 A 
BRANCH  74  78
ATOM     78  S   UNL     1     -10.241 -13.815   6.506  1.00  0.00     0.124 S 
ATOM     79  O   UNL     1      -9.944 -12.421   6.181  1.00  0.00    -0.237 OA
ATOM     80  O   UNL     1     -11.545 -14.307   6.080  1.00  0.00    -0.237 OA
ATOM     81  O   UNL     1      -9.816 -14.241   7.838  1.00  0.00    -0.744 OA
ENDBRANCH  74  78
ENDBRANCH  57  71
BRANCH  58  82
ATOM     82  C   UNL     1      -7.514 -11.678  -6.302  1.00  0.00     0.023 A 
ATOM     83  C   UNL     1      -8.555 -11.774  -7.238  1.00  0.00     0.031 A 
ATOM     84  C   UNL     1      -6.281 -11.158  -6.734  1.00  0.00     0.131 A 
ATOM     85  C   UNL     1      -8.333 -11.390  -8.570  1.00  0.00     0.055 A 
ATOM     86  C   UNL     1      -6.078 -10.739  -8.050  1.00  0.00     0.041 A 
ATOM     87  F   UNL     1      -5.257 -11.037  -5.873  1.00  0.00    -0.206 F 
ATOM     88  C   UNL     1      -7.106 -10.864  -8.980  1.00  0.00     0.022 A 
BRANCH  85  89
ATOM     89  S   UNL     1      -9.661 -11.645  -9.780  1.00  0.00     0.124 S 
ATOM     90  O   UNL     1      -9.852 -13.089  -9.712  1.00  0.00    -0.237 OA
ATOM     91  O   UNL     1     -10.736 -10.828  -9.226  1.00  0.00    -0.237 OA
ATOM     92  O   UNL     1      -9.085 -11.148 -11.027  1.00  0.00    -0.744 OA
ENDBRANCH  85  89
ENDBRANCH  58  82
BRANCH  70  93
ATOM     93  C   UNL     1      -8.478 -17.952  -3.413  1.00  0.00     0.023 A 
ATOM     94  C   UNL     1      -7.459 -18.649  -4.084  1.00  0.00     0.031 A 
ATOM     95  C   UNL     1      -9.739 -18.564  -3.297  1.00  0.00     0.131 A 
ATOM     96  C   UNL     1      -7.731 -19.905  -4.649  1.00  0.00     0.055 A 
ATOM     97  C   UNL     1      -9.990 -19.832  -3.821  1.00  0.00     0.041 A 
ATOM     98  F   UNL     1     -10.746 -17.938  -2.666  1.00  0.00    -0.206 F 
ATOM     99  C   UNL     1      -8.986 -20.506  -4.509  1.00  0.00     0.022 A 
BRANCH  96 100
ATOM    100  S   UNL     1      -6.439 -20.721  -5.627  1.00  0.00     0.124 S 
ATOM    101  O   UNL     1      -6.210 -19.754  -6.695  1.00  0.00    -0.237 OA
ATOM    102  O   UNL     1      -5.359 -20.869  -4.657  1.00  0.00    -0.237 OA
ATOM    103  O   UNL     1      -7.067 -21.973  -6.048  1.00  0.00    -0.744 OA
ENDBRANCH  96 100
ENDBRANCH  70  93
ENDBRANCH  44  45
ENDBRANCH  36  39
ENDBRANCH  34  35
ENDBRANCH   1  34
TORSDOF 16
