REMARK SMILES CC(C)OCCS(=O)(=O)N[C@@H]1CCCCC[C@H]1C(=O)NCCCCNC(=O)c1ccc(-c2c3nc(c(-c4cc(S(=O)(=O)[O-])ccc4F)c4ccc([nH]4)c(-c4cc(S(=O)(=O)[O-])ccc4F)c4nc(c(-c5cc(S(=O)(=O)[O-])ccc5F)c5ccc2[nH]5)C=C4)C=C3)cc1
REMARK SMILES IDX 18 1 19 2 20 3 17 5 11 6 10 7 7 9 8 10 9 11 6 12 5 13 4 14
REMARK SMILES IDX 2 15 1 16 3 17 12 18 13 19 14 20 16 22 15 23 21 25 22 26
REMARK SMILES IDX 23 27 24 28 25 29 26 30 27 32 28 33 29 34 90 35 30 36 89 37
REMARK SMILES IDX 31 38 32 39 33 40 83 41 34 42 88 43 82 44 84 45 35 46 87 47
REMARK SMILES IDX 81 48 80 49 36 51 68 52 48 53 67 54 49 55 52 56 66 57 85 58
REMARK SMILES IDX 50 59 51 60 65 62 86 63 53 64 37 65 38 66 46 67 39 68 45 69
REMARK SMILES IDX 47 70 44 71 40 72 41 73 42 74 43 75 69 76 70 77 78 78 71 79
REMARK SMILES IDX 77 80 79 81 76 82 72 83 73 84 74 85 75 86 54 87 55 88 63 89
REMARK SMILES IDX 56 90 62 91 64 92 61 93 57 94 58 95 59 96 60 97
REMARK H PARENT 20 4 10 8 25 31 84 50 52 61
REMARK Flexibility Score: 90.00
ROOT
ATOM      1  C   UNL     1       1.177  -2.342  -2.318  1.00  0.00     0.224 C 
ATOM      2  O   UNL     1       1.934  -3.315  -2.460  1.00  0.00    -0.275 OA
ATOM      3  N   UNL     1       1.056  -1.553  -3.430  1.00  0.00    -0.356 N 
ATOM      4  H   UNL     1       1.520  -1.977  -4.188  1.00  0.00     0.163 HD
ENDROOT
BRANCH   1   5
ATOM      5  C   UNL     1       0.427  -2.197  -0.929  1.00  0.00     0.096 C 
BRANCH   5   6
ATOM      6  C   UNL     1       1.531  -1.408   0.438  1.00  0.00     0.082 C 
BRANCH   6   7
ATOM      7  N   UNL     1       1.671  -2.373   1.594  1.00  0.00    -0.211 NA
ATOM      8  H   UNL     1       0.847  -2.970   1.523  1.00  0.00     0.141 HD
BRANCH   7   9
ATOM      9  S   UNL     1       1.816  -2.065   3.238  1.00  0.00     0.214 S 
ATOM     10  O   UNL     1       2.703  -0.942   3.467  1.00  0.00    -0.212 OA
ATOM     11  O   UNL     1       2.199  -3.354   3.775  1.00  0.00    -0.212 OA
BRANCH   9  12
ATOM     12  C   UNL     1       0.194  -1.752   3.950  1.00  0.00     0.182 C 
BRANCH  12  13
ATOM     13  C   UNL     1      -0.676  -0.627   3.435  1.00  0.00     0.178 C 
BRANCH  13  14
ATOM     14  O   UNL     1      -0.500  -0.199   2.119  1.00  0.00    -0.378 OA
BRANCH  14  15
ATOM     15  C   UNL     1      -0.814  -0.880   0.892  1.00  0.00     0.112 C 
ATOM     16  C   UNL     1       0.076  -0.059  -0.693  1.00  0.00     0.038 C 
ATOM     17  C   UNL     1      -1.126  -2.415   1.263  1.00  0.00     0.038 C 
ENDBRANCH  14  15
ENDBRANCH  13  14
ENDBRANCH  12  13
ENDBRANCH   9  12
ENDBRANCH   7   9
ENDBRANCH   6   7
BRANCH   6  18
ATOM     18  C   UNL     1       1.458   0.367   1.058  1.00  0.00     0.021 C 
BRANCH  18  19
ATOM     19  C   UNL     1       0.109   1.622   0.781  1.00  0.00     0.002 C 
BRANCH  19  20
ATOM     20  C   UNL     1      -1.599   1.335   0.070  1.00  0.00     0.000 CG0
ATOM     21  G   UNL     1      -2.150  -0.043  -1.082  1.00  0.00     0.000 G0
ENDBRANCH  19  20
ENDBRANCH  18  19
ENDBRANCH   6  18
ENDBRANCH   5   6
BRANCH   5  22
ATOM     22  C   UNL     1      -1.374  -1.727  -1.346  1.00  0.00     0.015 C 
BRANCH  22  23
ATOM     23  C   UNL     1      -2.150  -0.043  -1.082  1.00  0.00     0.001 CG0
ATOM     24  G   UNL     1      -1.599   1.335   0.070  1.00  0.00     0.000 G0
ENDBRANCH  22  23
ENDBRANCH   5  22
ENDBRANCH   1   5
BRANCH   3  25
ATOM     25  C   UNL     1       0.455  -0.266  -3.870  1.00  0.00     0.116 C 
BRANCH  25  26
ATOM     26  C   UNL     1       1.399   0.928  -3.639  1.00  0.00     0.023 C 
BRANCH  26  27
ATOM     27  C   UNL     1       1.103   2.147  -4.517  1.00  0.00     0.023 C 
BRANCH  27  28
ATOM     28  C   UNL     1      -0.225   2.848  -4.243  1.00  0.00     0.116 C 
BRANCH  28  29
ATOM     29  N   UNL     1      -0.157   3.891  -3.220  1.00  0.00    -0.352 N 
ATOM     30  C   UNL     1      -0.283   5.264  -3.348  1.00  0.00     0.251 C 
ATOM     31  H   UNL     1       0.002   3.568  -2.304  1.00  0.00     0.163 HD
ATOM     32  O   UNL     1      -0.135   5.995  -2.374  1.00  0.00    -0.269 OA
BRANCH  30  33
ATOM     33  C   UNL     1      -0.535   5.843  -4.686  1.00  0.00     0.039 A 
ATOM     34  C   UNL     1       0.336   6.811  -5.191  1.00  0.00     0.014 A 
ATOM     35  C   UNL     1      -1.548   5.323  -5.488  1.00  0.00     0.014 A 
ATOM     36  C   UNL     1       0.283   7.138  -6.550  1.00  0.00     0.010 A 
ATOM     37  C   UNL     1      -1.507   5.546  -6.859  1.00  0.00     0.010 A 
ATOM     38  C   UNL     1      -0.581   6.445  -7.414  1.00  0.00    -0.014 A 
BRANCH  38  39
ATOM     39  C   UNL     1      -0.533   6.633  -8.892  1.00  0.00     0.031 A 
ATOM     40  C   UNL     1      -1.778   7.043  -9.636  1.00  0.00     0.074 A 
ATOM     41  C   UNL     1       0.599   6.356  -9.577  1.00  0.00     0.049 A 
ATOM     42  N   UNL     1      -1.975   7.158 -10.924  1.00  0.00    -0.248 NA
ATOM     43  C   UNL     1      -2.974   7.313  -8.822  1.00  0.00     0.031 C 
ATOM     44  C   UNL     1       1.857   5.891  -8.986  1.00  0.00     0.029 A 
ATOM     45  N   UNL     1       0.878   6.421 -10.921  1.00  0.00    -0.354 N 
ATOM     46  C   UNL     1      -3.318   7.493 -11.071  1.00  0.00     0.074 A 
ATOM     47  C   UNL     1      -3.904   7.469  -9.750  1.00  0.00     0.031 C 
ATOM     48  C   UNL     1       2.780   5.761  -9.952  1.00  0.00     0.029 A 
ATOM     49  C   UNL     1       2.173   6.074 -11.241  1.00  0.00     0.049 A 
ATOM     50  H   UNL     1       0.213   6.691 -11.595  1.00  0.00     0.167 HD
ATOM     51  C   UNL     1      -3.993   7.828 -12.198  1.00  0.00     0.034 A 
ATOM     52  C   UNL     1       2.797   6.006 -12.435  1.00  0.00     0.034 A 
ATOM     53  C   UNL     1      -3.388   7.875 -13.505  1.00  0.00     0.049 A 
ATOM     54  C   UNL     1       2.020   6.361 -13.680  1.00  0.00     0.074 A 
ATOM     55  C   UNL     1      -3.960   8.260 -14.704  1.00  0.00     0.029 A 
ATOM     56  N   UNL     1      -2.075   7.519 -13.787  1.00  0.00    -0.354 N 
ATOM     57  N   UNL     1       0.765   6.735 -13.792  1.00  0.00    -0.248 NA
ATOM     58  C   UNL     1       2.743   6.295 -14.957  1.00  0.00     0.031 C 
ATOM     59  C   UNL     1      -3.020   8.062 -15.720  1.00  0.00     0.029 A 
ATOM     60  C   UNL     1      -1.831   7.641 -15.145  1.00  0.00     0.049 A 
ATOM     61  H   UNL     1      -1.415   7.224 -13.119  1.00  0.00     0.167 HD
ATOM     62  C   UNL     1       0.562   6.980 -15.148  1.00  0.00     0.074 A 
ATOM     63  C   UNL     1       1.826   6.729 -15.808  1.00  0.00     0.031 C 
ATOM     64  C   UNL     1      -0.566   7.380 -15.790  1.00  0.00     0.034 A 
BRANCH  51  65
ATOM     65  C   UNL     1      -5.462   8.154 -12.056  1.00  0.00     0.023 A 
ATOM     66  C   UNL     1      -5.908   9.223 -11.259  1.00  0.00     0.031 A 
ATOM     67  C   UNL     1      -6.433   7.364 -12.696  1.00  0.00     0.131 A 
ATOM     68  C   UNL     1      -7.281   9.418 -11.050  1.00  0.00     0.055 A 
ATOM     69  C   UNL     1      -7.798   7.622 -12.561  1.00  0.00     0.041 A 
ATOM     70  F   UNL     1      -6.072   6.314 -13.451  1.00  0.00    -0.206 F 
ATOM     71  C   UNL     1      -8.230   8.643 -11.720  1.00  0.00     0.022 A 
BRANCH  68  72
ATOM     72  S   UNL     1      -7.802  10.586  -9.765  1.00  0.00     0.124 S 
ATOM     73  O   UNL     1      -7.158  10.024  -8.579  1.00  0.00    -0.237 OA
ATOM     74  O   UNL     1      -7.259  11.850 -10.248  1.00  0.00    -0.237 OA
ATOM     75  O   UNL     1      -9.259  10.485  -9.779  1.00  0.00    -0.744 OA
ENDBRANCH  68  72
ENDBRANCH  51  65
BRANCH  52  76
ATOM     76  C   UNL     1       4.227   5.581 -12.530  1.00  0.00     0.023 A 
ATOM     77  C   UNL     1       5.212   6.449 -13.030  1.00  0.00     0.031 A 
ATOM     78  C   UNL     1       4.623   4.278 -12.175  1.00  0.00     0.131 A 
ATOM     79  C   UNL     1       6.527   5.991 -13.212  1.00  0.00     0.055 A 
ATOM     80  C   UNL     1       5.945   3.846 -12.299  1.00  0.00     0.041 A 
ATOM     81  F   UNL     1       3.726   3.404 -11.691  1.00  0.00    -0.206 F 
ATOM     82  C   UNL     1       6.904   4.700 -12.835  1.00  0.00     0.022 A 
BRANCH  79  83
ATOM     83  S   UNL     1       7.719   7.075 -14.047  1.00  0.00     0.124 S 
ATOM     84  O   UNL     1       7.054   7.320 -15.321  1.00  0.00    -0.237 OA
ATOM     85  O   UNL     1       7.791   8.208 -13.130  1.00  0.00    -0.237 OA
ATOM     86  O   UNL     1       8.928   6.258 -14.120  1.00  0.00    -0.744 OA
ENDBRANCH  79  83
ENDBRANCH  52  76
BRANCH  64  87
ATOM     87  C   UNL     1      -0.466   7.618 -17.278  1.00  0.00     0.023 A 
ATOM     88  C   UNL     1      -0.211   6.573 -18.181  1.00  0.00     0.031 A 
ATOM     89  C   UNL     1      -0.633   8.915 -17.798  1.00  0.00     0.131 A 
ATOM     90  C   UNL     1      -0.072   6.850 -19.549  1.00  0.00     0.055 A 
ATOM     91  C   UNL     1      -0.564   9.173 -19.167  1.00  0.00     0.041 A 
ATOM     92  F   UNL     1      -0.875   9.953 -16.981  1.00  0.00    -0.206 F 
ATOM     93  C   UNL     1      -0.268   8.140 -20.050  1.00  0.00     0.022 A 
BRANCH  90  94
ATOM     94  S   UNL     1       0.468   5.519 -20.656  1.00  0.00     0.124 S 
ATOM     95  O   UNL     1       1.744   5.132 -20.064  1.00  0.00    -0.237 OA
ATOM     96  O   UNL     1      -0.614   4.548 -20.529  1.00  0.00    -0.237 OA
ATOM     97  O   UNL     1       0.562   6.174 -21.960  1.00  0.00    -0.744 OA
ENDBRANCH  90  94
ENDBRANCH  64  87
ENDBRANCH  38  39
ENDBRANCH  30  33
ENDBRANCH  28  29
ENDBRANCH  27  28
ENDBRANCH  26  27
ENDBRANCH  25  26
ENDBRANCH   3  25
TORSDOF 20
