REMARK SMILES Cc1cc(C(=O)N[C@H]2C=C[C@@H](C(=O)NCCCCNC(=O)c3ccc(-c4c5nc(c(-c6cc(S(=O)(=O)[O-])ccc6F)c6ccc([nH]6)c(-c6cc(S(=O)(=O)[O-])ccc6F)c6nc(c(-c7cc(S(=O)(=O)[O-])ccc7F)c7ccc4[nH]7)C=C6)C=C5)cc3)C2)no1
REMARK SMILES IDX 17 1 16 2 15 3 14 4 12 5 13 6 11 8 8 9 9 10 85 11 10 12 7 13
REMARK SMILES IDX 5 14 6 15 4 17 1 18 2 19 3 20 87 21 86 22 18 23 19 24 20 25
REMARK SMILES IDX 21 27 22 28 23 29 84 30 24 31 83 32 25 33 26 34 27 35 77 36
REMARK SMILES IDX 28 37 82 38 76 39 78 40 29 41 81 42 75 43 74 44 30 46 62 47
REMARK SMILES IDX 42 48 61 49 43 50 46 51 60 52 79 53 44 54 45 55 59 57 80 58
REMARK SMILES IDX 47 59 31 60 32 61 40 62 33 63 39 64 41 65 38 66 34 67 35 68
REMARK SMILES IDX 36 69 37 70 63 71 64 72 72 73 65 74 71 75 73 76 70 77 66 78
REMARK SMILES IDX 67 79 68 80 69 81 48 82 49 83 57 84 50 85 56 86 58 87 55 88
REMARK SMILES IDX 51 89 52 90 53 91 54 92
REMARK H PARENT 14 7 7 16 19 26 78 45 46 56
REMARK Flexibility Score: inf
ROOT
ATOM      1  C   UNL     1      -4.602  -6.154   3.785  1.00  0.00     0.023 C 
ENDROOT
BRANCH   1   2
ATOM      2  C   UNL     1      -3.784  -5.317   2.798  1.00  0.00     0.023 C 
BRANCH   2   3
ATOM      3  C   UNL     1      -2.375  -4.971   3.271  1.00  0.00     0.116 C 
BRANCH   3   4
ATOM      4  N   UNL     1      -1.512  -6.139   3.267  1.00  0.00    -0.356 N 
ATOM      5  C   UNL     1      -0.427  -6.449   2.506  1.00  0.00     0.227 C 
ATOM      6  O   UNL     1       0.123  -7.536   2.711  1.00  0.00    -0.274 OA
ATOM      7  H   UNL     1      -1.753  -6.826   3.930  1.00  0.00     0.163 HD
BRANCH   5   8
ATOM      8  C   UNL     1       0.134  -5.505   1.440  1.00  0.00     0.103 C 
ATOM      9  C   UNL     1      -0.649  -3.632   0.052  1.00  0.00     0.106 C 
ATOM     10  C   UNL     1       0.083  -3.168   1.270  1.00  0.00    -0.006 C 
ATOM     11  C   UNL     1      -0.829  -5.142   0.304  1.00  0.00     0.047 C 
ATOM     12  C   UNL     1       0.541  -4.184   2.007  1.00  0.00    -0.016 C 
BRANCH   9  13
ATOM     13  N   UNL     1      -1.915  -2.948  -0.110  1.00  0.00    -0.344 N 
ATOM     14  C   UNL     1      -2.192  -1.621  -0.363  1.00  0.00     0.273 C 
ATOM     15  O   UNL     1      -3.370  -1.311  -0.544  1.00  0.00    -0.267 OA
ATOM     16  H   UNL     1      -2.708  -3.525  -0.025  1.00  0.00     0.164 HD
BRANCH  14  17
ATOM     17  C   UNL     1      -1.106  -0.640  -0.355  1.00  0.00     0.171 A 
ATOM     18  C   UNL     1       2.244   0.853  -0.511  1.00  0.00     0.091 C 
ATOM     19  C   UNL     1       0.850   0.384  -0.445  1.00  0.00     0.134 A 
ATOM     20  C   UNL     1       0.184  -0.705  -0.947  1.00  0.00     0.082 A 
ATOM     21  O   UNL     1      -0.010   1.132   0.290  1.00  0.00    -0.361 OA
ATOM     22  N   UNL     1      -1.240   0.508   0.332  1.00  0.00    -0.074 NA
ENDBRANCH  14  17
ENDBRANCH   9  13
ENDBRANCH   5   8
ENDBRANCH   3   4
ENDBRANCH   2   3
ENDBRANCH   1   2
BRANCH   1  23
ATOM     23  C   UNL     1      -4.789  -5.536   5.168  1.00  0.00     0.116 C 
BRANCH  23  24
ATOM     24  N   UNL     1      -5.383  -4.212   5.124  1.00  0.00    -0.352 N 
ATOM     25  C   UNL     1      -6.262  -3.627   6.002  1.00  0.00     0.251 C 
ATOM     26  H   UNL     1      -5.118  -3.656   4.356  1.00  0.00     0.163 HD
ATOM     27  O   UNL     1      -6.752  -2.535   5.724  1.00  0.00    -0.269 OA
BRANCH  25  28
ATOM     28  C   UNL     1      -6.644  -4.319   7.252  1.00  0.00     0.039 A 
ATOM     29  C   UNL     1      -7.989  -4.311   7.633  1.00  0.00     0.014 A 
ATOM     30  C   UNL     1      -5.692  -4.951   8.057  1.00  0.00     0.014 A 
ATOM     31  C   UNL     1      -8.386  -4.975   8.794  1.00  0.00     0.010 A 
ATOM     32  C   UNL     1      -6.097  -5.663   9.184  1.00  0.00     0.010 A 
ATOM     33  C   UNL     1      -7.446  -5.672   9.569  1.00  0.00    -0.014 A 
BRANCH  33  34
ATOM     34  C   UNL     1      -7.860  -6.391  10.798  1.00  0.00     0.031 A 
ATOM     35  C   UNL     1      -7.406  -5.905  12.146  1.00  0.00     0.074 A 
ATOM     36  C   UNL     1      -8.589  -7.518  10.693  1.00  0.00     0.049 A 
ATOM     37  N   UNL     1      -7.639  -6.408  13.331  1.00  0.00    -0.248 NA
ATOM     38  C   UNL     1      -6.540  -4.718  12.155  1.00  0.00     0.031 C 
ATOM     39  C   UNL     1      -9.015  -8.136   9.435  1.00  0.00     0.029 A 
ATOM     40  N   UNL     1      -9.085  -8.354  11.659  1.00  0.00    -0.354 N 
ATOM     41  C   UNL     1      -6.929  -5.614  14.226  1.00  0.00     0.074 A 
ATOM     42  C   UNL     1      -6.215  -4.633  13.435  1.00  0.00     0.031 C 
ATOM     43  C   UNL     1      -9.714  -9.250   9.709  1.00  0.00     0.029 A 
ATOM     44  C   UNL     1      -9.777  -9.429  11.156  1.00  0.00     0.049 A 
ATOM     45  H   UNL     1      -8.958  -8.198  12.623  1.00  0.00     0.167 HD
ATOM     46  C   UNL     1      -6.891  -5.686  15.580  1.00  0.00     0.034 A 
ATOM     47  C   UNL     1     -10.395 -10.442  11.791  1.00  0.00     0.034 A 
ATOM     48  C   UNL     1      -7.630  -6.656  16.352  1.00  0.00     0.049 A 
ATOM     49  C   UNL     1     -10.419 -10.453  13.294  1.00  0.00     0.074 A 
ATOM     50  C   UNL     1      -7.732  -6.775  17.727  1.00  0.00     0.029 A 
ATOM     51  N   UNL     1      -8.393  -7.683  15.809  1.00  0.00    -0.354 N 
ATOM     52  N   UNL     1      -9.815  -9.646  14.135  1.00  0.00    -0.248 NA
ATOM     53  C   UNL     1     -11.236 -11.493  13.932  1.00  0.00     0.031 C 
ATOM     54  C   UNL     1      -8.520  -7.897  18.015  1.00  0.00     0.029 A 
ATOM     55  C   UNL     1      -8.955  -8.448  16.820  1.00  0.00     0.049 A 
ATOM     56  H   UNL     1      -8.517  -7.845  14.846  1.00  0.00     0.167 HD
ATOM     57  C   UNL     1     -10.192 -10.072  15.404  1.00  0.00     0.074 A 
ATOM     58  C   UNL     1     -11.089 -11.195  15.215  1.00  0.00     0.031 C 
ATOM     59  C   UNL     1      -9.832  -9.577  16.616  1.00  0.00     0.034 A 
BRANCH  46  60
ATOM     60  C   UNL     1      -5.996  -4.700  16.294  1.00  0.00     0.023 A 
ATOM     61  C   UNL     1      -6.215  -3.313  16.214  1.00  0.00     0.031 A 
ATOM     62  C   UNL     1      -4.869  -5.147  17.005  1.00  0.00     0.131 A 
ATOM     63  C   UNL     1      -5.270  -2.423  16.746  1.00  0.00     0.055 A 
ATOM     64  C   UNL     1      -3.978  -4.256  17.608  1.00  0.00     0.041 A 
ATOM     65  F   UNL     1      -4.597  -6.458  17.102  1.00  0.00    -0.206 F 
ATOM     66  C   UNL     1      -4.164  -2.885  17.462  1.00  0.00     0.022 A 
BRANCH  63  67
ATOM     67  S   UNL     1      -5.417  -0.662  16.335  1.00  0.00     0.124 S 
ATOM     68  O   UNL     1      -5.386  -0.696  14.875  1.00  0.00    -0.237 OA
ATOM     69  O   UNL     1      -6.695  -0.303  16.940  1.00  0.00    -0.237 OA
ATOM     70  O   UNL     1      -4.239  -0.064  16.961  1.00  0.00    -0.744 OA
ENDBRANCH  63  67
ENDBRANCH  46  60
BRANCH  47  71
ATOM     71  C   UNL     1     -11.053 -11.518  11.005  1.00  0.00     0.023 A 
ATOM     72  C   UNL     1     -12.451 -11.601  10.919  1.00  0.00     0.031 A 
ATOM     73  C   UNL     1     -10.285 -12.480  10.328  1.00  0.00     0.131 A 
ATOM     74  C   UNL     1     -13.042 -12.647  10.195  1.00  0.00     0.055 A 
ATOM     75  C   UNL     1     -10.877 -13.500   9.583  1.00  0.00     0.041 A 
ATOM     76  F   UNL     1      -8.944 -12.427  10.367  1.00  0.00    -0.206 F 
ATOM     77  C   UNL     1     -12.265 -13.592   9.520  1.00  0.00     0.022 A 
BRANCH  74  78
ATOM     78  S   UNL     1     -14.851 -12.772  10.171  1.00  0.00     0.124 S 
ATOM     79  O   UNL     1     -15.156 -12.969  11.583  1.00  0.00    -0.237 OA
ATOM     80  O   UNL     1     -15.237 -11.483   9.605  1.00  0.00    -0.237 OA
ATOM     81  O   UNL     1     -15.101 -13.926   9.309  1.00  0.00    -0.744 OA
ENDBRANCH  74  78
ENDBRANCH  47  71
BRANCH  59  82
ATOM     82  C   UNL     1     -10.441 -10.240  17.823  1.00  0.00     0.023 A 
ATOM     83  C   UNL     1     -10.087 -11.546  18.202  1.00  0.00     0.031 A 
ATOM     84  C   UNL     1     -11.410  -9.565  18.586  1.00  0.00     0.131 A 
ATOM     85  C   UNL     1     -10.738 -12.159  19.283  1.00  0.00     0.055 A 
ATOM     86  C   UNL     1     -12.020 -10.163  19.689  1.00  0.00     0.041 A 
ATOM     87  F   UNL     1     -11.784  -8.316  18.264  1.00  0.00    -0.206 F 
ATOM     88  C   UNL     1     -11.695 -11.472  20.035  1.00  0.00     0.022 A 
BRANCH  85  89
ATOM     89  S   UNL     1     -10.386 -13.903  19.636  1.00  0.00     0.124 S 
ATOM     90  O   UNL     1     -10.682 -14.541  18.357  1.00  0.00    -0.237 OA
ATOM     91  O   UNL     1      -8.978 -13.864  20.019  1.00  0.00    -0.237 OA
ATOM     92  O   UNL     1     -11.313 -14.228  20.718  1.00  0.00    -0.744 OA
ENDBRANCH  85  89
ENDBRANCH  59  82
ENDBRANCH  33  34
ENDBRANCH  25  28
ENDBRANCH  23  24
ENDBRANCH   1  23
TORSDOF 16
