REMARK SMILES C/C(=N/Nc1ccccc1C(=O)NCCCCNC(=O)c1ccc(-c2c3nc(c(-c4cc(S(=O)(=O)[O-])ccc4F)c4ccc([nH]4)c(-c4cc(S(=O)(=O)[O-])ccc4F)c4nc(c(-c5cc(S(=O)(=O)[O-])ccc5F)c5ccc2[nH]5)C=C4)C=C3)cc1)c1ccc(S(C)(=O)=O)cc1
REMARK SMILES IDX 15 1 14 2 13 3 11 4 12 5 10 7 5 8 6 9 7 10 9 11 8 12 4 13
REMARK SMILES IDX 3 15 1 16 2 17 84 18 85 19 93 20 86 21 92 22 87 23 88 24
REMARK SMILES IDX 89 25 90 26 91 27 16 28 17 29 18 30 19 31 20 33 21 34 22 35
REMARK SMILES IDX 83 36 23 37 82 38 24 39 25 40 26 41 76 42 27 43 81 44 75 45
REMARK SMILES IDX 77 46 28 47 80 48 74 49 73 50 29 52 61 53 41 54 60 55 42 56
REMARK SMILES IDX 45 57 59 58 78 59 43 60 44 61 58 63 79 64 46 65 30 66 31 67
REMARK SMILES IDX 39 68 32 69 38 70 40 71 37 72 33 73 34 74 35 75 36 76 62 77
REMARK SMILES IDX 63 78 71 79 64 80 70 81 72 82 69 83 65 84 66 85 67 86 68 87
REMARK SMILES IDX 47 88 48 89 56 90 49 91 55 92 57 93 54 94 50 95 51 96 52 97
REMARK SMILES IDX 53 98
REMARK H PARENT 13 6 4 14 18 32 77 51 45 62
REMARK Flexibility Score: inf
ROOT
ATOM      1  C   UNL     1       0.750   5.026  -1.166  1.00  0.00     0.023 C 
ENDROOT
BRANCH   1   2
ATOM      2  C   UNL     1       0.382   4.111  -0.004  1.00  0.00     0.116 C 
BRANCH   2   3
ATOM      3  N   UNL     1       1.538   3.659   0.738  1.00  0.00    -0.352 N 
ATOM      4  C   UNL     1       1.654   3.392   2.076  1.00  0.00     0.253 C 
ATOM      5  O   UNL     1       2.760   3.068   2.514  1.00  0.00    -0.269 OA
ATOM      6  H   UNL     1       2.356   3.523   0.207  1.00  0.00     0.163 HD
BRANCH   4   7
ATOM      7  C   UNL     1       0.537   3.602   3.033  1.00  0.00     0.064 A 
ATOM      8  C   UNL     1      -0.787   3.146   2.905  1.00  0.00     0.069 A 
ATOM      9  C   UNL     1      -1.707   3.530   3.914  1.00  0.00     0.028 A 
ATOM     10  C   UNL     1      -1.329   4.275   5.032  1.00  0.00     0.002 A 
ATOM     11  C   UNL     1       0.913   4.337   4.182  1.00  0.00     0.016 A 
ATOM     12  C   UNL     1      -0.008   4.664   5.176  1.00  0.00     0.001 A 
BRANCH   8  13
ATOM     13  N   UNL     1      -1.309   2.215   1.978  1.00  0.00    -0.277 N 
ATOM     14  H   UNL     1      -2.291   2.185   1.915  1.00  0.00     0.190 HD
BRANCH  13  15
ATOM     15  N   UNL     1      -0.649   1.365   1.170  1.00  0.00    -0.180 NA
ATOM     16  C   UNL     1       0.829  -0.407   0.543  1.00  0.00     0.069 C 
ATOM     17  C   UNL     1       0.208   0.484   1.599  1.00  0.00     0.065 C 
BRANCH  17  18
ATOM     18  C   UNL     1       0.663   0.269   2.998  1.00  0.00    -0.002 A 
ATOM     19  C   UNL     1      -0.247   0.231   4.059  1.00  0.00     0.011 A 
ATOM     20  C   UNL     1       2.040   0.241   3.253  1.00  0.00     0.011 A 
ATOM     21  C   UNL     1       0.218   0.293   5.374  1.00  0.00     0.021 A 
ATOM     22  C   UNL     1       2.510   0.302   4.563  1.00  0.00     0.021 A 
ATOM     23  C   UNL     1       1.594   0.375   5.612  1.00  0.00     0.067 A 
BRANCH  23  24
ATOM     24  S   UNL     1       2.180   0.631   7.268  1.00  0.00     0.175 S 
ATOM     25  C   UNL     1       2.028   2.387   7.484  1.00  0.00     0.163 C 
ATOM     26  O   UNL     1       1.245  -0.016   8.167  1.00  0.00    -0.224 OA
ATOM     27  O   UNL     1       3.592   0.299   7.301  1.00  0.00    -0.224 OA
ENDBRANCH  23  24
ENDBRANCH  17  18
ENDBRANCH  13  15
ENDBRANCH   8  13
ENDBRANCH   4   7
ENDBRANCH   2   3
ENDBRANCH   1   2
BRANCH   1  28
ATOM     28  C   UNL     1       1.622   4.393  -2.253  1.00  0.00     0.023 C 
BRANCH  28  29
ATOM     29  C   UNL     1       1.166   3.031  -2.772  1.00  0.00     0.116 C 
BRANCH  29  30
ATOM     30  N   UNL     1      -0.208   3.030  -3.252  1.00  0.00    -0.352 N 
ATOM     31  C   UNL     1      -0.712   2.762  -4.502  1.00  0.00     0.251 C 
ATOM     32  H   UNL     1      -0.884   3.258  -2.573  1.00  0.00     0.163 HD
ATOM     33  O   UNL     1      -1.904   2.948  -4.730  1.00  0.00    -0.269 OA
BRANCH  31  34
ATOM     34  C   UNL     1       0.187   2.289  -5.575  1.00  0.00     0.039 A 
ATOM     35  C   UNL     1       0.113   2.892  -6.833  1.00  0.00     0.014 A 
ATOM     36  C   UNL     1       1.110   1.266  -5.341  1.00  0.00     0.014 A 
ATOM     37  C   UNL     1       1.022   2.526  -7.830  1.00  0.00     0.010 A 
ATOM     38  C   UNL     1       2.066   0.963  -6.306  1.00  0.00     0.010 A 
ATOM     39  C   UNL     1       2.035   1.591  -7.561  1.00  0.00    -0.014 A 
BRANCH  39  40
ATOM     40  C   UNL     1       3.064   1.258  -8.581  1.00  0.00     0.031 A 
ATOM     41  C   UNL     1       3.168  -0.144  -9.120  1.00  0.00     0.074 A 
ATOM     42  C   UNL     1       3.945   2.200  -8.973  1.00  0.00     0.049 A 
ATOM     43  N   UNL     1       4.032  -0.646  -9.965  1.00  0.00    -0.248 NA
ATOM     44  C   UNL     1       2.192  -1.118  -8.610  1.00  0.00     0.031 C 
ATOM     45  C   UNL     1       3.985   3.579  -8.479  1.00  0.00     0.029 A 
ATOM     46  N   UNL     1       4.981   2.142  -9.872  1.00  0.00    -0.354 N 
ATOM     47  C   UNL     1       3.714  -1.996 -10.075  1.00  0.00     0.074 A 
ATOM     48  C   UNL     1       2.623  -2.244  -9.157  1.00  0.00     0.031 C 
ATOM     49  C   UNL     1       4.973   4.242  -9.102  1.00  0.00     0.029 A 
ATOM     50  C   UNL     1       5.662   3.330 -10.010  1.00  0.00     0.049 A 
ATOM     51  H   UNL     1       5.215   1.327 -10.371  1.00  0.00     0.167 HD
ATOM     52  C   UNL     1       4.262  -2.935 -10.887  1.00  0.00     0.034 A 
ATOM     53  C   UNL     1       6.724   3.648 -10.777  1.00  0.00     0.034 A 
ATOM     54  C   UNL     1       5.337  -2.665 -11.811  1.00  0.00     0.049 A 
ATOM     55  C   UNL     1       7.311   2.592 -11.679  1.00  0.00     0.074 A 
ATOM     56  C   UNL     1       5.928  -3.523 -12.722  1.00  0.00     0.029 A 
ATOM     57  N   UNL     1       5.987  -1.444 -11.941  1.00  0.00    -0.354 N 
ATOM     58  N   UNL     1       6.959   1.334 -11.817  1.00  0.00    -0.248 NA
ATOM     59  C   UNL     1       8.427   3.004 -12.540  1.00  0.00     0.031 C 
ATOM     60  C   UNL     1       6.972  -2.840 -13.358  1.00  0.00     0.029 A 
ATOM     61  C   UNL     1       6.987  -1.533 -12.898  1.00  0.00     0.049 A 
ATOM     62  H   UNL     1       5.769  -0.632 -11.428  1.00  0.00     0.167 HD
ATOM     63  C   UNL     1       7.792   0.814 -12.804  1.00  0.00     0.074 A 
ATOM     64  C   UNL     1       8.650   1.899 -13.236  1.00  0.00     0.031 C 
ATOM     65  C   UNL     1       7.841  -0.445 -13.311  1.00  0.00     0.034 A 
BRANCH  52  66
ATOM     66  C   UNL     1       3.714  -4.339 -10.788  1.00  0.00     0.023 A 
ATOM     67  C   UNL     1       2.370  -4.629 -11.087  1.00  0.00     0.031 A 
ATOM     68  C   UNL     1       4.530  -5.396 -10.349  1.00  0.00     0.131 A 
ATOM     69  C   UNL     1       1.862  -5.917 -10.859  1.00  0.00     0.055 A 
ATOM     70  C   UNL     1       4.040  -6.697 -10.209  1.00  0.00     0.041 A 
ATOM     71  F   UNL     1       5.816  -5.181 -10.030  1.00  0.00    -0.206 F 
ATOM     72  C   UNL     1       2.694  -6.959 -10.446  1.00  0.00     0.022 A 
BRANCH  69  73
ATOM     73  S   UNL     1       0.068  -6.168 -10.958  1.00  0.00     0.124 S 
ATOM     74  O   UNL     1      -0.416  -5.230  -9.947  1.00  0.00    -0.237 OA
ATOM     75  O   UNL     1      -0.224  -5.821 -12.343  1.00  0.00    -0.237 OA
ATOM     76  O   UNL     1      -0.100  -7.579 -10.618  1.00  0.00    -0.744 OA
ENDBRANCH  69  73
ENDBRANCH  52  66
BRANCH  53  77
ATOM     77  C   UNL     1       7.301   5.022 -10.739  1.00  0.00     0.023 A 
ATOM     78  C   UNL     1       7.246   5.862 -11.863  1.00  0.00     0.031 A 
ATOM     79  C   UNL     1       7.952   5.502  -9.589  1.00  0.00     0.131 A 
ATOM     80  C   UNL     1       7.872   7.117 -11.831  1.00  0.00     0.055 A 
ATOM     81  C   UNL     1       8.530   6.772  -9.545  1.00  0.00     0.041 A 
ATOM     82  F   UNL     1       8.026   4.744  -8.484  1.00  0.00    -0.206 F 
ATOM     83  C   UNL     1       8.504   7.583 -10.676  1.00  0.00     0.022 A 
BRANCH  80  84
ATOM     84  S   UNL     1       7.917   8.105 -13.352  1.00  0.00     0.124 S 
ATOM     85  O   UNL     1       8.597   7.201 -14.273  1.00  0.00    -0.237 OA
ATOM     86  O   UNL     1       6.498   8.334 -13.606  1.00  0.00    -0.237 OA
ATOM     87  O   UNL     1       8.678   9.291 -12.965  1.00  0.00    -0.744 OA
ENDBRANCH  80  84
ENDBRANCH  53  77
BRANCH  65  88
ATOM     88  C   UNL     1       8.829  -0.694 -14.424  1.00  0.00     0.023 A 
ATOM     89  C   UNL     1      10.217  -0.639 -14.209  1.00  0.00     0.031 A 
ATOM     90  C   UNL     1       8.371  -0.972 -15.725  1.00  0.00     0.131 A 
ATOM     91  C   UNL     1      11.098  -0.799 -15.290  1.00  0.00     0.055 A 
ATOM     92  C   UNL     1       9.253  -1.190 -16.783  1.00  0.00     0.041 A 
ATOM     93  F   UNL     1       7.056  -1.034 -15.987  1.00  0.00    -0.206 F 
ATOM     94  C   UNL     1      10.625  -1.090 -16.572  1.00  0.00     0.022 A 
BRANCH  91  95
ATOM     95  S   UNL     1      12.870  -0.523 -15.017  1.00  0.00     0.124 S 
ATOM     96  O   UNL     1      12.890   0.844 -14.506  1.00  0.00    -0.237 OA
ATOM     97  O   UNL     1      13.204  -1.568 -14.054  1.00  0.00    -0.237 OA
ATOM     98  O   UNL     1      13.453  -0.697 -16.346  1.00  0.00    -0.744 OA
ENDBRANCH  91  95
ENDBRANCH  65  88
ENDBRANCH  39  40
ENDBRANCH  31  34
ENDBRANCH  29  30
ENDBRANCH  28  29
ENDBRANCH   1  28
TORSDOF 18
