REMARK SMILES C[C@@H](C(=O)NCCCCNC(=O)c1ccc(-c2c3nc(c(-c4cc(S(=O)(=O)[O-])ccc4F)c4ccc([nH]4)c(-c4cc(S(=O)(=O)[O-])ccc4F)c4nc(c(-c5cc(S(=O)(=O)[O-])ccc5F)c5ccc2[nH]5)C=C4)C=C3)cc1)c1ccc(C[C@H]2CCC[C@H]2O)cc1
REMARK SMILES IDX 7 1 6 2 5 3 3 4 4 5 2 7 1 8 76 9 77 10 88 11 78 12 87 13
REMARK SMILES IDX 79 14 80 15 81 16 82 17 85 18 83 19 84 20 86 21 8 23 9 24
REMARK SMILES IDX 10 25 11 26 12 28 13 29 14 30 75 31 15 32 74 33 16 34 17 35
REMARK SMILES IDX 18 36 68 37 19 38 73 39 67 40 69 41 20 42 72 43 66 44 65 45
REMARK SMILES IDX 21 47 53 48 33 49 52 50 34 51 37 52 51 53 70 54 35 55 36 56
REMARK SMILES IDX 50 58 71 59 38 60 22 61 23 62 31 63 24 64 30 65 32 66 29 67
REMARK SMILES IDX 25 68 26 69 27 70 28 71 54 72 55 73 63 74 56 75 62 76 64 77
REMARK SMILES IDX 61 78 57 79 58 80 59 81 60 82 39 83 40 84 48 85 41 86 47 87
REMARK SMILES IDX 49 88 46 89 42 90 43 91 44 92 45 93
REMARK H PARENT 5 6 86 22 10 27 69 46 37 57
REMARK Flexibility Score: inf
ROOT
ATOM      1  C   UNL     1       4.286   0.872   0.940  1.00  0.00     0.023 C 
ENDROOT
BRANCH   1   2
ATOM      2  C   UNL     1       3.542  -0.071   1.886  1.00  0.00     0.116 C 
BRANCH   2   3
ATOM      3  N   UNL     1       2.455   0.614   2.549  1.00  0.00    -0.356 N 
ATOM      4  C   UNL     1       1.119   0.606   2.275  1.00  0.00     0.227 C 
ATOM      5  O   UNL     1       0.413   1.340   2.970  1.00  0.00    -0.274 OA
ATOM      6  H   UNL     1       2.720   1.173   3.316  1.00  0.00     0.163 HD
BRANCH   4   7
ATOM      7  C   UNL     1       0.556  -0.332   1.184  1.00  0.00     0.105 C 
ATOM      8  C   UNL     1       1.019   0.028  -0.231  1.00  0.00     0.023 C 
BRANCH   7   9
ATOM      9  C   UNL     1      -0.967  -0.361   1.202  1.00  0.00    -0.036 A 
ATOM     10  C   UNL     1      -1.701   0.778   0.842  1.00  0.00     0.005 A 
ATOM     11  C   UNL     1      -1.660  -1.512   1.596  1.00  0.00     0.005 A 
ATOM     12  C   UNL     1      -3.088   0.783   0.914  1.00  0.00     0.004 A 
ATOM     13  C   UNL     1      -3.054  -1.494   1.698  1.00  0.00     0.004 A 
ATOM     14  C   UNL     1      -3.774  -0.327   1.409  1.00  0.00    -0.048 A 
BRANCH  14  15
ATOM     15  C   UNL     1      -5.250  -0.228   1.694  1.00  0.00     0.041 C 
BRANCH  15  16
ATOM     16  C   UNL     1      -5.655   0.348   3.065  1.00  0.00     0.022 C 
ATOM     17  C   UNL     1      -5.064  -0.364   4.294  1.00  0.00     0.007 C 
ATOM     18  C   UNL     1      -5.433   1.845   3.339  1.00  0.00     0.117 C 
ATOM     19  C   UNL     1      -4.958   0.696   5.392  1.00  0.00     0.003 C 
ATOM     20  C   UNL     1      -5.646   1.943   4.845  1.00  0.00     0.032 C 
BRANCH  18  21
ATOM     21  O   UNL     1      -4.143   2.340   3.038  1.00  0.00    -0.393 OA
ATOM     22  H   UNL     1      -3.483   1.861   3.563  1.00  0.00     0.210 HD
ENDBRANCH  18  21
ENDBRANCH  15  16
ENDBRANCH  14  15
ENDBRANCH   7   9
ENDBRANCH   4   7
ENDBRANCH   2   3
ENDBRANCH   1   2
BRANCH   1  23
ATOM     23  C   UNL     1       5.054   1.997   1.637  1.00  0.00     0.023 C 
BRANCH  23  24
ATOM     24  C   UNL     1       6.062   1.535   2.680  1.00  0.00     0.116 C 
BRANCH  24  25
ATOM     25  N   UNL     1       7.042   0.611   2.137  1.00  0.00    -0.352 N 
ATOM     26  C   UNL     1       8.397   0.560   2.354  1.00  0.00     0.251 C 
ATOM     27  H   UNL     1       6.684  -0.075   1.528  1.00  0.00     0.163 HD
ATOM     28  O   UNL     1       9.087  -0.187   1.670  1.00  0.00    -0.269 OA
BRANCH  26  29
ATOM     29  C   UNL     1       9.013   1.424   3.386  1.00  0.00     0.039 A 
ATOM     30  C   UNL     1      10.236   2.036   3.105  1.00  0.00     0.014 A 
ATOM     31  C   UNL     1       8.403   1.617   4.628  1.00  0.00     0.014 A 
ATOM     32  C   UNL     1      10.831   2.863   4.060  1.00  0.00     0.010 A 
ATOM     33  C   UNL     1       8.950   2.514   5.541  1.00  0.00     0.010 A 
ATOM     34  C   UNL     1      10.185   3.123   5.280  1.00  0.00    -0.014 A 
BRANCH  34  35
ATOM     35  C   UNL     1      10.825   3.980   6.312  1.00  0.00     0.031 A 
ATOM     36  C   UNL     1      11.207   3.389   7.645  1.00  0.00     0.074 A 
ATOM     37  C   UNL     1      11.043   5.285   6.060  1.00  0.00     0.049 A 
ATOM     38  N   UNL     1      11.772   3.965   8.676  1.00  0.00    -0.248 NA
ATOM     39  C   UNL     1      10.882   1.970   7.858  1.00  0.00     0.031 C 
ATOM     40  C   UNL     1      10.678   5.980   4.823  1.00  0.00     0.029 A 
ATOM     41  N   UNL     1      11.632   6.261   6.825  1.00  0.00    -0.354 N 
ATOM     42  C   UNL     1      11.857   2.984   9.659  1.00  0.00     0.074 A 
ATOM     43  C   UNL     1      11.216   1.801   9.127  1.00  0.00     0.031 C 
ATOM     44  C   UNL     1      11.092   7.255   4.896  1.00  0.00     0.029 A 
ATOM     45  C   UNL     1      11.710   7.484   6.199  1.00  0.00     0.049 A 
ATOM     46  H   UNL     1      11.967   6.101   7.737  1.00  0.00     0.167 HD
ATOM     47  C   UNL     1      12.441   3.053  10.881  1.00  0.00     0.034 A 
ATOM     48  C   UNL     1      12.224   8.654   6.626  1.00  0.00     0.034 A 
ATOM     49  C   UNL     1      13.088   4.239  11.389  1.00  0.00     0.049 A 
ATOM     50  C   UNL     1      12.855   8.711   7.995  1.00  0.00     0.074 A 
ATOM     51  C   UNL     1      13.756   4.409  12.588  1.00  0.00     0.029 A 
ATOM     52  N   UNL     1      13.142   5.461  10.729  1.00  0.00    -0.354 N 
ATOM     53  N   UNL     1      12.979   7.759   8.892  1.00  0.00    -0.248 NA
ATOM     54  C   UNL     1      13.433   9.998   8.401  1.00  0.00     0.031 C 
ATOM     55  C   UNL     1      14.143   5.750  12.689  1.00  0.00     0.029 A 
ATOM     56  C   UNL     1      13.804   6.396  11.510  1.00  0.00     0.049 A 
ATOM     57  H   UNL     1      12.765   5.637   9.837  1.00  0.00     0.167 HD
ATOM     58  C   UNL     1      13.692   8.323   9.948  1.00  0.00     0.074 A 
ATOM     59  C   UNL     1      13.980   9.690   9.567  1.00  0.00     0.031 C 
ATOM     60  C   UNL     1      14.082   7.760  11.121  1.00  0.00     0.034 A 
BRANCH  47  61
ATOM     61  C   UNL     1      12.375   1.822  11.757  1.00  0.00     0.023 A 
ATOM     62  C   UNL     1      12.950   0.599  11.366  1.00  0.00     0.031 A 
ATOM     63  C   UNL     1      11.696   1.860  12.988  1.00  0.00     0.131 A 
ATOM     64  C   UNL     1      12.765  -0.548  12.152  1.00  0.00     0.055 A 
ATOM     65  C   UNL     1      11.595   0.736  13.811  1.00  0.00     0.041 A 
ATOM     66  F   UNL     1      11.104   2.989  13.408  1.00  0.00    -0.206 F 
ATOM     67  C   UNL     1      12.116  -0.482  13.386  1.00  0.00     0.022 A 
BRANCH  64  68
ATOM     68  S   UNL     1      13.240  -2.158  11.462  1.00  0.00     0.124 S 
ATOM     69  O   UNL     1      12.436  -2.204  10.242  1.00  0.00    -0.237 OA
ATOM     70  O   UNL     1      14.678  -2.010  11.275  1.00  0.00    -0.237 OA
ATOM     71  O   UNL     1      12.838  -3.107  12.498  1.00  0.00    -0.744 OA
ENDBRANCH  64  68
ENDBRANCH  47  61
BRANCH  48  72
ATOM     72  C   UNL     1      12.182   9.866   5.756  1.00  0.00     0.023 A 
ATOM     73  C   UNL     1      13.364  10.479   5.310  1.00  0.00     0.031 A 
ATOM     74  C   UNL     1      10.959  10.462   5.402  1.00  0.00     0.131 A 
ATOM     75  C   UNL     1      13.301  11.680   4.587  1.00  0.00     0.055 A 
ATOM     76  C   UNL     1      10.899  11.624   4.629  1.00  0.00     0.041 A 
ATOM     77  F   UNL     1       9.797   9.917   5.797  1.00  0.00    -0.206 F 
ATOM     78  C   UNL     1      12.077  12.249   4.231  1.00  0.00     0.022 A 
BRANCH  75  79
ATOM     79  S   UNL     1      14.849  12.546   4.204  1.00  0.00     0.124 S 
ATOM     80  O   UNL     1      15.412  12.747   5.534  1.00  0.00    -0.237 OA
ATOM     81  O   UNL     1      15.536  11.577   3.356  1.00  0.00    -0.237 OA
ATOM     82  O   UNL     1      14.401  13.759   3.525  1.00  0.00    -0.744 OA
ENDBRANCH  75  79
ENDBRANCH  48  72
BRANCH  60  83
ATOM     83  C   UNL     1      14.922   8.610  12.046  1.00  0.00     0.023 A 
ATOM     84  C   UNL     1      14.431   9.792  12.629  1.00  0.00     0.031 A 
ATOM     85  C   UNL     1      16.252   8.243  12.324  1.00  0.00     0.131 A 
ATOM     86  C   UNL     1      15.285  10.604  13.390  1.00  0.00     0.055 A 
ATOM     87  C   UNL     1      17.073   9.015  13.147  1.00  0.00     0.041 A 
ATOM     88  F   UNL     1      16.779   7.127  11.794  1.00  0.00    -0.206 F 
ATOM     89  C   UNL     1      16.596  10.213  13.670  1.00  0.00     0.022 A 
BRANCH  86  90
ATOM     90  S   UNL     1      14.700  12.244  13.899  1.00  0.00     0.124 S 
ATOM     91  O   UNL     1      14.318  12.839  12.623  1.00  0.00    -0.237 OA
ATOM     92  O   UNL     1      13.602  11.916  14.803  1.00  0.00    -0.237 OA
ATOM     93  O   UNL     1      15.871  12.842  14.537  1.00  0.00    -0.744 OA
ENDBRANCH  86  90
ENDBRANCH  60  83
ENDBRANCH  34  35
ENDBRANCH  26  29
ENDBRANCH  24  25
ENDBRANCH  23  24
ENDBRANCH   1  23
TORSDOF 18
