REMARK SMILES O=C1C[C@H](c2cn[nH]c2C(=O)NCCCCNC(=O)c2ccc(-c3c4nc(c(-c5cc(S(=O)(=O)[O-])ccc5F)c5ccc([nH]5)c(-c5cc(S(=O)(=O)[O-])ccc5F)c5nc(c(-c6cc(S(=O)(=O)[O-])ccc6F)c6ccc3[nH]6)C=C5)C=C4)cc2)c2c(-c3cccs3)n[nH]c2N1
REMARK SMILES IDX 15 1 14 2 13 3 12 4 10 5 11 6 9 8 5 9 6 10 7 11 8 12 4 14
REMARK SMILES IDX 1 15 2 16 3 17 93 18 92 19 83 21 91 22 84 23 90 24 85 26
REMARK SMILES IDX 86 27 89 28 87 29 88 30 16 31 17 32 18 33 19 35 20 36 21 37
REMARK SMILES IDX 82 38 22 39 81 40 23 41 24 42 25 43 75 44 26 45 80 46 74 47
REMARK SMILES IDX 76 48 27 49 79 50 73 51 72 52 28 54 60 55 40 56 59 57 41 58
REMARK SMILES IDX 44 59 58 60 77 61 42 62 43 63 57 65 78 66 45 67 29 68 30 69
REMARK SMILES IDX 38 70 31 71 37 72 39 73 36 74 32 75 33 76 34 77 35 78 61 79
REMARK SMILES IDX 62 80 70 81 63 82 69 83 71 84 68 85 64 86 65 87 66 88 67 89
REMARK SMILES IDX 46 90 47 91 55 92 48 93 54 94 56 95 53 96 49 97 50 98 51 99
REMARK SMILES IDX 52 100
REMARK H PARENT 12 7 8 13 93 20 91 25 17 34 76 53 44 64
REMARK Flexibility Score: inf
ROOT
ATOM      1  C   UNL     1       4.109  -3.751   1.463  1.00  0.00     0.023 C 
ENDROOT
BRANCH   1   2
ATOM      2  C   UNL     1       3.719  -2.337   1.022  1.00  0.00     0.023 C 
BRANCH   2   3
ATOM      3  C   UNL     1       5.027  -1.228   0.561  1.00  0.00     0.116 C 
BRANCH   3   4
ATOM      4  N   UNL     1       5.588  -0.611  -1.456  1.00  0.00    -0.351 N 
ATOM      5  C   UNL     1       5.644   0.216  -2.599  1.00  0.00     0.269 C 
ATOM      6  O   UNL     1       6.267  -0.244  -3.562  1.00  0.00    -0.268 OA
ATOM      7  H   UNL     1       6.138  -1.375  -1.744  1.00  0.00     0.163 HD
BRANCH   5   8
ATOM      8  C   UNL     1       5.078   1.542  -2.672  1.00  0.00     0.126 A 
ATOM      9  C   UNL     1       4.416   2.322  -1.738  1.00  0.00     0.011 A 
ATOM     10  C   UNL     1       4.199   3.554  -2.383  1.00  0.00     0.140 A 
ATOM     11  N   UNL     1       4.643   3.553  -3.641  1.00  0.00    -0.183 NA
ATOM     12  N   UNL     1       5.193   2.332  -3.782  1.00  0.00    -0.273 N 
ATOM     13  H   UNL     1       5.637   2.035  -4.609  1.00  0.00     0.190 HD
BRANCH   9  14
ATOM     14  C   UNL     1       4.081   1.887  -0.356  1.00  0.00     0.069 C 
ATOM     15  O   UNL     1       0.570   0.384  -0.467  1.00  0.00    -0.275 OA
ATOM     16  C   UNL     1       1.795   0.449  -0.623  1.00  0.00     0.226 C 
ATOM     17  C   UNL     1       2.556   1.721  -0.145  1.00  0.00     0.114 C 
ATOM     18  N   UNL     1       2.434  -0.653  -1.136  1.00  0.00    -0.311 N 
ATOM     19  C   UNL     1       3.769  -0.767  -0.902  1.00  0.00     0.132 A 
ATOM     20  H   UNL     1       1.945  -1.334  -1.652  1.00  0.00     0.171 HD
ATOM     21  C   UNL     1       4.697   0.568  -0.219  1.00  0.00     0.031 A 
ATOM     22  N   UNL     1       4.900  -2.232  -1.051  1.00  0.00    -0.262 N 
ATOM     23  C   UNL     1       6.521  -0.059   0.068  1.00  0.00     0.108 A 
ATOM     24  N   UNL     1       6.620  -1.752  -0.435  1.00  0.00    -0.173 NA
ATOM     25  H   UNL     1       4.644  -3.118  -1.396  1.00  0.00     0.192 HD
BRANCH  23  26
ATOM     26  C   UNL     1       7.652   0.903   0.209  1.00  0.00     0.055 A 
ATOM     27  C   UNL     1       8.744   0.932  -0.629  1.00  0.00     0.022 A 
ATOM     28  S   UNL     1       7.637   2.202   1.308  1.00  0.00    -0.142 S 
ATOM     29  C   UNL     1       9.560   2.080  -0.386  1.00  0.00     0.012 A 
ATOM     30  C   UNL     1       9.108   2.819   0.686  1.00  0.00     0.065 A 
ENDBRANCH  23  26
ENDBRANCH   9  14
ENDBRANCH   5   8
ENDBRANCH   3   4
ENDBRANCH   2   3
ENDBRANCH   1   2
BRANCH   1  31
ATOM     31  C   UNL     1       5.194  -3.803   2.508  1.00  0.00     0.116 C 
BRANCH  31  32
ATOM     32  N   UNL     1       4.793  -3.087   3.713  1.00  0.00    -0.352 N 
ATOM     33  C   UNL     1       5.432  -3.179   4.931  1.00  0.00     0.251 C 
ATOM     34  H   UNL     1       4.010  -2.495   3.652  1.00  0.00     0.163 HD
ATOM     35  O   UNL     1       4.821  -3.043   5.981  1.00  0.00    -0.269 OA
BRANCH  33  36
ATOM     36  C   UNL     1       6.896  -3.340   4.883  1.00  0.00     0.039 A 
ATOM     37  C   UNL     1       7.599  -4.233   5.686  1.00  0.00     0.014 A 
ATOM     38  C   UNL     1       7.550  -2.589   3.903  1.00  0.00     0.014 A 
ATOM     39  C   UNL     1       8.990  -4.303   5.528  1.00  0.00     0.010 A 
ATOM     40  C   UNL     1       8.863  -2.839   3.612  1.00  0.00     0.010 A 
ATOM     41  C   UNL     1       9.631  -3.558   4.508  1.00  0.00    -0.014 A 
BRANCH  41  42
ATOM     42  C   UNL     1      11.019  -3.780   4.073  1.00  0.00     0.031 A 
ATOM     43  C   UNL     1      11.128  -5.207   3.646  1.00  0.00     0.074 A 
ATOM     44  C   UNL     1      11.972  -2.807   3.924  1.00  0.00     0.049 A 
ATOM     45  N   UNL     1      11.510  -6.167   4.423  1.00  0.00    -0.248 NA
ATOM     46  C   UNL     1      10.416  -5.717   2.450  1.00  0.00     0.031 C 
ATOM     47  C   UNL     1      11.890  -1.368   4.220  1.00  0.00     0.029 A 
ATOM     48  N   UNL     1      13.271  -2.900   3.452  1.00  0.00    -0.354 N 
ATOM     49  C   UNL     1      11.512  -7.302   3.629  1.00  0.00     0.074 A 
ATOM     50  C   UNL     1      10.556  -7.041   2.595  1.00  0.00     0.031 C 
ATOM     51  C   UNL     1      12.973  -0.707   3.722  1.00  0.00     0.029 A 
ATOM     52  C   UNL     1      13.921  -1.659   3.162  1.00  0.00     0.049 A 
ATOM     53  H   UNL     1      13.719  -3.767   3.324  1.00  0.00     0.167 HD
ATOM     54  C   UNL     1      12.586  -8.137   3.688  1.00  0.00     0.034 A 
ATOM     55  C   UNL     1      15.168  -1.456   2.583  1.00  0.00     0.034 A 
ATOM     56  C   UNL     1      13.399  -7.792   4.841  1.00  0.00     0.049 A 
ATOM     57  C   UNL     1      15.931  -2.710   2.836  1.00  0.00     0.074 A 
ATOM     58  C   UNL     1      13.157  -7.698   6.198  1.00  0.00     0.029 A 
ATOM     59  N   UNL     1      14.507  -7.012   4.589  1.00  0.00    -0.354 N 
ATOM     60  N   UNL     1      16.294  -3.059   4.041  1.00  0.00    -0.248 NA
ATOM     61  C   UNL     1      15.693  -3.807   1.907  1.00  0.00     0.031 C 
ATOM     62  C   UNL     1      13.824  -6.506   6.606  1.00  0.00     0.029 A 
ATOM     63  C   UNL     1      14.605  -6.037   5.548  1.00  0.00     0.049 A 
ATOM     64  H   UNL     1      15.131  -7.136   3.837  1.00  0.00     0.167 HD
ATOM     65  C   UNL     1      15.835  -4.360   4.172  1.00  0.00     0.074 A 
ATOM     66  C   UNL     1      15.505  -4.785   2.803  1.00  0.00     0.031 C 
ATOM     67  C   UNL     1      15.409  -4.840   5.381  1.00  0.00     0.034 A 
BRANCH  54  68
ATOM     68  C   UNL     1      13.187  -8.886   2.520  1.00  0.00     0.023 A 
ATOM     69  C   UNL     1      14.347  -9.634   2.802  1.00  0.00     0.031 A 
ATOM     70  C   UNL     1      12.907  -8.680   1.152  1.00  0.00     0.131 A 
ATOM     71  C   UNL     1      15.225 -10.023   1.781  1.00  0.00     0.055 A 
ATOM     72  C   UNL     1      13.752  -9.131   0.132  1.00  0.00     0.041 A 
ATOM     73  F   UNL     1      11.861  -7.965   0.723  1.00  0.00    -0.206 F 
ATOM     74  C   UNL     1      14.935  -9.780   0.443  1.00  0.00     0.022 A 
BRANCH  71  75
ATOM     75  S   UNL     1      16.836 -10.690   2.264  1.00  0.00     0.124 S 
ATOM     76  O   UNL     1      17.390  -9.580   3.030  1.00  0.00    -0.237 OA
ATOM     77  O   UNL     1      16.454 -11.873   3.027  1.00  0.00    -0.237 OA
ATOM     78  O   UNL     1      17.486 -10.958   0.984  1.00  0.00    -0.744 OA
ENDBRANCH  71  75
ENDBRANCH  54  68
BRANCH  55  79
ATOM     79  C   UNL     1      15.659  -0.430   1.556  1.00  0.00     0.023 A 
ATOM     80  C   UNL     1      17.019  -0.195   1.131  1.00  0.00     0.031 A 
ATOM     81  C   UNL     1      14.675   0.164   0.742  1.00  0.00     0.131 A 
ATOM     82  C   UNL     1      17.306   0.584  -0.044  1.00  0.00     0.055 A 
ATOM     83  C   UNL     1      14.964   0.893  -0.419  1.00  0.00     0.041 A 
ATOM     84  F   UNL     1      13.372  -0.018   0.997  1.00  0.00    -0.206 F 
ATOM     85  C   UNL     1      16.271   1.096  -0.824  1.00  0.00     0.022 A 
BRANCH  82  86
ATOM     86  S   UNL     1      19.016   0.945  -0.664  1.00  0.00     0.124 S 
ATOM     87  O   UNL     1      19.564   1.802   0.381  1.00  0.00    -0.237 OA
ATOM     88  O   UNL     1      19.607  -0.381  -0.798  1.00  0.00    -0.237 OA
ATOM     89  O   UNL     1      18.784   1.630  -1.940  1.00  0.00    -0.744 OA
ENDBRANCH  82  86
ENDBRANCH  55  79
BRANCH  67  90
ATOM     90  C   UNL     1      15.696  -4.032   6.635  1.00  0.00     0.023 A 
ATOM     91  C   UNL     1      15.301  -2.695   6.884  1.00  0.00     0.031 A 
ATOM     92  C   UNL     1      16.328  -4.726   7.682  1.00  0.00     0.131 A 
ATOM     93  C   UNL     1      15.584  -2.101   8.134  1.00  0.00     0.055 A 
ATOM     94  C   UNL     1      16.563  -4.151   8.926  1.00  0.00     0.041 A 
ATOM     95  F   UNL     1      16.704  -6.006   7.519  1.00  0.00    -0.206 F 
ATOM     96  C   UNL     1      16.205  -2.830   9.153  1.00  0.00     0.022 A 
BRANCH  93  97
ATOM     97  S   UNL     1      15.223  -0.338   8.446  1.00  0.00     0.124 S 
ATOM     98  O   UNL     1      15.716   0.324   7.245  1.00  0.00    -0.237 OA
ATOM     99  O   UNL     1      13.773  -0.337   8.624  1.00  0.00    -0.237 OA
ATOM    100  O   UNL     1      15.985  -0.046   9.662  1.00  0.00    -0.744 OA
ENDBRANCH  93  97
ENDBRANCH  67  90
ENDBRANCH  41  42
ENDBRANCH  33  36
ENDBRANCH  31  32
ENDBRANCH   1  31
TORSDOF 16
