REMARK SMILES COc1ccc(NC(=O)[C@@H]2[C@@H](C(=O)NCCCCNC(=O)c3ccc(-c4c5nc(c(-c6cc(S(=O)(=O)[O-])ccc6F)c6ccc([nH]6)c(-c6cc(S(=O)(=O)[O-])ccc6F)c6nc(c(-c7cc(S(=O)(=O)[O-])ccc7F)c7ccc4[nH]7)C=C6)C=C5)cc3)[C@@H]3CC[C@H]2C3=C(C)C)cc1
REMARK SMILES IDX 16 1 15 2 14 3 12 4 13 5 11 7 10 8 88 9 85 10 87 11 89 12
REMARK SMILES IDX 86 13 90 14 91 15 92 16 8 17 7 18 9 20 6 21 3 22 4 23 94 24
REMARK SMILES IDX 5 25 93 26 2 27 1 28 17 29 18 30 19 31 20 32 21 34 22 35
REMARK SMILES IDX 23 36 84 37 24 38 83 39 25 40 26 41 27 42 77 43 28 44 82 45
REMARK SMILES IDX 76 46 78 47 29 48 81 49 75 50 74 51 30 53 62 54 42 55 61 56
REMARK SMILES IDX 43 57 46 58 60 59 79 60 44 61 45 62 59 64 80 65 47 66 31 67
REMARK SMILES IDX 32 68 40 69 33 70 39 71 41 72 38 73 34 74 35 75 36 76 37 77
REMARK SMILES IDX 63 78 64 79 72 80 65 81 71 82 73 83 70 84 66 85 67 86 68 87
REMARK SMILES IDX 69 88 48 89 49 90 57 91 50 92 56 93 58 94 55 95 51 96 52 97
REMARK SMILES IDX 53 98 54 99
REMARK H PARENT 14 6 7 19 19 33 78 52 46 63
REMARK Flexibility Score: inf
ROOT
ATOM      1  C   UNL     1      -4.802  -1.513  -5.505  1.00  0.00     0.023 C 
ENDROOT
BRANCH   1   2
ATOM      2  C   UNL     1      -4.009  -0.295  -5.947  1.00  0.00     0.116 C 
BRANCH   2   3
ATOM      3  N   UNL     1      -2.894   0.042  -5.088  1.00  0.00    -0.356 N 
ATOM      4  C   UNL     1      -2.071   1.086  -5.426  1.00  0.00     0.224 C 
ATOM      5  O   UNL     1      -2.221   2.127  -4.783  1.00  0.00    -0.275 OA
ATOM      6  H   UNL     1      -2.728  -0.475  -4.267  1.00  0.00     0.163 HD
BRANCH   4   7
ATOM      7  C   UNL     1      -0.902   0.869  -6.426  1.00  0.00     0.098 C 
ATOM      8  C   UNL     1      -0.277   2.252  -6.824  1.00  0.00     0.099 C 
ATOM      9  C   UNL     1      -0.615   2.323  -8.348  1.00  0.00     0.028 C 
ATOM     10  C   UNL     1      -1.330   0.262  -7.782  1.00  0.00     0.028 C 
ATOM     11  C   UNL     1       0.273   1.373  -9.182  1.00  0.00     0.009 C 
ATOM     12  C   UNL     1      -1.877   1.500  -8.435  1.00  0.00    -0.064 C 
ATOM     13  C   UNL     1      -0.104  -0.015  -8.661  1.00  0.00     0.009 C 
ATOM     14  C   UNL     1      -3.072   1.795  -8.975  1.00  0.00    -0.077 C 
ATOM     15  C   UNL     1      -4.174   0.792  -9.189  1.00  0.00     0.039 C 
ATOM     16  C   UNL     1      -3.421   3.181  -9.448  1.00  0.00     0.039 C 
BRANCH   8  17
ATOM     17  C   UNL     1       1.220   2.546  -6.642  1.00  0.00     0.228 C 
ATOM     18  N   UNL     1       2.024   2.095  -5.649  1.00  0.00    -0.326 N 
ATOM     19  H   UNL     1       2.979   2.207  -5.860  1.00  0.00     0.169 HD
ATOM     20  O   UNL     1       1.801   3.267  -7.470  1.00  0.00    -0.274 OA
BRANCH  18  21
ATOM     21  C   UNL     1       1.823   1.509  -4.398  1.00  0.00     0.041 A 
ATOM     22  C   UNL     1       1.530   0.168  -1.960  1.00  0.00     0.119 A 
ATOM     23  C   UNL     1       0.485   0.938  -2.465  1.00  0.00     0.048 A 
ATOM     24  C   UNL     1       2.742   0.108  -2.638  1.00  0.00     0.048 A 
ATOM     25  C   UNL     1       0.654   1.638  -3.663  1.00  0.00     0.030 A 
ATOM     26  C   UNL     1       2.893   0.794  -3.846  1.00  0.00     0.030 A 
BRANCH  22  27
ATOM     27  O   UNL     1       1.370  -0.624  -0.860  1.00  0.00    -0.497 OA
ATOM     28  C   UNL     1       1.234   0.140   0.336  1.00  0.00     0.278 C 
ENDBRANCH  22  27
ENDBRANCH  18  21
ENDBRANCH   8  17
ENDBRANCH   4   7
ENDBRANCH   2   3
ENDBRANCH   1   2
BRANCH   1  29
ATOM     29  C   UNL     1      -5.924  -1.232  -4.512  1.00  0.00     0.023 C 
BRANCH  29  30
ATOM     30  C   UNL     1      -6.879  -0.096  -4.873  1.00  0.00     0.116 C 
BRANCH  30  31
ATOM     31  N   UNL     1      -7.372  -0.126  -6.245  1.00  0.00    -0.352 N 
ATOM     32  C   UNL     1      -8.634   0.170  -6.712  1.00  0.00     0.251 C 
ATOM     33  H   UNL     1      -6.716  -0.394  -6.929  1.00  0.00     0.163 HD
ATOM     34  O   UNL     1      -8.892   0.081  -7.905  1.00  0.00    -0.269 OA
BRANCH  32  35
ATOM     35  C   UNL     1      -9.682   0.530  -5.735  1.00  0.00     0.039 A 
ATOM     36  C   UNL     1     -10.844  -0.243  -5.685  1.00  0.00     0.014 A 
ATOM     37  C   UNL     1      -9.455   1.539  -4.796  1.00  0.00     0.014 A 
ATOM     38  C   UNL     1     -11.730  -0.077  -4.620  1.00  0.00     0.010 A 
ATOM     39  C   UNL     1     -10.299   1.647  -3.696  1.00  0.00     0.010 A 
ATOM     40  C   UNL     1     -11.432   0.825  -3.585  1.00  0.00    -0.014 A 
BRANCH  40  41
ATOM     41  C   UNL     1     -12.270   0.890  -2.359  1.00  0.00     0.031 A 
ATOM     42  C   UNL     1     -12.996   2.160  -2.011  1.00  0.00     0.074 A 
ATOM     43  C   UNL     1     -12.299  -0.164  -1.518  1.00  0.00     0.049 A 
ATOM     44  N   UNL     1     -13.709   2.439  -0.951  1.00  0.00    -0.248 NA
ATOM     45  C   UNL     1     -12.871   3.274  -2.963  1.00  0.00     0.031 C 
ATOM     46  C   UNL     1     -11.573  -1.423  -1.713  1.00  0.00     0.029 A 
ATOM     47  N   UNL     1     -12.949  -0.344  -0.323  1.00  0.00    -0.354 N 
ATOM     48  C   UNL     1     -14.094   3.768  -1.093  1.00  0.00     0.074 A 
ATOM     49  C   UNL     1     -13.493   4.250  -2.319  1.00  0.00     0.031 C 
ATOM     50  C   UNL     1     -11.833  -2.248  -0.685  1.00  0.00     0.029 A 
ATOM     51  C   UNL     1     -12.712  -1.569   0.261  1.00  0.00     0.049 A 
ATOM     52  H   UNL     1     -13.532   0.339   0.081  1.00  0.00     0.167 HD
ATOM     53  C   UNL     1     -14.890   4.509  -0.285  1.00  0.00     0.034 A 
ATOM     54  C   UNL     1     -13.146  -2.082   1.430  1.00  0.00     0.034 A 
ATOM     55  C   UNL     1     -15.512   4.000   0.912  1.00  0.00     0.049 A 
ATOM     56  C   UNL     1     -14.066  -1.250   2.289  1.00  0.00     0.074 A 
ATOM     57  C   UNL     1     -16.416   4.631   1.748  1.00  0.00     0.029 A 
ATOM     58  N   UNL     1     -15.289   2.739   1.448  1.00  0.00    -0.354 N 
ATOM     59  N   UNL     1     -14.495  -0.025   2.090  1.00  0.00    -0.248 NA
ATOM     60  C   UNL     1     -14.572  -1.875   3.518  1.00  0.00     0.031 C 
ATOM     61  C   UNL     1     -16.696   3.774   2.818  1.00  0.00     0.029 A 
ATOM     62  C   UNL     1     -16.016   2.584   2.618  1.00  0.00     0.049 A 
ATOM     63  H   UNL     1     -14.701   2.054   1.054  1.00  0.00     0.167 HD
ATOM     64  C   UNL     1     -15.345   0.255   3.157  1.00  0.00     0.074 A 
ATOM     65  C   UNL     1     -15.381  -0.934   3.983  1.00  0.00     0.031 C 
ATOM     66  C   UNL     1     -16.034   1.391   3.430  1.00  0.00     0.034 A 
BRANCH  53  67
ATOM     67  C   UNL     1     -15.114   5.953  -0.661  1.00  0.00     0.023 A 
ATOM     68  C   UNL     1     -15.787   6.315  -1.840  1.00  0.00     0.031 A 
ATOM     69  C   UNL     1     -14.633   6.982   0.167  1.00  0.00     0.131 A 
ATOM     70  C   UNL     1     -15.899   7.668  -2.194  1.00  0.00     0.055 A 
ATOM     71  C   UNL     1     -14.814   8.329  -0.153  1.00  0.00     0.041 A 
ATOM     72  F   UNL     1     -13.966   6.696   1.296  1.00  0.00    -0.206 F 
ATOM     73  C   UNL     1     -15.440   8.678  -1.347  1.00  0.00     0.022 A 
BRANCH  70  74
ATOM     74  S   UNL     1     -16.549   8.083  -3.836  1.00  0.00     0.124 S 
ATOM     75  O   UNL     1     -15.567   7.447  -4.710  1.00  0.00    -0.237 OA
ATOM     76  O   UNL     1     -17.874   7.474  -3.815  1.00  0.00    -0.237 OA
ATOM     77  O   UNL     1     -16.534   9.544  -3.851  1.00  0.00    -0.744 OA
ENDBRANCH  70  74
ENDBRANCH  53  67
BRANCH  54  78
ATOM     78  C   UNL     1     -12.718  -3.441   1.873  1.00  0.00     0.023 A 
ATOM     79  C   UNL     1     -13.648  -4.483   2.013  1.00  0.00     0.031 A 
ATOM     80  C   UNL     1     -11.380  -3.701   2.219  1.00  0.00     0.131 A 
ATOM     81  C   UNL     1     -13.241  -5.719   2.541  1.00  0.00     0.055 A 
ATOM     82  C   UNL     1     -10.970  -4.948   2.695  1.00  0.00     0.041 A 
ATOM     83  F   UNL     1     -10.448  -2.742   2.096  1.00  0.00    -0.206 F 
ATOM     84  C   UNL     1     -11.906  -5.962   2.873  1.00  0.00     0.022 A 
BRANCH  81  85
ATOM     85  S   UNL     1     -14.504  -6.976   2.881  1.00  0.00     0.124 S 
ATOM     86  O   UNL     1     -15.425  -6.248   3.746  1.00  0.00    -0.237 OA
ATOM     87  O   UNL     1     -14.990  -7.285   1.540  1.00  0.00    -0.237 OA
ATOM     88  O   UNL     1     -13.751  -8.047   3.531  1.00  0.00    -0.744 OA
ENDBRANCH  81  85
ENDBRANCH  54  78
BRANCH  66  89
ATOM     89  C   UNL     1     -16.917   1.375   4.652  1.00  0.00     0.023 A 
ATOM     90  C   UNL     1     -16.379   1.319   5.949  1.00  0.00     0.031 A 
ATOM     91  C   UNL     1     -18.316   1.403   4.514  1.00  0.00     0.131 A 
ATOM     92  C   UNL     1     -17.236   1.237   7.057  1.00  0.00     0.055 A 
ATOM     93  C   UNL     1     -19.163   1.379   5.622  1.00  0.00     0.041 A 
ATOM     94  F   UNL     1     -18.881   1.457   3.297  1.00  0.00    -0.206 F 
ATOM     95  C   UNL     1     -18.624   1.282   6.902  1.00  0.00     0.022 A 
BRANCH  92  96
ATOM     96  S   UNL     1     -16.512   0.984   8.700  1.00  0.00     0.124 S 
ATOM     97  O   UNL     1     -15.786  -0.269   8.523  1.00  0.00    -0.237 OA
ATOM     98  O   UNL     1     -15.691   2.178   8.867  1.00  0.00    -0.237 OA
ATOM     99  O   UNL     1     -17.677   0.907   9.580  1.00  0.00    -0.744 OA
ENDBRANCH  92  96
ENDBRANCH  66  89
ENDBRANCH  40  41
ENDBRANCH  32  35
ENDBRANCH  30  31
ENDBRANCH  29  30
ENDBRANCH   1  29
TORSDOF 17
