REMARK SMILES O=C(NCCCCNC(=O)c1ccc(-c2c3nc(c(-c4cc(S(=O)(=O)[O-])ccc4F)c4ccc([nH]4)c(-c4cc(S(=O)(=O)[O-])ccc4F)c4nc(c(-c5cc(S(=O)(=O)[O-])ccc5F)c5ccc2[nH]5)C=C4)C=C3)cc1)c1ccc(/N=C\c2ccccc2O)cc1
REMARK SMILES IDX 5 1 4 2 3 3 1 4 2 5 74 7 75 8 88 9 76 10 87 11 77 12 78 13
REMARK SMILES IDX 79 14 80 15 81 16 85 17 82 18 84 19 83 20 86 21 6 23 7 24
REMARK SMILES IDX 8 25 9 26 10 28 11 29 12 30 73 31 13 32 72 33 14 34 15 35
REMARK SMILES IDX 16 36 66 37 17 38 71 39 65 40 67 41 18 42 70 43 64 44 63 45
REMARK SMILES IDX 19 47 51 48 31 49 50 50 32 51 35 52 49 53 68 54 33 55 34 56
REMARK SMILES IDX 48 58 69 59 36 60 20 61 21 62 29 63 22 64 28 65 30 66 27 67
REMARK SMILES IDX 23 68 24 69 25 70 26 71 52 72 53 73 61 74 54 75 60 76 62 77
REMARK SMILES IDX 59 78 55 79 56 80 57 81 58 82 37 83 38 84 46 85 39 86 45 87
REMARK SMILES IDX 47 88 44 89 40 90 41 91 42 92 43 93
REMARK H PARENT 3 6 86 22 8 27 67 46 35 57
REMARK Flexibility Score: inf
ROOT
ATOM      1  C   UNL     1       4.989   2.339  -0.909  1.00  0.00     0.023 C 
ENDROOT
BRANCH   1   2
ATOM      2  C   UNL     1       4.678   1.270   0.132  1.00  0.00     0.116 C 
BRANCH   2   3
ATOM      3  N   UNL     1       3.261   1.137   0.426  1.00  0.00    -0.352 N 
ATOM      4  O   UNL     1       1.260   0.131   0.651  1.00  0.00    -0.269 OA
ATOM      5  C   UNL     1       2.463   0.017   0.465  1.00  0.00     0.251 C 
ATOM      6  H   UNL     1       2.799   1.982   0.629  1.00  0.00     0.163 HD
BRANCH   5   7
ATOM      7  C   UNL     1       3.039  -1.327   0.222  1.00  0.00     0.039 A 
ATOM      8  C   UNL     1       4.248  -1.741   0.779  1.00  0.00     0.016 A 
ATOM      9  C   UNL     1       2.326  -2.208  -0.590  1.00  0.00     0.016 A 
ATOM     10  C   UNL     1       4.829  -2.942   0.361  1.00  0.00     0.029 A 
ATOM     11  C   UNL     1       2.881  -3.444  -0.936  1.00  0.00     0.029 A 
ATOM     12  C   UNL     1       4.184  -3.781  -0.554  1.00  0.00     0.063 A 
BRANCH  12  13
ATOM     13  N   UNL     1       4.909  -4.904  -0.987  1.00  0.00    -0.256 NA
ATOM     14  C   UNL     1       4.769  -5.515  -2.124  1.00  0.00     0.123 C 
BRANCH  14  15
ATOM     15  C   UNL     1       3.849  -5.213  -3.228  1.00  0.00     0.035 A 
ATOM     16  C   UNL     1       2.859  -6.169  -3.481  1.00  0.00     0.013 A 
ATOM     17  C   UNL     1       3.876  -4.012  -3.941  1.00  0.00     0.124 A 
ATOM     18  C   UNL     1       1.852  -5.890  -4.403  1.00  0.00     0.001 A 
ATOM     19  C   UNL     1       2.874  -3.743  -4.870  1.00  0.00     0.047 A 
ATOM     20  C   UNL     1       1.853  -4.673  -5.087  1.00  0.00     0.004 A 
BRANCH  17  21
ATOM     21  O   UNL     1       4.824  -3.047  -3.758  1.00  0.00    -0.507 OA
ATOM     22  H   UNL     1       5.518  -3.182  -3.143  1.00  0.00     0.293 HD
ENDBRANCH  17  21
ENDBRANCH  14  15
ENDBRANCH  12  13
ENDBRANCH   5   7
ENDBRANCH   2   3
ENDBRANCH   1   2
BRANCH   1  23
ATOM     23  C   UNL     1       4.534   3.755  -0.567  1.00  0.00     0.023 C 
BRANCH  23  24
ATOM     24  C   UNL     1       4.936   4.265   0.812  1.00  0.00     0.116 C 
BRANCH  24  25
ATOM     25  N   UNL     1       6.375   4.278   1.022  1.00  0.00    -0.352 N 
ATOM     26  C   UNL     1       7.188   5.301   1.452  1.00  0.00     0.251 C 
ATOM     27  H   UNL     1       6.835   3.429   0.828  1.00  0.00     0.163 HD
ATOM     28  O   UNL     1       8.406   5.148   1.446  1.00  0.00    -0.269 OA
BRANCH  26  29
ATOM     29  C   UNL     1       6.598   6.592   1.874  1.00  0.00     0.039 A 
ATOM     30  C   UNL     1       7.166   7.777   1.400  1.00  0.00     0.014 A 
ATOM     31  C   UNL     1       5.480   6.638   2.711  1.00  0.00     0.014 A 
ATOM     32  C   UNL     1       6.562   9.002   1.696  1.00  0.00     0.010 A 
ATOM     33  C   UNL     1       4.834   7.852   2.938  1.00  0.00     0.010 A 
ATOM     34  C   UNL     1       5.363   9.047   2.427  1.00  0.00    -0.014 A 
BRANCH  34  35
ATOM     35  C   UNL     1       4.643  10.331   2.645  1.00  0.00     0.031 A 
ATOM     36  C   UNL     1       4.444  10.865   4.038  1.00  0.00     0.074 A 
ATOM     37  C   UNL     1       4.117  10.986   1.590  1.00  0.00     0.049 A 
ATOM     38  N   UNL     1       3.798  11.934   4.430  1.00  0.00    -0.248 NA
ATOM     39  C   UNL     1       5.021  10.075   5.135  1.00  0.00     0.031 C 
ATOM     40  C   UNL     1       4.202  10.546   0.196  1.00  0.00     0.029 A 
ATOM     41  N   UNL     1       3.402  12.156   1.523  1.00  0.00    -0.354 N 
ATOM     42  C   UNL     1       3.884  11.941   5.819  1.00  0.00     0.074 A 
ATOM     43  C   UNL     1       4.587  10.734   6.199  1.00  0.00     0.031 C 
ATOM     44  C   UNL     1       3.593  11.448  -0.589  1.00  0.00     0.029 A 
ATOM     45  C   UNL     1       3.030  12.505   0.244  1.00  0.00     0.049 A 
ATOM     46  H   UNL     1       3.176  12.695   2.315  1.00  0.00     0.167 HD
ATOM     47  C   UNL     1       3.440  12.879   6.693  1.00  0.00     0.034 A 
ATOM     48  C   UNL     1       2.309  13.552  -0.206  1.00  0.00     0.034 A 
ATOM     49  C   UNL     1       2.744  14.081   6.296  1.00  0.00     0.049 A 
ATOM     50  C   UNL     1       1.800  14.566   0.786  1.00  0.00     0.074 A 
ATOM     51  C   UNL     1       2.301  15.123   7.092  1.00  0.00     0.029 A 
ATOM     52  N   UNL     1       2.377  14.396   4.993  1.00  0.00    -0.354 N 
ATOM     53  N   UNL     1       1.940  14.588   2.092  1.00  0.00    -0.248 NA
ATOM     54  C   UNL     1       1.044  15.701   0.242  1.00  0.00     0.031 C 
ATOM     55  C   UNL     1       1.605  16.029   6.284  1.00  0.00     0.029 A 
ATOM     56  C   UNL     1       1.683  15.598   4.970  1.00  0.00     0.049 A 
ATOM     57  H   UNL     1       2.581  13.847   4.202  1.00  0.00     0.167 HD
ATOM     58  C   UNL     1       1.314  15.756   2.520  1.00  0.00     0.074 A 
ATOM     59  C   UNL     1       0.813  16.417   1.333  1.00  0.00     0.031 C 
ATOM     60  C   UNL     1       1.171  16.240   3.781  1.00  0.00     0.034 A 
BRANCH  47  61
ATOM     61  C   UNL     1       3.673  12.623   8.164  1.00  0.00     0.023 A 
ATOM     62  C   UNL     1       4.969  12.508   8.698  1.00  0.00     0.031 A 
ATOM     63  C   UNL     1       2.586  12.462   9.042  1.00  0.00     0.131 A 
ATOM     64  C   UNL     1       5.145  12.160  10.046  1.00  0.00     0.055 A 
ATOM     65  C   UNL     1       2.769  12.202  10.402  1.00  0.00     0.041 A 
ATOM     66  F   UNL     1       1.324  12.540   8.590  1.00  0.00    -0.206 F 
ATOM     67  C   UNL     1       4.054  12.033  10.909  1.00  0.00     0.022 A 
BRANCH  64  68
ATOM     68  S   UNL     1       6.811  11.725  10.617  1.00  0.00     0.124 S 
ATOM     69  O   UNL     1       7.150  10.620   9.723  1.00  0.00    -0.237 OA
ATOM     70  O   UNL     1       7.550  12.965  10.409  1.00  0.00    -0.237 OA
ATOM     71  O   UNL     1       6.607  11.346  12.014  1.00  0.00    -0.744 OA
ENDBRANCH  64  68
ENDBRANCH  47  61
BRANCH  48  72
ATOM     72  C   UNL     1       2.015  13.695  -1.661  1.00  0.00     0.023 A 
ATOM     73  C   UNL     1       2.519  14.778  -2.398  1.00  0.00     0.031 A 
ATOM     74  C   UNL     1       1.193  12.770  -2.329  1.00  0.00     0.131 A 
ATOM     75  C   UNL     1       2.162  14.935  -3.747  1.00  0.00     0.055 A 
ATOM     76  C   UNL     1       0.884  12.900  -3.684  1.00  0.00     0.041 A 
ATOM     77  F   UNL     1       0.687  11.713  -1.673  1.00  0.00    -0.206 F 
ATOM     78  C   UNL     1       1.359  13.996  -4.398  1.00  0.00     0.022 A 
BRANCH  75  79
ATOM     79  S   UNL     1       2.695  16.433  -4.619  1.00  0.00     0.124 S 
ATOM     80  O   UNL     1       2.103  17.482  -3.797  1.00  0.00    -0.237 OA
ATOM     81  O   UNL     1       4.149  16.316  -4.561  1.00  0.00    -0.237 OA
ATOM     82  O   UNL     1       2.112  16.277  -5.950  1.00  0.00    -0.744 OA
ENDBRANCH  75  79
ENDBRANCH  48  72
BRANCH  60  83
ATOM     83  C   UNL     1       0.475  17.572   3.928  1.00  0.00     0.023 A 
ATOM     84  C   UNL     1      -0.884  17.739   3.609  1.00  0.00     0.031 A 
ATOM     85  C   UNL     1       1.190  18.697   4.379  1.00  0.00     0.131 A 
ATOM     86  C   UNL     1      -1.470  19.011   3.686  1.00  0.00     0.055 A 
ATOM     87  C   UNL     1       0.584  19.947   4.516  1.00  0.00     0.041 A 
ATOM     88  F   UNL     1       2.491  18.599   4.695  1.00  0.00    -0.206 F 
ATOM     89  C   UNL     1      -0.749  20.113   4.155  1.00  0.00     0.022 A 
BRANCH  86  90
ATOM     90  S   UNL     1      -3.162  19.231   3.069  1.00  0.00     0.124 S 
ATOM     91  O   UNL     1      -3.038  18.792   1.682  1.00  0.00    -0.237 OA
ATOM     92  O   UNL     1      -3.931  18.357   3.948  1.00  0.00    -0.237 OA
ATOM     93  O   UNL     1      -3.409  20.661   3.246  1.00  0.00    -0.744 OA
ENDBRANCH  86  90
ENDBRANCH  60  83
ENDBRANCH  34  35
ENDBRANCH  26  29
ENDBRANCH  24  25
ENDBRANCH  23  24
ENDBRANCH   1  23
TORSDOF 17
