REMARK SMILES COC(=O)[C@@H]1C[C@@H](C(=O)NCCCCNC(=O)c2ccc(-c3c4nc(c(-c5cc(S(=O)(=O)[O-])ccc5F)c5ccc([nH]5)c(-c5cc(S(=O)(=O)[O-])ccc5F)c5nc(c(-c6cc(S(=O)(=O)[O-])ccc6F)c6ccc3[nH]6)C=C5)C=C4)cc2)[C@@H](c2cccc(F)c2F)[N@H+]1C
REMARK SMILES IDX 13 1 12 2 11 3 10 4 8 5 9 6 7 8 5 9 6 10 90 11 81 12 91 13
REMARK SMILES IDX 3 15 4 16 2 17 1 18 82 19 83 20 88 21 84 22 86 23 89 24
REMARK SMILES IDX 85 25 87 26 14 27 15 28 16 29 17 31 18 32 19 33 80 34 20 35
REMARK SMILES IDX 79 36 21 37 22 38 23 39 73 40 24 41 78 42 72 43 74 44 25 45
REMARK SMILES IDX 77 46 71 47 70 48 26 50 58 51 38 52 57 53 39 54 42 55 56 56
REMARK SMILES IDX 75 57 40 58 41 59 55 61 76 62 43 63 27 64 28 65 36 66 29 67
REMARK SMILES IDX 35 68 37 69 34 70 30 71 31 72 32 73 33 74 59 75 60 76 68 77
REMARK SMILES IDX 61 78 67 79 69 80 66 81 62 82 63 83 64 84 65 85 44 86 45 87
REMARK SMILES IDX 53 88 46 89 52 90 54 91 51 92 47 93 48 94 49 95 50 96
REMARK H PARENT 10 7 90 14 15 30 74 49 42 60
REMARK Flexibility Score: inf
ROOT
ATOM      1  C   UNL     1       1.352   3.264   2.732  1.00  0.00     0.023 C 
ENDROOT
BRANCH   1   2
ATOM      2  C   UNL     1       1.169   2.785   1.294  1.00  0.00     0.023 C 
BRANCH   2   3
ATOM      3  C   UNL     1      -0.266   2.866   0.798  1.00  0.00     0.116 C 
BRANCH   3   4
ATOM      4  N   UNL     1      -0.762   4.226   0.716  1.00  0.00    -0.356 N 
ATOM      5  C   UNL     1      -0.786   5.157  -0.267  1.00  0.00     0.229 C 
ATOM      6  O   UNL     1      -1.343   6.226   0.015  1.00  0.00    -0.275 OA
ATOM      7  H   UNL     1      -1.169   4.540   1.556  1.00  0.00     0.163 HD
BRANCH   5   8
ATOM      8  C   UNL     1      -0.186   4.986  -1.660  1.00  0.00     0.148 C 
ATOM      9  C   UNL     1       0.549   2.923  -2.665  1.00  0.00     0.296 C 
ATOM     10  C   UNL     1      -0.700   3.722  -2.346  1.00  0.00     0.097 C 
ATOM     11  N   UNL     1       1.486   4.010  -2.974  1.00  0.00    -0.319 N 
ATOM     12  C   UNL     1       1.354   5.103  -1.973  1.00  0.00     0.231 C 
ATOM     13  C   UNL     1       2.753   3.604  -3.524  1.00  0.00     0.333 C 
ATOM     14  H   UNL     1       1.226   4.501  -3.829  1.00  0.00     0.349 HD
BRANCH   9  15
ATOM     15  C   UNL     1       0.273   1.956  -3.825  1.00  0.00     0.364 C 
ATOM     16  O   UNL     1      -0.704   1.986  -4.562  1.00  0.00    -0.245 OA
BRANCH  15  17
ATOM     17  O   UNL     1       1.257   1.009  -3.897  1.00  0.00    -0.465 OA
ATOM     18  C   UNL     1       1.084   0.066  -4.956  1.00  0.00     0.282 C 
ENDBRANCH  15  17
ENDBRANCH   9  15
BRANCH  12  19
ATOM     19  C   UNL     1       2.327   5.317  -0.800  1.00  0.00     0.049 A 
ATOM     20  C   UNL     1       1.938   6.164   0.268  1.00  0.00     0.013 A 
ATOM     21  C   UNL     1       3.650   4.852  -0.697  1.00  0.00     0.167 A 
ATOM     22  C   UNL     1       2.698   6.328   1.440  1.00  0.00     0.004 A 
ATOM     23  C   UNL     1       4.421   5.027   0.461  1.00  0.00     0.159 A 
ATOM     24  F   UNL     1       4.283   4.255  -1.707  1.00  0.00    -0.203 F 
ATOM     25  C   UNL     1       3.937   5.723   1.551  1.00  0.00     0.042 A 
ATOM     26  F   UNL     1       5.659   4.513   0.514  1.00  0.00    -0.204 F 
ENDBRANCH  12  19
ENDBRANCH   5   8
ENDBRANCH   3   4
ENDBRANCH   2   3
ENDBRANCH   1   2
BRANCH   1  27
ATOM     27  C   UNL     1       0.745   2.317   3.751  1.00  0.00     0.116 C 
BRANCH  27  28
ATOM     28  N   UNL     1       1.374   1.006   3.702  1.00  0.00    -0.352 N 
ATOM     29  C   UNL     1       1.815   0.222   4.737  1.00  0.00     0.251 C 
ATOM     30  H   UNL     1       1.501   0.630   2.801  1.00  0.00     0.163 HD
ATOM     31  O   UNL     1       2.533  -0.743   4.505  1.00  0.00    -0.269 OA
BRANCH  29  32
ATOM     32  C   UNL     1       1.432   0.572   6.118  1.00  0.00     0.039 A 
ATOM     33  C   UNL     1       2.374   0.437   7.137  1.00  0.00     0.014 A 
ATOM     34  C   UNL     1       0.144   1.040   6.399  1.00  0.00     0.014 A 
ATOM     35  C   UNL     1       2.029   0.800   8.437  1.00  0.00     0.010 A 
ATOM     36  C   UNL     1      -0.158   1.509   7.667  1.00  0.00     0.010 A 
ATOM     37  C   UNL     1       0.769   1.361   8.706  1.00  0.00    -0.014 A 
BRANCH  37  38
ATOM     38  C   UNL     1       0.382   1.742  10.084  1.00  0.00     0.031 A 
ATOM     39  C   UNL     1      -0.784   1.055  10.744  1.00  0.00     0.074 A 
ATOM     40  C   UNL     1       1.055   2.724  10.713  1.00  0.00     0.049 A 
ATOM     41  N   UNL     1      -1.306   1.261  11.925  1.00  0.00    -0.248 NA
ATOM     42  C   UNL     1      -1.482   0.027   9.955  1.00  0.00     0.031 C 
ATOM     43  C   UNL     1       2.164   3.490  10.139  1.00  0.00     0.029 A 
ATOM     44  N   UNL     1       0.912   3.242  11.973  1.00  0.00    -0.354 N 
ATOM     45  C   UNL     1      -2.396   0.401  12.011  1.00  0.00     0.074 A 
ATOM     46  C   UNL     1      -2.512  -0.263  10.733  1.00  0.00     0.031 C 
ATOM     47  C   UNL     1       2.632   4.345  11.061  1.00  0.00     0.029 A 
ATOM     48  C   UNL     1       1.829   4.223  12.273  1.00  0.00     0.049 A 
ATOM     49  H   UNL     1       0.220   2.941  12.605  1.00  0.00     0.167 HD
ATOM     50  C   UNL     1      -3.203   0.162  13.073  1.00  0.00     0.034 A 
ATOM     51  C   UNL     1       1.998   4.940  13.400  1.00  0.00     0.034 A 
ATOM     52  C   UNL     1      -3.050   0.824  14.344  1.00  0.00     0.049 A 
ATOM     53  C   UNL     1       1.086   4.660  14.567  1.00  0.00     0.074 A 
ATOM     54  C   UNL     1      -3.769   0.633  15.510  1.00  0.00     0.029 A 
ATOM     55  N   UNL     1      -2.109   1.811  14.615  1.00  0.00    -0.354 N 
ATOM     56  N   UNL     1       0.093   3.803  14.654  1.00  0.00    -0.248 NA
ATOM     57  C   UNL     1       1.328   5.429  15.792  1.00  0.00     0.031 C 
ATOM     58  C   UNL     1      -3.312   1.553  16.460  1.00  0.00     0.029 A 
ATOM     59  C   UNL     1      -2.249   2.259  15.919  1.00  0.00     0.049 A 
ATOM     60  H   UNL     1      -1.440   2.143  13.973  1.00  0.00     0.167 HD
ATOM     61  C   UNL     1      -0.387   3.909  15.956  1.00  0.00     0.074 A 
ATOM     62  C   UNL     1       0.442   4.896  16.620  1.00  0.00     0.031 C 
ATOM     63  C   UNL     1      -1.416   3.254  16.553  1.00  0.00     0.034 A 
BRANCH  50  64
ATOM     64  C   UNL     1      -4.322  -0.838  12.887  1.00  0.00     0.023 A 
ATOM     65  C   UNL     1      -4.068  -2.182  12.555  1.00  0.00     0.031 A 
ATOM     66  C   UNL     1      -5.665  -0.436  13.003  1.00  0.00     0.131 A 
ATOM     67  C   UNL     1      -5.133  -3.048  12.267  1.00  0.00     0.055 A 
ATOM     68  C   UNL     1      -6.721  -1.328  12.804  1.00  0.00     0.041 A 
ATOM     69  F   UNL     1      -5.975   0.837  13.292  1.00  0.00    -0.206 F 
ATOM     70  C   UNL     1      -6.459  -2.639  12.417  1.00  0.00     0.022 A 
BRANCH  67  71
ATOM     71  S   UNL     1      -4.759  -4.667  11.538  1.00  0.00     0.124 S 
ATOM     72  O   UNL     1      -4.051  -4.284  10.318  1.00  0.00    -0.237 OA
ATOM     73  O   UNL     1      -3.951  -5.301  12.574  1.00  0.00    -0.237 OA
ATOM     74  O   UNL     1      -6.077  -5.260  11.325  1.00  0.00    -0.744 OA
ENDBRANCH  67  71
ENDBRANCH  50  64
BRANCH  51  75
ATOM     75  C   UNL     1       3.068   5.975  13.487  1.00  0.00     0.023 A 
ATOM     76  C   UNL     1       4.124   5.850  14.404  1.00  0.00     0.031 A 
ATOM     77  C   UNL     1       3.033   7.125  12.678  1.00  0.00     0.131 A 
ATOM     78  C   UNL     1       5.071   6.878  14.528  1.00  0.00     0.055 A 
ATOM     79  C   UNL     1       4.011   8.118  12.763  1.00  0.00     0.041 A 
ATOM     80  F   UNL     1       2.051   7.294  11.778  1.00  0.00    -0.206 F 
ATOM     81  C   UNL     1       5.030   8.005  13.703  1.00  0.00     0.022 A 
BRANCH  78  82
ATOM     82  S   UNL     1       6.307   6.765  15.850  1.00  0.00     0.124 S 
ATOM     83  O   UNL     1       5.465   6.648  17.035  1.00  0.00    -0.237 OA
ATOM     84  O   UNL     1       7.050   5.569  15.468  1.00  0.00    -0.237 OA
ATOM     85  O   UNL     1       7.047   8.020  15.731  1.00  0.00    -0.744 OA
ENDBRANCH  78  82
ENDBRANCH  51  75
BRANCH  63  86
ATOM     86  C   UNL     1      -1.665   3.563  18.009  1.00  0.00     0.023 A 
ATOM     87  C   UNL     1      -2.075   4.838  18.435  1.00  0.00     0.031 A 
ATOM     88  C   UNL     1      -1.464   2.572  18.987  1.00  0.00     0.131 A 
ATOM     89  C   UNL     1      -2.201   5.109  19.804  1.00  0.00     0.055 A 
ATOM     90  C   UNL     1      -1.664   2.827  20.343  1.00  0.00     0.041 A 
ATOM     91  F   UNL     1      -1.070   1.337  18.638  1.00  0.00    -0.206 F 
ATOM     92  C   UNL     1      -2.017   4.107  20.760  1.00  0.00     0.022 A 
BRANCH  89  93
ATOM     93  S   UNL     1      -2.489   6.822  20.325  1.00  0.00     0.124 S 
ATOM     94  O   UNL     1      -1.352   7.515  19.727  1.00  0.00    -0.237 OA
ATOM     95  O   UNL     1      -3.792   7.112  19.737  1.00  0.00    -0.237 OA
ATOM     96  O   UNL     1      -2.470   6.744  21.785  1.00  0.00    -0.744 OA
ENDBRANCH  89  93
ENDBRANCH  63  86
ENDBRANCH  37  38
ENDBRANCH  29  32
ENDBRANCH  27  28
ENDBRANCH   1  27
TORSDOF 17
