REMARK SMILES CS(=O)(=O)c1ccc(/C=C(/C(=O)NCCCCNC(=O)c2ccc(-c3c4nc(c(-c5cc(S(=O)(=O)[O-])ccc5F)c5ccc([nH]5)c(-c5cc(S(=O)(=O)[O-])ccc5F)c5nc(c(-c6cc(S(=O)(=O)[O-])ccc6F)c6ccc3[nH]6)C=C5)C=C4)cc2)c2cccc(Br)c2)cc1
REMARK SMILES IDX 16 1 15 2 14 3 13 4 11 5 12 6 10 8 9 9 8 10 5 11 6 12 92 13
REMARK SMILES IDX 7 14 91 15 2 16 1 17 3 18 4 19 84 20 85 21 90 22 86 23 88 24
REMARK SMILES IDX 87 25 89 26 17 27 18 28 19 29 20 31 21 32 22 33 83 34 23 35
REMARK SMILES IDX 82 36 24 37 25 38 26 39 76 40 27 41 81 42 75 43 77 44 28 45
REMARK SMILES IDX 80 46 74 47 73 48 29 50 61 51 41 52 60 53 42 54 45 55 59 56
REMARK SMILES IDX 78 57 43 58 44 59 58 61 79 62 46 63 30 64 31 65 39 66 32 67
REMARK SMILES IDX 38 68 40 69 37 70 33 71 34 72 35 73 36 74 62 75 63 76 71 77
REMARK SMILES IDX 64 78 70 79 72 80 69 81 65 82 66 83 67 84 68 85 47 86 48 87
REMARK SMILES IDX 56 88 49 89 55 90 57 91 54 92 50 93 51 94 52 95 53 96
REMARK H PARENT 13 7 18 30 77 49 45 60
REMARK Flexibility Score: inf
ROOT
ATOM      1  C   UNL     1       2.261   4.236  10.688  1.00  0.00     0.023 C 
ENDROOT
BRANCH   1   2
ATOM      2  C   UNL     1       2.181   3.866   9.201  1.00  0.00     0.023 C 
BRANCH   2   3
ATOM      3  C   UNL     1       3.338   2.997   8.700  1.00  0.00     0.116 C 
BRANCH   3   4
ATOM      4  N   UNL     1       3.210   1.643   9.204  1.00  0.00    -0.352 N 
ATOM      5  C   UNL     1       2.737   0.485   8.671  1.00  0.00     0.251 C 
ATOM      6  O   UNL     1       2.756  -0.504   9.407  1.00  0.00    -0.269 OA
ATOM      7  H   UNL     1       3.534   1.541  10.127  1.00  0.00     0.163 HD
BRANCH   5   8
ATOM      8  C   UNL     1       2.281   0.350   7.234  1.00  0.00     0.047 C 
ATOM      9  C   UNL     1       1.645   1.350   6.582  1.00  0.00     0.022 C 
BRANCH   9  10
ATOM     10  C   UNL     1       1.222   1.411   5.167  1.00  0.00    -0.025 A 
ATOM     11  C   UNL     1       0.610   1.601   2.438  1.00  0.00     0.067 A 
ATOM     12  C   UNL     1       0.181   0.492   3.171  1.00  0.00     0.021 A 
ATOM     13  C   UNL     1       1.290   2.644   3.065  1.00  0.00     0.021 A 
ATOM     14  C   UNL     1       0.475   0.410   4.535  1.00  0.00     0.009 A 
ATOM     15  C   UNL     1       1.594   2.545   4.425  1.00  0.00     0.009 A 
BRANCH  11  16
ATOM     16  S   UNL     1       0.277   1.678   0.696  1.00  0.00     0.175 S 
ATOM     17  C   UNL     1       1.125   0.269   0.029  1.00  0.00     0.163 C 
ATOM     18  O   UNL     1       0.925   2.861   0.170  1.00  0.00    -0.224 OA
ATOM     19  O   UNL     1      -1.152   1.470   0.527  1.00  0.00    -0.224 OA
ENDBRANCH  11  16
ENDBRANCH   9  10
BRANCH   8  20
ATOM     20  C   UNL     1       2.393  -0.995   6.612  1.00  0.00    -0.012 A 
ATOM     21  C   UNL     1       1.596  -2.039   7.115  1.00  0.00     0.009 A 
ATOM     22  C   UNL     1       3.188  -1.231   5.484  1.00  0.00     0.024 A 
ATOM     23  C   UNL     1       1.568  -3.286   6.490  1.00  0.00     0.002 A 
ATOM     24  C   UNL     1       3.138  -2.475   4.851  1.00  0.00     0.018 A 
ATOM     25  C   UNL     1       2.332  -3.501   5.346  1.00  0.00     0.016 A 
ATOM     26  Br  UNL     1       4.133  -2.759   3.267  1.00  0.00    -0.051 Br
ENDBRANCH   8  20
ENDBRANCH   5   8
ENDBRANCH   3   4
ENDBRANCH   2   3
ENDBRANCH   1   2
BRANCH   1  27
ATOM     27  C   UNL     1       3.474   5.072  11.088  1.00  0.00     0.116 C 
BRANCH  27  28
ATOM     28  N   UNL     1       3.572   6.319  10.347  1.00  0.00    -0.352 N 
ATOM     29  C   UNL     1       4.042   7.538  10.772  1.00  0.00     0.251 C 
ATOM     30  H   UNL     1       3.261   6.285   9.414  1.00  0.00     0.163 HD
ATOM     31  O   UNL     1       3.939   8.518  10.040  1.00  0.00    -0.269 OA
BRANCH  29  32
ATOM     32  C   UNL     1       4.627   7.668  12.124  1.00  0.00     0.039 A 
ATOM     33  C   UNL     1       4.202   8.720  12.941  1.00  0.00     0.014 A 
ATOM     34  C   UNL     1       5.573   6.752  12.591  1.00  0.00     0.014 A 
ATOM     35  C   UNL     1       4.676   8.812  14.251  1.00  0.00     0.010 A 
ATOM     36  C   UNL     1       5.998   6.811  13.915  1.00  0.00     0.010 A 
ATOM     37  C   UNL     1       5.551   7.839  14.760  1.00  0.00    -0.014 A 
BRANCH  37  38
ATOM     38  C   UNL     1       6.003   7.875  16.175  1.00  0.00     0.031 A 
ATOM     39  C   UNL     1       7.455   8.100  16.496  1.00  0.00     0.074 A 
ATOM     40  C   UNL     1       5.119   7.632  17.162  1.00  0.00     0.049 A 
ATOM     41  N   UNL     1       8.060   8.078  17.655  1.00  0.00    -0.248 NA
ATOM     42  C   UNL     1       8.347   8.353  15.355  1.00  0.00     0.031 C 
ATOM     43  C   UNL     1       3.693   7.357  16.970  1.00  0.00     0.029 A 
ATOM     44  N   UNL     1       5.288   7.564  18.522  1.00  0.00    -0.354 N 
ATOM     45  C   UNL     1       9.406   8.298  17.384  1.00  0.00     0.074 A 
ATOM     46  C   UNL     1       9.532   8.394  15.945  1.00  0.00     0.031 C 
ATOM     47  C   UNL     1       3.117   7.167  18.168  1.00  0.00     0.029 A 
ATOM     48  C   UNL     1       4.135   7.264  19.209  1.00  0.00     0.049 A 
ATOM     49  H   UNL     1       6.155   7.715  18.964  1.00  0.00     0.167 HD
ATOM     50  C   UNL     1      10.437   8.429  18.257  1.00  0.00     0.034 A 
ATOM     51  C   UNL     1       3.924   7.077  20.527  1.00  0.00     0.034 A 
ATOM     52  C   UNL     1      10.290   8.344  19.690  1.00  0.00     0.049 A 
ATOM     53  C   UNL     1       5.085   7.219  21.477  1.00  0.00     0.074 A 
ATOM     54  C   UNL     1      11.254   8.517  20.668  1.00  0.00     0.029 A 
ATOM     55  N   UNL     1       9.103   8.055  20.352  1.00  0.00    -0.354 N 
ATOM     56  N   UNL     1       6.345   7.478  21.209  1.00  0.00    -0.248 NA
ATOM     57  C   UNL     1       4.794   7.056  22.907  1.00  0.00     0.031 C 
ATOM     58  C   UNL     1      10.664   8.275  21.915  1.00  0.00     0.029 A 
ATOM     59  C   UNL     1       9.316   8.019  21.722  1.00  0.00     0.049 A 
ATOM     60  H   UNL     1       8.236   7.898  19.912  1.00  0.00     0.167 HD
ATOM     61  C   UNL     1       6.989   7.537  22.441  1.00  0.00     0.074 A 
ATOM     62  C   UNL     1       5.978   7.300  23.451  1.00  0.00     0.031 C 
ATOM     63  C   UNL     1       8.298   7.770  22.715  1.00  0.00     0.034 A 
BRANCH  50  64
ATOM     64  C   UNL     1      11.812   8.651  17.675  1.00  0.00     0.023 A 
ATOM     65  C   UNL     1      12.118   9.798  16.921  1.00  0.00     0.031 A 
ATOM     66  C   UNL     1      12.824   7.689  17.846  1.00  0.00     0.131 A 
ATOM     67  C   UNL     1      13.370   9.916  16.299  1.00  0.00     0.055 A 
ATOM     68  C   UNL     1      14.096   7.852  17.294  1.00  0.00     0.041 A 
ATOM     69  F   UNL     1      12.587   6.564  18.539  1.00  0.00    -0.206 F 
ATOM     70  C   UNL     1      14.370   8.963  16.501  1.00  0.00     0.022 A 
BRANCH  67  71
ATOM     71  S   UNL     1      13.620  11.258  15.105  1.00  0.00     0.124 S 
ATOM     72  O   UNL     1      12.580  10.972  14.119  1.00  0.00    -0.237 OA
ATOM     73  O   UNL     1      13.416  12.449  15.922  1.00  0.00    -0.237 OA
ATOM     74  O   UNL     1      14.988  11.049  14.636  1.00  0.00    -0.744 OA
ENDBRANCH  67  71
ENDBRANCH  50  64
BRANCH  51  75
ATOM     75  C   UNL     1       2.566   6.728  21.032  1.00  0.00     0.023 A 
ATOM     76  C   UNL     1       1.852   7.614  21.853  1.00  0.00     0.031 A 
ATOM     77  C   UNL     1       1.980   5.486  20.732  1.00  0.00     0.131 A 
ATOM     78  C   UNL     1       0.611   7.229  22.384  1.00  0.00     0.055 A 
ATOM     79  C   UNL     1       0.723   5.127  21.223  1.00  0.00     0.041 A 
ATOM     80  F   UNL     1       2.618   4.606  19.944  1.00  0.00    -0.206 F 
ATOM     81  C   UNL     1       0.037   5.996  22.065  1.00  0.00     0.022 A 
BRANCH  78  82
ATOM     82  S   UNL     1      -0.209   8.336  23.563  1.00  0.00     0.124 S 
ATOM     83  O   UNL     1       0.800   8.457  24.609  1.00  0.00    -0.237 OA
ATOM     84  O   UNL     1      -0.439   9.526  22.751  1.00  0.00    -0.237 OA
ATOM     85  O   UNL     1      -1.414   7.599  23.940  1.00  0.00    -0.744 OA
ENDBRANCH  78  82
ENDBRANCH  51  75
BRANCH  63  86
ATOM     86  C   UNL     1       8.692   7.825  24.170  1.00  0.00     0.023 A 
ATOM     87  C   UNL     1       8.665   6.681  24.987  1.00  0.00     0.031 A 
ATOM     88  C   UNL     1       9.085   9.045  24.749  1.00  0.00     0.131 A 
ATOM     89  C   UNL     1       8.975   6.791  26.351  1.00  0.00     0.055 A 
ATOM     90  C   UNL     1       9.445   9.137  26.093  1.00  0.00     0.041 A 
ATOM     91  F   UNL     1       9.125  10.168  24.014  1.00  0.00    -0.206 F 
ATOM     92  C   UNL     1       9.379   8.008  26.906  1.00  0.00     0.022 A 
BRANCH  89  93
ATOM     93  S   UNL     1       8.760   5.336  27.413  1.00  0.00     0.124 S 
ATOM     94  O   UNL     1       7.343   5.037  27.236  1.00  0.00    -0.237 OA
ATOM     95  O   UNL     1       9.692   4.380  26.825  1.00  0.00    -0.237 OA
ATOM     96  O   UNL     1       9.130   5.823  28.741  1.00  0.00    -0.744 OA
ENDBRANCH  89  93
ENDBRANCH  63  86
ENDBRANCH  37  38
ENDBRANCH  29  32
ENDBRANCH  27  28
ENDBRANCH   1  27
TORSDOF 17
