REMARK SMILES CC[C@@](C)([NH2+]CC(=O)N[C@@H](C)c1ccc(F)cc1)C(=O)NCCCCNC(=O)c1ccc(-c2c3nc(c(-c4cc(S(=O)(=O)[O-])ccc4F)c4ccc([nH]4)c(-c4cc(S(=O)(=O)[O-])ccc4F)c4nc(c(-c5cc(S(=O)(=O)[O-])ccc5F)c5ccc2[nH]5)C=C4)C=C3)cc1
REMARK SMILES IDX 22 1 21 2 19 3 20 4 3 6 4 7 2 8 1 9 5 10 6 13 7 14 8 15 9 16
REMARK SMILES IDX 10 18 11 19 12 20 13 21 18 22 14 23 17 24 15 25 16 26 23 27
REMARK SMILES IDX 24 28 25 29 26 30 27 31 28 33 29 34 30 35 91 36 31 37 90 38
REMARK SMILES IDX 32 39 33 40 34 41 84 42 35 43 89 44 83 45 85 46 36 47 88 48
REMARK SMILES IDX 82 49 81 50 37 52 69 53 49 54 68 55 50 56 53 57 67 58 86 59
REMARK SMILES IDX 51 60 52 61 66 63 87 64 54 65 38 66 39 67 47 68 40 69 46 70
REMARK SMILES IDX 48 71 45 72 41 73 42 74 43 75 44 76 70 77 71 78 79 79 72 80
REMARK SMILES IDX 78 81 80 82 77 83 73 84 74 85 75 86 76 87 55 88 56 89 64 90
REMARK SMILES IDX 57 91 63 92 65 93 62 94 58 95 59 96 60 97 61 98
REMARK H PARENT 21 5 5 11 5 12 9 17 26 32 85 51 53 62
REMARK Flexibility Score: inf
ROOT
ATOM      1  C   UNL     1       2.690  -4.495   2.678  1.00  0.00     0.116 C 
ENDROOT
BRANCH   1   2
ATOM      2  N   UNL     1       2.966  -3.544   1.596  1.00  0.00    -0.351 N 
ATOM      3  C   UNL     1       2.216  -2.540   1.007  1.00  0.00     0.281 C 
ATOM      4  O   UNL     1       2.897  -1.627   0.517  1.00  0.00    -0.268 OA
ATOM      5  H   UNL     1       3.867  -3.638   1.211  1.00  0.00     0.163 HD
BRANCH   3   6
ATOM      6  C   UNL     1       0.609  -2.529   0.830  1.00  0.00     0.172 C 
ATOM      7  C   UNL     1      -0.338  -1.410   1.300  1.00  0.00     0.090 C 
BRANCH   6   8
ATOM      8  C   UNL     1       0.432  -2.442  -0.744  1.00  0.00     0.075 C 
ATOM      9  C   UNL     1       0.620  -1.010  -1.328  1.00  0.00     0.011 C 
ENDBRANCH   6   8
BRANCH   6  10
ATOM     10  N   UNL     1       0.114  -3.759   1.447  1.00  0.00    -0.326 N 
ATOM     11  H   UNL     1       0.897  -4.410   1.499  1.00  0.00     0.347 HD
ATOM     12  H   UNL     1      -0.662  -4.049   0.852  1.00  0.00     0.347 HD
BRANCH  10  13
ATOM     13  C   UNL     1      -0.477  -3.666   2.813  1.00  0.00     0.362 C 
BRANCH  13  14
ATOM     14  C   UNL     1       0.241  -3.066   4.082  1.00  0.00     0.275 C 
ATOM     15  O   UNL     1      -0.029  -3.664   5.147  1.00  0.00    -0.268 OA
ATOM     16  N   UNL     1       1.022  -1.982   4.326  1.00  0.00    -0.345 N 
ATOM     17  H   UNL     1       1.199  -1.946   5.294  1.00  0.00     0.164 HD
BRANCH  16  18
ATOM     18  C   UNL     1       1.709  -0.828   3.691  1.00  0.00     0.109 C 
ATOM     19  C   UNL     1       0.835   0.437   3.605  1.00  0.00     0.036 C 
BRANCH  18  20
ATOM     20  C   UNL     1       3.042  -0.489   4.401  1.00  0.00    -0.026 A 
ATOM     21  C   UNL     1       3.229   0.707   5.125  1.00  0.00     0.009 A 
ATOM     22  C   UNL     1       4.161  -1.330   4.266  1.00  0.00     0.009 A 
ATOM     23  C   UNL     1       4.473   1.059   5.656  1.00  0.00     0.039 A 
ATOM     24  C   UNL     1       5.403  -0.995   4.824  1.00  0.00     0.039 A 
ATOM     25  C   UNL     1       5.549   0.203   5.504  1.00  0.00     0.123 A 
ATOM     26  F   UNL     1       6.742   0.548   6.003  1.00  0.00    -0.207 F 
ENDBRANCH  18  20
ENDBRANCH  16  18
ENDBRANCH  13  14
ENDBRANCH  10  13
ENDBRANCH   6  10
ENDBRANCH   3   6
ENDBRANCH   1   2
BRANCH   1  27
ATOM     27  C   UNL     1       3.380  -5.853   2.607  1.00  0.00     0.023 C 
BRANCH  27  28
ATOM     28  C   UNL     1       4.823  -5.947   3.094  1.00  0.00     0.023 C 
BRANCH  28  29
ATOM     29  C   UNL     1       5.156  -5.377   4.472  1.00  0.00     0.116 C 
BRANCH  29  30
ATOM     30  N   UNL     1       4.372  -5.900   5.582  1.00  0.00    -0.352 N 
ATOM     31  C   UNL     1       4.807  -6.243   6.847  1.00  0.00     0.251 C 
ATOM     32  H   UNL     1       3.411  -6.025   5.408  1.00  0.00     0.163 HD
ATOM     33  O   UNL     1       4.015  -6.681   7.681  1.00  0.00    -0.269 OA
BRANCH  31  34
ATOM     34  C   UNL     1       6.247  -6.141   7.175  1.00  0.00     0.039 A 
ATOM     35  C   UNL     1       6.917  -7.281   7.625  1.00  0.00     0.014 A 
ATOM     36  C   UNL     1       6.949  -4.954   6.949  1.00  0.00     0.014 A 
ATOM     37  C   UNL     1       8.310  -7.263   7.736  1.00  0.00     0.010 A 
ATOM     38  C   UNL     1       8.343  -4.960   6.995  1.00  0.00     0.010 A 
ATOM     39  C   UNL     1       9.040  -6.122   7.362  1.00  0.00    -0.014 A 
BRANCH  39  40
ATOM     40  C   UNL     1      10.528  -6.147   7.309  1.00  0.00     0.031 A 
ATOM     41  C   UNL     1      11.336  -5.255   8.210  1.00  0.00     0.074 A 
ATOM     42  C   UNL     1      11.152  -6.937   6.411  1.00  0.00     0.049 A 
ATOM     43  N   UNL     1      12.633  -5.088   8.258  1.00  0.00    -0.248 NA
ATOM     44  C   UNL     1      10.589  -4.424   9.167  1.00  0.00     0.031 C 
ATOM     45  C   UNL     1      10.483  -7.825   5.455  1.00  0.00     0.029 A 
ATOM     46  N   UNL     1      12.488  -7.127   6.152  1.00  0.00    -0.354 N 
ATOM     47  C   UNL     1      12.858  -4.131   9.240  1.00  0.00     0.074 A 
ATOM     48  C   UNL     1      11.559  -3.717   9.728  1.00  0.00     0.031 C 
ATOM     49  C   UNL     1      11.410  -8.491   4.747  1.00  0.00     0.029 A 
ATOM     50  C   UNL     1      12.738  -8.049   5.161  1.00  0.00     0.049 A 
ATOM     51  H   UNL     1      13.202  -6.647   6.632  1.00  0.00     0.167 HD
ATOM     52  C   UNL     1      14.037  -3.657   9.708  1.00  0.00     0.034 A 
ATOM     53  C   UNL     1      13.901  -8.487   4.637  1.00  0.00     0.034 A 
ATOM     54  C   UNL     1      15.328  -4.092   9.238  1.00  0.00     0.049 A 
ATOM     55  C   UNL     1      15.198  -7.930   5.160  1.00  0.00     0.074 A 
ATOM     56  C   UNL     1      16.579  -3.706   9.686  1.00  0.00     0.029 A 
ATOM     57  N   UNL     1      15.536  -5.010   8.218  1.00  0.00    -0.354 N 
ATOM     58  N   UNL     1      15.388  -7.029   6.096  1.00  0.00    -0.248 NA
ATOM     59  C   UNL     1      16.437  -8.443   4.558  1.00  0.00     0.031 C 
ATOM     60  C   UNL     1      17.543  -4.348   8.902  1.00  0.00     0.029 A 
ATOM     61  C   UNL     1      16.894  -5.184   8.008  1.00  0.00     0.049 A 
ATOM     62  H   UNL     1      14.823  -5.469   7.718  1.00  0.00     0.167 HD
ATOM     63  C   UNL     1      16.767  -6.886   6.209  1.00  0.00     0.074 A 
ATOM     64  C   UNL     1      17.363  -7.792   5.249  1.00  0.00     0.031 C 
ATOM     65  C   UNL     1      17.475  -6.080   7.039  1.00  0.00     0.034 A 
BRANCH  52  66
ATOM     66  C   UNL     1      13.989  -2.605  10.784  1.00  0.00     0.023 A 
ATOM     67  C   UNL     1      13.541  -2.904  12.081  1.00  0.00     0.031 A 
ATOM     68  C   UNL     1      14.418  -1.294  10.515  1.00  0.00     0.131 A 
ATOM     69  C   UNL     1      13.491  -1.893  13.052  1.00  0.00     0.055 A 
ATOM     70  C   UNL     1      14.426  -0.308  11.502  1.00  0.00     0.041 A 
ATOM     71  F   UNL     1      14.841  -0.952   9.287  1.00  0.00    -0.206 F 
ATOM     72  C   UNL     1      13.954  -0.604  12.778  1.00  0.00     0.022 A 
BRANCH  69  73
ATOM     73  S   UNL     1      12.747  -2.269  14.662  1.00  0.00     0.124 S 
ATOM     74  O   UNL     1      11.353  -2.501  14.293  1.00  0.00    -0.237 OA
ATOM     75  O   UNL     1      13.497  -3.444  15.093  1.00  0.00    -0.237 OA
ATOM     76  O   UNL     1      12.988  -1.057  15.441  1.00  0.00    -0.744 OA
ENDBRANCH  69  73
ENDBRANCH  52  66
BRANCH  53  77
ATOM     77  C   UNL     1      13.896  -9.507   3.551  1.00  0.00     0.023 A 
ATOM     78  C   UNL     1      14.359 -10.812   3.785  1.00  0.00     0.031 A 
ATOM     79  C   UNL     1      13.436  -9.188   2.262  1.00  0.00     0.131 A 
ATOM     80  C   UNL     1      14.374 -11.745   2.736  1.00  0.00     0.055 A 
ATOM     81  C   UNL     1      13.419 -10.130   1.232  1.00  0.00     0.041 A 
ATOM     82  F   UNL     1      12.977  -7.956   1.992  1.00  0.00    -0.206 F 
ATOM     83  C   UNL     1      13.896 -11.416   1.465  1.00  0.00     0.022 A 
BRANCH  80  84
ATOM     84  S   UNL     1      15.058 -13.397   3.047  1.00  0.00     0.124 S 
ATOM     85  O   UNL     1      16.456 -13.091   3.327  1.00  0.00    -0.237 OA
ATOM     86  O   UNL     1      14.259 -13.849   4.182  1.00  0.00    -0.237 OA
ATOM     87  O   UNL     1      14.811 -14.108   1.794  1.00  0.00    -0.744 OA
ENDBRANCH  80  84
ENDBRANCH  53  77
BRANCH  65  88
ATOM     88  C   UNL     1      18.977  -6.161   6.974  1.00  0.00     0.023 A 
ATOM     89  C   UNL     1      19.696  -5.621   5.895  1.00  0.00     0.031 A 
ATOM     90  C   UNL     1      19.697  -6.739   8.035  1.00  0.00     0.131 A 
ATOM     91  C   UNL     1      21.097  -5.691   5.890  1.00  0.00     0.055 A 
ATOM     92  C   UNL     1      21.091  -6.767   8.044  1.00  0.00     0.041 A 
ATOM     93  F   UNL     1      19.053  -7.265   9.089  1.00  0.00    -0.206 F 
ATOM     94  C   UNL     1      21.799  -6.245   6.965  1.00  0.00     0.022 A 
BRANCH  91  95
ATOM     95  S   UNL     1      21.998  -5.068   4.444  1.00  0.00     0.124 S 
ATOM     96  O   UNL     1      21.573  -5.996   3.401  1.00  0.00    -0.237 OA
ATOM     97  O   UNL     1      21.498  -3.702   4.324  1.00  0.00    -0.237 OA
ATOM     98  O   UNL     1      23.401  -5.179   4.840  1.00  0.00    -0.744 OA
ENDBRANCH  91  95
ENDBRANCH  65  88
ENDBRANCH  39  40
ENDBRANCH  31  34
ENDBRANCH  29  30
ENDBRANCH  28  29
ENDBRANCH  27  28
ENDBRANCH   1  27
TORSDOF 20
