REMARK SMILES C[N@H+]1[C@H]2CC[C@@H]1CN(c1nc3c(cc1C(=O)NCCCCNC(=O)c1ccc(-c4c5nc(c(-c6cc(S(=O)(=O)[O-])ccc6F)c6ccc([nH]6)c(-c6cc(S(=O)(=O)[O-])ccc6F)c6nc(c(-c7cc(S(=O)(=O)[O-])ccc7F)c7ccc4[nH]7)C=C6)C=C5)cc1)CCC3)CC2
REMARK SMILES IDX 19 1 18 2 17 3 15 4 16 5 14 7 9 8 10 9 11 10 13 11 12 12
REMARK SMILES IDX 90 13 88 14 89 15 8 16 91 17 92 18 3 19 1 20 2 21 6 22 4 24
REMARK SMILES IDX 5 25 7 27 20 29 21 30 22 31 23 32 24 34 25 35 26 36 87 37
REMARK SMILES IDX 27 38 86 39 28 40 29 41 30 42 80 43 31 44 85 45 79 46 81 47
REMARK SMILES IDX 32 48 84 49 78 50 77 51 33 53 65 54 45 55 64 56 46 57 49 58
REMARK SMILES IDX 63 59 82 60 47 61 48 62 62 64 83 65 50 66 34 67 35 68 43 69
REMARK SMILES IDX 36 70 42 71 44 72 41 73 37 74 38 75 39 76 40 77 66 78 67 79
REMARK SMILES IDX 75 80 68 81 74 82 76 83 73 84 69 85 70 86 71 87 72 88 51 89
REMARK SMILES IDX 52 90 60 91 53 92 59 93 61 94 58 95 54 96 55 97 56 98 57 99
REMARK H PARENT 17 6 2 23 22 33 81 52 49 63
REMARK Flexibility Score: 90.00
ROOT
ATOM      1  C   UNL     1       0.576   1.072  -2.490  1.00  0.00     0.023 C 
ENDROOT
BRANCH   1   2
ATOM      2  C   UNL     1      -1.314   0.377  -2.952  1.00  0.00     0.116 C 
BRANCH   2   3
ATOM      3  N   UNL     1      -1.878  -0.579  -4.018  1.00  0.00    -0.352 N 
ATOM      4  C   UNL     1      -2.498  -0.270  -5.188  1.00  0.00     0.255 C 
ATOM      5  O   UNL     1      -2.923  -1.154  -5.910  1.00  0.00    -0.269 OA
ATOM      6  H   UNL     1      -1.777  -1.540  -3.828  1.00  0.00     0.163 HD
BRANCH   4   7
ATOM      7  C   UNL     1      -2.717   1.151  -5.469  1.00  0.00     0.082 A 
ATOM      8  C   UNL     1      -1.923   2.217  -4.963  1.00  0.00     0.141 A 
ATOM      9  N   UNL     1      -2.412   3.494  -5.018  1.00  0.00    -0.235 NA
ATOM     10  C   UNL     1      -3.660   3.659  -5.530  1.00  0.00     0.046 A 
ATOM     11  C   UNL     1      -3.988   1.369  -6.018  1.00  0.00     0.023 A 
ATOM     12  C   UNL     1      -4.473   2.643  -6.002  1.00  0.00    -0.025 A 
ATOM     13  C   UNL     1      -4.398   4.969  -5.644  1.00  0.00     0.057 C 
ATOM     14  C   UNL     1      -5.836   3.099  -6.385  1.00  0.00     0.038 C 
ATOM     15  C   UNL     1      -5.862   4.495  -5.754  1.00  0.00     0.011 C 
BRANCH   8  16
ATOM     16  N   UNL     1      -0.754   1.973  -4.137  1.00  0.00    -0.350 N 
BRANCH  16  17
ATOM     17  C   UNL     1       0.183   0.385  -4.496  1.00  0.00     0.124 C 
BRANCH  17  18
ATOM     18  C   UNL     1       0.272  -1.060  -3.154  1.00  0.00     0.086 C 
BRANCH  18  19
ATOM     19  C   UNL     1      -0.334  -1.004  -1.297  1.00  0.00     0.186 C 
ATOM     20  C   UNL     1       0.059   0.082   0.952  1.00  0.00     0.333 C 
ATOM     21  N   UNL     1      -0.156   0.319  -0.478  1.00  0.00    -0.331 N 
ATOM     22  C   UNL     1      -1.248   1.437  -0.830  1.00  0.00     0.203 CG0
ATOM     23  H   UNL     1       0.720   0.735  -0.794  1.00  0.00     0.348 HD
ATOM     24  C   UNL     1      -1.886  -1.140  -0.731  1.00  0.00     0.071 C 
ATOM     25  C   UNL     1      -2.456   0.450  -0.508  1.00  0.00     0.073 C 
ATOM     26  G   UNL     1      -1.181   2.579  -2.419  1.00  0.00     0.000 G0
ENDBRANCH  18  19
ENDBRANCH  17  18
ENDBRANCH  16  17
BRANCH  16  27
ATOM     27  C   UNL     1      -1.181   2.579  -2.419  1.00  0.00     0.183 CG0
ATOM     28  G   UNL     1      -1.248   1.437  -0.830  1.00  0.00     0.000 G0
ENDBRANCH  16  27
ENDBRANCH   8  16
ENDBRANCH   4   7
ENDBRANCH   2   3
ENDBRANCH   1   2
BRANCH   1  29
ATOM     29  C   UNL     1       1.999   0.413  -1.853  1.00  0.00     0.023 C 
BRANCH  29  30
ATOM     30  C   UNL     1       3.269   0.504  -2.703  1.00  0.00     0.116 C 
BRANCH  30  31
ATOM     31  N   UNL     1       4.296   1.306  -2.043  1.00  0.00    -0.352 N 
ATOM     32  C   UNL     1       5.167   1.004  -1.021  1.00  0.00     0.251 C 
ATOM     33  H   UNL     1       4.380   2.223  -2.390  1.00  0.00     0.163 HD
ATOM     34  O   UNL     1       5.738   1.926  -0.439  1.00  0.00    -0.269 OA
BRANCH  32  35
ATOM     35  C   UNL     1       5.433  -0.393  -0.597  1.00  0.00     0.039 A 
ATOM     36  C   UNL     1       5.638  -0.664   0.763  1.00  0.00     0.014 A 
ATOM     37  C   UNL     1       5.600  -1.419  -1.527  1.00  0.00     0.014 A 
ATOM     38  C   UNL     1       5.979  -1.956   1.185  1.00  0.00     0.010 A 
ATOM     39  C   UNL     1       5.861  -2.723  -1.100  1.00  0.00     0.010 A 
ATOM     40  C   UNL     1       6.086  -3.004   0.257  1.00  0.00    -0.014 A 
BRANCH  40  41
ATOM     41  C   UNL     1       6.503  -4.374   0.671  1.00  0.00     0.031 A 
ATOM     42  C   UNL     1       7.788  -4.963   0.141  1.00  0.00     0.074 A 
ATOM     43  C   UNL     1       5.716  -5.113   1.478  1.00  0.00     0.049 A 
ATOM     44  N   UNL     1       8.297  -6.152   0.340  1.00  0.00    -0.248 NA
ATOM     45  C   UNL     1       8.589  -4.117  -0.760  1.00  0.00     0.031 C 
ATOM     46  C   UNL     1       4.423  -4.686   2.012  1.00  0.00     0.029 A 
ATOM     47  N   UNL     1       5.882  -6.380   1.986  1.00  0.00    -0.354 N 
ATOM     48  C   UNL     1       9.458  -6.202  -0.427  1.00  0.00     0.074 A 
ATOM     49  C   UNL     1       9.542  -4.952  -1.146  1.00  0.00     0.031 C 
ATOM     50  C   UNL     1       3.926  -5.660   2.792  1.00  0.00     0.029 A 
ATOM     51  C   UNL     1       4.849  -6.794   2.795  1.00  0.00     0.049 A 
ATOM     52  H   UNL     1       6.668  -6.939   1.788  1.00  0.00     0.167 HD
ATOM     53  C   UNL     1      10.391  -7.181  -0.496  1.00  0.00     0.034 A 
ATOM     54  C   UNL     1       4.667  -7.948   3.470  1.00  0.00     0.034 A 
ATOM     55  C   UNL     1      10.335  -8.396   0.271  1.00  0.00     0.049 A 
ATOM     56  C   UNL     1       5.739  -9.008   3.415  1.00  0.00     0.074 A 
ATOM     57  C   UNL     1      11.274  -9.409   0.337  1.00  0.00     0.029 A 
ATOM     58  N   UNL     1       9.296  -8.755   1.116  1.00  0.00    -0.354 N 
ATOM     59  N   UNL     1       6.876  -8.995   2.761  1.00  0.00    -0.248 NA
ATOM     60  C   UNL     1       5.515 -10.233   4.198  1.00  0.00     0.031 C 
ATOM     61  C   UNL     1      10.787 -10.399   1.191  1.00  0.00     0.029 A 
ATOM     62  C   UNL     1       9.565  -9.983   1.696  1.00  0.00     0.049 A 
ATOM     63  H   UNL     1       8.487  -8.218   1.278  1.00  0.00     0.167 HD
ATOM     64  C   UNL     1       7.512 -10.195   3.070  1.00  0.00     0.074 A 
ATOM     65  C   UNL     1       6.642 -10.901   3.988  1.00  0.00     0.031 C 
ATOM     66  C   UNL     1       8.703 -10.669   2.628  1.00  0.00     0.034 A 
BRANCH  53  67
ATOM     67  C   UNL     1      11.588  -6.969  -1.388  1.00  0.00     0.023 A 
ATOM     68  C   UNL     1      11.810  -7.815  -2.490  1.00  0.00     0.031 A 
ATOM     69  C   UNL     1      12.562  -6.001  -1.083  1.00  0.00     0.131 A 
ATOM     70  C   UNL     1      12.989  -7.687  -3.236  1.00  0.00     0.055 A 
ATOM     71  C   UNL     1      13.715  -5.852  -1.853  1.00  0.00     0.041 A 
ATOM     72  F   UNL     1      12.395  -5.172  -0.040  1.00  0.00    -0.206 F 
ATOM     73  C   UNL     1      13.936  -6.704  -2.931  1.00  0.00     0.022 A 
BRANCH  70  74
ATOM     74  S   UNL     1      13.354  -8.809  -4.613  1.00  0.00     0.124 S 
ATOM     75  O   UNL     1      13.638  -7.873  -5.700  1.00  0.00    -0.237 OA
ATOM     76  O   UNL     1      14.508  -9.545  -4.107  1.00  0.00    -0.237 OA
ATOM     77  O   UNL     1      12.127  -9.582  -4.770  1.00  0.00    -0.744 OA
ENDBRANCH  70  74
ENDBRANCH  53  67
BRANCH  54  78
ATOM     78  C   UNL     1       3.451  -8.111   4.319  1.00  0.00     0.023 A 
ATOM     79  C   UNL     1       2.165  -8.158   3.751  1.00  0.00     0.031 A 
ATOM     80  C   UNL     1       3.557  -8.120   5.720  1.00  0.00     0.131 A 
ATOM     81  C   UNL     1       1.037  -8.158   4.584  1.00  0.00     0.055 A 
ATOM     82  C   UNL     1       2.433  -8.181   6.545  1.00  0.00     0.041 A 
ATOM     83  F   UNL     1       4.763  -8.064   6.306  1.00  0.00    -0.206 F 
ATOM     84  C   UNL     1       1.163  -8.187   5.976  1.00  0.00     0.022 A 
BRANCH  81  85
ATOM     85  S   UNL     1      -0.634  -8.021   3.889  1.00  0.00     0.124 S 
ATOM     86  O   UNL     1      -1.309  -9.172   4.480  1.00  0.00    -0.237 OA
ATOM     87  O   UNL     1      -1.056  -6.716   4.392  1.00  0.00    -0.237 OA
ATOM     88  O   UNL     1      -0.415  -8.091   2.448  1.00  0.00    -0.744 OA
ENDBRANCH  81  85
ENDBRANCH  54  78
BRANCH  66  89
ATOM     89  C   UNL     1       9.173 -12.017   3.112  1.00  0.00     0.023 A 
ATOM     90  C   UNL     1      10.341 -12.115   3.893  1.00  0.00     0.031 A 
ATOM     91  C   UNL     1       8.569 -13.202   2.660  1.00  0.00     0.131 A 
ATOM     92  C   UNL     1      10.894 -13.373   4.159  1.00  0.00     0.055 A 
ATOM     93  C   UNL     1       9.101 -14.455   2.964  1.00  0.00     0.041 A 
ATOM     94  F   UNL     1       7.461 -13.155   1.903  1.00  0.00    -0.206 F 
ATOM     95  C   UNL     1      10.277 -14.544   3.705  1.00  0.00     0.022 A 
BRANCH  92  96
ATOM     96  S   UNL     1      12.474 -13.535   5.036  1.00  0.00     0.124 S 
ATOM     97  O   UNL     1      12.112 -14.399   6.157  1.00  0.00    -0.237 OA
ATOM     98  O   UNL     1      13.325 -14.152   4.022  1.00  0.00    -0.237 OA
ATOM     99  O   UNL     1      12.818 -12.164   5.397  1.00  0.00    -0.744 OA
ENDBRANCH  92  96
ENDBRANCH  66  89
ENDBRANCH  40  41
ENDBRANCH  32  35
ENDBRANCH  30  31
ENDBRANCH  29  30
ENDBRANCH   1  29
TORSDOF 15
