REMARK SMILES C[C@H](CNS(=O)(=O)c1ccc(C(=O)NCCCCNC(=O)c2ccc(-c3c4nc(c(-c5cc(S(=O)(=O)[O-])ccc5F)c5ccc([nH]5)c(-c5cc(S(=O)(=O)[O-])ccc5F)c5nc(c(-c6cc(S(=O)(=O)[O-])ccc6F)c6ccc3[nH]6)C=C5)C=C4)cc2)o1)c1ccccc1
REMARK SMILES IDX 15 1 14 2 12 3 13 4 11 6 8 7 9 8 85 9 10 10 5 11 6 12 7 13
REMARK SMILES IDX 4 14 3 16 2 17 1 18 86 19 87 20 91 21 88 22 90 23 89 24
REMARK SMILES IDX 16 25 17 26 18 27 19 28 20 29 21 31 22 32 23 33 84 34 24 35
REMARK SMILES IDX 83 36 25 37 26 38 27 39 77 40 28 41 82 42 76 43 78 44 29 45
REMARK SMILES IDX 81 46 75 47 74 48 30 50 62 51 42 52 61 53 43 54 46 55 60 56
REMARK SMILES IDX 79 57 44 58 45 59 59 61 80 62 47 63 31 64 32 65 40 66 33 67
REMARK SMILES IDX 39 68 41 69 38 70 34 71 35 72 36 73 37 74 63 75 64 76 72 77
REMARK SMILES IDX 65 78 71 79 73 80 70 81 66 82 67 83 68 84 69 85 48 86 49 87
REMARK SMILES IDX 57 88 50 89 56 90 58 91 55 92 51 93 52 94 53 95 54 96
REMARK H PARENT 14 5 4 15 19 30 78 49 46 60
REMARK Flexibility Score: inf
ROOT
ATOM      1  C   UNL     1       6.734  -1.218   4.612  1.00  0.00     0.116 C 
ENDROOT
BRANCH   1   2
ATOM      2  N   UNL     1       6.364  -2.463   3.976  1.00  0.00    -0.349 N 
ATOM      3  C   UNL     1       5.628  -2.720   2.844  1.00  0.00     0.287 C 
ATOM      4  O   UNL     1       5.536  -3.908   2.524  1.00  0.00    -0.266 OA
ATOM      5  H   UNL     1       6.699  -3.268   4.434  1.00  0.00     0.163 HD
BRANCH   3   6
ATOM      6  C   UNL     1       5.007  -1.655   2.073  1.00  0.00     0.193 A 
ATOM      7  C   UNL     1       3.970  -0.903   0.234  1.00  0.00     0.234 A 
ATOM      8  C   UNL     1       4.119   0.170   1.099  1.00  0.00     0.065 A 
ATOM      9  O   UNL     1       4.522  -2.006   0.836  1.00  0.00    -0.438 OA
ATOM     10  C   UNL     1       4.739  -0.313   2.273  1.00  0.00     0.058 A 
BRANCH   7  11
ATOM     11  S   UNL     1       3.204  -0.978  -1.377  1.00  0.00     0.274 S 
ATOM     12  O   UNL     1       2.441  -2.207  -1.432  1.00  0.00    -0.204 OA
ATOM     13  O   UNL     1       4.240  -0.655  -2.327  1.00  0.00    -0.204 OA
BRANCH  11  14
ATOM     14  N   UNL     1       2.104   0.305  -1.429  1.00  0.00    -0.208 NA
ATOM     15  H   UNL     1       2.579   1.131  -1.063  1.00  0.00     0.141 HD
BRANCH  14  16
ATOM     16  C   UNL     1       0.841   0.147  -0.674  1.00  0.00     0.107 C 
BRANCH  16  17
ATOM     17  C   UNL     1       0.303   1.502  -0.125  1.00  0.00     0.031 C 
ATOM     18  C   UNL     1       0.709   2.673  -1.043  1.00  0.00     0.014 C 
BRANCH  17  19
ATOM     19  C   UNL     1      -1.206   1.478   0.166  1.00  0.00    -0.044 A 
ATOM     20  C   UNL     1      -1.937   2.673   0.309  1.00  0.00     0.004 A 
ATOM     21  C   UNL     1      -1.914   0.275   0.344  1.00  0.00     0.004 A 
ATOM     22  C   UNL     1      -3.317   2.666   0.534  1.00  0.00     0.000 A 
ATOM     23  C   UNL     1      -3.295   0.267   0.567  1.00  0.00     0.000 A 
ATOM     24  C   UNL     1      -3.999   1.462   0.649  1.00  0.00     0.000 A 
ENDBRANCH  17  19
ENDBRANCH  16  17
ENDBRANCH  14  16
ENDBRANCH  11  14
ENDBRANCH   7  11
ENDBRANCH   3   6
ENDBRANCH   1   2
BRANCH   1  25
ATOM     25  C   UNL     1       5.741  -0.838   5.711  1.00  0.00     0.023 C 
BRANCH  25  26
ATOM     26  C   UNL     1       5.936  -1.604   7.026  1.00  0.00     0.023 C 
BRANCH  26  27
ATOM     27  C   UNL     1       7.298  -1.419   7.693  1.00  0.00     0.116 C 
BRANCH  27  28
ATOM     28  N   UNL     1       7.629  -0.025   7.946  1.00  0.00    -0.352 N 
ATOM     29  C   UNL     1       8.446   0.496   8.920  1.00  0.00     0.251 C 
ATOM     30  H   UNL     1       7.212   0.630   7.341  1.00  0.00     0.163 HD
ATOM     31  O   UNL     1       8.528   1.712   9.060  1.00  0.00    -0.269 OA
BRANCH  29  32
ATOM     32  C   UNL     1       9.181  -0.416   9.822  1.00  0.00     0.039 A 
ATOM     33  C   UNL     1       9.102  -0.204  11.200  1.00  0.00     0.014 A 
ATOM     34  C   UNL     1       9.923  -1.486   9.313  1.00  0.00     0.014 A 
ATOM     35  C   UNL     1       9.712  -1.105  12.075  1.00  0.00     0.010 A 
ATOM     36  C   UNL     1      10.485  -2.413  10.187  1.00  0.00     0.010 A 
ATOM     37  C   UNL     1      10.379  -2.235  11.575  1.00  0.00    -0.014 A 
BRANCH  37  38
ATOM     38  C   UNL     1      10.971  -3.246  12.487  1.00  0.00     0.031 A 
ATOM     39  C   UNL     1      12.461  -3.436  12.532  1.00  0.00     0.074 A 
ATOM     40  C   UNL     1      10.162  -4.042  13.213  1.00  0.00     0.049 A 
ATOM     41  N   UNL     1      13.164  -4.329  13.180  1.00  0.00    -0.248 NA
ATOM     42  C   UNL     1      13.263  -2.516  11.711  1.00  0.00     0.031 C 
ATOM     43  C   UNL     1       8.698  -3.979  13.219  1.00  0.00     0.029 A 
ATOM     44  N   UNL     1      10.453  -5.069  14.074  1.00  0.00    -0.354 N 
ATOM     45  C   UNL     1      14.490  -4.092  12.832  1.00  0.00     0.074 A 
ATOM     46  C   UNL     1      14.483  -3.004  11.877  1.00  0.00     0.031 C 
ATOM     47  C   UNL     1       8.222  -4.920  14.050  1.00  0.00     0.029 A 
ATOM     48  C   UNL     1       9.340  -5.675  14.607  1.00  0.00     0.049 A 
ATOM     49  H   UNL     1      11.373  -5.347  14.289  1.00  0.00     0.167 HD
ATOM     50  C   UNL     1      15.609  -4.713  13.283  1.00  0.00     0.034 A 
ATOM     51  C   UNL     1       9.233  -6.729  15.441  1.00  0.00     0.034 A 
ATOM     52  C   UNL     1      15.598  -5.785  14.248  1.00  0.00     0.049 A 
ATOM     53  C   UNL     1      10.488  -7.401  15.930  1.00  0.00     0.074 A 
ATOM     54  C   UNL     1      16.673  -6.448  14.816  1.00  0.00     0.029 A 
ATOM     55  N   UNL     1      14.452  -6.356  14.787  1.00  0.00    -0.354 N 
ATOM     56  N   UNL     1      11.738  -7.138  15.627  1.00  0.00    -0.248 NA
ATOM     57  C   UNL     1      10.319  -8.505  16.884  1.00  0.00     0.031 C 
ATOM     58  C   UNL     1      16.176  -7.452  15.657  1.00  0.00     0.029 A 
ATOM     59  C   UNL     1      14.793  -7.376  15.663  1.00  0.00     0.049 A 
ATOM     60  H   UNL     1      13.531  -6.077  14.578  1.00  0.00     0.167 HD
ATOM     61  C   UNL     1      12.504  -8.028  16.373  1.00  0.00     0.074 A 
ATOM     62  C   UNL     1      11.576  -8.826  17.148  1.00  0.00     0.031 C 
ATOM     63  C   UNL     1      13.853  -8.169  16.419  1.00  0.00     0.034 A 
BRANCH  50  64
ATOM     64  C   UNL     1      16.928  -4.257  12.709  1.00  0.00     0.023 A 
ATOM     65  C   UNL     1      17.407  -2.950  12.912  1.00  0.00     0.031 A 
ATOM     66  C   UNL     1      17.697  -5.123  11.913  1.00  0.00     0.131 A 
ATOM     67  C   UNL     1      18.573  -2.522  12.261  1.00  0.00     0.055 A 
ATOM     68  C   UNL     1      18.900  -4.715  11.333  1.00  0.00     0.041 A 
ATOM     69  F   UNL     1      17.282  -6.376  11.668  1.00  0.00    -0.206 F 
ATOM     70  C   UNL     1      19.336  -3.403  11.491  1.00  0.00     0.022 A 
BRANCH  67  71
ATOM     71  S   UNL     1      18.995  -0.759  12.314  1.00  0.00     0.124 S 
ATOM     72  O   UNL     1      17.818  -0.156  11.693  1.00  0.00    -0.237 OA
ATOM     73  O   UNL     1      19.159  -0.517  13.743  1.00  0.00    -0.237 OA
ATOM     74  O   UNL     1      20.220  -0.676  11.522  1.00  0.00    -0.744 OA
ENDBRANCH  67  71
ENDBRANCH  50  64
BRANCH  51  75
ATOM     75  C   UNL     1       7.893  -7.222  15.862  1.00  0.00     0.023 A 
ATOM     76  C   UNL     1       7.465  -7.101  17.193  1.00  0.00     0.031 A 
ATOM     77  C   UNL     1       7.034  -7.852  14.944  1.00  0.00     0.131 A 
ATOM     78  C   UNL     1       6.230  -7.642  17.581  1.00  0.00     0.055 A 
ATOM     79  C   UNL     1       5.787  -8.350  15.326  1.00  0.00     0.041 A 
ATOM     80  F   UNL     1       7.393  -7.982  13.657  1.00  0.00    -0.206 F 
ATOM     81  C   UNL     1       5.384  -8.257  16.655  1.00  0.00     0.022 A 
BRANCH  78  82
ATOM     82  S   UNL     1       5.773  -7.588  19.335  1.00  0.00     0.124 S 
ATOM     83  O   UNL     1       6.879  -8.310  19.954  1.00  0.00    -0.237 OA
ATOM     84  O   UNL     1       5.721  -6.152  19.590  1.00  0.00    -0.237 OA
ATOM     85  O   UNL     1       4.482  -8.272  19.372  1.00  0.00    -0.744 OA
ENDBRANCH  78  82
ENDBRANCH  51  75
BRANCH  63  86
ATOM     86  C   UNL     1      14.396  -9.200  17.375  1.00  0.00     0.023 A 
ATOM     87  C   UNL     1      14.224 -10.577  17.152  1.00  0.00     0.031 A 
ATOM     88  C   UNL     1      15.079  -8.794  18.534  1.00  0.00     0.131 A 
ATOM     89  C   UNL     1      14.687 -11.500  18.102  1.00  0.00     0.055 A 
ATOM     90  C   UNL     1      15.582  -9.718  19.451  1.00  0.00     0.041 A 
ATOM     91  F   UNL     1      15.268  -7.490  18.794  1.00  0.00    -0.206 F 
ATOM     92  C   UNL     1      15.376 -11.079  19.243  1.00  0.00     0.022 A 
BRANCH  89  93
ATOM     93  S   UNL     1      14.308 -13.258  17.866  1.00  0.00     0.124 S 
ATOM     94  O   UNL     1      12.849 -13.254  17.844  1.00  0.00    -0.237 OA
ATOM     95  O   UNL     1      14.963 -13.551  16.595  1.00  0.00    -0.237 OA
ATOM     96  O   UNL     1      14.909 -13.898  19.034  1.00  0.00    -0.744 OA
ENDBRANCH  89  93
ENDBRANCH  63  86
ENDBRANCH  37  38
ENDBRANCH  29  32
ENDBRANCH  27  28
ENDBRANCH  26  27
ENDBRANCH  25  26
ENDBRANCH   1  25
TORSDOF 19
