REMARK SMILES C[C@H]1[C@H](C(=O)NCCCCNC(=O)c2ccc(-c3c4nc(c(-c5cc(S(=O)(=O)[O-])ccc5F)c5ccc([nH]5)c(-c5cc(S(=O)(=O)[O-])ccc5F)c5nc(c(-c6cc(S(=O)(=O)[O-])ccc6F)c6ccc3[nH]6)C=C5)C=C4)cc2)CCN1C(=O)N(C)CCS(C)(=O)=O
REMARK SMILES IDX 7 1 6 2 4 3 5 4 3 6 1 7 2 8 79 9 77 10 78 11 80 12 81 13
REMARK SMILES IDX 82 14 83 15 84 16 85 17 86 18 87 19 88 20 89 21 8 22 9 23
REMARK SMILES IDX 10 24 11 25 12 26 13 28 14 29 15 30 76 31 16 32 75 33 17 34
REMARK SMILES IDX 18 35 19 36 69 37 20 38 74 39 68 40 70 41 21 42 73 43 67 44
REMARK SMILES IDX 66 45 22 47 54 48 34 49 53 50 35 51 38 52 52 53 71 54 36 55
REMARK SMILES IDX 37 56 51 58 72 59 39 60 23 61 24 62 32 63 25 64 31 65 33 66
REMARK SMILES IDX 30 67 26 68 27 69 28 70 29 71 55 72 56 73 64 74 57 75 63 76
REMARK SMILES IDX 65 77 62 78 58 79 59 80 60 81 61 82 40 83 41 84 49 85 42 86
REMARK SMILES IDX 48 87 50 88 47 89 43 90 44 91 45 92 46 93
REMARK H PARENT 6 5 11 27 70 46 38 57
REMARK Flexibility Score: inf
ROOT
ATOM      1  C   UNL     1      -0.968   0.501   2.863  1.00  0.00     0.116 C 
ENDROOT
BRANCH   1   2
ATOM      2  N   UNL     1      -0.586   1.824   2.391  1.00  0.00    -0.356 N 
ATOM      3  C   UNL     1      -0.206   2.257   1.158  1.00  0.00     0.225 C 
ATOM      4  O   UNL     1       0.074   3.453   1.030  1.00  0.00    -0.275 OA
ATOM      5  H   UNL     1      -0.605   2.525   3.082  1.00  0.00     0.163 HD
BRANCH   3   6
ATOM      6  C   UNL     1      -0.089   1.323  -0.037  1.00  0.00     0.102 C 
ATOM      7  C   UNL     1       2.130   0.387  -0.787  1.00  0.00     0.032 C 
ATOM      8  C   UNL     1       0.969   0.233   0.200  1.00  0.00     0.096 C 
ATOM      9  N   UNL     1       0.293  -1.043  -0.009  1.00  0.00    -0.321 N 
ATOM     10  C   UNL     1      -1.386   0.615  -0.405  1.00  0.00     0.037 C 
ATOM     11  C   UNL     1      -0.986  -0.824  -0.673  1.00  0.00     0.122 C 
BRANCH   9  12
ATOM     12  C   UNL     1       0.664  -2.341   0.201  1.00  0.00     0.320 C 
ATOM     13  O   UNL     1       0.052  -3.227  -0.411  1.00  0.00    -0.248 OA
BRANCH  12  14
ATOM     14  N   UNL     1       1.639  -2.721   1.100  1.00  0.00    -0.327 N 
ATOM     15  C   UNL     1       2.644  -1.934   1.805  1.00  0.00     0.148 C 
BRANCH  14  16
ATOM     16  C   UNL     1       1.683  -4.156   1.430  1.00  0.00     0.137 C 
BRANCH  16  17
ATOM     17  C   UNL     1       0.799  -4.579   2.598  1.00  0.00     0.158 C 
BRANCH  17  18
ATOM     18  S   UNL     1      -0.941  -4.793   2.271  1.00  0.00     0.149 S 
ATOM     19  C   UNL     1      -1.072  -5.815   0.815  1.00  0.00     0.158 C 
ATOM     20  O   UNL     1      -1.458  -5.605   3.364  1.00  0.00    -0.229 OA
ATOM     21  O   UNL     1      -1.534  -3.497   2.018  1.00  0.00    -0.229 OA
ENDBRANCH  17  18
ENDBRANCH  16  17
ENDBRANCH  14  16
ENDBRANCH  12  14
ENDBRANCH   9  12
ENDBRANCH   3   6
ENDBRANCH   1   2
BRANCH   1  22
ATOM     22  C   UNL     1       0.017  -0.056   3.886  1.00  0.00     0.023 C 
BRANCH  22  23
ATOM     23  C   UNL     1       0.047   0.691   5.217  1.00  0.00     0.023 C 
BRANCH  23  24
ATOM     24  C   UNL     1      -1.302   0.826   5.912  1.00  0.00     0.116 C 
BRANCH  24  25
ATOM     25  N   UNL     1      -1.923  -0.458   6.200  1.00  0.00    -0.352 N 
ATOM     26  C   UNL     1      -2.485  -0.897   7.375  1.00  0.00     0.251 C 
ATOM     27  H   UNL     1      -1.944  -1.098   5.452  1.00  0.00     0.163 HD
ATOM     28  O   UNL     1      -2.826  -2.071   7.493  1.00  0.00    -0.269 OA
BRANCH  26  29
ATOM     29  C   UNL     1      -2.636   0.041   8.508  1.00  0.00     0.039 A 
ATOM     30  C   UNL     1      -2.243  -0.371   9.782  1.00  0.00     0.014 A 
ATOM     31  C   UNL     1      -3.129   1.333   8.307  1.00  0.00     0.014 A 
ATOM     32  C   UNL     1      -2.272   0.539  10.841  1.00  0.00     0.010 A 
ATOM     33  C   UNL     1      -3.076   2.261   9.343  1.00  0.00     0.010 A 
ATOM     34  C   UNL     1      -2.646   1.875  10.621  1.00  0.00    -0.014 A 
BRANCH  34  35
ATOM     35  C   UNL     1      -2.588   2.880  11.716  1.00  0.00     0.031 A 
ATOM     36  C   UNL     1      -3.845   3.567  12.178  1.00  0.00     0.074 A 
ATOM     37  C   UNL     1      -1.397   3.214  12.253  1.00  0.00     0.049 A 
ATOM     38  N   UNL     1      -3.990   4.513  13.069  1.00  0.00    -0.248 NA
ATOM     39  C   UNL     1      -5.098   3.154  11.529  1.00  0.00     0.031 C 
ATOM     40  C   UNL     1      -0.104   2.647  11.860  1.00  0.00     0.029 A 
ATOM     41  N   UNL     1      -1.075   4.113  13.239  1.00  0.00    -0.354 N 
ATOM     42  C   UNL     1      -5.348   4.815  13.083  1.00  0.00     0.074 A 
ATOM     43  C   UNL     1      -5.968   3.999  12.061  1.00  0.00     0.031 C 
ATOM     44  C   UNL     1       0.862   3.186  12.619  1.00  0.00     0.029 A 
ATOM     45  C   UNL     1       0.272   4.176  13.514  1.00  0.00     0.049 A 
ATOM     46  H   UNL     1      -1.746   4.661  13.707  1.00  0.00     0.167 HD
ATOM     47  C   UNL     1      -6.018   5.675  13.890  1.00  0.00     0.034 A 
ATOM     48  C   UNL     1       0.957   4.953  14.378  1.00  0.00     0.034 A 
ATOM     49  C   UNL     1      -5.384   6.476  14.909  1.00  0.00     0.049 A 
ATOM     50  C   UNL     1       0.194   5.931  15.237  1.00  0.00     0.074 A 
ATOM     51  C   UNL     1      -5.973   7.339  15.816  1.00  0.00     0.029 A 
ATOM     52  N   UNL     1      -4.016   6.523  15.149  1.00  0.00    -0.354 N 
ATOM     53  N   UNL     1      -1.098   6.165  15.274  1.00  0.00    -0.248 NA
ATOM     54  C   UNL     1       0.980   6.740  16.176  1.00  0.00     0.031 C 
ATOM     55  C   UNL     1      -4.959   7.967  16.547  1.00  0.00     0.029 A 
ATOM     56  C   UNL     1      -3.741   7.429  16.163  1.00  0.00     0.049 A 
ATOM     57  H   UNL     1      -3.340   5.991  14.670  1.00  0.00     0.167 HD
ATOM     58  C   UNL     1      -1.280   7.126  16.266  1.00  0.00     0.074 A 
ATOM     59  C   UNL     1       0.032   7.412  16.811  1.00  0.00     0.031 C 
ATOM     60  C   UNL     1      -2.427   7.715  16.691  1.00  0.00     0.034 A 
BRANCH  47  61
ATOM     61  C   UNL     1      -7.509   5.808  13.681  1.00  0.00     0.023 A 
ATOM     62  C   UNL     1      -8.381   4.718  13.855  1.00  0.00     0.031 A 
ATOM     63  C   UNL     1      -8.066   7.036  13.281  1.00  0.00     0.131 A 
ATOM     64  C   UNL     1      -9.745   4.856  13.555  1.00  0.00     0.055 A 
ATOM     65  C   UNL     1      -9.438   7.189  13.069  1.00  0.00     0.041 A 
ATOM     66  F   UNL     1      -7.284   8.107  13.076  1.00  0.00    -0.206 F 
ATOM     67  C   UNL     1     -10.284   6.091  13.190  1.00  0.00     0.022 A 
BRANCH  64  68
ATOM     68  S   UNL     1     -10.774   3.363  13.500  1.00  0.00     0.124 S 
ATOM     69  O   UNL     1     -10.079   2.563  12.494  1.00  0.00    -0.237 OA
ATOM     70  O   UNL     1     -10.694   2.875  14.872  1.00  0.00    -0.237 OA
ATOM     71  O   UNL     1     -12.084   3.865  13.091  1.00  0.00    -0.744 OA
ENDBRANCH  64  68
ENDBRANCH  47  61
BRANCH  48  72
ATOM     72  C   UNL     1       2.443   4.856  14.470  1.00  0.00     0.023 A 
ATOM     73  C   UNL     1       3.072   4.450  15.659  1.00  0.00     0.031 A 
ATOM     74  C   UNL     1       3.262   5.218  13.384  1.00  0.00     0.131 A 
ATOM     75  C   UNL     1       4.472   4.465  15.751  1.00  0.00     0.055 A 
ATOM     76  C   UNL     1       4.655   5.172  13.462  1.00  0.00     0.041 A 
ATOM     77  F   UNL     1       2.716   5.612  12.223  1.00  0.00    -0.206 F 
ATOM     78  C   UNL     1       5.268   4.808  14.656  1.00  0.00     0.022 A 
BRANCH  75  79
ATOM     79  S   UNL     1       5.240   4.123  17.359  1.00  0.00     0.124 S 
ATOM     80  O   UNL     1       4.636   5.150  18.200  1.00  0.00    -0.237 OA
ATOM     81  O   UNL     1       4.814   2.751  17.612  1.00  0.00    -0.237 OA
ATOM     82  O   UNL     1       6.668   4.292  17.096  1.00  0.00    -0.744 OA
ENDBRANCH  75  79
ENDBRANCH  48  72
BRANCH  60  83
ATOM     83  C   UNL     1      -2.315   8.694  17.836  1.00  0.00     0.023 A 
ATOM     84  C   UNL     1      -1.621   9.910  17.710  1.00  0.00     0.031 A 
ATOM     85  C   UNL     1      -2.906   8.398  19.078  1.00  0.00     0.131 A 
ATOM     86  C   UNL     1      -1.484  10.756  18.821  1.00  0.00     0.055 A 
ATOM     87  C   UNL     1      -2.826   9.276  20.160  1.00  0.00     0.041 A 
ATOM     88  F   UNL     1      -3.577   7.249  19.260  1.00  0.00    -0.206 F 
ATOM     89  C   UNL     1      -2.099  10.456  20.039  1.00  0.00     0.022 A 
BRANCH  86  90
ATOM     90  S   UNL     1      -0.403  12.206  18.684  1.00  0.00     0.124 S 
ATOM     91  O   UNL     1       0.874  11.599  18.320  1.00  0.00    -0.237 OA
ATOM     92  O   UNL     1      -1.058  12.987  17.640  1.00  0.00    -0.237 OA
ATOM     93  O   UNL     1      -0.450  12.797  20.020  1.00  0.00    -0.744 OA
ENDBRANCH  86  90
ENDBRANCH  60  83
ENDBRANCH  34  35
ENDBRANCH  26  29
ENDBRANCH  24  25
ENDBRANCH  23  24
ENDBRANCH  22  23
ENDBRANCH   1  22
TORSDOF 19
