REMARK SMILES O=C(NCCCCNC(=O)c1cc(Cl)cc(S(=O)(=O)N[C@@H]2CONC2=O)c1F)c1ccc(-c2c3nc(c(-c4cc(S(=O)(=O)[O-])ccc4F)c4ccc([nH]4)c(-c4cc(S(=O)(=O)[O-])ccc4F)c4nc(c(-c5cc(S(=O)(=O)[O-])ccc5F)c5ccc2[nH]5)C=C4)C=C3)cc1
REMARK SMILES IDX 5 1 4 2 3 3 1 4 2 5 29 7 30 8 91 9 31 10 90 11 32 12 33 13
REMARK SMILES IDX 34 14 84 15 35 16 89 17 83 18 85 19 36 20 88 21 82 22 81 23
REMARK SMILES IDX 37 25 69 26 49 27 68 28 50 29 53 30 67 31 86 32 51 33 52 34
REMARK SMILES IDX 66 36 87 37 54 38 38 39 39 40 47 41 40 42 46 43 48 44 45 45
REMARK SMILES IDX 41 46 42 47 43 48 44 49 70 50 71 51 79 52 72 53 78 54 80 55
REMARK SMILES IDX 77 56 73 57 74 58 75 59 76 60 55 61 56 62 64 63 57 64 63 65
REMARK SMILES IDX 65 66 62 67 58 68 59 69 60 70 61 71 6 72 7 73 8 74 9 75
REMARK SMILES IDX 10 77 11 78 12 79 27 80 13 81 16 82 28 83 14 84 15 85 17 86
REMARK SMILES IDX 18 87 19 88 20 89 21 91 22 92 25 93 23 94 24 95 26 96
REMARK H PARENT 3 6 85 24 53 35 8 76 20 90 24 97
REMARK Flexibility Score: inf
ROOT
ATOM      1  C   UNL     1       4.941   2.132   1.271  1.00  0.00     0.023 C 
ENDROOT
BRANCH   1   2
ATOM      2  C   UNL     1       4.570   0.685   0.982  1.00  0.00     0.116 C 
BRANCH   2   3
ATOM      3  N   UNL     1       3.130   0.464   0.953  1.00  0.00    -0.352 N 
ATOM      4  O   UNL     1       1.120   0.052   0.009  1.00  0.00    -0.269 OA
ATOM      5  C   UNL     1       2.342   0.041  -0.093  1.00  0.00     0.251 C 
ATOM      6  H   UNL     1       2.655   0.641   1.797  1.00  0.00     0.163 HD
BRANCH   5   7
ATOM      7  C   UNL     1       2.990  -0.407  -1.342  1.00  0.00     0.039 A 
ATOM      8  C   UNL     1       4.069  -1.292  -1.287  1.00  0.00     0.014 A 
ATOM      9  C   UNL     1       2.541   0.086  -2.569  1.00  0.00     0.014 A 
ATOM     10  C   UNL     1       4.799  -1.557  -2.437  1.00  0.00     0.010 A 
ATOM     11  C   UNL     1       3.214  -0.271  -3.741  1.00  0.00     0.010 A 
ATOM     12  C   UNL     1       4.362  -1.077  -3.681  1.00  0.00    -0.014 A 
BRANCH  12  13
ATOM     13  C   UNL     1       5.068  -1.515  -4.912  1.00  0.00     0.031 A 
ATOM     14  C   UNL     1       5.765  -0.531  -5.808  1.00  0.00     0.074 A 
ATOM     15  C   UNL     1       5.075  -2.831  -5.203  1.00  0.00     0.049 A 
ATOM     16  N   UNL     1       6.392  -0.750  -6.935  1.00  0.00    -0.248 NA
ATOM     17  C   UNL     1       5.750   0.879  -5.393  1.00  0.00     0.031 C 
ATOM     18  C   UNL     1       4.431  -3.873  -4.396  1.00  0.00     0.029 A 
ATOM     19  N   UNL     1       5.641  -3.524  -6.241  1.00  0.00    -0.354 N 
ATOM     20  C   UNL     1       6.830   0.494  -7.379  1.00  0.00     0.074 A 
ATOM     21  C   UNL     1       6.373   1.466  -6.407  1.00  0.00     0.031 C 
ATOM     22  C   UNL     1       4.669  -5.070  -4.947  1.00  0.00     0.029 A 
ATOM     23  C   UNL     1       5.398  -4.877  -6.194  1.00  0.00     0.049 A 
ATOM     24  H   UNL     1       6.170  -3.095  -6.952  1.00  0.00     0.167 HD
ATOM     25  C   UNL     1       7.545   0.787  -8.494  1.00  0.00     0.034 A 
ATOM     26  C   UNL     1       5.685  -5.853  -7.076  1.00  0.00     0.034 A 
ATOM     27  C   UNL     1       7.987  -0.206  -9.446  1.00  0.00     0.049 A 
ATOM     28  C   UNL     1       6.418  -5.487  -8.337  1.00  0.00     0.074 A 
ATOM     29  C   UNL     1       8.762  -0.024 -10.580  1.00  0.00     0.029 A 
ATOM     30  N   UNL     1       7.680  -1.560  -9.392  1.00  0.00    -0.354 N 
ATOM     31  N   UNL     1       6.857  -4.310  -8.722  1.00  0.00    -0.248 NA
ATOM     32  C   UNL     1       6.695  -6.574  -9.281  1.00  0.00     0.031 C 
ATOM     33  C   UNL     1       8.844  -1.246 -11.256  1.00  0.00     0.029 A 
ATOM     34  C   UNL     1       8.204  -2.213 -10.498  1.00  0.00     0.049 A 
ATOM     35  H   UNL     1       7.165  -1.993  -8.673  1.00  0.00     0.167 HD
ATOM     36  C   UNL     1       7.481  -4.524  -9.946  1.00  0.00     0.074 A 
ATOM     37  C   UNL     1       7.382  -5.943 -10.221  1.00  0.00     0.031 C 
ATOM     38  C   UNL     1       8.084  -3.627 -10.768  1.00  0.00     0.034 A 
BRANCH  25  39
ATOM     39  C   UNL     1       7.847   2.240  -8.780  1.00  0.00     0.023 A 
ATOM     40  C   UNL     1       8.659   3.015  -7.934  1.00  0.00     0.031 A 
ATOM     41  C   UNL     1       7.318   2.857  -9.929  1.00  0.00     0.131 A 
ATOM     42  C   UNL     1       8.871   4.374  -8.220  1.00  0.00     0.055 A 
ATOM     43  C   UNL     1       7.596   4.187 -10.248  1.00  0.00     0.041 A 
ATOM     44  F   UNL     1       6.518   2.174 -10.763  1.00  0.00    -0.206 F 
ATOM     45  C   UNL     1       8.367   4.958  -9.384  1.00  0.00     0.022 A 
BRANCH  42  46
ATOM     46  S   UNL     1       9.704   5.402  -6.978  1.00  0.00     0.124 S 
ATOM     47  O   UNL     1       8.847   5.209  -5.811  1.00  0.00    -0.237 OA
ATOM     48  O   UNL     1      11.028   4.796  -6.905  1.00  0.00    -0.237 OA
ATOM     49  O   UNL     1       9.661   6.743  -7.558  1.00  0.00    -0.744 OA
ENDBRANCH  42  46
ENDBRANCH  25  39
BRANCH  26  50
ATOM     50  C   UNL     1       5.225  -7.249  -6.827  1.00  0.00     0.023 A 
ATOM     51  C   UNL     1       6.141  -8.303  -6.703  1.00  0.00     0.031 A 
ATOM     52  C   UNL     1       3.853  -7.556  -6.750  1.00  0.00     0.131 A 
ATOM     53  C   UNL     1       5.676  -9.619  -6.561  1.00  0.00     0.055 A 
ATOM     54  C   UNL     1       3.397  -8.857  -6.540  1.00  0.00     0.041 A 
ATOM     55  F   UNL     1       2.932  -6.586  -6.862  1.00  0.00    -0.206 F 
ATOM     56  C   UNL     1       4.311  -9.901  -6.461  1.00  0.00     0.022 A 
BRANCH  53  57
ATOM     57  S   UNL     1       6.880 -10.972  -6.623  1.00  0.00     0.124 S 
ATOM     58  O   UNL     1       7.530 -10.731  -7.907  1.00  0.00    -0.237 OA
ATOM     59  O   UNL     1       7.688 -10.712  -5.436  1.00  0.00    -0.237 OA
ATOM     60  O   UNL     1       6.047 -12.171  -6.559  1.00  0.00    -0.744 OA
ENDBRANCH  53  57
ENDBRANCH  26  50
BRANCH  38  61
ATOM     61  C   UNL     1       8.716  -4.171 -12.026  1.00  0.00     0.023 A 
ATOM     62  C   UNL     1       7.944  -4.731 -13.059  1.00  0.00     0.031 A 
ATOM     63  C   UNL     1      10.112  -4.134 -12.188  1.00  0.00     0.131 A 
ATOM     64  C   UNL     1       8.577  -5.277 -14.186  1.00  0.00     0.055 A 
ATOM     65  C   UNL     1      10.731  -4.618 -13.341  1.00  0.00     0.041 A 
ATOM     66  F   UNL     1      10.898  -3.618 -11.229  1.00  0.00    -0.206 F 
ATOM     67  C   UNL     1       9.964  -5.205 -14.342  1.00  0.00     0.022 A 
BRANCH  64  68
ATOM     68  S   UNL     1       7.571  -6.165 -15.406  1.00  0.00     0.124 S 
ATOM     69  O   UNL     1       6.991  -7.234 -14.600  1.00  0.00    -0.237 OA
ATOM     70  O   UNL     1       6.644  -5.133 -15.858  1.00  0.00    -0.237 OA
ATOM     71  O   UNL     1       8.547  -6.600 -16.404  1.00  0.00    -0.744 OA
ENDBRANCH  64  68
ENDBRANCH  38  61
ENDBRANCH  12  13
ENDBRANCH   5   7
ENDBRANCH   2   3
ENDBRANCH   1   2
BRANCH   1  72
ATOM     72  C   UNL     1       4.449   2.662   2.611  1.00  0.00     0.023 C 
BRANCH  72  73
ATOM     73  C   UNL     1       4.831   1.806   3.807  1.00  0.00     0.116 C 
BRANCH  73  74
ATOM     74  N   UNL     1       6.267   1.745   4.031  1.00  0.00    -0.352 N 
ATOM     75  C   UNL     1       6.964   1.954   5.195  1.00  0.00     0.254 C 
ATOM     76  H   UNL     1       6.813   1.525   3.241  1.00  0.00     0.163 HD
ATOM     77  O   UNL     1       8.190   1.957   5.204  1.00  0.00    -0.269 OA
BRANCH  75  78
ATOM     78  C   UNL     1       6.240   2.202   6.453  1.00  0.00     0.078 A 
ATOM     79  C   UNL     1       6.612   3.284   7.253  1.00  0.00     0.037 A 
ATOM     80  C   UNL     1       5.208   1.354   6.850  1.00  0.00     0.156 A 
ATOM     81  C   UNL     1       5.902   3.535   8.425  1.00  0.00     0.043 A 
ATOM     82  C   UNL     1       4.514   1.598   8.022  1.00  0.00     0.120 A 
ATOM     83  F   UNL     1       4.872   0.330   6.058  1.00  0.00    -0.205 F 
ATOM     84  Cl  UNL     1       6.309   4.901   9.387  1.00  0.00    -0.084 Cl
ATOM     85  C   UNL     1       4.851   2.702   8.815  1.00  0.00     0.045 A 
BRANCH  82  86
ATOM     86  S   UNL     1       3.190   0.557   8.531  1.00  0.00     0.244 S 
ATOM     87  O   UNL     1       3.392   0.205   9.920  1.00  0.00    -0.207 OA
ATOM     88  O   UNL     1       1.984   1.230   8.105  1.00  0.00    -0.207 OA
BRANCH  86  89
ATOM     89  N   UNL     1       3.222  -0.858   7.649  1.00  0.00    -0.196 NA
ATOM     90  H   UNL     1       3.077  -0.579   6.679  1.00  0.00     0.142 HD
BRANCH  89  91
ATOM     91  C   UNL     1       4.346  -1.796   7.624  1.00  0.00     0.189 C 
ATOM     92  C   UNL     1       3.879  -3.223   7.885  1.00  0.00     0.224 C 
ATOM     93  C   UNL     1       5.489  -1.708   8.586  1.00  0.00     0.264 C 
ATOM     94  O   UNL     1       5.034  -3.957   8.313  1.00  0.00    -0.271 OA
ATOM     95  N   UNL     1       5.883  -2.986   8.883  1.00  0.00    -0.233 N 
ATOM     96  O   UNL     1       6.055  -0.695   8.967  1.00  0.00    -0.271 OA
ATOM     97  H   UNL     1       6.671  -3.202   9.433  1.00  0.00     0.199 HD
ENDBRANCH  89  91
ENDBRANCH  86  89
ENDBRANCH  82  86
ENDBRANCH  75  78
ENDBRANCH  73  74
ENDBRANCH  72  73
ENDBRANCH   1  72
TORSDOF 17
