REMARK SMILES CCC(C)(C)NC(=O)[C@@H](C)Oc1ccc(C)nc1C(=O)NCCCCNC(=O)c1ccc(-c2c3nc(c(-c4cc(S(=O)(=O)[O-])ccc4F)c4ccc([nH]4)c(-c4cc(S(=O)(=O)[O-])ccc4F)c4nc(c(-c5cc(S(=O)(=O)[O-])ccc5F)c5ccc2[nH]5)C=C4)C=C3)cc1
REMARK SMILES IDX 22 1 21 2 19 3 20 4 18 6 12 7 13 8 14 9 17 10 15 11 16 12
REMARK SMILES IDX 11 13 9 14 10 15 7 16 6 17 8 19 3 20 4 21 5 22 2 23 1 24
REMARK SMILES IDX 23 25 24 26 25 27 26 28 27 29 28 31 29 32 30 33 91 34 31 35
REMARK SMILES IDX 90 36 32 37 33 38 34 39 84 40 35 41 89 42 83 43 85 44 36 45
REMARK SMILES IDX 88 46 82 47 81 48 37 50 69 51 49 52 68 53 50 54 53 55 67 56
REMARK SMILES IDX 86 57 51 58 52 59 66 61 87 62 54 63 38 64 39 65 47 66 40 67
REMARK SMILES IDX 46 68 48 69 45 70 41 71 42 72 43 73 44 74 70 75 71 76 79 77
REMARK SMILES IDX 72 78 78 79 80 80 77 81 73 82 74 83 75 84 76 85 55 86 56 87
REMARK SMILES IDX 64 88 57 89 63 90 65 91 62 92 58 93 59 94 60 95 61 96
REMARK H PARENT 21 5 6 18 26 30 85 49 53 60
REMARK Flexibility Score: inf
ROOT
ATOM      1  C   UNL     1       1.042   1.445   2.594  1.00  0.00     0.116 C 
ENDROOT
BRANCH   1   2
ATOM      2  N   UNL     1      -0.339   1.036   2.546  1.00  0.00    -0.351 N 
ATOM      3  C   UNL     1      -1.048   0.189   1.733  1.00  0.00     0.273 C 
ATOM      4  O   UNL     1      -2.277   0.305   1.843  1.00  0.00    -0.267 OA
ATOM      5  H   UNL     1      -0.891   1.452   3.247  1.00  0.00     0.163 HD
BRANCH   3   6
ATOM      6  C   UNL     1      -0.497  -0.904   0.840  1.00  0.00     0.170 A 
ATOM      7  C   UNL     1       0.781  -1.064   0.289  1.00  0.00     0.151 A 
ATOM      8  C   UNL     1       1.084  -2.332  -0.225  1.00  0.00     0.051 A 
ATOM      9  C   UNL     1       0.068  -3.250  -0.491  1.00  0.00     0.027 A 
ATOM     10  N   UNL     1      -1.493  -1.801   0.544  1.00  0.00    -0.244 NA
ATOM     11  C   UNL     1      -1.228  -2.887  -0.199  1.00  0.00     0.038 A 
ATOM     12  C   UNL     1      -2.406  -3.635  -0.742  1.00  0.00     0.067 C 
BRANCH   7  13
ATOM     13  O   UNL     1       1.586   0.024   0.073  1.00  0.00    -0.478 OA
BRANCH  13  14
ATOM     14  C   UNL     1       2.678  -0.056  -0.841  1.00  0.00     0.259 C 
ATOM     15  C   UNL     1       3.178   1.359  -1.199  1.00  0.00     0.064 C 
BRANCH  14  16
ATOM     16  C   UNL     1       2.672  -0.796  -2.207  1.00  0.00     0.261 C 
ATOM     17  N   UNL     1       1.971  -0.333  -3.281  1.00  0.00    -0.348 N 
ATOM     18  H   UNL     1       2.526   0.106  -3.966  1.00  0.00     0.164 HD
ATOM     19  O   UNL     1       3.490  -1.699  -2.424  1.00  0.00    -0.271 OA
BRANCH  17  20
ATOM     20  C   UNL     1       0.526  -0.371  -3.605  1.00  0.00     0.034 C 
ATOM     21  C   UNL     1       0.133  -1.851  -3.835  1.00  0.00     0.034 C 
ATOM     22  C   UNL     1       0.373   0.360  -4.957  1.00  0.00     0.034 C 
BRANCH  20  23
ATOM     23  C   UNL     1      -0.492   0.244  -2.615  1.00  0.00     0.024 C 
ATOM     24  C   UNL     1      -0.244   1.638  -2.067  1.00  0.00     0.006 C 
ENDBRANCH  20  23
ENDBRANCH  17  20
ENDBRANCH  14  16
ENDBRANCH  13  14
ENDBRANCH   7  13
ENDBRANCH   3   6
ENDBRANCH   1   2
BRANCH   1  25
ATOM     25  C   UNL     1       1.233   2.641   1.661  1.00  0.00     0.023 C 
BRANCH  25  26
ATOM     26  C   UNL     1       1.366   4.003   2.336  1.00  0.00     0.023 C 
BRANCH  26  27
ATOM     27  C   UNL     1       2.619   4.146   3.188  1.00  0.00     0.116 C 
BRANCH  27  28
ATOM     28  N   UNL     1       3.869   3.919   2.472  1.00  0.00    -0.352 N 
ATOM     29  C   UNL     1       5.136   4.334   2.834  1.00  0.00     0.251 C 
ATOM     30  H   UNL     1       3.802   3.410   1.632  1.00  0.00     0.163 HD
ATOM     31  O   UNL     1       6.091   4.130   2.106  1.00  0.00    -0.269 OA
BRANCH  29  32
ATOM     32  C   UNL     1       5.277   5.098   4.094  1.00  0.00     0.039 A 
ATOM     33  C   UNL     1       5.893   6.349   4.061  1.00  0.00     0.014 A 
ATOM     34  C   UNL     1       4.671   4.634   5.261  1.00  0.00     0.014 A 
ATOM     35  C   UNL     1       5.816   7.175   5.184  1.00  0.00     0.010 A 
ATOM     36  C   UNL     1       4.488   5.503   6.326  1.00  0.00     0.010 A 
ATOM     37  C   UNL     1       5.067   6.780   6.305  1.00  0.00    -0.014 A 
BRANCH  37  38
ATOM     38  C   UNL     1       4.896   7.676   7.478  1.00  0.00     0.031 A 
ATOM     39  C   UNL     1       5.383   7.233   8.831  1.00  0.00     0.074 A 
ATOM     40  C   UNL     1       4.249   8.850   7.340  1.00  0.00     0.049 A 
ATOM     41  N   UNL     1       5.296   7.842   9.986  1.00  0.00    -0.248 NA
ATOM     42  C   UNL     1       6.007   5.903   8.901  1.00  0.00     0.031 C 
ATOM     43  C   UNL     1       3.667   9.357   6.095  1.00  0.00     0.029 A 
ATOM     44  N   UNL     1       3.977   9.835   8.255  1.00  0.00    -0.354 N 
ATOM     45  C   UNL     1       5.839   6.962  10.916  1.00  0.00     0.074 A 
ATOM     46  C   UNL     1       6.147   5.740  10.205  1.00  0.00     0.031 C 
ATOM     47  C   UNL     1       3.165  10.583   6.311  1.00  0.00     0.029 A 
ATOM     48  C   UNL     1       3.349  10.933   7.715  1.00  0.00     0.049 A 
ATOM     49  H   UNL     1       4.210   9.762   9.209  1.00  0.00     0.167 HD
ATOM     50  C   UNL     1       6.106   7.167  12.230  1.00  0.00     0.034 A 
ATOM     51  C   UNL     1       2.979  12.095   8.288  1.00  0.00     0.034 A 
ATOM     52  C   UNL     1       5.806   8.399  12.915  1.00  0.00     0.049 A 
ATOM     53  C   UNL     1       3.265  12.303   9.754  1.00  0.00     0.074 A 
ATOM     54  C   UNL     1       6.069   8.747  14.228  1.00  0.00     0.029 A 
ATOM     55  N   UNL     1       5.165   9.489  12.337  1.00  0.00    -0.354 N 
ATOM     56  N   UNL     1       3.838  11.488  10.609  1.00  0.00    -0.248 NA
ATOM     57  C   UNL     1       2.864  13.594  10.325  1.00  0.00     0.031 C 
ATOM     58  C   UNL     1       5.535  10.020  14.459  1.00  0.00     0.029 A 
ATOM     59  C   UNL     1       5.003  10.499  13.272  1.00  0.00     0.049 A 
ATOM     60  H   UNL     1       4.870   9.537  11.399  1.00  0.00     0.167 HD
ATOM     61  C   UNL     1       3.899  12.184  11.813  1.00  0.00     0.074 A 
ATOM     62  C   UNL     1       3.311  13.486  11.568  1.00  0.00     0.031 C 
ATOM     63  C   UNL     1       4.403  11.788  13.011  1.00  0.00     0.034 A 
BRANCH  50  64
ATOM     64  C   UNL     1       6.738   6.019  12.986  1.00  0.00     0.023 A 
ATOM     65  C   UNL     1       7.971   5.470  12.586  1.00  0.00     0.031 A 
ATOM     66  C   UNL     1       6.067   5.405  14.057  1.00  0.00     0.131 A 
ATOM     67  C   UNL     1       8.428   4.276  13.161  1.00  0.00     0.055 A 
ATOM     68  C   UNL     1       6.583   4.276  14.698  1.00  0.00     0.041 A 
ATOM     69  F   UNL     1       4.879   5.867  14.477  1.00  0.00    -0.206 F 
ATOM     70  C   UNL     1       7.757   3.688  14.234  1.00  0.00     0.022 A 
BRANCH  67  71
ATOM     71  S   UNL     1       9.788   3.394  12.343  1.00  0.00     0.124 S 
ATOM     72  O   UNL     1       9.247   3.201  10.999  1.00  0.00    -0.237 OA
ATOM     73  O   UNL     1      10.892   4.340  12.459  1.00  0.00    -0.237 OA
ATOM     74  O   UNL     1       9.926   2.171  13.131  1.00  0.00    -0.744 OA
ENDBRANCH  67  71
ENDBRANCH  50  64
BRANCH  51  75
ATOM     75  C   UNL     1       2.341  13.168   7.474  1.00  0.00     0.023 A 
ATOM     76  C   UNL     1       3.010  14.379   7.237  1.00  0.00     0.031 A 
ATOM     77  C   UNL     1       1.051  13.010   6.939  1.00  0.00     0.131 A 
ATOM     78  C   UNL     1       2.374  15.401   6.516  1.00  0.00     0.055 A 
ATOM     79  C   UNL     1       0.440  14.013   6.184  1.00  0.00     0.041 A 
ATOM     80  F   UNL     1       0.373  11.867   7.128  1.00  0.00    -0.206 F 
ATOM     81  C   UNL     1       1.098  15.222   5.978  1.00  0.00     0.022 A 
BRANCH  78  82
ATOM     82  S   UNL     1       3.221  16.996   6.339  1.00  0.00     0.124 S 
ATOM     83  O   UNL     1       3.375  17.406   7.730  1.00  0.00    -0.237 OA
ATOM     84  O   UNL     1       4.444  16.615   5.642  1.00  0.00    -0.237 OA
ATOM     85  O   UNL     1       2.282  17.794   5.553  1.00  0.00    -0.744 OA
ENDBRANCH  78  82
ENDBRANCH  51  75
BRANCH  63  86
ATOM     86  C   UNL     1       4.380  12.799  14.130  1.00  0.00     0.023 A 
ATOM     87  C   UNL     1       3.176  13.241  14.704  1.00  0.00     0.031 A 
ATOM     88  C   UNL     1       5.585  13.333  14.621  1.00  0.00     0.131 A 
ATOM     89  C   UNL     1       3.200  14.230  15.699  1.00  0.00     0.055 A 
ATOM     90  C   UNL     1       5.605  14.271  15.652  1.00  0.00     0.041 A 
ATOM     91  F   UNL     1       6.763  12.946  14.107  1.00  0.00    -0.206 F 
ATOM     92  C   UNL     1       4.407  14.735  16.189  1.00  0.00     0.022 A 
BRANCH  89  93
ATOM     93  S   UNL     1       1.626  14.914  16.285  1.00  0.00     0.124 S 
ATOM     94  O   UNL     1       1.045  15.437  15.052  1.00  0.00    -0.237 OA
ATOM     95  O   UNL     1       0.967  13.742  16.853  1.00  0.00    -0.237 OA
ATOM     96  O   UNL     1       2.032  15.928  17.256  1.00  0.00    -0.744 OA
ENDBRANCH  89  93
ENDBRANCH  63  86
ENDBRANCH  37  38
ENDBRANCH  29  32
ENDBRANCH  27  28
ENDBRANCH  26  27
ENDBRANCH  25  26
ENDBRANCH   1  25
TORSDOF 19
