REMARK SMILES CC[N@@H+](C)Cc1cc2c(cc1Cl)C=C(C(=O)NCCCCNC(=O)c1ccc(-c3c4nc(c(-c5cc(S(=O)(=O)[O-])ccc5F)c5ccc([nH]5)c(-c5cc(S(=O)(=O)[O-])ccc5F)c5nc(c(-c6cc(S(=O)(=O)[O-])ccc6F)c6ccc3[nH]6)C=C5)C=C4)cc1)[C@@H](C(F)(F)F)O2
REMARK SMILES IDX 19 1 18 2 17 3 15 4 16 5 14 7 6 8 7 9 11 10 8 11 10 12 12 13
REMARK SMILES IDX 9 14 93 15 13 16 88 17 5 18 3 19 4 20 2 22 1 23 89 24 90 25
REMARK SMILES IDX 91 26 92 27 20 28 21 29 22 30 23 31 24 33 25 34 26 35 87 36
REMARK SMILES IDX 27 37 86 38 28 39 29 40 30 41 80 42 31 43 85 44 79 45 81 46
REMARK SMILES IDX 32 47 84 48 78 49 77 50 33 52 65 53 45 54 64 55 46 56 49 57
REMARK SMILES IDX 63 58 82 59 47 60 48 61 62 63 83 64 50 65 34 66 35 67 43 68
REMARK SMILES IDX 36 69 42 70 44 71 41 72 37 73 38 74 39 75 40 76 66 77 67 78
REMARK SMILES IDX 75 79 68 80 74 81 76 82 73 83 69 84 70 85 71 86 72 87 51 88
REMARK SMILES IDX 52 89 60 90 53 91 59 92 61 93 58 94 54 95 55 96 56 97 57 98
REMARK H PARENT 17 6 3 21 22 32 81 51 49 62
REMARK Flexibility Score: inf
ROOT
ATOM      1  C   UNL     1       6.812  -4.694   8.761  1.00  0.00     0.023 C 
ENDROOT
BRANCH   1   2
ATOM      2  C   UNL     1       7.301  -4.968   7.343  1.00  0.00     0.116 C 
BRANCH   2   3
ATOM      3  N   UNL     1       6.383  -5.825   6.617  1.00  0.00    -0.352 N 
ATOM      4  C   UNL     1       5.413  -5.660   5.689  1.00  0.00     0.251 C 
ATOM      5  O   UNL     1       4.836  -6.693   5.335  1.00  0.00    -0.270 OA
ATOM      6  H   UNL     1       6.495  -6.772   6.863  1.00  0.00     0.163 HD
BRANCH   4   7
ATOM      7  C   UNL     1       5.014  -4.356   5.087  1.00  0.00     0.067 C 
ATOM      8  C   UNL     1       2.818  -0.750   2.321  1.00  0.00     0.029 A 
ATOM      9  C   UNL     1       3.506  -0.768   3.551  1.00  0.00     0.058 A 
ATOM     10  C   UNL     1       2.610  -1.978   1.668  1.00  0.00     0.050 A 
ATOM     11  C   UNL     1       3.950  -1.967   4.101  1.00  0.00     0.128 A 
ATOM     12  C   UNL     1       2.981  -3.186   2.272  1.00  0.00     0.033 A 
ATOM     13  Cl  UNL     1       1.972  -2.095   0.067  1.00  0.00    -0.084 Cl
ATOM     14  C   UNL     1       3.649  -3.183   3.492  1.00  0.00     0.019 A 
ATOM     15  O   UNL     1       4.691  -1.903   5.249  1.00  0.00    -0.475 OA
ATOM     16  C   UNL     1       4.054  -4.420   4.145  1.00  0.00     0.025 C 
ATOM     17  C   UNL     1       5.620  -3.020   5.421  1.00  0.00     0.314 C 
BRANCH   8  18
ATOM     18  C   UNL     1       2.380   0.595   1.771  1.00  0.00     0.300 C 
BRANCH  18  19
ATOM     19  N   UNL     1       0.997   1.032   2.044  1.00  0.00    -0.334 N 
ATOM     20  C   UNL     1       0.623   0.915   3.453  1.00  0.00     0.333 C 
ATOM     21  H   UNL     1       1.023   2.023   1.802  1.00  0.00     0.348 HD
BRANCH  19  22
ATOM     22  C   UNL     1      -0.032   0.445   1.182  1.00  0.00     0.258 C 
ATOM     23  C   UNL     1       0.095   0.863  -0.281  1.00  0.00     0.071 C 
ENDBRANCH  19  22
ENDBRANCH  18  19
ENDBRANCH   8  18
BRANCH  17  24
ATOM     24  C   UNL     1       6.925  -2.759   4.636  1.00  0.00     0.429 C 
ATOM     25  F   UNL     1       7.614  -1.730   5.189  1.00  0.00    -0.167 F 
ATOM     26  F   UNL     1       7.755  -3.828   4.643  1.00  0.00    -0.167 F 
ATOM     27  F   UNL     1       6.708  -2.445   3.338  1.00  0.00    -0.167 F 
ENDBRANCH  17  24
ENDBRANCH   4   7
ENDBRANCH   2   3
ENDBRANCH   1   2
BRANCH   1  28
ATOM     28  C   UNL     1       7.127  -5.810   9.758  1.00  0.00     0.023 C 
BRANCH  28  29
ATOM     29  C   UNL     1       8.595  -6.220   9.833  1.00  0.00     0.116 C 
BRANCH  29  30
ATOM     30  N   UNL     1       9.518  -5.106  10.006  1.00  0.00    -0.352 N 
ATOM     31  C   UNL     1      10.761  -5.122  10.608  1.00  0.00     0.251 C 
ATOM     32  H   UNL     1       9.219  -4.237   9.652  1.00  0.00     0.163 HD
ATOM     33  O   UNL     1      11.402  -4.097  10.745  1.00  0.00    -0.269 OA
BRANCH  31  34
ATOM     34  C   UNL     1      11.255  -6.414  11.129  1.00  0.00     0.039 A 
ATOM     35  C   UNL     1      11.265  -7.537  10.302  1.00  0.00     0.014 A 
ATOM     36  C   UNL     1      11.578  -6.519  12.483  1.00  0.00     0.014 A 
ATOM     37  C   UNL     1      11.413  -8.794  10.869  1.00  0.00     0.010 A 
ATOM     38  C   UNL     1      11.815  -7.780  13.034  1.00  0.00     0.010 A 
ATOM     39  C   UNL     1      11.672  -8.932  12.245  1.00  0.00    -0.014 A 
BRANCH  39  40
ATOM     40  C   UNL     1      11.780 -10.295  12.825  1.00  0.00     0.031 A 
ATOM     41  C   UNL     1      10.770 -10.793  13.824  1.00  0.00     0.074 A 
ATOM     42  C   UNL     1      12.757 -11.110  12.384  1.00  0.00     0.049 A 
ATOM     43  N   UNL     1      10.678 -11.975  14.377  1.00  0.00    -0.248 NA
ATOM     44  C   UNL     1       9.732  -9.847  14.265  1.00  0.00     0.031 C 
ATOM     45  C   UNL     1      13.782 -10.727  11.414  1.00  0.00     0.029 A 
ATOM     46  N   UNL     1      13.031 -12.425  12.659  1.00  0.00    -0.354 N 
ATOM     47  C   UNL     1       9.589 -11.912  15.239  1.00  0.00     0.074 A 
ATOM     48  C   UNL     1       9.071 -10.564  15.163  1.00  0.00     0.031 C 
ATOM     49  C   UNL     1      14.530 -11.799  11.121  1.00  0.00     0.029 A 
ATOM     50  C   UNL     1      14.088 -12.927  11.936  1.00  0.00     0.049 A 
ATOM     51  H   UNL     1      12.520 -12.959  13.310  1.00  0.00     0.167 HD
ATOM     52  C   UNL     1       9.063 -12.894  16.010  1.00  0.00     0.034 A 
ATOM     53  C   UNL     1      14.646 -14.154  11.930  1.00  0.00     0.034 A 
ATOM     54  C   UNL     1       9.579 -14.239  16.056  1.00  0.00     0.049 A 
ATOM     55  C   UNL     1      14.055 -15.222  12.811  1.00  0.00     0.074 A 
ATOM     56  C   UNL     1       9.098 -15.314  16.784  1.00  0.00     0.029 A 
ATOM     57  N   UNL     1      10.681 -14.699  15.348  1.00  0.00    -0.354 N 
ATOM     58  N   UNL     1      13.002 -15.155  13.591  1.00  0.00    -0.248 NA
ATOM     59  C   UNL     1      14.725 -16.529  12.818  1.00  0.00     0.031 C 
ATOM     60  C   UNL     1       9.939 -16.405  16.558  1.00  0.00     0.029 A 
ATOM     61  C   UNL     1      10.909 -16.033  15.641  1.00  0.00     0.049 A 
ATOM     62  H   UNL     1      11.220 -14.156  14.728  1.00  0.00     0.167 HD
ATOM     63  C   UNL     1      12.879 -16.410  14.178  1.00  0.00     0.074 A 
ATOM     64  C   UNL     1      13.945 -17.227  13.634  1.00  0.00     0.031 C 
ATOM     65  C   UNL     1      11.974 -16.840  15.092  1.00  0.00     0.034 A 
BRANCH  52  66
ATOM     66  C   UNL     1       7.860 -12.579  16.865  1.00  0.00     0.023 A 
ATOM     67  C   UNL     1       7.954 -12.649  18.268  1.00  0.00     0.031 A 
ATOM     68  C   UNL     1       6.599 -12.334  16.294  1.00  0.00     0.131 A 
ATOM     69  C   UNL     1       6.801 -12.504  19.051  1.00  0.00     0.055 A 
ATOM     70  C   UNL     1       5.459 -12.156  17.081  1.00  0.00     0.041 A 
ATOM     71  F   UNL     1       6.458 -12.256  14.961  1.00  0.00    -0.206 F 
ATOM     72  C   UNL     1       5.556 -12.253  18.465  1.00  0.00     0.022 A 
BRANCH  69  73
ATOM     73  S   UNL     1       6.859 -12.694  20.854  1.00  0.00     0.124 S 
ATOM     74  O   UNL     1       6.377 -11.390  21.307  1.00  0.00    -0.237 OA
ATOM     75  O   UNL     1       5.941 -13.808  21.074  1.00  0.00    -0.237 OA
ATOM     76  O   UNL     1       8.264 -12.967  21.134  1.00  0.00    -0.744 OA
ENDBRANCH  69  73
ENDBRANCH  52  66
BRANCH  53  77
ATOM     77  C   UNL     1      15.795 -14.420  11.016  1.00  0.00     0.023 A 
ATOM     78  C   UNL     1      16.992 -13.688  11.132  1.00  0.00     0.031 A 
ATOM     79  C   UNL     1      15.664 -15.307   9.936  1.00  0.00     0.131 A 
ATOM     80  C   UNL     1      17.971 -13.792  10.136  1.00  0.00     0.055 A 
ATOM     81  C   UNL     1      16.677 -15.465   8.988  1.00  0.00     0.041 A 
ATOM     82  F   UNL     1      14.537 -16.017   9.777  1.00  0.00    -0.206 F 
ATOM     83  C   UNL     1      17.828 -14.688   9.073  1.00  0.00     0.022 A 
BRANCH  80  84
ATOM     84  S   UNL     1      19.382 -12.651  10.103  1.00  0.00     0.124 S 
ATOM     85  O   UNL     1      20.513 -13.562  10.250  1.00  0.00    -0.237 OA
ATOM     86  O   UNL     1      19.236 -12.033   8.787  1.00  0.00    -0.237 OA
ATOM     87  O   UNL     1      19.134 -11.763  11.234  1.00  0.00    -0.744 OA
ENDBRANCH  80  84
ENDBRANCH  53  77
BRANCH  65  88
ATOM     88  C   UNL     1      12.086 -18.258  15.597  1.00  0.00     0.023 A 
ATOM     89  C   UNL     1      11.052 -19.180  15.351  1.00  0.00     0.031 A 
ATOM     90  C   UNL     1      13.141 -18.647  16.440  1.00  0.00     0.131 A 
ATOM     91  C   UNL     1      11.076 -20.434  15.973  1.00  0.00     0.055 A 
ATOM     92  C   UNL     1      13.183 -19.914  17.023  1.00  0.00     0.041 A 
ATOM     93  F   UNL     1      14.145 -17.798  16.711  1.00  0.00    -0.206 F 
ATOM     94  C   UNL     1      12.140 -20.809  16.802  1.00  0.00     0.022 A 
BRANCH  91  95
ATOM     95  S   UNL     1       9.690 -21.592  15.802  1.00  0.00     0.124 S 
ATOM     96  O   UNL     1      10.333 -22.739  15.165  1.00  0.00    -0.237 OA
ATOM     97  O   UNL     1       9.285 -21.795  17.190  1.00  0.00    -0.237 OA
ATOM     98  O   UNL     1       8.732 -20.874  14.967  1.00  0.00    -0.744 OA
ENDBRANCH  91  95
ENDBRANCH  65  88
ENDBRANCH  39  40
ENDBRANCH  31  34
ENDBRANCH  29  30
ENDBRANCH  28  29
ENDBRANCH   1  28
TORSDOF 18
