REMARK SMILES CC(C)CCn1nc(C(=O)NCCCCNC(=O)c2ccc(-c3c4nc(c(-c5cc(S(=O)(=O)[O-])ccc5F)c5ccc([nH]5)c(-c5cc(S(=O)(=O)[O-])ccc5F)c5nc(c(-c6cc(S(=O)(=O)[O-])ccc6F)c6ccc3[nH]6)C=C5)C=C4)cc2)c2c1CCN(C(=O)[C@@H]1CCc3nn(C)c(=O)n3C1)C2
REMARK SMILES IDX 13 1 12 2 11 3 9 4 10 5 8 7 6 8 7 9 83 10 82 11 84 12 100 13
REMARK SMILES IDX 85 14 86 15 5 16 4 17 2 18 1 19 3 20 87 21 88 22 89 23 90 24
REMARK SMILES IDX 99 25 91 26 98 27 92 28 96 29 93 30 94 31 97 32 95 33 14 34
REMARK SMILES IDX 15 35 16 36 17 37 18 39 19 40 20 41 81 42 21 43 80 44 22 45
REMARK SMILES IDX 23 46 24 47 74 48 25 49 79 50 73 51 75 52 26 53 78 54 72 55
REMARK SMILES IDX 71 56 27 58 59 59 39 60 58 61 40 62 43 63 57 64 76 65 41 66
REMARK SMILES IDX 42 67 56 69 77 70 44 71 28 72 29 73 37 74 30 75 36 76 38 77
REMARK SMILES IDX 35 78 31 79 32 80 33 81 34 82 60 83 61 84 69 85 62 86 68 87
REMARK SMILES IDX 70 88 67 89 63 90 64 91 65 92 66 93 45 94 46 95 54 96 47 97
REMARK SMILES IDX 53 98 55 99 52 100 48 101 49 102 50 103 51 104
REMARK H PARENT 11 6 16 38 75 57 43 68
REMARK Flexibility Score: inf
ROOT
ATOM      1  C   UNL     1      -0.945  -6.208  -6.439  1.00  0.00     0.023 C 
ENDROOT
BRANCH   1   2
ATOM      2  C   UNL     1       0.336  -5.383  -6.188  1.00  0.00     0.116 C 
BRANCH   2   3
ATOM      3  N   UNL     1       0.129  -3.948  -6.364  1.00  0.00    -0.351 N 
ATOM      4  C   UNL     1      -0.158  -2.861  -5.557  1.00  0.00     0.272 C 
ATOM      5  O   UNL     1      -0.062  -1.773  -6.141  1.00  0.00    -0.267 OA
ATOM      6  H   UNL     1       0.217  -3.684  -7.308  1.00  0.00     0.163 HD
BRANCH   4   7
ATOM      7  C   UNL     1      -0.548  -2.922  -4.120  1.00  0.00     0.155 A 
ATOM      8  N   UNL     1      -0.949  -2.134  -2.140  1.00  0.00    -0.268 N 
ATOM      9  N   UNL     1      -0.505  -1.790  -3.367  1.00  0.00    -0.167 NA
ATOM     10  C   UNL     1      -1.123  -3.475  -2.030  1.00  0.00     0.046 A 
ATOM     11  C   UNL     1      -1.081  -3.964  -3.317  1.00  0.00     0.026 A 
ATOM     12  C   UNL     1      -1.416  -4.308  -0.839  1.00  0.00     0.078 C 
ATOM     13  C   UNL     1      -1.529  -5.325  -3.654  1.00  0.00     0.159 C 
ATOM     14  C   UNL     1      -1.300  -5.784  -1.284  1.00  0.00     0.126 C 
ATOM     15  N   UNL     1      -2.068  -6.053  -2.509  1.00  0.00    -0.338 N 
BRANCH   8  16
ATOM     16  C   UNL     1      -1.407  -1.094  -1.232  1.00  0.00     0.145 C 
BRANCH  16  17
ATOM     17  C   UNL     1      -0.951  -1.207   0.226  1.00  0.00     0.027 C 
BRANCH  17  18
ATOM     18  C   UNL     1       0.576  -1.233   0.404  1.00  0.00    -0.016 C 
ATOM     19  C   UNL     1       1.192   0.132   0.098  1.00  0.00     0.007 C 
ATOM     20  C   UNL     1       0.932  -1.666   1.827  1.00  0.00     0.007 C 
ENDBRANCH  17  18
ENDBRANCH  16  17
ENDBRANCH   8  16
BRANCH  15  21
ATOM     21  C   UNL     1      -2.950  -7.068  -2.836  1.00  0.00     0.227 C 
ATOM     22  O   UNL     1      -3.227  -7.267  -4.032  1.00  0.00    -0.274 OA
BRANCH  21  23
ATOM     23  C   UNL     1      -3.709  -7.949  -1.840  1.00  0.00     0.099 C 
ATOM     24  C   UNL     1      -4.846  -7.239  -1.105  1.00  0.00     0.023 C 
ATOM     25  C   UNL     1      -2.883  -8.834  -0.927  1.00  0.00     0.142 C 
ATOM     26  C   UNL     1      -4.395  -6.472   0.126  1.00  0.00     0.078 C 
ATOM     27  N   UNL     1      -2.671  -8.239   0.369  1.00  0.00    -0.278 N 
ATOM     28  C   UNL     1      -3.265  -7.132   0.861  1.00  0.00     0.133 A 
ATOM     29  C   UNL     1      -1.554  -8.448   1.133  1.00  0.00     0.345 A 
ATOM     30  N   UNL     1      -2.658  -6.596   1.880  1.00  0.00    -0.155 NA
ATOM     31  N   UNL     1      -1.554  -7.409   2.067  1.00  0.00    -0.216 N 
ATOM     32  O   UNL     1      -0.667  -9.273   0.933  1.00  0.00    -0.246 OA
ATOM     33  C   UNL     1      -0.388  -6.977   2.787  1.00  0.00     0.179 C 
ENDBRANCH  21  23
ENDBRANCH  15  21
ENDBRANCH   4   7
ENDBRANCH   2   3
ENDBRANCH   1   2
BRANCH   1  34
ATOM     34  C   UNL     1      -1.024  -7.030  -7.724  1.00  0.00     0.023 C 
BRANCH  34  35
ATOM     35  C   UNL     1      -0.117  -8.256  -7.723  1.00  0.00     0.116 C 
BRANCH  35  36
ATOM     36  N   UNL     1      -0.562  -9.326  -6.828  1.00  0.00    -0.352 N 
ATOM     37  C   UNL     1       0.131 -10.494  -6.553  1.00  0.00     0.251 C 
ATOM     38  H   UNL     1      -1.432  -9.205  -6.382  1.00  0.00     0.163 HD
ATOM     39  O   UNL     1      -0.452 -11.508  -6.188  1.00  0.00    -0.269 OA
BRANCH  37  40
ATOM     40  C   UNL     1       1.600 -10.470  -6.701  1.00  0.00     0.039 A 
ATOM     41  C   UNL     1       2.272 -11.443  -7.440  1.00  0.00     0.014 A 
ATOM     42  C   UNL     1       2.289  -9.385  -6.152  1.00  0.00     0.014 A 
ATOM     43  C   UNL     1       3.628 -11.252  -7.713  1.00  0.00     0.010 A 
ATOM     44  C   UNL     1       3.604  -9.150  -6.503  1.00  0.00     0.010 A 
ATOM     45  C   UNL     1       4.287 -10.079  -7.283  1.00  0.00    -0.014 A 
BRANCH  45  46
ATOM     46  C   UNL     1       5.584  -9.706  -7.875  1.00  0.00     0.031 A 
ATOM     47  C   UNL     1       5.567  -9.802  -9.361  1.00  0.00     0.074 A 
ATOM     48  C   UNL     1       6.638  -9.158  -7.220  1.00  0.00     0.049 A 
ATOM     49  N   UNL     1       6.104 -10.732 -10.078  1.00  0.00    -0.248 NA
ATOM     50  C   UNL     1       4.674  -8.915 -10.130  1.00  0.00     0.031 C 
ATOM     51  C   UNL     1       6.707  -8.789  -5.803  1.00  0.00     0.029 A 
ATOM     52  N   UNL     1       7.859  -8.741  -7.688  1.00  0.00    -0.354 N 
ATOM     53  C   UNL     1       5.889 -10.357 -11.398  1.00  0.00     0.074 A 
ATOM     54  C   UNL     1       4.810  -9.410 -11.363  1.00  0.00     0.031 C 
ATOM     55  C   UNL     1       7.801  -8.025  -5.574  1.00  0.00     0.029 A 
ATOM     56  C   UNL     1       8.605  -7.969  -6.784  1.00  0.00     0.049 A 
ATOM     57  H   UNL     1       8.187  -8.966  -8.588  1.00  0.00     0.167 HD
ATOM     58  C   UNL     1       6.844 -10.607 -12.336  1.00  0.00     0.034 A 
ATOM     59  C   UNL     1       9.808  -7.350  -6.982  1.00  0.00     0.034 A 
ATOM     60  C   UNL     1       7.780 -11.603 -11.850  1.00  0.00     0.049 A 
ATOM     61  C   UNL     1      10.476  -8.076  -8.080  1.00  0.00     0.074 A 
ATOM     62  C   UNL     1       7.683 -12.902 -11.388  1.00  0.00     0.029 A 
ATOM     63  N   UNL     1       8.989 -11.130 -11.396  1.00  0.00    -0.354 N 
ATOM     64  N   UNL     1      10.887  -9.306  -7.970  1.00  0.00    -0.248 NA
ATOM     65  C   UNL     1      10.298  -7.603  -9.441  1.00  0.00     0.031 C 
ATOM     66  C   UNL     1       8.631 -12.994 -10.323  1.00  0.00     0.029 A 
ATOM     67  C   UNL     1       9.338 -11.792 -10.247  1.00  0.00     0.049 A 
ATOM     68  H   UNL     1       9.521 -10.425 -11.829  1.00  0.00     0.167 HD
ATOM     69  C   UNL     1      10.548  -9.895  -9.173  1.00  0.00     0.074 A 
ATOM     70  C   UNL     1      10.340  -8.772 -10.087  1.00  0.00     0.031 C 
ATOM     71  C   UNL     1      10.185 -11.212  -9.216  1.00  0.00     0.034 A 
BRANCH  58  72
ATOM     72  C   UNL     1       7.220  -9.639 -13.448  1.00  0.00     0.023 A 
ATOM     73  C   UNL     1       8.271 -10.020 -14.307  1.00  0.00     0.031 A 
ATOM     74  C   UNL     1       6.841  -8.277 -13.521  1.00  0.00     0.131 A 
ATOM     75  C   UNL     1       8.951  -9.068 -15.090  1.00  0.00     0.055 A 
ATOM     76  C   UNL     1       7.481  -7.348 -14.347  1.00  0.00     0.041 A 
ATOM     77  F   UNL     1       5.901  -7.737 -12.739  1.00  0.00    -0.206 F 
ATOM     78  C   UNL     1       8.562  -7.733 -15.115  1.00  0.00     0.022 A 
BRANCH  75  79
ATOM     79  S   UNL     1      10.467  -9.573 -15.943  1.00  0.00     0.124 S 
ATOM     80  O   UNL     1      11.280 -10.050 -14.830  1.00  0.00    -0.237 OA
ATOM     81  O   UNL     1       9.968 -10.590 -16.862  1.00  0.00    -0.237 OA
ATOM     82  O   UNL     1      10.928  -8.338 -16.572  1.00  0.00    -0.744 OA
ENDBRANCH  75  79
ENDBRANCH  58  72
BRANCH  59  83
ATOM     83  C   UNL     1      10.336  -6.048  -6.462  1.00  0.00     0.023 A 
ATOM     84  C   UNL     1      11.707  -5.680  -6.505  1.00  0.00     0.031 A 
ATOM     85  C   UNL     1       9.420  -5.013  -6.185  1.00  0.00     0.131 A 
ATOM     86  C   UNL     1      12.100  -4.330  -6.296  1.00  0.00     0.055 A 
ATOM     87  C   UNL     1       9.811  -3.684  -5.993  1.00  0.00     0.041 A 
ATOM     88  F   UNL     1       8.097  -5.242  -6.190  1.00  0.00    -0.206 F 
ATOM     89  C   UNL     1      11.150  -3.335  -6.061  1.00  0.00     0.022 A 
BRANCH  86  90
ATOM     90  S   UNL     1      13.851  -3.811  -6.423  1.00  0.00     0.124 S 
ATOM     91  O   UNL     1      14.451  -4.434  -5.250  1.00  0.00    -0.237 OA
ATOM     92  O   UNL     1      14.249  -4.345  -7.720  1.00  0.00    -0.237 OA
ATOM     93  O   UNL     1      13.780  -2.349  -6.366  1.00  0.00    -0.744 OA
ENDBRANCH  86  90
ENDBRANCH  59  83
BRANCH  71  94
ATOM     94  C   UNL     1      10.579 -12.087  -8.034  1.00  0.00     0.023 A 
ATOM     95  C   UNL     1      10.279 -11.828  -6.675  1.00  0.00     0.031 A 
ATOM     96  C   UNL     1      11.290 -13.266  -8.322  1.00  0.00     0.131 A 
ATOM     97  C   UNL     1      10.724 -12.710  -5.669  1.00  0.00     0.055 A 
ATOM     98  C   UNL     1      11.700 -14.153  -7.328  1.00  0.00     0.041 A 
ATOM     99  F   UNL     1      11.596 -13.585  -9.591  1.00  0.00    -0.206 F 
ATOM    100  C   UNL     1      11.432 -13.871  -5.995  1.00  0.00     0.022 A 
BRANCH  97 101
ATOM    101  S   UNL     1      10.448 -12.336  -3.905  1.00  0.00     0.124 S 
ATOM    102  O   UNL     1      10.793 -10.925  -3.792  1.00  0.00    -0.237 OA
ATOM    103  O   UNL     1       9.035 -12.663  -3.731  1.00  0.00    -0.237 OA
ATOM    104  O   UNL     1      11.368 -13.246  -3.218  1.00  0.00    -0.744 OA
ENDBRANCH  97 101
ENDBRANCH  71  94
ENDBRANCH  45  46
ENDBRANCH  37  40
ENDBRANCH  35  36
ENDBRANCH  34  35
ENDBRANCH   1  34
TORSDOF 19
