REMARK SMILES CC[C@](C)(NC(=O)[C@H]1CNc2ccccc2O1)C(=O)NCCCCNC(=O)c1ccc(-c2c3nc(c(-c4cc(S(=O)(=O)[O-])ccc4F)c4ccc([nH]4)c(-c4cc(S(=O)(=O)[O-])ccc4F)c4nc(c(-c5cc(S(=O)(=O)[O-])ccc5F)c5ccc2[nH]5)C=C4)C=C3)cc1
REMARK SMILES IDX 23 1 22 2 21 3 20 4 18 5 19 6 3 8 4 9 2 10 1 11 5 12 6 13
REMARK SMILES IDX 7 15 8 16 9 17 17 18 10 19 16 20 11 21 15 23 12 24 14 25
REMARK SMILES IDX 13 26 24 27 25 28 26 29 27 31 28 32 29 33 90 34 30 35 89 36
REMARK SMILES IDX 31 37 32 38 33 39 83 40 34 41 88 42 82 43 84 44 35 45 87 46
REMARK SMILES IDX 81 47 80 48 36 50 68 51 48 52 67 53 49 54 52 55 66 56 85 57
REMARK SMILES IDX 50 58 51 59 65 61 86 62 53 63 37 64 38 65 46 66 39 67 45 68
REMARK SMILES IDX 47 69 44 70 40 71 41 72 42 73 43 74 69 75 70 76 78 77 71 78
REMARK SMILES IDX 77 79 79 80 76 81 72 82 73 83 74 84 75 85 54 86 55 87 63 88
REMARK SMILES IDX 56 89 62 90 64 91 61 92 57 93 58 94 59 95 60 96
REMARK H PARENT 20 7 5 14 10 22 25 30 84 49 52 60
REMARK Flexibility Score: inf
ROOT
ATOM      1  C   UNL     1       5.210   4.401  -3.714  1.00  0.00     0.023 C 
ENDROOT
BRANCH   1   2
ATOM      2  C   UNL     1       5.595   3.296  -2.751  1.00  0.00     0.023 C 
BRANCH   2   3
ATOM      3  C   UNL     1       6.567   3.726  -1.662  1.00  0.00     0.116 C 
BRANCH   3   4
ATOM      4  N   UNL     1       6.230   4.964  -0.971  1.00  0.00    -0.354 N 
ATOM      5  C   UNL     1       5.808   5.212   0.302  1.00  0.00     0.245 C 
ATOM      6  O   UNL     1       5.975   6.357   0.735  1.00  0.00    -0.272 OA
ATOM      7  H   UNL     1       6.326   5.771  -1.526  1.00  0.00     0.163 HD
BRANCH   5   8
ATOM      8  C   UNL     1       5.269   4.086   1.229  1.00  0.00     0.116 C 
ATOM      9  C   UNL     1       4.626   4.642   2.512  1.00  0.00     0.045 C 
BRANCH   8  10
ATOM     10  C   UNL     1       6.560   3.285   1.647  1.00  0.00     0.035 C 
ATOM     11  C   UNL     1       6.525   2.475   2.937  1.00  0.00     0.007 C 
ENDBRANCH   8  10
BRANCH   8  12
ATOM     12  N   UNL     1       4.284   3.227   0.521  1.00  0.00    -0.339 N 
ATOM     13  C   UNL     1       3.038   3.379  -0.021  1.00  0.00     0.263 C 
ATOM     14  H   UNL     1       4.616   2.306   0.414  1.00  0.00     0.164 HD
ATOM     15  O   UNL     1       2.468   2.285  -0.198  1.00  0.00    -0.271 OA
BRANCH  13  16
ATOM     16  C   UNL     1       2.310   4.669  -0.534  1.00  0.00     0.281 C 
ATOM     17  C   UNL     1       2.610   5.989   0.162  1.00  0.00     0.168 C 
ATOM     18  O   UNL     1       2.425   4.683  -1.973  1.00  0.00    -0.477 OA
ATOM     19  N   UNL     1       2.087   7.153  -0.526  1.00  0.00    -0.378 N 
ATOM     20  C   UNL     1       2.304   5.903  -2.595  1.00  0.00     0.143 A 
ATOM     21  C   UNL     1       2.260   7.119  -1.905  1.00  0.00     0.077 A 
ATOM     22  H   UNL     1       1.649   7.900  -0.059  1.00  0.00     0.160 HD
ATOM     23  C   UNL     1       2.354   5.891  -3.994  1.00  0.00     0.049 A 
ATOM     24  C   UNL     1       2.387   8.310  -2.632  1.00  0.00     0.029 A 
ATOM     25  C   UNL     1       2.510   7.081  -4.705  1.00  0.00     0.004 A 
ATOM     26  C   UNL     1       2.553   8.290  -4.019  1.00  0.00     0.002 A 
ENDBRANCH  13  16
ENDBRANCH   8  12
ENDBRANCH   5   8
ENDBRANCH   3   4
ENDBRANCH   2   3
ENDBRANCH   1   2
BRANCH   1  27
ATOM     27  C   UNL     1       6.337   5.087  -4.457  1.00  0.00     0.116 C 
BRANCH  27  28
ATOM     28  N   UNL     1       6.925   4.237  -5.471  1.00  0.00    -0.352 N 
ATOM     29  C   UNL     1       6.920   4.364  -6.837  1.00  0.00     0.251 C 
ATOM     30  H   UNL     1       7.402   3.448  -5.127  1.00  0.00     0.163 HD
ATOM     31  O   UNL     1       7.312   3.412  -7.516  1.00  0.00    -0.269 OA
BRANCH  29  32
ATOM     32  C   UNL     1       6.432   5.597  -7.505  1.00  0.00     0.039 A 
ATOM     33  C   UNL     1       5.772   5.473  -8.733  1.00  0.00     0.014 A 
ATOM     34  C   UNL     1       6.653   6.872  -6.977  1.00  0.00     0.014 A 
ATOM     35  C   UNL     1       5.309   6.612  -9.400  1.00  0.00     0.010 A 
ATOM     36  C   UNL     1       6.098   7.996  -7.589  1.00  0.00     0.010 A 
ATOM     37  C   UNL     1       5.445   7.884  -8.823  1.00  0.00    -0.014 A 
BRANCH  37  38
ATOM     38  C   UNL     1       4.968   9.107  -9.527  1.00  0.00     0.031 A 
ATOM     39  C   UNL     1       5.952  10.178  -9.925  1.00  0.00     0.074 A 
ATOM     40  C   UNL     1       3.654   9.273  -9.778  1.00  0.00     0.049 A 
ATOM     41  N   UNL     1       5.732  11.341 -10.485  1.00  0.00    -0.248 NA
ATOM     42  C   UNL     1       7.368   9.920  -9.624  1.00  0.00     0.031 C 
ATOM     43  C   UNL     1       2.597   8.329  -9.412  1.00  0.00     0.029 A 
ATOM     44  N   UNL     1       2.982  10.297 -10.398  1.00  0.00    -0.354 N 
ATOM     45  C   UNL     1       6.976  11.957 -10.587  1.00  0.00     0.074 A 
ATOM     46  C   UNL     1       7.933  11.066  -9.967  1.00  0.00     0.031 C 
ATOM     47  C   UNL     1       1.416   8.804  -9.839  1.00  0.00     0.029 A 
ATOM     48  C   UNL     1       1.621  10.105 -10.467  1.00  0.00     0.049 A 
ATOM     49  H   UNL     1       3.432  11.095 -10.759  1.00  0.00     0.167 HD
ATOM     50  C   UNL     1       7.298  13.139 -11.169  1.00  0.00     0.034 A 
ATOM     51  C   UNL     1       0.648  10.892 -10.970  1.00  0.00     0.034 A 
ATOM     52  C   UNL     1       6.338  14.007 -11.806  1.00  0.00     0.049 A 
ATOM     53  C   UNL     1       1.026  12.209 -11.600  1.00  0.00     0.074 A 
ATOM     54  C   UNL     1       6.560  15.202 -12.468  1.00  0.00     0.029 A 
ATOM     55  N   UNL     1       4.969  13.775 -11.859  1.00  0.00    -0.354 N 
ATOM     56  N   UNL     1       2.213  12.756 -11.723  1.00  0.00    -0.248 NA
ATOM     57  C   UNL     1      -0.067  13.007 -12.171  1.00  0.00     0.031 C 
ATOM     58  C   UNL     1       5.324  15.722 -12.866  1.00  0.00     0.029 A 
ATOM     59  C   UNL     1       4.334  14.817 -12.518  1.00  0.00     0.049 A 
ATOM     60  H   UNL     1       4.516  12.986 -11.483  1.00  0.00     0.167 HD
ATOM     61  C   UNL     1       2.011  13.951 -12.409  1.00  0.00     0.074 A 
ATOM     62  C   UNL     1       0.592  14.034 -12.688  1.00  0.00     0.031 C 
ATOM     63  C   UNL     1       2.916  14.892 -12.780  1.00  0.00     0.034 A 
BRANCH  50  64
ATOM     64  C   UNL     1       8.748  13.564 -11.122  1.00  0.00     0.023 A 
ATOM     65  C   UNL     1       9.759  12.811 -11.745  1.00  0.00     0.031 A 
ATOM     66  C   UNL     1       9.130  14.721 -10.419  1.00  0.00     0.131 A 
ATOM     67  C   UNL     1      11.105  13.175 -11.584  1.00  0.00     0.055 A 
ATOM     68  C   UNL     1      10.464  15.125 -10.336  1.00  0.00     0.041 A 
ATOM     69  F   UNL     1       8.213  15.471  -9.787  1.00  0.00    -0.206 F 
ATOM     70  C   UNL     1      11.463  14.341 -10.906  1.00  0.00     0.022 A 
BRANCH  67  71
ATOM     71  S   UNL     1      12.388  12.020 -12.143  1.00  0.00     0.124 S 
ATOM     72  O   UNL     1      12.070  10.827 -11.360  1.00  0.00    -0.237 OA
ATOM     73  O   UNL     1      12.127  11.930 -13.577  1.00  0.00    -0.237 OA
ATOM     74  O   UNL     1      13.633  12.685 -11.775  1.00  0.00    -0.744 OA
ENDBRANCH  67  71
ENDBRANCH  50  64
BRANCH  51  75
ATOM     75  C   UNL     1      -0.779  10.468 -10.890  1.00  0.00     0.023 A 
ATOM     76  C   UNL     1      -1.524  10.202 -12.049  1.00  0.00     0.031 A 
ATOM     77  C   UNL     1      -1.432  10.365  -9.648  1.00  0.00     0.131 A 
ATOM     78  C   UNL     1      -2.889   9.890 -11.948  1.00  0.00     0.055 A 
ATOM     79  C   UNL     1      -2.776  10.002  -9.549  1.00  0.00     0.041 A 
ATOM     80  F   UNL     1      -0.764  10.605  -8.508  1.00  0.00    -0.206 F 
ATOM     81  C   UNL     1      -3.516   9.775 -10.705  1.00  0.00     0.022 A 
BRANCH  78  82
ATOM     82  S   UNL     1      -3.857   9.720 -13.472  1.00  0.00     0.124 S 
ATOM     83  O   UNL     1      -3.650  11.019 -14.102  1.00  0.00    -0.237 OA
ATOM     84  O   UNL     1      -3.209   8.583 -14.117  1.00  0.00    -0.237 OA
ATOM     85  O   UNL     1      -5.213   9.470 -12.989  1.00  0.00    -0.744 OA
ENDBRANCH  78  82
ENDBRANCH  51  75
BRANCH  63  86
ATOM     86  C   UNL     1       2.396  16.071 -13.566  1.00  0.00     0.023 A 
ATOM     87  C   UNL     1       1.537  17.024 -12.991  1.00  0.00     0.031 A 
ATOM     88  C   UNL     1       2.761  16.236 -14.914  1.00  0.00     0.131 A 
ATOM     89  C   UNL     1       1.027  18.068 -13.777  1.00  0.00     0.055 A 
ATOM     90  C   UNL     1       2.296  17.310 -15.675  1.00  0.00     0.041 A 
ATOM     91  F   UNL     1       3.578  15.355 -15.514  1.00  0.00    -0.206 F 
ATOM     92  C   UNL     1       1.414  18.227 -15.110  1.00  0.00     0.022 A 
BRANCH  89  93
ATOM     93  S   UNL     1      -0.220  19.172 -13.057  1.00  0.00     0.124 S 
ATOM     94  O   UNL     1      -1.280  18.236 -12.694  1.00  0.00    -0.237 OA
ATOM     95  O   UNL     1       0.504  19.778 -11.944  1.00  0.00    -0.237 OA
ATOM     96  O   UNL     1      -0.545  20.083 -14.153  1.00  0.00    -0.744 OA
ENDBRANCH  89  93
ENDBRANCH  63  86
ENDBRANCH  37  38
ENDBRANCH  29  32
ENDBRANCH  27  28
ENDBRANCH   1  27
TORSDOF 17
