REMARK SMILES O=C(NCCCCNC(=O)c1ccc(-c2c3nc(c(-c4cc(S(=O)(=O)[O-])ccc4F)c4ccc([nH]4)c(-c4cc(S(=O)(=O)[O-])ccc4F)c4nc(c(-c5cc(S(=O)(=O)[O-])ccc5F)c5ccc2[nH]5)C=C4)C=C3)cc1)c1ccc(C[N@@H+]2CCC[C@H]2c2nc(-c3ccc(-c4cncnc4)nc3)no2)cc1
REMARK SMILES IDX 4 1 3 2 1 3 2 4 74 6 75 7 102 8 76 9 101 10 77 11 78 12
REMARK SMILES IDX 79 13 80 14 83 15 81 17 82 18 84 19 85 20 100 21 86 22 99 23
REMARK SMILES IDX 87 24 88 25 98 26 89 27 97 28 90 29 91 30 92 31 96 32 93 33
REMARK SMILES IDX 95 34 94 35 5 36 6 37 7 38 8 39 9 40 10 42 11 43 12 44 73 45
REMARK SMILES IDX 13 46 72 47 14 48 15 49 16 50 66 51 17 52 71 53 65 54 67 55
REMARK SMILES IDX 18 56 70 57 64 58 63 59 19 61 51 62 31 63 50 64 32 65 35 66
REMARK SMILES IDX 49 67 68 68 33 69 34 70 48 72 69 73 36 74 20 75 21 76 29 77
REMARK SMILES IDX 22 78 28 79 30 80 27 81 23 82 24 83 25 84 26 85 52 86 53 87
REMARK SMILES IDX 61 88 54 89 60 90 62 91 59 92 55 93 56 94 57 95 58 96 37 97
REMARK SMILES IDX 38 98 46 99 39 100 45 101 47 102 44 103 40 104 41 105 42 106
REMARK SMILES IDX 43 107
REMARK H PARENT 3 5 79 16 8 41 67 60 35 71
REMARK Flexibility Score: inf
ROOT
ATOM      1  C   UNL     1       4.606  -0.925  -0.789  1.00  0.00     0.116 C 
ENDROOT
BRANCH   1   2
ATOM      2  N   UNL     1       3.173  -0.682  -0.734  1.00  0.00    -0.352 N 
ATOM      3  O   UNL     1       1.234   0.059   0.178  1.00  0.00    -0.269 OA
ATOM      4  C   UNL     1       2.460   0.053   0.182  1.00  0.00     0.251 C 
ATOM      5  H   UNL     1       2.643  -1.100  -1.450  1.00  0.00     0.163 HD
BRANCH   4   6
ATOM      6  C   UNL     1       3.190   0.825   1.203  1.00  0.00     0.039 A 
ATOM      7  C   UNL     1       4.053   1.855   0.824  1.00  0.00     0.014 A 
ATOM      8  C   UNL     1       3.020   0.499   2.549  1.00  0.00     0.014 A 
ATOM      9  C   UNL     1       4.821   2.499   1.794  1.00  0.00     0.010 A 
ATOM     10  C   UNL     1       3.794   1.146   3.516  1.00  0.00     0.010 A 
ATOM     11  C   UNL     1       4.733   2.124   3.146  1.00  0.00     0.006 A 
BRANCH  11  12
ATOM     12  C   UNL     1       5.641   2.767   4.177  1.00  0.00     0.299 C 
BRANCH  12  13
ATOM     13  N   UNL     1       6.959   2.157   4.395  1.00  0.00    -0.321 N 
ATOM     14  C   UNL     1       7.828   2.066   3.223  1.00  0.00     0.263 C 
ATOM     15  C   UNL     1       6.941   0.829   5.039  1.00  0.00     0.275 C 
ATOM     16  H   UNL     1       7.355   2.842   5.039  1.00  0.00     0.349 HD
ATOM     17  C   UNL     1       7.725   0.630   2.749  1.00  0.00     0.068 C 
ATOM     18  C   UNL     1       7.562  -0.155   4.036  1.00  0.00     0.081 C 
BRANCH  15  19
ATOM     19  C   UNL     1       7.715   0.801   6.328  1.00  0.00     0.285 A 
ATOM     20  N   UNL     1       8.892   1.303   6.649  1.00  0.00    -0.186 NA
ATOM     21  O   UNL     1       7.177   0.029   7.317  1.00  0.00    -0.332 OA
ATOM     22  C   UNL     1       9.108   0.774   7.901  1.00  0.00     0.204 A 
ATOM     23  N   UNL     1       8.104   0.006   8.353  1.00  0.00    -0.057 NA
BRANCH  22  24
ATOM     24  C   UNL     1      10.336   0.971   8.644  1.00  0.00     0.041 A 
ATOM     25  C   UNL     1      10.922  -0.079   9.354  1.00  0.00     0.016 A 
ATOM     26  C   UNL     1      10.967   2.205   8.702  1.00  0.00     0.123 A 
ATOM     27  C   UNL     1      12.089   0.141  10.084  1.00  0.00     0.030 A 
ATOM     28  N   UNL     1      12.088   2.456   9.435  1.00  0.00    -0.255 NA
ATOM     29  C   UNL     1      12.641   1.420  10.114  1.00  0.00     0.073 A 
BRANCH  29  30
ATOM     30  C   UNL     1      13.821   1.725  10.914  1.00  0.00     0.037 A 
ATOM     31  C   UNL     1      15.009   1.021  10.822  1.00  0.00     0.124 A 
ATOM     32  C   UNL     1      13.837   2.723  11.872  1.00  0.00     0.124 A 
ATOM     33  N   UNL     1      16.095   1.240  11.598  1.00  0.00    -0.244 NA
ATOM     34  N   UNL     1      14.886   2.990  12.684  1.00  0.00    -0.244 NA
ATOM     35  C   UNL     1      15.971   2.224  12.500  1.00  0.00     0.221 A 
ENDBRANCH  29  30
ENDBRANCH  22  24
ENDBRANCH  15  19
ENDBRANCH  12  13
ENDBRANCH  11  12
ENDBRANCH   4   6
ENDBRANCH   1   2
BRANCH   1  36
ATOM     36  C   UNL     1       4.966  -2.373  -0.462  1.00  0.00     0.023 C 
BRANCH  36  37
ATOM     37  C   UNL     1       4.467  -3.409  -1.470  1.00  0.00     0.023 C 
BRANCH  37  38
ATOM     38  C   UNL     1       4.862  -3.161  -2.923  1.00  0.00     0.116 C 
BRANCH  38  39
ATOM     39  N   UNL     1       6.302  -3.114  -3.128  1.00  0.00    -0.352 N 
ATOM     40  C   UNL     1       7.056  -3.728  -4.102  1.00  0.00     0.251 C 
ATOM     41  H   UNL     1       6.806  -2.567  -2.483  1.00  0.00     0.163 HD
ATOM     42  O   UNL     1       8.281  -3.667  -4.057  1.00  0.00    -0.269 OA
BRANCH  40  43
ATOM     43  C   UNL     1       6.382  -4.495  -5.173  1.00  0.00     0.039 A 
ATOM     44  C   UNL     1       6.807  -5.798  -5.448  1.00  0.00     0.014 A 
ATOM     45  C   UNL     1       5.306  -3.944  -5.874  1.00  0.00     0.014 A 
ATOM     46  C   UNL     1       6.097  -6.581  -6.363  1.00  0.00     0.010 A 
ATOM     47  C   UNL     1       4.563  -4.745  -6.737  1.00  0.00     0.010 A 
ATOM     48  C   UNL     1       4.942  -6.076  -6.981  1.00  0.00    -0.014 A 
BRANCH  48  49
ATOM     49  C   UNL     1       4.099  -6.910  -7.880  1.00  0.00     0.031 A 
ATOM     50  C   UNL     1       3.935  -6.514  -9.323  1.00  0.00     0.074 A 
ATOM     51  C   UNL     1       3.397  -7.946  -7.378  1.00  0.00     0.049 A 
ATOM     52  N   UNL     1       3.105  -6.979 -10.220  1.00  0.00    -0.248 NA
ATOM     53  C   UNL     1       4.798  -5.425  -9.807  1.00  0.00     0.031 C 
ATOM     54  C   UNL     1       3.450  -8.412  -5.990  1.00  0.00     0.029 A 
ATOM     55  N   UNL     1       2.478  -8.779  -7.969  1.00  0.00    -0.354 N 
ATOM     56  C   UNL     1       3.315  -6.214 -11.363  1.00  0.00     0.074 A 
ATOM     57  C   UNL     1       4.333  -5.238 -11.034  1.00  0.00     0.031 C 
ATOM     58  C   UNL     1       2.602  -9.444  -5.839  1.00  0.00     0.029 A 
ATOM     59  C   UNL     1       1.907  -9.682  -7.100  1.00  0.00     0.049 A 
ATOM     60  H   UNL     1       2.250  -8.735  -8.926  1.00  0.00     0.167 HD
ATOM     61  C   UNL     1       2.718  -6.322 -12.575  1.00  0.00     0.034 A 
ATOM     62  C   UNL     1       0.916 -10.577  -7.289  1.00  0.00     0.034 A 
ATOM     63  C   UNL     1       1.741  -7.329 -12.902  1.00  0.00     0.049 A 
ATOM     64  C   UNL     1       0.275 -10.681  -8.652  1.00  0.00     0.074 A 
ATOM     65  C   UNL     1       1.138  -7.578 -14.123  1.00  0.00     0.029 A 
ATOM     66  N   UNL     1       1.222  -8.254 -12.007  1.00  0.00    -0.354 N 
ATOM     67  N   UNL     1       0.521  -9.980  -9.735  1.00  0.00    -0.248 NA
ATOM     68  C   UNL     1      -0.771 -11.699  -8.822  1.00  0.00     0.031 C 
ATOM     69  C   UNL     1       0.216  -8.616 -13.954  1.00  0.00     0.029 A 
ATOM     70  C   UNL     1       0.290  -9.058 -12.644  1.00  0.00     0.049 A 
ATOM     71  H   UNL     1       1.478  -8.328 -11.059  1.00  0.00     0.167 HD
ATOM     72  C   UNL     1      -0.309 -10.505 -10.722  1.00  0.00     0.074 A 
ATOM     73  C   UNL     1      -1.060 -11.580 -10.109  1.00  0.00     0.031 C 
ATOM     74  C   UNL     1      -0.435 -10.137 -12.021  1.00  0.00     0.034 A 
BRANCH  61  75
ATOM     75  C   UNL     1       3.084  -5.310 -13.630  1.00  0.00     0.023 A 
ATOM     76  C   UNL     1       4.370  -5.255 -14.191  1.00  0.00     0.031 A 
ATOM     77  C   UNL     1       2.123  -4.389 -14.085  1.00  0.00     0.131 A 
ATOM     78  C   UNL     1       4.678  -4.264 -15.134  1.00  0.00     0.055 A 
ATOM     79  C   UNL     1       2.416  -3.450 -15.075  1.00  0.00     0.041 A 
ATOM     80  F   UNL     1       0.884  -4.385 -13.569  1.00  0.00    -0.206 F 
ATOM     81  C   UNL     1       3.703  -3.377 -15.598  1.00  0.00     0.022 A 
BRANCH  78  82
ATOM     82  S   UNL     1       6.400  -4.083 -15.672  1.00  0.00     0.124 S 
ATOM     83  O   UNL     1       7.062  -3.723 -14.421  1.00  0.00    -0.237 OA
ATOM     84  O   UNL     1       6.708  -5.407 -16.199  1.00  0.00    -0.237 OA
ATOM     85  O   UNL     1       6.338  -3.014 -16.667  1.00  0.00    -0.744 OA
ENDBRANCH  78  82
ENDBRANCH  61  75
BRANCH  62  86
ATOM     86  C   UNL     1       0.433 -11.432  -6.166  1.00  0.00     0.023 A 
ATOM     87  C   UNL     1       0.559 -12.830  -6.220  1.00  0.00     0.031 A 
ATOM     88  C   UNL     1      -0.231 -10.874  -5.059  1.00  0.00     0.131 A 
ATOM     89  C   UNL     1      -0.026 -13.625  -5.222  1.00  0.00     0.055 A 
ATOM     90  C   UNL     1      -0.761 -11.666  -4.039  1.00  0.00     0.041 A 
ATOM     91  F   UNL     1      -0.375  -9.543  -4.954  1.00  0.00    -0.206 F 
ATOM     92  C   UNL     1      -0.676 -13.053  -4.127  1.00  0.00     0.022 A 
BRANCH  89  93
ATOM     93  S   UNL     1      -0.029 -15.426  -5.441  1.00  0.00     0.124 S 
ATOM     94  O   UNL     1      -0.642 -15.565  -6.757  1.00  0.00    -0.237 OA
ATOM     95  O   UNL     1       1.393 -15.741  -5.359  1.00  0.00    -0.237 OA
ATOM     96  O   UNL     1      -0.839 -15.903  -4.322  1.00  0.00    -0.744 OA
ENDBRANCH  89  93
ENDBRANCH  62  86
BRANCH  74  97
ATOM     97  C   UNL     1      -1.362 -10.955 -12.882  1.00  0.00     0.023 A 
ATOM     98  C   UNL     1      -2.757 -10.905 -12.729  1.00  0.00     0.031 A 
ATOM     99  C   UNL     1      -0.831 -11.790 -13.881  1.00  0.00     0.131 A 
ATOM    100  C   UNL     1      -3.575 -11.708 -13.538  1.00  0.00     0.055 A 
ATOM    101  C   UNL     1      -1.651 -12.550 -14.715  1.00  0.00     0.041 A 
ATOM    102  F   UNL     1       0.496 -11.872 -14.068  1.00  0.00    -0.206 F 
ATOM    103  C   UNL     1      -3.032 -12.518 -14.540  1.00  0.00     0.022 A 
BRANCH 100 104
ATOM    104  S   UNL     1      -5.363 -11.724 -13.230  1.00  0.00     0.124 S 
ATOM    105  O   UNL     1      -5.431 -12.234 -11.864  1.00  0.00    -0.237 OA
ATOM    106  O   UNL     1      -5.724 -10.321 -13.405  1.00  0.00    -0.237 OA
ATOM    107  O   UNL     1      -5.880 -12.627 -14.256  1.00  0.00    -0.744 OA
ENDBRANCH 100 104
ENDBRANCH  74  97
ENDBRANCH  48  49
ENDBRANCH  40  43
ENDBRANCH  38  39
ENDBRANCH  37  38
ENDBRANCH  36  37
ENDBRANCH   1  36
TORSDOF 19
