REMARK SMILES NC(=O)N[C@@H](C(=O)N[C@@H](CO)C(=O)NCCCCNC(=O)c1ccc(-c2c3nc(c(-c4cc(S(=O)(=O)[O-])ccc4F)c4ccc([nH]4)c(-c4cc(S(=O)(=O)[O-])ccc4F)c4nc(c(-c5cc(S(=O)(=O)[O-])ccc5F)c5ccc2[nH]5)C=C4)C=C3)cc1)c1ccccc1
REMARK SMILES IDX 16 1 15 2 14 3 12 4 13 5 9 7 8 8 6 9 7 10 5 12 4 13 1 14
REMARK SMILES IDX 2 15 3 18 85 20 86 21 90 22 87 23 89 24 88 25 10 26 11 27
REMARK SMILES IDX 17 29 18 30 19 31 20 32 21 34 22 35 23 36 84 37 24 38 83 39
REMARK SMILES IDX 25 40 26 41 27 42 77 43 28 44 82 45 76 46 78 47 29 48 81 49
REMARK SMILES IDX 75 50 74 51 30 53 62 54 42 55 61 56 43 57 46 58 60 59 79 60
REMARK SMILES IDX 44 61 45 62 59 64 80 65 47 66 31 67 32 68 40 69 33 70 39 71
REMARK SMILES IDX 41 72 38 73 34 74 35 75 36 76 37 77 63 78 64 79 72 80 65 81
REMARK SMILES IDX 71 82 73 83 70 84 66 85 67 86 68 87 69 88 48 89 49 90 57 91
REMARK SMILES IDX 50 92 56 93 58 94 55 95 51 96 52 97 53 98 54 99
REMARK H PARENT 14 6 8 11 1 16 1 17 4 19 11 28 19 33 78 52 46 63
REMARK Flexibility Score: inf
ROOT
ATOM      1  C   UNL     1       4.197  -6.237   1.426  1.00  0.00     0.023 C 
ENDROOT
BRANCH   1   2
ATOM      2  C   UNL     1       2.813  -5.676   1.737  1.00  0.00     0.116 C 
BRANCH   2   3
ATOM      3  N   UNL     1       2.886  -4.313   2.225  1.00  0.00    -0.354 N 
ATOM      4  C   UNL     1       2.351  -3.162   1.741  1.00  0.00     0.244 C 
ATOM      5  O   UNL     1       2.480  -2.142   2.429  1.00  0.00    -0.273 OA
ATOM      6  H   UNL     1       3.414  -4.203   3.048  1.00  0.00     0.163 HD
BRANCH   4   7
ATOM      7  C   UNL     1       1.542  -3.096   0.433  1.00  0.00     0.197 C 
BRANCH   7   8
ATOM      8  N   UNL     1       2.262  -3.638  -0.723  1.00  0.00    -0.340 N 
ATOM      9  C   UNL     1       2.862  -2.964  -1.753  1.00  0.00     0.248 C 
ATOM     10  O   UNL     1       3.822  -3.550  -2.259  1.00  0.00    -0.272 OA
ATOM     11  H   UNL     1       2.324  -4.620  -0.764  1.00  0.00     0.164 HD
BRANCH   9  12
ATOM     12  C   UNL     1       2.441  -1.503  -2.116  1.00  0.00     0.203 C 
BRANCH  12  13
ATOM     13  N   UNL     1       0.982  -1.367  -2.082  1.00  0.00    -0.322 N 
ATOM     14  N   UNL     1       0.762   0.323  -0.520  1.00  0.00    -0.352 N 
ATOM     15  C   UNL     1       0.192  -0.528  -1.388  1.00  0.00     0.313 C 
ATOM     16  H   UNL     1       0.202   0.945  -0.001  1.00  0.00     0.161 HD
ATOM     17  H   UNL     1       1.739   0.325  -0.402  1.00  0.00     0.161 HD
ATOM     18  O   UNL     1      -1.027  -0.568  -1.518  1.00  0.00    -0.249 OA
ATOM     19  H   UNL     1       0.498  -1.995  -2.666  1.00  0.00     0.166 HD
ENDBRANCH  12  13
BRANCH  12  20
ATOM     20  C   UNL     1       2.935  -0.948  -3.454  1.00  0.00    -0.016 A 
ATOM     21  C   UNL     1       3.447  -1.735  -4.497  1.00  0.00     0.006 A 
ATOM     22  C   UNL     1       2.826   0.439  -3.681  1.00  0.00     0.006 A 
ATOM     23  C   UNL     1       3.878  -1.156  -5.696  1.00  0.00     0.000 A 
ATOM     24  C   UNL     1       3.236   1.015  -4.886  1.00  0.00     0.000 A 
ATOM     25  C   UNL     1       3.772   0.217  -5.890  1.00  0.00     0.000 A 
ENDBRANCH  12  20
ENDBRANCH   9  12
ENDBRANCH   7   8
BRANCH   7  26
ATOM     26  C   UNL     1       0.119  -3.647   0.595  1.00  0.00     0.191 C 
BRANCH  26  27
ATOM     27  O   UNL     1       0.042  -5.064   0.449  1.00  0.00    -0.394 OA
ATOM     28  H   UNL     1       0.324  -5.313  -0.445  1.00  0.00     0.210 HD
ENDBRANCH  26  27
ENDBRANCH   7  26
ENDBRANCH   4   7
ENDBRANCH   2   3
ENDBRANCH   1   2
BRANCH   1  29
ATOM     29  C   UNL     1       5.080  -6.461   2.654  1.00  0.00     0.023 C 
BRANCH  29  30
ATOM     30  C   UNL     1       4.443  -7.284   3.769  1.00  0.00     0.116 C 
BRANCH  30  31
ATOM     31  N   UNL     1       3.954  -8.577   3.315  1.00  0.00    -0.352 N 
ATOM     32  C   UNL     1       4.100  -9.809   3.908  1.00  0.00     0.251 C 
ATOM     33  H   UNL     1       3.450  -8.569   2.469  1.00  0.00     0.163 HD
ATOM     34  O   UNL     1       3.733 -10.821   3.322  1.00  0.00    -0.269 OA
BRANCH  32  35
ATOM     35  C   UNL     1       4.741  -9.895   5.237  1.00  0.00     0.039 A 
ATOM     36  C   UNL     1       5.785 -10.802   5.426  1.00  0.00     0.014 A 
ATOM     37  C   UNL     1       4.345  -9.041   6.270  1.00  0.00     0.014 A 
ATOM     38  C   UNL     1       6.486 -10.799   6.634  1.00  0.00     0.010 A 
ATOM     39  C   UNL     1       5.094  -8.987   7.441  1.00  0.00     0.010 A 
ATOM     40  C   UNL     1       6.173  -9.863   7.634  1.00  0.00    -0.014 A 
BRANCH  40  41
ATOM     41  C   UNL     1       6.964  -9.783   8.889  1.00  0.00     0.031 A 
ATOM     42  C   UNL     1       6.303 -10.062  10.211  1.00  0.00     0.074 A 
ATOM     43  C   UNL     1       8.252  -9.388   8.844  1.00  0.00     0.049 A 
ATOM     44  N   UNL     1       6.792  -9.963  11.420  1.00  0.00    -0.248 NA
ATOM     45  C   UNL     1       4.891 -10.473  10.165  1.00  0.00     0.031 C 
ATOM     46  C   UNL     1       8.988  -9.042   7.625  1.00  0.00     0.029 A 
ATOM     47  N   UNL     1       9.169  -9.201   9.847  1.00  0.00    -0.354 N 
ATOM     48  C   UNL     1       5.746 -10.283  12.279  1.00  0.00     0.074 A 
ATOM     49  C   UNL     1       4.581 -10.512  11.451  1.00  0.00     0.031 C 
ATOM     50  C   UNL     1      10.247  -8.708   7.951  1.00  0.00     0.029 A 
ATOM     51  C   UNL     1      10.398  -8.772   9.401  1.00  0.00     0.049 A 
ATOM     52  H   UNL     1       8.967  -9.359  10.797  1.00  0.00     0.167 HD
ATOM     53  C   UNL     1       5.763 -10.398  13.630  1.00  0.00     0.034 A 
ATOM     54  C   UNL     1      11.517  -8.455  10.084  1.00  0.00     0.034 A 
ATOM     55  C   UNL     1       6.939 -10.181  14.436  1.00  0.00     0.049 A 
ATOM     56  C   UNL     1      11.510  -8.580  11.586  1.00  0.00     0.074 A 
ATOM     57  C   UNL     1       7.088 -10.331  15.804  1.00  0.00     0.029 A 
ATOM     58  N   UNL     1       8.171  -9.759  13.949  1.00  0.00    -0.354 N 
ATOM     59  N   UNL     1      10.528  -8.939  12.381  1.00  0.00    -0.248 NA
ATOM     60  C   UNL     1      12.765  -8.269  12.281  1.00  0.00     0.031 C 
ATOM     61  C   UNL     1       8.384  -9.936  16.151  1.00  0.00     0.029 A 
ATOM     62  C   UNL     1       9.072  -9.613  14.992  1.00  0.00     0.049 A 
ATOM     63  H   UNL     1       8.373  -9.588  13.001  1.00  0.00     0.167 HD
ATOM     64  C   UNL     1      11.058  -8.925  13.668  1.00  0.00     0.074 A 
ATOM     65  C   UNL     1      12.448  -8.537  13.540  1.00  0.00     0.031 C 
ATOM     66  C   UNL     1      10.453  -9.212  14.849  1.00  0.00     0.034 A 
BRANCH  53  67
ATOM     67  C   UNL     1       4.461 -10.752  14.311  1.00  0.00     0.023 A 
ATOM     68  C   UNL     1       3.799 -11.966  14.054  1.00  0.00     0.031 A 
ATOM     69  C   UNL     1       3.853  -9.848  15.201  1.00  0.00     0.131 A 
ATOM     70  C   UNL     1       2.533 -12.205  14.609  1.00  0.00     0.055 A 
ATOM     71  C   UNL     1       2.633 -10.131  15.819  1.00  0.00     0.041 A 
ATOM     72  F   UNL     1       4.426  -8.665  15.471  1.00  0.00    -0.206 F 
ATOM     73  C   UNL     1       1.956 -11.308  15.510  1.00  0.00     0.022 A 
BRANCH  70  74
ATOM     74  S   UNL     1       1.583 -13.630  14.011  1.00  0.00     0.124 S 
ATOM     75  O   UNL     1       1.493 -13.345  12.580  1.00  0.00    -0.237 OA
ATOM     76  O   UNL     1       2.432 -14.755  14.386  1.00  0.00    -0.237 OA
ATOM     77  O   UNL     1       0.320 -13.530  14.739  1.00  0.00    -0.744 OA
ENDBRANCH  70  74
ENDBRANCH  53  67
BRANCH  54  78
ATOM     78  C   UNL     1      12.733  -7.983   9.363  1.00  0.00     0.023 A 
ATOM     79  C   UNL     1      13.915  -8.742   9.364  1.00  0.00     0.031 A 
ATOM     80  C   UNL     1      12.743  -6.748   8.690  1.00  0.00     0.131 A 
ATOM     81  C   UNL     1      15.069  -8.239   8.744  1.00  0.00     0.055 A 
ATOM     82  C   UNL     1      13.880  -6.276   8.032  1.00  0.00     0.041 A 
ATOM     83  F   UNL     1      11.638  -5.987   8.653  1.00  0.00    -0.206 F 
ATOM     84  C   UNL     1      15.056  -7.017   8.068  1.00  0.00     0.022 A 
BRANCH  81  85
ATOM     85  S   UNL     1      16.617  -9.172   8.902  1.00  0.00     0.124 S 
ATOM     86  O   UNL     1      16.784  -9.228  10.350  1.00  0.00    -0.237 OA
ATOM     87  O   UNL     1      16.279 -10.431   8.246  1.00  0.00    -0.237 OA
ATOM     88  O   UNL     1      17.588  -8.343   8.193  1.00  0.00    -0.744 OA
ENDBRANCH  81  85
ENDBRANCH  54  78
BRANCH  66  89
ATOM     89  C   UNL     1      11.312  -9.158  16.089  1.00  0.00     0.023 A 
ATOM     90  C   UNL     1      11.843  -7.949  16.571  1.00  0.00     0.031 A 
ATOM     91  C   UNL     1      11.610 -10.339  16.793  1.00  0.00     0.131 A 
ATOM     92  C   UNL     1      12.690  -7.955  17.689  1.00  0.00     0.055 A 
ATOM     93  C   UNL     1      12.403 -10.330  17.941  1.00  0.00     0.041 A 
ATOM     94  F   UNL     1      11.131 -11.522  16.376  1.00  0.00    -0.206 F 
ATOM     95  C   UNL     1      12.959  -9.135  18.387  1.00  0.00     0.022 A 
BRANCH  92  96
ATOM     96  S   UNL     1      13.511  -6.410  18.169  1.00  0.00     0.124 S 
ATOM     97  O   UNL     1      14.254  -6.073  16.959  1.00  0.00    -0.237 OA
ATOM     98  O   UNL     1      12.382  -5.542  18.486  1.00  0.00    -0.237 OA
ATOM     99  O   UNL     1      14.333  -6.799  19.313  1.00  0.00    -0.744 OA
ENDBRANCH  92  96
ENDBRANCH  66  89
ENDBRANCH  40  41
ENDBRANCH  32  35
ENDBRANCH  30  31
ENDBRANCH  29  30
ENDBRANCH   1  29
TORSDOF 20
