REMARK SMILES Cc1cscc1-c1nc(C)c(C(=O)NCCCCNC(=O)c2ccc(-c3c4nc(c(-c5cc(S(=O)(=O)[O-])ccc5F)c5ccc([nH]5)c(-c5cc(S(=O)(=O)[O-])ccc5F)c5nc(c(-c6cc(S(=O)(=O)[O-])ccc6F)c6ccc3[nH]6)C=C5)C=C4)cc2)c(C)n1
REMARK SMILES IDX 17 1 16 2 15 3 14 4 12 5 13 6 11 8 7 9 8 10 87 11 9 12 85 13
REMARK SMILES IDX 10 14 86 15 6 16 1 17 2 18 3 19 4 20 5 21 18 22 19 23 20 24
REMARK SMILES IDX 21 26 22 27 23 28 84 29 24 30 83 31 25 32 26 33 27 34 77 35
REMARK SMILES IDX 28 36 82 37 76 38 78 39 29 40 81 41 75 42 74 43 30 45 62 46
REMARK SMILES IDX 42 47 61 48 43 49 46 50 60 51 79 52 44 53 45 54 59 56 80 57
REMARK SMILES IDX 47 58 31 59 32 60 40 61 33 62 39 63 41 64 38 65 34 66 35 67
REMARK SMILES IDX 36 68 37 69 63 70 64 71 72 72 65 73 71 74 73 75 70 76 66 77
REMARK SMILES IDX 67 78 68 79 69 80 48 81 49 82 57 83 50 84 56 85 58 86 55 87
REMARK SMILES IDX 51 88 52 89 53 90 54 91
REMARK H PARENT 14 7 19 25 78 44 46 55
REMARK Flexibility Score: inf
ROOT
ATOM      1  C   UNL     1       5.197   7.453  -3.915  1.00  0.00     0.023 C 
ENDROOT
BRANCH   1   2
ATOM      2  C   UNL     1       4.587   6.212  -3.266  1.00  0.00     0.023 C 
BRANCH   2   3
ATOM      3  C   UNL     1       5.193   5.821  -1.913  1.00  0.00     0.116 C 
BRANCH   3   4
ATOM      4  N   UNL     1       4.353   6.281  -0.830  1.00  0.00    -0.352 N 
ATOM      5  C   UNL     1       3.292   5.855  -0.085  1.00  0.00     0.254 C 
ATOM      6  O   UNL     1       2.895   6.753   0.666  1.00  0.00    -0.269 OA
ATOM      7  H   UNL     1       4.634   7.179  -0.540  1.00  0.00     0.163 HD
BRANCH   5   8
ATOM      8  C   UNL     1       2.590   4.520  -0.043  1.00  0.00     0.082 A 
ATOM      9  C   UNL     1       1.106   2.207   0.264  1.00  0.00     0.160 A 
ATOM     10  N   UNL     1       1.905   2.319  -0.792  1.00  0.00    -0.232 NA
ATOM     11  N   UNL     1       0.967   3.139   1.197  1.00  0.00    -0.232 NA
ATOM     12  C   UNL     1       2.605   3.472  -0.966  1.00  0.00     0.054 A 
ATOM     13  C   UNL     1       1.721   4.269   1.053  1.00  0.00     0.054 A 
ATOM     14  C   UNL     1       3.305   3.401  -2.273  1.00  0.00     0.068 C 
ATOM     15  C   UNL     1       1.511   5.213   2.209  1.00  0.00     0.068 C 
BRANCH   9  16
ATOM     16  C   UNL     1       0.366   0.964   0.371  1.00  0.00     0.033 A 
ATOM     17  C   UNL     1       2.354  -0.683   0.082  1.00  0.00     0.046 C 
ATOM     18  C   UNL     1       0.902  -0.371   0.248  1.00  0.00    -0.029 A 
ATOM     19  C   UNL     1      -0.105  -1.316   0.302  1.00  0.00     0.069 A 
ATOM     20  S   UNL     1      -1.654  -0.623   0.513  1.00  0.00    -0.151 S 
ATOM     21  C   UNL     1      -1.006   0.958   0.530  1.00  0.00     0.077 A 
ENDBRANCH   9  16
ENDBRANCH   5   8
ENDBRANCH   3   4
ENDBRANCH   2   3
ENDBRANCH   1   2
BRANCH   1  22
ATOM     22  C   UNL     1       6.668   7.315  -4.283  1.00  0.00     0.116 C 
BRANCH  22  23
ATOM     23  N   UNL     1       6.958   6.173  -5.139  1.00  0.00    -0.352 N 
ATOM     24  C   UNL     1       8.020   6.023  -6.001  1.00  0.00     0.251 C 
ATOM     25  H   UNL     1       6.322   5.422  -5.096  1.00  0.00     0.163 HD
ATOM     26  O   UNL     1       8.106   5.035  -6.721  1.00  0.00    -0.269 OA
BRANCH  24  27
ATOM     27  C   UNL     1       9.012   7.113  -6.077  1.00  0.00     0.039 A 
ATOM     28  C   UNL     1       9.241   7.729  -7.308  1.00  0.00     0.014 A 
ATOM     29  C   UNL     1       9.614   7.594  -4.911  1.00  0.00     0.014 A 
ATOM     30  C   UNL     1      10.017   8.887  -7.356  1.00  0.00     0.010 A 
ATOM     31  C   UNL     1      10.321   8.788  -4.952  1.00  0.00     0.010 A 
ATOM     32  C   UNL     1      10.524   9.450  -6.173  1.00  0.00    -0.014 A 
BRANCH  32  33
ATOM     33  C   UNL     1      11.272  10.731  -6.188  1.00  0.00     0.031 A 
ATOM     34  C   UNL     1      12.715  10.756  -5.768  1.00  0.00     0.074 A 
ATOM     35  C   UNL     1      10.634  11.875  -6.505  1.00  0.00     0.049 A 
ATOM     36  N   UNL     1      13.519  11.776  -5.624  1.00  0.00    -0.248 NA
ATOM     37  C   UNL     1      13.319   9.459  -5.426  1.00  0.00     0.031 C 
ATOM     38  C   UNL     1       9.220  11.981  -6.878  1.00  0.00     0.029 A 
ATOM     39  N   UNL     1      11.086  13.168  -6.555  1.00  0.00    -0.354 N 
ATOM     40  C   UNL     1      14.719  11.248  -5.161  1.00  0.00     0.074 A 
ATOM     41  C   UNL     1      14.510   9.827  -4.982  1.00  0.00     0.031 C 
ATOM     42  C   UNL     1       8.931  13.265  -7.143  1.00  0.00     0.029 A 
ATOM     43  C   UNL     1      10.122  14.079  -6.923  1.00  0.00     0.049 A 
ATOM     44  H   UNL     1      12.014  13.422  -6.348  1.00  0.00     0.167 HD
ATOM     45  C   UNL     1      15.894  11.885  -4.934  1.00  0.00     0.034 A 
ATOM     46  C   UNL     1      10.192  15.417  -7.059  1.00  0.00     0.034 A 
ATOM     47  C   UNL     1      16.088  13.300  -5.135  1.00  0.00     0.049 A 
ATOM     48  C   UNL     1      11.506  16.106  -6.797  1.00  0.00     0.074 A 
ATOM     49  C   UNL     1      17.246  14.043  -4.990  1.00  0.00     0.029 A 
ATOM     50  N   UNL     1      15.093  14.189  -5.524  1.00  0.00    -0.354 N 
ATOM     51  N   UNL     1      12.648  15.586  -6.407  1.00  0.00    -0.248 NA
ATOM     52  C   UNL     1      11.544  17.559  -7.003  1.00  0.00     0.031 C 
ATOM     53  C   UNL     1      16.940  15.386  -5.237  1.00  0.00     0.029 A 
ATOM     54  C   UNL     1      15.605  15.475  -5.601  1.00  0.00     0.049 A 
ATOM     55  H   UNL     1      14.160  13.941  -5.717  1.00  0.00     0.167 HD
ATOM     56  C   UNL     1      13.547  16.647  -6.350  1.00  0.00     0.074 A 
ATOM     57  C   UNL     1      12.817  17.831  -6.758  1.00  0.00     0.031 C 
ATOM     58  C   UNL     1      14.858  16.644  -5.998  1.00  0.00     0.034 A 
BRANCH  45  59
ATOM     59  C   UNL     1      17.042  11.048  -4.423  1.00  0.00     0.023 A 
ATOM     60  C   UNL     1      17.574   9.989  -5.182  1.00  0.00     0.031 A 
ATOM     61  C   UNL     1      17.578  11.272  -3.143  1.00  0.00     0.131 A 
ATOM     62  C   UNL     1      18.538   9.140  -4.621  1.00  0.00     0.055 A 
ATOM     63  C   UNL     1      18.602  10.476  -2.625  1.00  0.00     0.041 A 
ATOM     64  F   UNL     1      17.099  12.254  -2.364  1.00  0.00    -0.206 F 
ATOM     65  C   UNL     1      19.075   9.391  -3.357  1.00  0.00     0.022 A 
BRANCH  62  66
ATOM     66  S   UNL     1      18.959   7.612  -5.503  1.00  0.00     0.124 S 
ATOM     67  O   UNL     1      17.661   6.945  -5.572  1.00  0.00    -0.237 OA
ATOM     68  O   UNL     1      19.488   8.112  -6.766  1.00  0.00    -0.237 OA
ATOM     69  O   UNL     1      19.936   6.968  -4.627  1.00  0.00    -0.744 OA
ENDBRANCH  62  66
ENDBRANCH  45  59
BRANCH  46  70
ATOM     70  C   UNL     1       8.991  16.200  -7.465  1.00  0.00     0.023 A 
ATOM     71  C   UNL     1       8.947  16.861  -8.702  1.00  0.00     0.031 A 
ATOM     72  C   UNL     1       7.885  16.329  -6.607  1.00  0.00     0.131 A 
ATOM     73  C   UNL     1       7.840  17.659  -9.030  1.00  0.00     0.055 A 
ATOM     74  C   UNL     1       6.765  17.087  -6.957  1.00  0.00     0.041 A 
ATOM     75  F   UNL     1       7.873  15.708  -5.417  1.00  0.00    -0.206 F 
ATOM     76  C   UNL     1       6.744  17.768  -8.170  1.00  0.00     0.022 A 
BRANCH  73  77
ATOM     77  S   UNL     1       7.884  18.614 -10.572  1.00  0.00     0.124 S 
ATOM     78  O   UNL     1       9.077  19.431 -10.381  1.00  0.00    -0.237 OA
ATOM     79  O   UNL     1       7.981  17.560 -11.577  1.00  0.00    -0.237 OA
ATOM     80  O   UNL     1       6.618  19.343 -10.557  1.00  0.00    -0.744 OA
ENDBRANCH  73  77
ENDBRANCH  46  70
BRANCH  58  81
ATOM     81  C   UNL     1      15.587  17.961  -6.082  1.00  0.00     0.023 A 
ATOM     82  C   UNL     1      15.300  19.022  -5.207  1.00  0.00     0.031 A 
ATOM     83  C   UNL     1      16.575  18.157  -7.063  1.00  0.00     0.131 A 
ATOM     84  C   UNL     1      15.956  20.252  -5.364  1.00  0.00     0.055 A 
ATOM     85  C   UNL     1      17.264  19.365  -7.179  1.00  0.00     0.041 A 
ATOM     86  F   UNL     1      16.887  17.176  -7.925  1.00  0.00    -0.206 F 
ATOM     87  C   UNL     1      16.947  20.425  -6.334  1.00  0.00     0.022 A 
BRANCH  84  88
ATOM     88  S   UNL     1      15.439  21.652  -4.333  1.00  0.00     0.124 S 
ATOM     89  O   UNL     1      14.029  21.784  -4.686  1.00  0.00    -0.237 OA
ATOM     90  O   UNL     1      15.715  21.166  -2.985  1.00  0.00    -0.237 OA
ATOM     91  O   UNL     1      16.296  22.746  -4.785  1.00  0.00    -0.744 OA
ENDBRANCH  84  88
ENDBRANCH  58  81
ENDBRANCH  32  33
ENDBRANCH  24  27
ENDBRANCH  22  23
ENDBRANCH   1  22
TORSDOF 15
