REMARK SMILES CCCCCCNC(=O)Oc1cccc(-c2ccc([C@@H](C)C(=O)NCCCCNC(=O)c3ccc(-c4c5nc(c(-c6cc(S(=O)(=O)[O-])ccc6F)c6ccc([nH]6)c(-c6cc(S(=O)(=O)[O-])ccc6F)c6nc(c(-c7cc(S(=O)(=O)[O-])ccc7F)c7ccc4[nH]7)C=C6)C=C5)cc3)cc2F)c1
REMARK SMILES IDX 20 1 21 2 19 3 16 4 17 5 96 6 18 7 95 8 97 9 15 10 11 11
REMARK SMILES IDX 12 12 98 13 13 14 14 15 10 16 8 17 7 18 9 20 6 21 5 22 4 23
REMARK SMILES IDX 3 24 2 25 1 26 22 27 23 28 24 29 25 31 26 32 27 33 28 34
REMARK SMILES IDX 29 35 30 36 31 38 32 39 33 40 94 41 34 42 93 43 35 44 36 45
REMARK SMILES IDX 37 46 87 47 38 48 92 49 86 50 88 51 39 52 91 53 85 54 84 55
REMARK SMILES IDX 40 57 72 58 52 59 71 60 53 61 56 62 70 63 89 64 54 65 55 66
REMARK SMILES IDX 69 68 90 69 57 70 41 71 42 72 50 73 43 74 49 75 51 76 48 77
REMARK SMILES IDX 44 78 45 79 46 80 47 81 73 82 74 83 82 84 75 85 81 86 83 87
REMARK SMILES IDX 80 88 76 89 77 90 78 91 79 92 58 93 59 94 67 95 60 96 66 97
REMARK SMILES IDX 68 98 65 99 61 100 62 101 63 102 64 103
REMARK H PARENT 7 19 24 30 29 37 88 56 56 67
REMARK Flexibility Score: inf
ROOT
ATOM      1  C   UNL     1      -4.666  -4.989  12.569  1.00  0.00     0.105 C 
ATOM      2  C   UNL     1      -5.871  -5.238  13.474  1.00  0.00     0.023 C 
ENDROOT
BRANCH   1   3
ATOM      3  C   UNL     1      -4.935  -5.062  11.074  1.00  0.00    -0.033 A 
ATOM      4  C   UNL     1      -5.211  -5.257   8.228  1.00  0.00     0.018 A 
ATOM      5  C   UNL     1      -5.799  -6.191   9.096  1.00  0.00     0.012 A 
ATOM      6  C   UNL     1      -4.524  -4.194   8.835  1.00  0.00     0.131 A 
ATOM      7  C   UNL     1      -5.702  -6.070  10.488  1.00  0.00     0.005 A 
ATOM      8  C   UNL     1      -4.364  -4.107  10.222  1.00  0.00     0.044 A 
ATOM      9  F   UNL     1      -3.993  -3.209   8.093  1.00  0.00    -0.206 F 
BRANCH   4  10
ATOM     10  C   UNL     1      -5.309  -5.423   6.758  1.00  0.00    -0.012 A 
ATOM     11  C   UNL     1      -4.373  -5.210   4.520  1.00  0.00     0.133 A 
ATOM     12  C   UNL     1      -5.499  -5.795   3.951  1.00  0.00     0.047 A 
ATOM     13  C   UNL     1      -4.271  -5.022   5.900  1.00  0.00     0.056 A 
ATOM     14  C   UNL     1      -6.535  -6.207   4.778  1.00  0.00     0.004 A 
ATOM     15  C   UNL     1      -6.444  -6.013   6.161  1.00  0.00     0.009 A 
BRANCH  11  16
ATOM     16  O   UNL     1      -3.417  -4.686   3.636  1.00  0.00    -0.410 OA
BRANCH  16  17
ATOM     17  C   UNL     1      -2.080  -4.989   3.840  1.00  0.00     0.412 C 
ATOM     18  N   UNL     1      -1.249  -4.288   3.010  1.00  0.00    -0.321 N 
ATOM     19  H   UNL     1      -0.286  -4.486   3.077  1.00  0.00     0.167 HD
ATOM     20  O   UNL     1      -1.637  -5.792   4.650  1.00  0.00    -0.224 OA
BRANCH  18  21
ATOM     21  C   UNL     1      -1.642  -3.284   2.043  1.00  0.00     0.119 C 
BRANCH  21  22
ATOM     22  C   UNL     1      -1.045  -1.915   2.367  1.00  0.00     0.021 C 
BRANCH  22  23
ATOM     23  C   UNL     1       0.485  -1.849   2.285  1.00  0.00     0.002 C 
BRANCH  23  24
ATOM     24  C   UNL     1       1.089  -2.244   0.933  1.00  0.00    -0.000 C 
BRANCH  24  25
ATOM     25  C   UNL     1       0.601  -1.429  -0.267  1.00  0.00    -0.003 C 
ATOM     26  C   UNL     1       0.962   0.046  -0.178  1.00  0.00     0.004 C 
ENDBRANCH  24  25
ENDBRANCH  23  24
ENDBRANCH  22  23
ENDBRANCH  21  22
ENDBRANCH  18  21
ENDBRANCH  16  17
ENDBRANCH  11  16
ENDBRANCH   4  10
ENDBRANCH   1   3
BRANCH   1  27
ATOM     27  C   UNL     1      -3.390  -5.729  13.005  1.00  0.00     0.227 C 
ATOM     28  O   UNL     1      -2.392  -5.078  13.337  1.00  0.00    -0.274 OA
ATOM     29  N   UNL     1      -3.283  -7.084  13.069  1.00  0.00    -0.356 N 
ATOM     30  H   UNL     1      -2.426  -7.403  13.434  1.00  0.00     0.163 HD
BRANCH  29  31
ATOM     31  C   UNL     1      -4.201  -8.141  12.700  1.00  0.00     0.116 C 
BRANCH  31  32
ATOM     32  C   UNL     1      -3.920  -8.681  11.297  1.00  0.00     0.023 C 
BRANCH  32  33
ATOM     33  C   UNL     1      -2.898  -9.814  11.237  1.00  0.00     0.023 C 
BRANCH  33  34
ATOM     34  C   UNL     1      -3.281 -11.074  12.004  1.00  0.00     0.116 C 
BRANCH  34  35
ATOM     35  N   UNL     1      -4.557 -11.649  11.600  1.00  0.00    -0.352 N 
ATOM     36  C   UNL     1      -4.916 -12.978  11.563  1.00  0.00     0.251 C 
ATOM     37  H   UNL     1      -5.249 -11.007  11.319  1.00  0.00     0.163 HD
ATOM     38  O   UNL     1      -6.006 -13.311  11.111  1.00  0.00    -0.269 OA
BRANCH  36  39
ATOM     39  C   UNL     1      -3.945 -13.991  12.027  1.00  0.00     0.039 A 
ATOM     40  C   UNL     1      -3.639 -15.068  11.193  1.00  0.00     0.014 A 
ATOM     41  C   UNL     1      -3.279 -13.827  13.244  1.00  0.00     0.014 A 
ATOM     42  C   UNL     1      -2.602 -15.934  11.543  1.00  0.00     0.010 A 
ATOM     43  C   UNL     1      -2.190 -14.637  13.547  1.00  0.00     0.010 A 
ATOM     44  C   UNL     1      -1.837 -15.697  12.698  1.00  0.00    -0.014 A 
BRANCH  44  45
ATOM     45  C   UNL     1      -0.661 -16.543  13.030  1.00  0.00     0.031 A 
ATOM     46  C   UNL     1      -0.644 -17.343  14.304  1.00  0.00     0.074 A 
ATOM     47  C   UNL     1       0.418 -16.531  12.222  1.00  0.00     0.049 A 
ATOM     48  N   UNL     1       0.308 -18.091  14.800  1.00  0.00    -0.248 NA
ATOM     49  C   UNL     1      -1.844 -17.258  15.149  1.00  0.00     0.031 C 
ATOM     50  C   UNL     1       0.544 -15.744  10.992  1.00  0.00     0.029 A 
ATOM     51  N   UNL     1       1.617 -17.192  12.315  1.00  0.00    -0.354 N 
ATOM     52  C   UNL     1      -0.172 -18.554  16.020  1.00  0.00     0.074 A 
ATOM     53  C   UNL     1      -1.467 -17.939  16.220  1.00  0.00     0.031 C 
ATOM     54  C   UNL     1       1.738 -15.993  10.431  1.00  0.00     0.029 A 
ATOM     55  C   UNL     1       2.481 -16.918  11.279  1.00  0.00     0.049 A 
ATOM     56  H   UNL     1       1.839 -17.804  13.053  1.00  0.00     0.167 HD
ATOM     57  C   UNL     1       0.402 -19.432  16.881  1.00  0.00     0.034 A 
ATOM     58  C   UNL     1       3.734 -17.357  11.044  1.00  0.00     0.034 A 
ATOM     59  C   UNL     1       1.690 -20.041  16.657  1.00  0.00     0.049 A 
ATOM     60  C   UNL     1       4.358 -18.324  12.016  1.00  0.00     0.074 A 
ATOM     61  C   UNL     1       2.338 -20.995  17.422  1.00  0.00     0.029 A 
ATOM     62  N   UNL     1       2.536 -19.746  15.594  1.00  0.00    -0.354 N 
ATOM     63  N   UNL     1       3.863 -18.810  13.131  1.00  0.00    -0.248 NA
ATOM     64  C   UNL     1       5.705 -18.810  11.692  1.00  0.00     0.031 C 
ATOM     65  C   UNL     1       3.603 -21.219  16.865  1.00  0.00     0.029 A 
ATOM     66  C   UNL     1       3.714 -20.470  15.704  1.00  0.00     0.049 A 
ATOM     67  H   UNL     1       2.329 -19.114  14.867  1.00  0.00     0.167 HD
ATOM     68  C   UNL     1       4.829 -19.680  13.629  1.00  0.00     0.074 A 
ATOM     69  C   UNL     1       5.926 -19.663  12.681  1.00  0.00     0.031 C 
ATOM     70  C   UNL     1       4.811 -20.427  14.763  1.00  0.00     0.034 A 
BRANCH  57  71
ATOM     71  C   UNL     1      -0.357 -19.755  18.148  1.00  0.00     0.023 A 
ATOM     72  C   UNL     1      -1.637 -20.337  18.116  1.00  0.00     0.031 A 
ATOM     73  C   UNL     1       0.182 -19.430  19.406  1.00  0.00     0.131 A 
ATOM     74  C   UNL     1      -2.371 -20.487  19.302  1.00  0.00     0.055 A 
ATOM     75  C   UNL     1      -0.516 -19.670  20.592  1.00  0.00     0.041 A 
ATOM     76  F   UNL     1       1.390 -18.853  19.504  1.00  0.00    -0.206 F 
ATOM     77  C   UNL     1      -1.809 -20.182  20.543  1.00  0.00     0.022 A 
BRANCH  74  78
ATOM     78  S   UNL     1      -4.130 -20.918  19.181  1.00  0.00     0.124 S 
ATOM     79  O   UNL     1      -4.641 -19.837  18.342  1.00  0.00    -0.237 OA
ATOM     80  O   UNL     1      -4.089 -22.240  18.567  1.00  0.00    -0.237 OA
ATOM     81  O   UNL     1      -4.587 -20.887  20.569  1.00  0.00    -0.744 OA
ENDBRANCH  74  78
ENDBRANCH  57  71
BRANCH  58  82
ATOM     82  C   UNL     1       4.481 -16.886   9.842  1.00  0.00     0.023 A 
ATOM     83  C   UNL     1       4.830 -17.772   8.810  1.00  0.00     0.031 A 
ATOM     84  C   UNL     1       4.876 -15.542   9.718  1.00  0.00     0.131 A 
ATOM     85  C   UNL     1       5.582 -17.312   7.718  1.00  0.00     0.055 A 
ATOM     86  C   UNL     1       5.581 -15.079   8.606  1.00  0.00     0.041 A 
ATOM     87  F   UNL     1       4.563 -14.652  10.674  1.00  0.00    -0.206 F 
ATOM     88  C   UNL     1       5.947 -15.969   7.602  1.00  0.00     0.022 A 
BRANCH  85  89
ATOM     89  S   UNL     1       6.136 -18.513   6.476  1.00  0.00     0.124 S 
ATOM     90  O   UNL     1       6.933 -19.430   7.284  1.00  0.00    -0.237 OA
ATOM     91  O   UNL     1       4.870 -19.036   5.973  1.00  0.00    -0.237 OA
ATOM     92  O   UNL     1       6.892 -17.698   5.527  1.00  0.00    -0.744 OA
ENDBRANCH  85  89
ENDBRANCH  58  82
BRANCH  70  93
ATOM     93  C   UNL     1       6.005 -21.315  15.017  1.00  0.00     0.023 A 
ATOM     94  C   UNL     1       7.281 -20.783  15.276  1.00  0.00     0.031 A 
ATOM     95  C   UNL     1       5.867 -22.714  14.986  1.00  0.00     0.131 A 
ATOM     96  C   UNL     1       8.378 -21.644  15.434  1.00  0.00     0.055 A 
ATOM     97  C   UNL     1       6.949 -23.566  15.209  1.00  0.00     0.041 A 
ATOM     98  F   UNL     1       4.673 -23.277  14.739  1.00  0.00    -0.206 F 
ATOM     99  C   UNL     1       8.217 -23.032  15.421  1.00  0.00     0.022 A 
BRANCH  96 100
ATOM    100  S   UNL     1      10.039 -20.925  15.557  1.00  0.00     0.124 S 
ATOM    101  O   UNL     1      10.135 -20.171  14.311  1.00  0.00    -0.237 OA
ATOM    102  O   UNL     1       9.946 -20.131  16.778  1.00  0.00    -0.237 OA
ATOM    103  O   UNL     1      10.913 -22.093  15.643  1.00  0.00    -0.744 OA
ENDBRANCH  96 100
ENDBRANCH  70  93
ENDBRANCH  44  45
ENDBRANCH  36  39
ENDBRANCH  34  35
ENDBRANCH  33  34
ENDBRANCH  32  33
ENDBRANCH  31  32
ENDBRANCH  29  31
ENDBRANCH   1  27
TORSDOF 23
