REMARK SMILES C[C@H](c1ccc(Br)s1)[NH+]1CCC(CC(=O)NCCCCNC(=O)c2ccc(-c3c4nc(c(-c5cc(S(=O)(=O)[O-])ccc5F)c5ccc([nH]5)c(-c5cc(S(=O)(=O)[O-])ccc5F)c5nc(c(-c6cc(S(=O)(=O)[O-])ccc6F)c6ccc3[nH]6)C=C5)C=C4)cc2)CC1
REMARK SMILES IDX 18 1 17 2 16 3 14 4 15 5 13 7 12 8 9 9 10 10 88 11 11 13
REMARK SMILES IDX 87 14 2 15 1 16 3 17 4 18 8 19 5 20 6 21 7 22 19 23 20 24
REMARK SMILES IDX 21 25 22 26 23 28 24 29 25 30 86 31 26 32 85 33 27 34 28 35
REMARK SMILES IDX 29 36 79 37 30 38 84 39 78 40 80 41 31 42 83 43 77 44 76 45
REMARK SMILES IDX 32 47 64 48 44 49 63 50 45 51 48 52 62 53 81 54 46 55 47 56
REMARK SMILES IDX 61 58 82 59 49 60 33 61 34 62 42 63 35 64 41 65 43 66 40 67
REMARK SMILES IDX 36 68 37 69 38 70 39 71 65 72 66 73 74 74 67 75 73 76 75 77
REMARK SMILES IDX 72 78 68 79 69 80 70 81 71 82 50 83 51 84 59 85 52 86 58 87
REMARK SMILES IDX 60 88 57 89 53 90 54 91 55 92 56 93
REMARK H PARENT 16 6 9 12 21 27 80 46 48 57
REMARK Flexibility Score: inf
ROOT
ATOM      1  C   UNL     1      -3.745   5.275  -0.207  1.00  0.00     0.023 C 
ENDROOT
BRANCH   1   2
ATOM      2  C   UNL     1      -5.046   4.534   0.129  1.00  0.00     0.116 C 
BRANCH   2   3
ATOM      3  N   UNL     1      -5.646   3.912  -1.043  1.00  0.00    -0.356 N 
ATOM      4  C   UNL     1      -5.726   2.599  -1.412  1.00  0.00     0.220 C 
ATOM      5  O   UNL     1      -6.280   2.321  -2.478  1.00  0.00    -0.275 OA
ATOM      6  H   UNL     1      -6.064   4.542  -1.673  1.00  0.00     0.163 HD
BRANCH   4   7
ATOM      7  C   UNL     1      -5.126   1.500  -0.546  1.00  0.00     0.104 C 
BRANCH   7   8
ATOM      8  C   UNL     1      -3.687   1.114  -0.945  1.00  0.00     0.009 C 
ATOM      9  N   UNL     1      -0.866   1.041  -0.032  1.00  0.00    -0.328 N 
ATOM     10  C   UNL     1      -1.280   2.041  -1.004  1.00  0.00     0.263 C 
ATOM     11  C   UNL     1      -1.635  -0.202  -0.206  1.00  0.00     0.263 C 
ATOM     12  H   UNL     1      -1.115   1.397   0.890  1.00  0.00     0.348 HD
ATOM     13  C   UNL     1      -2.765   2.319  -0.875  1.00  0.00     0.066 C 
ATOM     14  C   UNL     1      -3.144   0.009  -0.035  1.00  0.00     0.066 C 
BRANCH   9  15
ATOM     15  C   UNL     1       0.605   0.889   0.139  1.00  0.00     0.222 C 
ATOM     16  C   UNL     1       1.483   2.015  -0.448  1.00  0.00     0.082 C 
BRANCH  15  17
ATOM     17  C   UNL     1       1.145  -0.452  -0.318  1.00  0.00     0.063 A 
ATOM     18  C   UNL     1       1.277  -0.952  -1.602  1.00  0.00     0.023 A 
ATOM     19  S   UNL     1       1.647  -1.611   0.854  1.00  0.00    -0.127 S 
ATOM     20  C   UNL     1       1.668  -2.324  -1.610  1.00  0.00     0.028 A 
ATOM     21  C   UNL     1       1.868  -2.791  -0.337  1.00  0.00     0.070 A 
ATOM     22  Br  UNL     1       2.326  -4.563   0.061  1.00  0.00    -0.039 Br
ENDBRANCH  15  17
ENDBRANCH   9  15
ENDBRANCH   7   8
ENDBRANCH   4   7
ENDBRANCH   2   3
ENDBRANCH   1   2
BRANCH   1  23
ATOM     23  C   UNL     1      -3.899   6.724  -0.628  1.00  0.00     0.023 C 
BRANCH  23  24
ATOM     24  C   UNL     1      -4.337   7.652   0.488  1.00  0.00     0.116 C 
BRANCH  24  25
ATOM     25  N   UNL     1      -3.411   7.686   1.615  1.00  0.00    -0.352 N 
ATOM     26  C   UNL     1      -2.894   8.784   2.272  1.00  0.00     0.251 C 
ATOM     27  H   UNL     1      -3.116   6.809   1.952  1.00  0.00     0.163 HD
ATOM     28  O   UNL     1      -2.048   8.648   3.141  1.00  0.00    -0.269 OA
BRANCH  26  29
ATOM     29  C   UNL     1      -3.351  10.125   1.853  1.00  0.00     0.039 A 
ATOM     30  C   UNL     1      -2.401  11.088   1.507  1.00  0.00     0.014 A 
ATOM     31  C   UNL     1      -4.713  10.368   1.671  1.00  0.00     0.014 A 
ATOM     32  C   UNL     1      -2.817  12.255   0.866  1.00  0.00     0.010 A 
ATOM     33  C   UNL     1      -5.111  11.474   0.934  1.00  0.00     0.010 A 
ATOM     34  C   UNL     1      -4.167  12.423   0.514  1.00  0.00    -0.014 A 
BRANCH  34  35
ATOM     35  C   UNL     1      -4.625  13.574  -0.304  1.00  0.00     0.031 A 
ATOM     36  C   UNL     1      -5.652  14.518   0.255  1.00  0.00     0.074 A 
ATOM     37  C   UNL     1      -4.197  13.705  -1.576  1.00  0.00     0.049 A 
ATOM     38  N   UNL     1      -6.284  15.499  -0.334  1.00  0.00    -0.248 NA
ATOM     39  C   UNL     1      -6.056  14.294   1.652  1.00  0.00     0.031 C 
ATOM     40  C   UNL     1      -3.244  12.816  -2.247  1.00  0.00     0.029 A 
ATOM     41  N   UNL     1      -4.518  14.628  -2.539  1.00  0.00    -0.354 N 
ATOM     42  C   UNL     1      -7.173  15.995   0.614  1.00  0.00     0.074 A 
ATOM     43  C   UNL     1      -7.051  15.155   1.785  1.00  0.00     0.031 C 
ATOM     44  C   UNL     1      -3.036  13.255  -3.499  1.00  0.00     0.029 A 
ATOM     45  C   UNL     1      -3.877  14.423  -3.740  1.00  0.00     0.049 A 
ATOM     46  H   UNL     1      -5.147  15.369  -2.385  1.00  0.00     0.167 HD
ATOM     47  C   UNL     1      -7.992  17.072   0.525  1.00  0.00     0.034 A 
ATOM     48  C   UNL     1      -3.971  15.090  -4.907  1.00  0.00     0.034 A 
ATOM     49  C   UNL     1      -8.078  17.910  -0.644  1.00  0.00     0.049 A 
ATOM     50  C   UNL     1      -4.911  16.265  -4.994  1.00  0.00     0.074 A 
ATOM     51  C   UNL     1      -8.803  19.075  -0.819  1.00  0.00     0.029 A 
ATOM     52  N   UNL     1      -7.424  17.665  -1.845  1.00  0.00    -0.354 N 
ATOM     53  N   UNL     1      -5.697  16.763  -4.068  1.00  0.00    -0.248 NA
ATOM     54  C   UNL     1      -4.978  16.963  -6.284  1.00  0.00     0.031 C 
ATOM     55  C   UNL     1      -8.639  19.497  -2.143  1.00  0.00     0.029 A 
ATOM     56  C   UNL     1      -7.761  18.633  -2.778  1.00  0.00     0.049 A 
ATOM     57  H   UNL     1      -6.810  16.913  -2.009  1.00  0.00     0.167 HD
ATOM     58  C   UNL     1      -6.343  17.843  -4.661  1.00  0.00     0.074 A 
ATOM     59  C   UNL     1      -5.838  17.935  -6.016  1.00  0.00     0.031 C 
ATOM     60  C   UNL     1      -7.268  18.686  -4.134  1.00  0.00     0.034 A 
BRANCH  47  61
ATOM     61  C   UNL     1      -8.860  17.378   1.722  1.00  0.00     0.023 A 
ATOM     62  C   UNL     1      -8.302  17.685   2.977  1.00  0.00     0.031 A 
ATOM     63  C   UNL     1     -10.260  17.308   1.626  1.00  0.00     0.131 A 
ATOM     64  C   UNL     1      -9.130  17.814   4.101  1.00  0.00     0.055 A 
ATOM     65  C   UNL     1     -11.085  17.526   2.732  1.00  0.00     0.041 A 
ATOM     66  F   UNL     1     -10.851  16.999   0.462  1.00  0.00    -0.206 F 
ATOM     67  C   UNL     1     -10.521  17.761   3.983  1.00  0.00     0.022 A 
BRANCH  64  68
ATOM     68  S   UNL     1      -8.356  17.881   5.740  1.00  0.00     0.124 S 
ATOM     69  O   UNL     1      -7.608  16.626   5.763  1.00  0.00    -0.237 OA
ATOM     70  O   UNL     1      -7.559  19.099   5.661  1.00  0.00    -0.237 OA
ATOM     71  O   UNL     1      -9.495  17.936   6.654  1.00  0.00    -0.744 OA
ENDBRANCH  64  68
ENDBRANCH  47  61
BRANCH  48  72
ATOM     72  C   UNL     1      -3.172  14.661  -6.089  1.00  0.00     0.023 A 
ATOM     73  C   UNL     1      -2.156  15.480  -6.608  1.00  0.00     0.031 A 
ATOM     74  C   UNL     1      -3.428  13.439  -6.735  1.00  0.00     0.131 A 
ATOM     75  C   UNL     1      -1.456  15.083  -7.758  1.00  0.00     0.055 A 
ATOM     76  C   UNL     1      -2.699  13.028  -7.853  1.00  0.00     0.041 A 
ATOM     77  F   UNL     1      -4.384  12.616  -6.275  1.00  0.00    -0.206 F 
ATOM     78  C   UNL     1      -1.713  13.857  -8.377  1.00  0.00     0.022 A 
BRANCH  75  79
ATOM     79  S   UNL     1      -0.242  16.225  -8.474  1.00  0.00     0.124 S 
ATOM     80  O   UNL     1      -1.067  17.391  -8.769  1.00  0.00    -0.237 OA
ATOM     81  O   UNL     1       0.714  16.374  -7.381  1.00  0.00    -0.237 OA
ATOM     82  O   UNL     1       0.259  15.502  -9.641  1.00  0.00    -0.744 OA
ENDBRANCH  75  79
ENDBRANCH  48  72
BRANCH  60  83
ATOM     83  C   UNL     1      -7.778  19.782  -5.033  1.00  0.00     0.023 A 
ATOM     84  C   UNL     1      -8.597  19.499  -6.140  1.00  0.00     0.031 A 
ATOM     85  C   UNL     1      -7.440  21.123  -4.782  1.00  0.00     0.131 A 
ATOM     86  C   UNL     1      -9.014  20.539  -6.982  1.00  0.00     0.055 A 
ATOM     87  C   UNL     1      -7.903  22.160  -5.592  1.00  0.00     0.041 A 
ATOM     88  F   UNL     1      -6.658  21.446  -3.739  1.00  0.00    -0.206 F 
ATOM     89  C   UNL     1      -8.687  21.870  -6.705  1.00  0.00     0.022 A 
BRANCH  86  90
ATOM     90  S   UNL     1      -9.936  20.124  -8.487  1.00  0.00     0.124 S 
ATOM     91  O   UNL     1      -8.972  19.308  -9.217  1.00  0.00    -0.237 OA
ATOM     92  O   UNL     1     -11.099  19.418  -7.959  1.00  0.00    -0.237 OA
ATOM     93  O   UNL     1     -10.223  21.427  -9.084  1.00  0.00    -0.744 OA
ENDBRANCH  86  90
ENDBRANCH  60  83
ENDBRANCH  34  35
ENDBRANCH  26  29
ENDBRANCH  24  25
ENDBRANCH  23  24
ENDBRANCH   1  23
TORSDOF 17
