REMARK SMILES CC(C)(C)OC(=O)N1C[C@@H](Oc2cccnc2)C[C@H]1C(=O)NCCCCNC(=O)c1ccc(-c2c3nc(c(-c4cc(S(=O)(=O)[O-])ccc4F)c4ccc([nH]4)c(-c4cc(S(=O)(=O)[O-])ccc4F)c4nc(c(-c5cc(S(=O)(=O)[O-])ccc5F)c5ccc2[nH]5)C=C4)C=C3)cc1
REMARK SMILES IDX 24 1 23 2 22 3 20 4 21 5 19 7 8 8 9 9 10 10 18 11 6 12 7 13
REMARK SMILES IDX 5 14 2 15 1 16 3 17 4 18 11 19 12 20 13 21 17 22 14 23 16 24
REMARK SMILES IDX 15 25 25 26 26 27 27 28 28 29 29 31 30 32 31 33 92 34 32 35
REMARK SMILES IDX 91 36 33 37 34 38 35 39 85 40 36 41 90 42 84 43 86 44 37 45
REMARK SMILES IDX 89 46 83 47 82 48 38 50 70 51 50 52 69 53 51 54 54 55 68 56
REMARK SMILES IDX 87 57 52 58 53 59 67 61 88 62 55 63 39 64 40 65 48 66 41 67
REMARK SMILES IDX 47 68 49 69 46 70 42 71 43 72 44 73 45 74 71 75 72 76 80 77
REMARK SMILES IDX 73 78 79 79 81 80 78 81 74 82 75 83 76 84 77 85 56 86 57 87
REMARK SMILES IDX 65 88 58 89 64 90 66 91 63 92 59 93 60 94 61 95 62 96
REMARK H PARENT 22 6 27 30 86 49 54 60
REMARK Flexibility Score: inf
ROOT
ATOM      1  C   UNL     1      -0.708  -4.995   2.437  1.00  0.00     0.023 C 
ENDROOT
BRANCH   1   2
ATOM      2  C   UNL     1       0.611  -5.543   1.893  1.00  0.00     0.116 C 
BRANCH   2   3
ATOM      3  N   UNL     1       0.402  -6.762   1.142  1.00  0.00    -0.354 N 
ATOM      4  C   UNL     1       0.228  -7.013  -0.180  1.00  0.00     0.243 C 
ATOM      5  O   UNL     1      -0.086  -8.178  -0.462  1.00  0.00    -0.273 OA
ATOM      6  H   UNL     1       0.381  -7.571   1.703  1.00  0.00     0.163 HD
BRANCH   4   7
ATOM      7  C   UNL     1       0.362  -5.966  -1.320  1.00  0.00     0.181 C 
ATOM      8  N   UNL     1       0.965  -4.669  -1.050  1.00  0.00    -0.292 N 
ATOM      9  C   UNL     1       2.379  -4.672  -1.367  1.00  0.00     0.169 C 
ATOM     10  C   UNL     1       2.457  -5.628  -2.551  1.00  0.00     0.195 C 
ATOM     11  C   UNL     1       1.249  -6.569  -2.435  1.00  0.00     0.082 C 
BRANCH   8  12
ATOM     12  C   UNL     1       0.215  -3.593  -0.633  1.00  0.00     0.411 C 
ATOM     13  O   UNL     1      -0.988  -3.670  -0.453  1.00  0.00    -0.224 OA
BRANCH  12  14
ATOM     14  O   UNL     1       0.984  -2.502  -0.391  1.00  0.00    -0.444 OA
BRANCH  14  15
ATOM     15  C   UNL     1       0.530  -1.339   0.366  1.00  0.00     0.106 C 
ATOM     16  C   UNL     1       1.147  -0.120  -0.331  1.00  0.00     0.056 C 
ATOM     17  C   UNL     1       1.132  -1.458   1.771  1.00  0.00     0.056 C 
ATOM     18  C   UNL     1      -0.987  -1.131   0.458  1.00  0.00     0.056 C 
ENDBRANCH  14  15
ENDBRANCH  12  14
ENDBRANCH   8  12
BRANCH  10  19
ATOM     19  O   UNL     1       3.725  -6.210  -2.821  1.00  0.00    -0.487 OA
BRANCH  19  20
ATOM     20  C   UNL     1       4.306  -7.171  -2.058  1.00  0.00     0.138 A 
ATOM     21  C   UNL     1       3.858  -7.698  -0.856  1.00  0.00     0.050 A 
ATOM     22  C   UNL     1       5.500  -7.686  -2.561  1.00  0.00     0.157 A 
ATOM     23  C   UNL     1       4.587  -8.712  -0.227  1.00  0.00     0.024 A 
ATOM     24  N   UNL     1       6.238  -8.662  -1.976  1.00  0.00    -0.261 NA
ATOM     25  C   UNL     1       5.757  -9.157  -0.819  1.00  0.00     0.111 A 
ENDBRANCH  19  20
ENDBRANCH  10  19
ENDBRANCH   4   7
ENDBRANCH   2   3
ENDBRANCH   1   2
BRANCH   1  26
ATOM     26  C   UNL     1      -1.096  -5.545   3.810  1.00  0.00     0.023 C 
BRANCH  26  27
ATOM     27  C   UNL     1      -0.068  -5.321   4.916  1.00  0.00     0.116 C 
BRANCH  27  28
ATOM     28  N   UNL     1       0.315  -3.928   5.096  1.00  0.00    -0.352 N 
ATOM     29  C   UNL     1       0.678  -3.297   6.265  1.00  0.00     0.251 C 
ATOM     30  H   UNL     1       0.315  -3.370   4.285  1.00  0.00     0.163 HD
ATOM     31  O   UNL     1       0.891  -2.090   6.280  1.00  0.00    -0.269 OA
BRANCH  29  32
ATOM     32  C   UNL     1       0.751  -4.098   7.505  1.00  0.00     0.039 A 
ATOM     33  C   UNL     1       0.013  -3.693   8.618  1.00  0.00     0.014 A 
ATOM     34  C   UNL     1       1.467  -5.298   7.524  1.00  0.00     0.014 A 
ATOM     35  C   UNL     1      -0.075  -4.538   9.725  1.00  0.00     0.010 A 
ATOM     36  C   UNL     1       1.308  -6.173   8.593  1.00  0.00     0.010 A 
ATOM     37  C   UNL     1       0.531  -5.806   9.703  1.00  0.00    -0.014 A 
BRANCH  37  38
ATOM     38  C   UNL     1       0.358  -6.765  10.826  1.00  0.00     0.031 A 
ATOM     39  C   UNL     1       1.557  -7.224  11.610  1.00  0.00     0.074 A 
ATOM     40  C   UNL     1      -0.863  -7.269  11.095  1.00  0.00     0.049 A 
ATOM     41  N   UNL     1       1.628  -8.106  12.574  1.00  0.00    -0.248 NA
ATOM     42  C   UNL     1       2.853  -6.637  11.238  1.00  0.00     0.031 C 
ATOM     43  C   UNL     1      -2.094  -6.933  10.375  1.00  0.00     0.029 A 
ATOM     44  N   UNL     1      -1.274  -8.175  12.041  1.00  0.00    -0.354 N 
ATOM     45  C   UNL     1       2.974  -8.188  12.914  1.00  0.00     0.074 A 
ATOM     46  C   UNL     1       3.689  -7.319  12.005  1.00  0.00     0.031 C 
ATOM     47  C   UNL     1      -3.123  -7.595  10.928  1.00  0.00     0.029 A 
ATOM     48  C   UNL     1      -2.623  -8.443  12.005  1.00  0.00     0.049 A 
ATOM     49  H   UNL     1      -0.659  -8.595  12.686  1.00  0.00     0.167 HD
ATOM     50  C   UNL     1       3.555  -8.902  13.909  1.00  0.00     0.034 A 
ATOM     51  C   UNL     1      -3.371  -9.284  12.748  1.00  0.00     0.034 A 
ATOM     52  C   UNL     1       2.823  -9.755  14.814  1.00  0.00     0.049 A 
ATOM     53  C   UNL     1      -2.696 -10.096  13.826  1.00  0.00     0.074 A 
ATOM     54  C   UNL     1       3.302 -10.477  15.893  1.00  0.00     0.029 A 
ATOM     55  N   UNL     1       1.459 -10.009  14.741  1.00  0.00    -0.354 N 
ATOM     56  N   UNL     1      -1.429 -10.118  14.172  1.00  0.00    -0.248 NA
ATOM     57  C   UNL     1      -3.552 -10.986  14.619  1.00  0.00     0.031 C 
ATOM     58  C   UNL     1       2.246 -11.228  16.420  1.00  0.00     0.029 A 
ATOM     59  C   UNL     1       1.088 -10.907  15.730  1.00  0.00     0.049 A 
ATOM     60  H   UNL     1       0.845  -9.610  14.082  1.00  0.00     0.167 HD
ATOM     61  C   UNL     1      -1.345 -11.000  15.248  1.00  0.00     0.074 A 
ATOM     62  C   UNL     1      -2.691 -11.473  15.500  1.00  0.00     0.031 C 
ATOM     63  C   UNL     1      -0.257 -11.379  15.965  1.00  0.00     0.034 A 
BRANCH  50  64
ATOM     64  C   UNL     1       5.057  -8.808  14.048  1.00  0.00     0.023 A 
ATOM     65  C   UNL     1       5.699  -7.590  14.331  1.00  0.00     0.031 A 
ATOM     66  C   UNL     1       5.861  -9.948  13.869  1.00  0.00     0.131 A 
ATOM     67  C   UNL     1       7.100  -7.523  14.346  1.00  0.00     0.055 A 
ATOM     68  C   UNL     1       7.252  -9.892  13.975  1.00  0.00     0.041 A 
ATOM     69  F   UNL     1       5.309 -11.135  13.574  1.00  0.00    -0.206 F 
ATOM     70  C   UNL     1       7.881  -8.671  14.198  1.00  0.00     0.022 A 
BRANCH  67  71
ATOM     71  S   UNL     1       7.887  -5.889  14.405  1.00  0.00     0.124 S 
ATOM     72  O   UNL     1       7.332  -5.252  13.213  1.00  0.00    -0.237 OA
ATOM     73  O   UNL     1       7.426  -5.363  15.684  1.00  0.00    -0.237 OA
ATOM     74  O   UNL     1       9.315  -6.194  14.332  1.00  0.00    -0.744 OA
ENDBRANCH  67  71
ENDBRANCH  50  64
BRANCH  51  75
ATOM     75  C   UNL     1      -4.838  -9.417  12.503  1.00  0.00     0.023 A 
ATOM     76  C   UNL     1      -5.770  -9.068  13.492  1.00  0.00     0.031 A 
ATOM     77  C   UNL     1      -5.329  -9.945  11.295  1.00  0.00     0.131 A 
ATOM     78  C   UNL     1      -7.139  -9.298  13.280  1.00  0.00     0.055 A 
ATOM     79  C   UNL     1      -6.695 -10.116  11.064  1.00  0.00     0.041 A 
ATOM     80  F   UNL     1      -4.483 -10.295  10.313  1.00  0.00    -0.206 F 
ATOM     81  C   UNL     1      -7.609  -9.805  12.066  1.00  0.00     0.022 A 
BRANCH  78  82
ATOM     82  S   UNL     1      -8.290  -9.016  14.652  1.00  0.00     0.124 S 
ATOM     83  O   UNL     1      -7.751  -9.901  15.678  1.00  0.00    -0.237 OA
ATOM     84  O   UNL     1      -8.133  -7.585  14.891  1.00  0.00    -0.237 OA
ATOM     85  O   UNL     1      -9.583  -9.415  14.099  1.00  0.00    -0.744 OA
ENDBRANCH  78  82
ENDBRANCH  51  75
BRANCH  63  86
ATOM     86  C   UNL     1      -0.489 -12.317  17.125  1.00  0.00     0.023 A 
ATOM     87  C   UNL     1      -0.939 -13.636  16.937  1.00  0.00     0.031 A 
ATOM     88  C   UNL     1      -0.262 -11.880  18.443  1.00  0.00     0.131 A 
ATOM     89  C   UNL     1      -1.202 -14.450  18.048  1.00  0.00     0.055 A 
ATOM     90  C   UNL     1      -0.460 -12.717  19.541  1.00  0.00     0.041 A 
ATOM     91  F   UNL     1       0.164 -10.629  18.684  1.00  0.00    -0.206 F 
ATOM     92  C   UNL     1      -0.946 -14.006  19.348  1.00  0.00     0.022 A 
BRANCH  89  93
ATOM     93  S   UNL     1      -1.978 -16.067  17.779  1.00  0.00     0.124 S 
ATOM     94  O   UNL     1      -3.213 -15.700  17.094  1.00  0.00    -0.237 OA
ATOM     95  O   UNL     1      -0.982 -16.761  16.969  1.00  0.00    -0.237 OA
ATOM     96  O   UNL     1      -2.152 -16.594  19.131  1.00  0.00    -0.744 OA
ENDBRANCH  89  93
ENDBRANCH  63  86
ENDBRANCH  37  38
ENDBRANCH  29  32
ENDBRANCH  27  28
ENDBRANCH  26  27
ENDBRANCH   1  26
TORSDOF 19
