REMARK SMILES CCOC[C@@H](O)C[C@]1(C(=O)NCCCCNC(=O)c2ccc(-c3c4nc(c(-c5cc(S(=O)(=O)[O-])ccc5F)c5ccc([nH]5)c(-c5cc(S(=O)(=O)[O-])ccc5F)c5nc(c(-c6cc(S(=O)(=O)[O-])ccc6F)c6ccc3[nH]6)C=C5)C=C4)cc2)CCc2ccccc21
REMARK SMILES IDX 12 1 11 2 9 3 10 4 8 6 82 7 89 8 83 9 84 10 88 11 85 12
REMARK SMILES IDX 87 13 86 14 7 15 5 16 4 17 3 18 2 19 1 20 6 21 13 23 14 24
REMARK SMILES IDX 15 25 16 26 17 27 18 29 19 30 20 31 81 32 21 33 80 34 22 35
REMARK SMILES IDX 23 36 24 37 74 38 25 39 79 40 73 41 75 42 26 43 78 44 72 45
REMARK SMILES IDX 71 46 27 48 59 49 39 50 58 51 40 52 43 53 57 54 76 55 41 56
REMARK SMILES IDX 42 57 56 59 77 60 44 61 28 62 29 63 37 64 30 65 36 66 38 67
REMARK SMILES IDX 35 68 31 69 32 70 33 71 34 72 60 73 61 74 69 75 62 76 68 77
REMARK SMILES IDX 70 78 67 79 63 80 64 81 65 82 66 83 45 84 46 85 54 86 47 87
REMARK SMILES IDX 53 88 55 89 52 90 48 91 49 92 50 93 51 94
REMARK H PARENT 11 5 6 22 16 28 75 47 43 58
REMARK Flexibility Score: inf
ROOT
ATOM      1  C   UNL     1       5.621  -5.093   2.901  1.00  0.00     0.116 C 
ENDROOT
BRANCH   1   2
ATOM      2  N   UNL     1       5.229  -3.745   2.552  1.00  0.00    -0.355 N 
ATOM      3  C   UNL     1       5.024  -3.135   1.359  1.00  0.00     0.230 C 
ATOM      4  O   UNL     1       4.960  -1.900   1.421  1.00  0.00    -0.274 OA
ATOM      5  H   UNL     1       5.083  -3.159   3.329  1.00  0.00     0.163 HD
BRANCH   3   6
ATOM      6  C   UNL     1       4.939  -3.855  -0.006  1.00  0.00     0.077 C 
ATOM      7  C   UNL     1       6.390  -4.262  -0.443  1.00  0.00     0.026 C 
ATOM      8  C   UNL     1       4.218  -5.188  -0.042  1.00  0.00    -0.029 A 
ATOM      9  C   UNL     1       6.507  -5.789  -0.461  1.00  0.00     0.037 C 
ATOM     10  C   UNL     1       5.090  -6.241  -0.353  1.00  0.00    -0.044 A 
ATOM     11  C   UNL     1       2.882  -5.468   0.224  1.00  0.00     0.005 A 
ATOM     12  C   UNL     1       4.651  -7.558  -0.412  1.00  0.00     0.004 A 
ATOM     13  C   UNL     1       2.426  -6.788   0.144  1.00  0.00     0.000 A 
ATOM     14  C   UNL     1       3.305  -7.827  -0.172  1.00  0.00     0.000 A 
BRANCH   6  15
ATOM     15  C   UNL     1       4.400  -2.863  -1.088  1.00  0.00     0.056 C 
BRANCH  15  16
ATOM     16  C   UNL     1       2.908  -2.477  -1.113  1.00  0.00     0.141 C 
BRANCH  16  17
ATOM     17  C   UNL     1       2.320  -1.906   0.188  1.00  0.00     0.191 C 
BRANCH  17  18
ATOM     18  O   UNL     1       0.885  -1.937   0.209  1.00  0.00    -0.379 OA
BRANCH  18  19
ATOM     19  C   UNL     1       0.204  -0.935  -0.534  1.00  0.00     0.157 C 
ATOM     20  C   UNL     1       0.568   0.485  -0.144  1.00  0.00     0.035 C 
ENDBRANCH  18  19
ENDBRANCH  17  18
ENDBRANCH  16  17
BRANCH  16  21
ATOM     21  O   UNL     1       2.790  -1.494  -2.161  1.00  0.00    -0.391 OA
ATOM     22  H   UNL     1       3.330  -0.720  -1.941  1.00  0.00     0.211 HD
ENDBRANCH  16  21
ENDBRANCH  15  16
ENDBRANCH   6  15
ENDBRANCH   3   6
ENDBRANCH   1   2
BRANCH   1  23
ATOM     23  C   UNL     1       7.127  -5.167   3.147  1.00  0.00     0.023 C 
BRANCH  23  24
ATOM     24  C   UNL     1       7.572  -4.579   4.489  1.00  0.00     0.023 C 
BRANCH  24  25
ATOM     25  C   UNL     1       6.930  -5.220   5.715  1.00  0.00     0.116 C 
BRANCH  25  26
ATOM     26  N   UNL     1       7.081  -6.666   5.750  1.00  0.00    -0.352 N 
ATOM     27  C   UNL     1       7.183  -7.487   6.849  1.00  0.00     0.251 C 
ATOM     28  H   UNL     1       7.114  -7.115   4.875  1.00  0.00     0.163 HD
ATOM     29  O   UNL     1       7.422  -8.677   6.706  1.00  0.00    -0.269 OA
BRANCH  27  30
ATOM     30  C   UNL     1       7.045  -6.896   8.196  1.00  0.00     0.039 A 
ATOM     31  C   UNL     1       8.026  -7.167   9.151  1.00  0.00     0.014 A 
ATOM     32  C   UNL     1       5.978  -6.044   8.494  1.00  0.00     0.014 A 
ATOM     33  C   UNL     1       7.970  -6.529  10.391  1.00  0.00     0.010 A 
ATOM     34  C   UNL     1       5.964  -5.356   9.702  1.00  0.00     0.010 A 
ATOM     35  C   UNL     1       6.958  -5.592  10.663  1.00  0.00    -0.014 A 
BRANCH  35  36
ATOM     36  C   UNL     1       6.925  -4.857  11.953  1.00  0.00     0.031 A 
ATOM     37  C   UNL     1       5.780  -5.065  12.905  1.00  0.00     0.074 A 
ATOM     38  C   UNL     1       7.892  -3.963  12.233  1.00  0.00     0.049 A 
ATOM     39  N   UNL     1       5.545  -4.487  14.055  1.00  0.00    -0.248 NA
ATOM     40  C   UNL     1       4.747  -6.026  12.493  1.00  0.00     0.031 C 
ATOM     41  C   UNL     1       9.020  -3.635  11.357  1.00  0.00     0.029 A 
ATOM     42  N   UNL     1       8.082  -3.159  13.329  1.00  0.00    -0.354 N 
ATOM     43  C   UNL     1       4.331  -5.002  14.496  1.00  0.00     0.074 A 
ATOM     44  C   UNL     1       3.850  -5.888  13.457  1.00  0.00     0.031 C 
ATOM     45  C   UNL     1       9.796  -2.721  11.961  1.00  0.00     0.029 A 
ATOM     46  C   UNL     1       9.205  -2.370  13.249  1.00  0.00     0.049 A 
ATOM     47  H   UNL     1       7.470  -3.149  14.100  1.00  0.00     0.167 HD
ATOM     48  C   UNL     1       3.691  -4.777  15.671  1.00  0.00     0.034 A 
ATOM     49  C   UNL     1       9.700  -1.464  14.114  1.00  0.00     0.034 A 
ATOM     50  C   UNL     1       4.196  -3.903  16.700  1.00  0.00     0.049 A 
ATOM     51  C   UNL     1       8.978  -1.236  15.418  1.00  0.00     0.074 A 
ATOM     52  C   UNL     1       3.664  -3.645  17.952  1.00  0.00     0.029 A 
ATOM     53  N   UNL     1       5.351  -3.136  16.595  1.00  0.00    -0.354 N 
ATOM     54  N   UNL     1       7.863  -1.780  15.850  1.00  0.00    -0.248 NA
ATOM     55  C   UNL     1       9.589  -0.288  16.357  1.00  0.00     0.031 C 
ATOM     56  C   UNL     1       4.462  -2.680  18.578  1.00  0.00     0.029 A 
ATOM     57  C   UNL     1       5.534  -2.389  17.748  1.00  0.00     0.049 A 
ATOM     58  H   UNL     1       5.951  -3.126  15.815  1.00  0.00     0.167 HD
ATOM     59  C   UNL     1       7.659  -1.263  17.126  1.00  0.00     0.074 A 
ATOM     60  C   UNL     1       8.772  -0.376  17.396  1.00  0.00     0.031 C 
ATOM     61  C   UNL     1       6.647  -1.503  17.998  1.00  0.00     0.034 A 
BRANCH  48  62
ATOM     62  C   UNL     1       2.368  -5.476  15.883  1.00  0.00     0.023 A 
ATOM     63  C   UNL     1       2.271  -6.879  15.917  1.00  0.00     0.031 A 
ATOM     64  C   UNL     1       1.182  -4.733  16.015  1.00  0.00     0.131 A 
ATOM     65  C   UNL     1       1.013  -7.494  15.992  1.00  0.00     0.055 A 
ATOM     66  C   UNL     1      -0.060  -5.352  16.177  1.00  0.00     0.041 A 
ATOM     67  F   UNL     1       1.206  -3.392  15.971  1.00  0.00    -0.206 F 
ATOM     68  C   UNL     1      -0.152  -6.740  16.148  1.00  0.00     0.022 A 
BRANCH  65  69
ATOM     69  S   UNL     1       0.909  -9.286  15.728  1.00  0.00     0.124 S 
ATOM     70  O   UNL     1       1.473  -9.418  14.386  1.00  0.00    -0.237 OA
ATOM     71  O   UNL     1       1.722  -9.813  16.817  1.00  0.00    -0.237 OA
ATOM     72  O   UNL     1      -0.522  -9.564  15.824  1.00  0.00    -0.744 OA
ENDBRANCH  65  69
ENDBRANCH  48  62
BRANCH  49  73
ATOM     73  C   UNL     1      10.944  -0.709  13.789  1.00  0.00     0.023 A 
ATOM     74  C   UNL     1      12.117  -0.889  14.538  1.00  0.00     0.031 A 
ATOM     75  C   UNL     1      10.967   0.229  12.742  1.00  0.00     0.131 A 
ATOM     76  C   UNL     1      13.251  -0.110  14.262  1.00  0.00     0.055 A 
ATOM     77  C   UNL     1      12.113   0.968  12.439  1.00  0.00     0.041 A 
ATOM     78  F   UNL     1       9.875   0.433  11.988  1.00  0.00    -0.206 F 
ATOM     79  C   UNL     1      13.260   0.809  13.210  1.00  0.00     0.022 A 
BRANCH  76  80
ATOM     80  S   UNL     1      14.694  -0.259  15.351  1.00  0.00     0.124 S 
ATOM     81  O   UNL     1      14.122   0.075  16.650  1.00  0.00    -0.237 OA
ATOM     82  O   UNL     1      15.076  -1.654  15.157  1.00  0.00    -0.237 OA
ATOM     83  O   UNL     1      15.631   0.723  14.809  1.00  0.00    -0.744 OA
ENDBRANCH  76  80
ENDBRANCH  49  73
BRANCH  61  84
ATOM     84  C   UNL     1       6.732  -0.831  19.346  1.00  0.00     0.023 A 
ATOM     85  C   UNL     1       6.614   0.562  19.489  1.00  0.00     0.031 A 
ATOM     86  C   UNL     1       6.947  -1.600  20.503  1.00  0.00     0.131 A 
ATOM     87  C   UNL     1       6.766   1.149  20.754  1.00  0.00     0.055 A 
ATOM     88  C   UNL     1       7.039  -1.016  21.767  1.00  0.00     0.041 A 
ATOM     89  F   UNL     1       7.068  -2.935  20.424  1.00  0.00    -0.206 F 
ATOM     90  C   UNL     1       6.962   0.368  21.896  1.00  0.00     0.022 A 
BRANCH  87  91
ATOM     91  S   UNL     1       6.795   2.959  20.877  1.00  0.00     0.124 S 
ATOM     92  O   UNL     1       7.912   3.305  20.003  1.00  0.00    -0.237 OA
ATOM     93  O   UNL     1       5.469   3.326  20.392  1.00  0.00    -0.237 OA
ATOM     94  O   UNL     1       7.024   3.202  22.300  1.00  0.00    -0.744 OA
ENDBRANCH  87  91
ENDBRANCH  61  84
ENDBRANCH  35  36
ENDBRANCH  27  30
ENDBRANCH  25  26
ENDBRANCH  24  25
ENDBRANCH  23  24
ENDBRANCH   1  23
TORSDOF 20
