REMARK SMILES CCCn1c(N2CCC[C@@H](C)C2)c(/C=C2/SC(=S)N(CC(=O)NCCCCNC(=O)c3ccc(-c4c5nc(c(-c6cc(S(=O)(=O)[O-])ccc6F)c6ccc([nH]6)c(-c6cc(S(=O)(=O)[O-])ccc6F)c6nc(c(-c7cc(S(=O)(=O)[O-])ccc7F)c7ccc4[nH]7)C=C6)C=C5)cc3)C2=O)c(C)c(C#N)c1=O
REMARK SMILES IDX 25 1 24 2 23 3 21 4 22 5 20 7 19 8 14 9 15 10 16 11 94 12
REMARK SMILES IDX 17 13 95 14 18 15 13 16 4 17 5 18 101 19 98 20 102 21 96 22
REMARK SMILES IDX 97 23 3 24 2 25 1 26 6 27 7 28 12 29 8 30 10 31 9 32 11 33
REMARK SMILES IDX 99 34 100 35 26 36 27 37 28 38 29 39 30 41 31 42 32 43 93 44
REMARK SMILES IDX 33 45 92 46 34 47 35 48 36 49 86 50 37 51 91 52 85 53 87 54
REMARK SMILES IDX 38 55 90 56 84 57 83 58 39 60 71 61 51 62 70 63 52 64 55 65
REMARK SMILES IDX 69 66 88 67 53 68 54 69 68 71 89 72 56 73 40 74 41 75 49 76
REMARK SMILES IDX 42 77 48 78 50 79 47 80 43 81 44 82 45 83 46 84 72 85 73 86
REMARK SMILES IDX 81 87 74 88 80 89 82 90 79 91 75 92 76 93 77 94 78 95 57 96
REMARK SMILES IDX 58 97 66 98 59 99 65 100 67 101 64 102 60 103 61 104 62 105
REMARK SMILES IDX 63 106
REMARK H PARENT 23 6 28 40 87 59 55 70
REMARK Flexibility Score: inf
ROOT
ATOM      1  C   UNL     1      -2.959   0.727   8.981  1.00  0.00     0.023 C 
ENDROOT
BRANCH   1   2
ATOM      2  C   UNL     1      -4.378   1.010   8.499  1.00  0.00     0.116 C 
BRANCH   2   3
ATOM      3  N   UNL     1      -4.416   1.503   7.139  1.00  0.00    -0.355 N 
ATOM      4  C   UNL     1      -4.941   0.925   6.019  1.00  0.00     0.240 C 
ATOM      5  O   UNL     1      -5.164   1.656   5.052  1.00  0.00    -0.273 OA
ATOM      6  H   UNL     1      -4.002   2.385   7.001  1.00  0.00     0.163 HD
BRANCH   4   7
ATOM      7  C   UNL     1      -5.374  -0.547   6.004  1.00  0.00     0.227 C 
BRANCH   7   8
ATOM      8  N   UNL     1      -4.297  -1.466   6.378  1.00  0.00    -0.283 N 
ATOM      9  C   UNL     1      -0.881  -2.517   5.700  1.00  0.00     0.033 C 
ATOM     10  C   UNL     1      -2.152  -2.408   6.118  1.00  0.00     0.081 C 
ATOM     11  S   UNL     1      -2.798  -3.260   7.465  1.00  0.00    -0.054 SA
ATOM     12  C   UNL     1      -3.203  -1.530   5.536  1.00  0.00     0.266 C 
ATOM     13  C   UNL     1      -4.340  -2.409   7.379  1.00  0.00     0.148 C 
ATOM     14  O   UNL     1      -3.119  -0.982   4.445  1.00  0.00    -0.268 OA
ATOM     15  S   UNL     1      -5.610  -2.800   8.387  1.00  0.00    -0.052 S 
BRANCH   9  16
ATOM     16  C   UNL     1      -0.276  -1.757   4.598  1.00  0.00     0.021 A 
ATOM     17  N   UNL     1       0.699  -1.599   2.416  1.00  0.00    -0.293 N 
ATOM     18  C   UNL     1       0.091  -2.383   3.428  1.00  0.00     0.119 A 
ATOM     19  C   UNL     1       1.057  -0.260   2.604  1.00  0.00     0.270 A 
ATOM     20  C   UNL     1       0.480   0.417   3.770  1.00  0.00     0.121 A 
ATOM     21  O   UNL     1       1.834   0.350   1.872  1.00  0.00    -0.268 OA
ATOM     22  C   UNL     1      -0.060  -0.307   4.763  1.00  0.00    -0.017 A 
ATOM     23  C   UNL     1      -0.412   0.330   6.095  1.00  0.00     0.047 C 
BRANCH  17  24
ATOM     24  C   UNL     1       1.052  -2.155   1.104  1.00  0.00     0.127 C 
BRANCH  24  25
ATOM     25  C   UNL     1       0.207  -1.636  -0.073  1.00  0.00     0.019 C 
ATOM     26  C   UNL     1       0.615  -0.275  -0.622  1.00  0.00     0.006 C 
ENDBRANCH  24  25
ENDBRANCH  17  24
BRANCH  18  27
ATOM     27  N   UNL     1      -0.058  -3.787   3.245  1.00  0.00    -0.357 N 
ATOM     28  C   UNL     1       1.144  -4.646   3.222  1.00  0.00     0.118 C 
ATOM     29  C   UNL     1      -1.286  -4.513   3.621  1.00  0.00     0.121 C 
ATOM     30  C   UNL     1       0.933  -5.830   2.278  1.00  0.00     0.022 C 
ATOM     31  C   UNL     1      -1.536  -5.742   2.743  1.00  0.00     0.005 C 
ATOM     32  C   UNL     1      -0.295  -6.638   2.679  1.00  0.00     0.007 C 
ATOM     33  C   UNL     1      -2.728  -6.531   3.291  1.00  0.00     0.009 C 
ENDBRANCH  18  27
BRANCH  20  34
ATOM     34  C   UNL     1       0.686   1.911   3.960  1.00  0.00     0.105 C 
ATOM     35  N   UNL     1       0.858   3.150   4.117  1.00  0.00    -0.192 NA
ENDBRANCH  20  34
ENDBRANCH   9  16
ENDBRANCH   7   8
ENDBRANCH   4   7
ENDBRANCH   2   3
ENDBRANCH   1   2
BRANCH   1  36
ATOM     36  C   UNL     1      -2.089   1.974   9.168  1.00  0.00     0.023 C 
BRANCH  36  37
ATOM     37  C   UNL     1      -2.620   2.991  10.177  1.00  0.00     0.116 C 
BRANCH  37  38
ATOM     38  N   UNL     1      -2.778   2.427  11.510  1.00  0.00    -0.352 N 
ATOM     39  C   UNL     1      -2.445   2.993  12.717  1.00  0.00     0.251 C 
ATOM     40  H   UNL     1      -3.174   1.527  11.552  1.00  0.00     0.163 HD
ATOM     41  O   UNL     1      -2.516   2.338  13.750  1.00  0.00    -0.269 OA
BRANCH  39  42
ATOM     42  C   UNL     1      -1.978   4.393  12.746  1.00  0.00     0.039 A 
ATOM     43  C   UNL     1      -0.752   4.687  13.346  1.00  0.00     0.014 A 
ATOM     44  C   UNL     1      -2.744   5.401  12.153  1.00  0.00     0.014 A 
ATOM     45  C   UNL     1      -0.264   5.994  13.304  1.00  0.00     0.010 A 
ATOM     46  C   UNL     1      -2.236   6.694  12.075  1.00  0.00     0.010 A 
ATOM     47  C   UNL     1      -0.994   7.000  12.652  1.00  0.00    -0.014 A 
BRANCH  47  48
ATOM     48  C   UNL     1      -0.480   8.388  12.575  1.00  0.00     0.031 A 
ATOM     49  C   UNL     1      -1.147   9.476  13.363  1.00  0.00     0.074 A 
ATOM     50  C   UNL     1       0.548   8.674  11.753  1.00  0.00     0.049 A 
ATOM     51  N   UNL     1      -0.866  10.752  13.406  1.00  0.00    -0.248 NA
ATOM     52  C   UNL     1      -2.292   9.082  14.200  1.00  0.00     0.031 C 
ATOM     53  C   UNL     1       1.244   7.704  10.907  1.00  0.00     0.029 A 
ATOM     54  N   UNL     1       1.176   9.864  11.485  1.00  0.00    -0.354 N 
ATOM     55  C   UNL     1      -1.796  11.313  14.271  1.00  0.00     0.074 A 
ATOM     56  C   UNL     1      -2.684  10.251  14.688  1.00  0.00     0.031 C 
ATOM     57  C   UNL     1       2.212   8.336  10.223  1.00  0.00     0.029 A 
ATOM     58  C   UNL     1       2.190   9.758  10.562  1.00  0.00     0.049 A 
ATOM     59  H   UNL     1       0.925  10.714  11.913  1.00  0.00     0.167 HD
ATOM     60  C   UNL     1      -1.885  12.594  14.699  1.00  0.00     0.034 A 
ATOM     61  C   UNL     1       3.009  10.698  10.050  1.00  0.00     0.034 A 
ATOM     62  C   UNL     1      -0.988  13.641  14.288  1.00  0.00     0.049 A 
ATOM     63  C   UNL     1       2.885  12.120  10.531  1.00  0.00     0.074 A 
ATOM     64  C   UNL     1      -0.962  14.958  14.710  1.00  0.00     0.029 A 
ATOM     65  N   UNL     1       0.037  13.494  13.366  1.00  0.00    -0.354 N 
ATOM     66  N   UNL     1       2.060  12.619  11.422  1.00  0.00    -0.248 NA
ATOM     67  C   UNL     1       3.806  13.107   9.949  1.00  0.00     0.031 C 
ATOM     68  C   UNL     1       0.054  15.617  14.013  1.00  0.00     0.029 A 
ATOM     69  C   UNL     1       0.691  14.701  13.190  1.00  0.00     0.049 A 
ATOM     70  H   UNL     1       0.267  12.655  12.904  1.00  0.00     0.167 HD
ATOM     71  C   UNL     1       2.377  13.970  11.524  1.00  0.00     0.074 A 
ATOM     72  C   UNL     1       3.481  14.208  10.617  1.00  0.00     0.031 C 
ATOM     73  C   UNL     1       1.802  14.925  12.297  1.00  0.00     0.034 A 
BRANCH  60  74
ATOM     74  C   UNL     1      -2.965  12.937  15.689  1.00  0.00     0.023 A 
ATOM     75  C   UNL     1      -4.008  13.808  15.329  1.00  0.00     0.031 A 
ATOM     76  C   UNL     1      -2.906  12.473  17.015  1.00  0.00     0.131 A 
ATOM     77  C   UNL     1      -4.944  14.203  16.293  1.00  0.00     0.055 A 
ATOM     78  C   UNL     1      -3.859  12.845  17.963  1.00  0.00     0.041 A 
ATOM     79  F   UNL     1      -1.929  11.636  17.402  1.00  0.00    -0.206 F 
ATOM     80  C   UNL     1      -4.879  13.720  17.605  1.00  0.00     0.022 A 
BRANCH  77  81
ATOM     81  S   UNL     1      -6.268  15.374  15.891  1.00  0.00     0.124 S 
ATOM     82  O   UNL     1      -7.460  14.636  16.306  1.00  0.00    -0.237 OA
ATOM     83  O   UNL     1      -5.922  16.521  16.725  1.00  0.00    -0.237 OA
ATOM     84  O   UNL     1      -6.135  15.572  14.452  1.00  0.00    -0.744 OA
ENDBRANCH  77  81
ENDBRANCH  60  74
BRANCH  61  85
ATOM     85  C   UNL     1       4.062  10.294   9.077  1.00  0.00     0.023 A 
ATOM     86  C   UNL     1       3.728   9.817   7.798  1.00  0.00     0.031 A 
ATOM     87  C   UNL     1       5.416  10.297   9.453  1.00  0.00     0.131 A 
ATOM     88  C   UNL     1       4.734   9.318   6.961  1.00  0.00     0.055 A 
ATOM     89  C   UNL     1       6.420   9.848   8.595  1.00  0.00     0.041 A 
ATOM     90  F   UNL     1       5.777  10.736  10.669  1.00  0.00    -0.206 F 
ATOM     91  C   UNL     1       6.079   9.344   7.344  1.00  0.00     0.022 A 
BRANCH  88  92
ATOM     92  S   UNL     1       4.324   8.536   5.377  1.00  0.00     0.124 S 
ATOM     93  O   UNL     1       5.180   9.266   4.446  1.00  0.00    -0.237 OA
ATOM     94  O   UNL     1       4.706   7.151   5.633  1.00  0.00    -0.237 OA
ATOM     95  O   UNL     1       2.893   8.781   5.238  1.00  0.00    -0.744 OA
ENDBRANCH  88  92
ENDBRANCH  61  85
BRANCH  73  96
ATOM     96  C   UNL     1       2.341  16.330  12.224  1.00  0.00     0.023 A 
ATOM     97  C   UNL     1       2.962  16.904  13.350  1.00  0.00     0.031 A 
ATOM     98  C   UNL     1       2.101  17.143  11.104  1.00  0.00     0.131 A 
ATOM     99  C   UNL     1       3.285  18.267  13.345  1.00  0.00     0.055 A 
ATOM    100  C   UNL     1       2.463  18.491  11.089  1.00  0.00     0.041 A 
ATOM    101  F   UNL     1       1.504  16.640  10.012  1.00  0.00    -0.206 F 
ATOM    102  C   UNL     1       3.046  19.061  12.218  1.00  0.00     0.022 A 
BRANCH  99 103
ATOM    103  S   UNL     1       3.964  19.073  14.821  1.00  0.00     0.124 S 
ATOM    104  O   UNL     1       5.205  19.650  14.309  1.00  0.00    -0.237 OA
ATOM    105  O   UNL     1       2.918  20.036  15.152  1.00  0.00    -0.237 OA
ATOM    106  O   UNL     1       4.136  17.979  15.772  1.00  0.00    -0.744 OA
ENDBRANCH  99 103
ENDBRANCH  73  96
ENDBRANCH  47  48
ENDBRANCH  39  42
ENDBRANCH  37  38
ENDBRANCH  36  37
ENDBRANCH   1  36
TORSDOF 20
