REMARK SMILES Cc1cc(C(=O)NC2(CC(=O)NCCCCNC(=O)c3ccc(-c4c5nc(c(-c6cc(S(=O)(=O)[O-])ccc6F)c6ccc([nH]6)c(-c6cc(S(=O)(=O)[O-])ccc6F)c6nc(c(-c7cc(S(=O)(=O)[O-])ccc7F)c7ccc4[nH]7)C=C6)C=C5)cc3)CCC2)sc1C
REMARK SMILES IDX 14 1 13 2 12 3 10 4 11 5 9 7 8 8 83 9 85 10 84 11 7 12 5 13
REMARK SMILES IDX 6 14 4 16 1 17 2 18 3 19 87 20 86 21 88 22 15 23 16 24 17 25
REMARK SMILES IDX 18 26 19 28 20 29 21 30 82 31 22 32 81 33 23 34 24 35 25 36
REMARK SMILES IDX 75 37 26 38 80 39 74 40 76 41 27 42 79 43 73 44 72 45 28 47
REMARK SMILES IDX 60 48 40 49 59 50 41 51 44 52 58 53 77 54 42 55 43 56 57 58
REMARK SMILES IDX 78 59 45 60 29 61 30 62 38 63 31 64 37 65 39 66 36 67 32 68
REMARK SMILES IDX 33 69 34 70 35 71 61 72 62 73 70 74 63 75 69 76 71 77 68 78
REMARK SMILES IDX 64 79 65 80 66 81 67 82 46 83 47 84 55 85 48 86 54 87 56 88
REMARK SMILES IDX 53 89 49 90 50 91 51 92 52 93
REMARK H PARENT 12 6 7 15 17 27 76 46 44 57
REMARK Flexibility Score: inf
ROOT
ATOM      1  C   UNL     1       6.202  -0.764   2.875  1.00  0.00     0.023 C 
ENDROOT
BRANCH   1   2
ATOM      2  C   UNL     1       7.077  -0.861   1.622  1.00  0.00     0.116 C 
BRANCH   2   3
ATOM      3  N   UNL     1       6.790  -2.081   0.902  1.00  0.00    -0.356 N 
ATOM      4  C   UNL     1       5.906  -2.283  -0.110  1.00  0.00     0.222 C 
ATOM      5  O   UNL     1       5.606  -3.440  -0.409  1.00  0.00    -0.275 OA
ATOM      6  H   UNL     1       7.304  -2.873   1.182  1.00  0.00     0.163 HD
BRANCH   4   7
ATOM      7  C   UNL     1       5.283  -1.122  -0.854  1.00  0.00     0.128 C 
BRANCH   7   8
ATOM      8  C   UNL     1       3.886  -0.659  -0.370  1.00  0.00     0.049 C 
ATOM      9  C   UNL     1       3.309   0.383  -1.365  1.00  0.00     0.029 C 
ATOM     10  C   UNL     1       3.949   0.457   0.700  1.00  0.00     0.029 C 
ATOM     11  C   UNL     1       3.716   1.506  -0.396  1.00  0.00     0.005 C 
BRANCH   8  12
ATOM     12  N   UNL     1       3.038  -1.838  -0.059  1.00  0.00    -0.345 N 
ATOM     13  C   UNL     1       1.700  -2.132   0.132  1.00  0.00     0.261 C 
ATOM     14  O   UNL     1       1.467  -3.344   0.227  1.00  0.00    -0.268 OA
ATOM     15  H   UNL     1       3.589  -2.648   0.039  1.00  0.00     0.164 HD
BRANCH  13  16
ATOM     16  C   UNL     1       0.601  -1.179   0.160  1.00  0.00     0.092 A 
ATOM     17  C   UNL     1      -3.068  -0.430  -0.355  1.00  0.00     0.045 C 
ATOM     18  C   UNL     1      -1.606  -0.352  -0.077  1.00  0.00    -0.037 A 
ATOM     19  C   UNL     1      -0.723  -1.484  -0.130  1.00  0.00     0.029 A 
ATOM     20  C   UNL     1      -0.897   0.792   0.239  1.00  0.00     0.005 A 
ATOM     21  S   UNL     1       0.678   0.408   0.754  1.00  0.00    -0.135 S 
ATOM     22  C   UNL     1      -1.337   2.216   0.247  1.00  0.00     0.056 C 
ENDBRANCH  13  16
ENDBRANCH   8  12
ENDBRANCH   7   8
ENDBRANCH   4   7
ENDBRANCH   2   3
ENDBRANCH   1   2
BRANCH   1  23
ATOM     23  C   UNL     1       6.727  -1.532   4.083  1.00  0.00     0.023 C 
BRANCH  23  24
ATOM     24  C   UNL     1       8.127  -1.134   4.527  1.00  0.00     0.116 C 
BRANCH  24  25
ATOM     25  N   UNL     1       8.298   0.300   4.705  1.00  0.00    -0.352 N 
ATOM     26  C   UNL     1       9.105   0.965   5.602  1.00  0.00     0.251 C 
ATOM     27  H   UNL     1       7.766   0.871   4.105  1.00  0.00     0.163 HD
ATOM     28  O   UNL     1       9.056   2.179   5.688  1.00  0.00    -0.269 OA
BRANCH  26  29
ATOM     29  C   UNL     1       9.984   0.170   6.487  1.00  0.00     0.039 A 
ATOM     30  C   UNL     1       9.980   0.443   7.855  1.00  0.00     0.014 A 
ATOM     31  C   UNL     1      10.748  -0.882   5.974  1.00  0.00     0.014 A 
ATOM     32  C   UNL     1      10.688  -0.391   8.719  1.00  0.00     0.010 A 
ATOM     33  C   UNL     1      11.371  -1.767   6.845  1.00  0.00     0.010 A 
ATOM     34  C   UNL     1      11.352  -1.528   8.226  1.00  0.00    -0.014 A 
BRANCH  34  35
ATOM     35  C   UNL     1      12.024  -2.475   9.151  1.00  0.00     0.031 A 
ATOM     36  C   UNL     1      13.510  -2.688   9.065  1.00  0.00     0.074 A 
ATOM     37  C   UNL     1      11.282  -3.170  10.035  1.00  0.00     0.049 A 
ATOM     38  N   UNL     1      14.276  -3.466   9.786  1.00  0.00    -0.248 NA
ATOM     39  C   UNL     1      14.224  -1.960   8.005  1.00  0.00     0.031 C 
ATOM     40  C   UNL     1       9.822  -3.101  10.153  1.00  0.00     0.029 A 
ATOM     41  N   UNL     1      11.648  -4.067  11.005  1.00  0.00    -0.354 N 
ATOM     42  C   UNL     1      15.557  -3.326   9.263  1.00  0.00     0.074 A 
ATOM     43  C   UNL     1      15.448  -2.451   8.116  1.00  0.00     0.031 C 
ATOM     44  C   UNL     1       9.425  -3.884  11.169  1.00  0.00     0.029 A 
ATOM     45  C   UNL     1      10.591  -4.538  11.751  1.00  0.00     0.049 A 
ATOM     46  H   UNL     1      12.580  -4.348  11.155  1.00  0.00     0.167 HD
ATOM     47  C   UNL     1      16.721  -3.852   9.717  1.00  0.00     0.034 A 
ATOM     48  C   UNL     1      10.570  -5.394  12.791  1.00  0.00     0.034 A 
ATOM     49  C   UNL     1      16.808  -4.711  10.873  1.00  0.00     0.049 A 
ATOM     50  C   UNL     1      11.878  -5.949  13.291  1.00  0.00     0.074 A 
ATOM     51  C   UNL     1      17.936  -5.256  11.461  1.00  0.00     0.029 A 
ATOM     52  N   UNL     1      15.720  -5.157  11.615  1.00  0.00    -0.354 N 
ATOM     53  N   UNL     1      13.093  -5.747  12.832  1.00  0.00    -0.248 NA
ATOM     54  C   UNL     1      11.813  -6.830  14.462  1.00  0.00     0.031 C 
ATOM     55  C   UNL     1      17.526  -6.080  12.516  1.00  0.00     0.029 A 
ATOM     56  C   UNL     1      16.148  -5.991  12.637  1.00  0.00     0.049 A 
ATOM     57  H   UNL     1      14.782  -4.916  11.440  1.00  0.00     0.167 HD
ATOM     58  C   UNL     1      13.939  -6.461  13.676  1.00  0.00     0.074 A 
ATOM     59  C   UNL     1      13.096  -7.067  14.687  1.00  0.00     0.031 C 
ATOM     60  C   UNL     1      15.289  -6.607  13.621  1.00  0.00     0.034 A 
BRANCH  47  61
ATOM     61  C   UNL     1      17.979  -3.521   8.948  1.00  0.00     0.023 A 
ATOM     62  C   UNL     1      18.440  -2.197   8.819  1.00  0.00     0.031 A 
ATOM     63  C   UNL     1      18.711  -4.534   8.305  1.00  0.00     0.131 A 
ATOM     64  C   UNL     1      19.544  -1.914   8.002  1.00  0.00     0.055 A 
ATOM     65  C   UNL     1      19.861  -4.255   7.562  1.00  0.00     0.041 A 
ATOM     66  F   UNL     1      18.311  -5.814   8.371  1.00  0.00    -0.206 F 
ATOM     67  C   UNL     1      20.275  -2.936   7.394  1.00  0.00     0.022 A 
BRANCH  64  68
ATOM     68  S   UNL     1      19.922  -0.179   7.627  1.00  0.00     0.124 S 
ATOM     69  O   UNL     1      18.684   0.259   6.986  1.00  0.00    -0.237 OA
ATOM     70  O   UNL     1      20.191   0.379   8.947  1.00  0.00    -0.237 OA
ATOM     71  O   UNL     1      21.079  -0.265   6.737  1.00  0.00    -0.744 OA
ENDBRANCH  64  68
ENDBRANCH  47  61
BRANCH  48  72
ATOM     72  C   UNL     1       9.280  -5.768  13.439  1.00  0.00     0.023 A 
ATOM     73  C   UNL     1       9.013  -5.422  14.774  1.00  0.00     0.031 A 
ATOM     74  C   UNL     1       8.312  -6.516  12.746  1.00  0.00     0.131 A 
ATOM     75  C   UNL     1       7.832  -5.866  15.390  1.00  0.00     0.055 A 
ATOM     76  C   UNL     1       7.114  -6.909  13.347  1.00  0.00     0.041 A 
ATOM     77  F   UNL     1       8.512  -6.865  11.466  1.00  0.00    -0.206 F 
ATOM     78  C   UNL     1       6.876  -6.597  14.682  1.00  0.00     0.022 A 
BRANCH  75  79
ATOM     79  S   UNL     1       7.604  -5.546  17.161  1.00  0.00     0.124 S 
ATOM     80  O   UNL     1       8.786  -6.180  17.733  1.00  0.00    -0.237 OA
ATOM     81  O   UNL     1       7.573  -4.088  17.203  1.00  0.00    -0.237 OA
ATOM     82  O   UNL     1       6.334  -6.203  17.464  1.00  0.00    -0.744 OA
ENDBRANCH  75  79
ENDBRANCH  48  72
BRANCH  60  83
ATOM     83  C   UNL     1      15.921  -7.441  14.710  1.00  0.00     0.023 A 
ATOM     84  C   UNL     1      15.641  -8.813  14.842  1.00  0.00     0.031 A 
ATOM     85  C   UNL     1      16.774  -6.847  15.656  1.00  0.00     0.131 A 
ATOM     86  C   UNL     1      16.139  -9.525  15.941  1.00  0.00     0.055 A 
ATOM     87  C   UNL     1      17.327  -7.579  16.708  1.00  0.00     0.041 A 
ATOM     88  F   UNL     1      17.076  -5.541  15.581  1.00  0.00    -0.206 F 
ATOM     89  C   UNL     1      16.994  -8.921  16.866  1.00  0.00     0.022 A 
BRANCH  86  90
ATOM     90  S   UNL     1      15.545 -11.216  16.221  1.00  0.00     0.124 S 
ATOM     91  O   UNL     1      14.098 -11.025  16.265  1.00  0.00    -0.237 OA
ATOM     92  O   UNL     1      16.059 -11.923  15.052  1.00  0.00    -0.237 OA
ATOM     93  O   UNL     1      16.160 -11.590  17.493  1.00  0.00    -0.744 OA
ENDBRANCH  86  90
ENDBRANCH  60  83
ENDBRANCH  34  35
ENDBRANCH  26  29
ENDBRANCH  24  25
ENDBRANCH  23  24
ENDBRANCH   1  23
TORSDOF 17
