REMARK SMILES CC[C@H](C)N1C(=O)c2ccccc2[C@@H](C(=O)NCCCCNC(=O)c2ccc(-c3c4nc(c(-c5cc(S(=O)(=O)[O-])ccc5F)c5ccc([nH]5)c(-c5cc(S(=O)(=O)[O-])ccc5F)c5nc(c(-c6cc(S(=O)(=O)[O-])ccc6F)c6ccc3[nH]6)C=C5)C=C4)cc2)C12CCCCC2
REMARK SMILES IDX 20 1 19 2 18 3 17 4 15 5 16 6 14 8 5 9 6 10 88 11 7 12 8 13
REMARK SMILES IDX 89 14 93 15 9 16 13 17 90 18 92 19 10 20 12 21 91 22 11 23
REMARK SMILES IDX 3 24 4 25 2 26 1 27 21 28 22 29 23 30 24 32 25 33 26 34
REMARK SMILES IDX 87 35 27 36 86 37 28 38 29 39 30 40 80 41 31 42 85 43 79 44
REMARK SMILES IDX 81 45 32 46 84 47 78 48 77 49 33 51 65 52 45 53 64 54 46 55
REMARK SMILES IDX 49 56 63 57 82 58 47 59 48 60 62 62 83 63 50 64 34 65 35 66
REMARK SMILES IDX 43 67 36 68 42 69 44 70 41 71 37 72 38 73 39 74 40 75 66 76
REMARK SMILES IDX 67 77 75 78 68 79 74 80 76 81 73 82 69 83 70 84 71 85 72 86
REMARK SMILES IDX 51 87 52 88 60 89 53 90 59 91 61 92 58 93 54 94 55 95 56 96
REMARK SMILES IDX 57 97
REMARK H PARENT 17 7 22 31 81 50 49 61
REMARK Flexibility Score: inf
ROOT
ATOM      1  C   UNL     1       1.871  -7.302  -5.358  1.00  0.00     0.023 C 
ENDROOT
BRANCH   1   2
ATOM      2  C   UNL     1       1.054  -6.245  -4.638  1.00  0.00     0.023 C 
BRANCH   2   3
ATOM      3  C   UNL     1       0.180  -6.773  -3.498  1.00  0.00     0.116 C 
BRANCH   3   4
ATOM      4  N   UNL     1       0.911  -7.570  -2.526  1.00  0.00    -0.355 N 
ATOM      5  C   UNL     1       1.113  -7.417  -1.187  1.00  0.00     0.229 C 
ATOM      6  O   UNL     1       1.719  -8.326  -0.611  1.00  0.00    -0.274 OA
ATOM      7  H   UNL     1       1.341  -8.370  -2.907  1.00  0.00     0.163 HD
BRANCH   5   8
ATOM      8  C   UNL     1       0.573  -6.216  -0.388  1.00  0.00     0.135 C 
ATOM      9  N   UNL     1       0.481  -3.647  -0.356  1.00  0.00    -0.329 N 
ATOM     10  C   UNL     1      -0.840  -3.657  -0.822  1.00  0.00     0.254 C 
ATOM     11  C   UNL     1       1.410  -4.864  -0.468  1.00  0.00     0.059 C 
ATOM     12  O   UNL     1      -1.494  -2.645  -1.060  1.00  0.00    -0.269 OA
ATOM     13  C   UNL     1      -1.550  -4.945  -0.921  1.00  0.00     0.044 A 
ATOM     14  C   UNL     1       2.221  -4.614  -1.766  1.00  0.00     0.030 C 
ATOM     15  C   UNL     1       2.472  -4.907   0.697  1.00  0.00     0.030 C 
ATOM     16  C   UNL     1      -2.908  -4.947  -1.286  1.00  0.00     0.014 A 
ATOM     17  C   UNL     1      -0.929  -6.134  -0.569  1.00  0.00    -0.020 A 
ATOM     18  C   UNL     1       3.428  -5.516  -2.031  1.00  0.00     0.002 C 
ATOM     19  C   UNL     1       3.631  -5.880   0.471  1.00  0.00     0.002 C 
ATOM     20  C   UNL     1      -3.662  -6.119  -1.228  1.00  0.00     0.001 A 
ATOM     21  C   UNL     1      -1.719  -7.298  -0.440  1.00  0.00     0.005 A 
ATOM     22  C   UNL     1       4.364  -5.609  -0.837  1.00  0.00     0.000 C 
ATOM     23  C   UNL     1      -3.073  -7.290  -0.770  1.00  0.00     0.000 A 
BRANCH   9  24
ATOM     24  C   UNL     1       1.014  -2.355   0.155  1.00  0.00     0.082 C 
ATOM     25  C   UNL     1       0.728  -1.118  -0.713  1.00  0.00     0.031 C 
BRANCH  24  26
ATOM     26  C   UNL     1       0.540  -2.172   1.607  1.00  0.00     0.021 C 
ATOM     27  C   UNL     1       1.383  -1.179   2.388  1.00  0.00     0.006 C 
ENDBRANCH  24  26
ENDBRANCH   9  24
ENDBRANCH   5   8
ENDBRANCH   3   4
ENDBRANCH   2   3
ENDBRANCH   1   2
BRANCH   1  28
ATOM     28  C   UNL     1       1.008  -8.322  -6.069  1.00  0.00     0.116 C 
BRANCH  28  29
ATOM     29  N   UNL     1       0.239  -7.717  -7.151  1.00  0.00    -0.352 N 
ATOM     30  C   UNL     1       0.352  -7.929  -8.505  1.00  0.00     0.251 C 
ATOM     31  H   UNL     1      -0.452  -7.072  -6.875  1.00  0.00     0.163 HD
ATOM     32  O   UNL     1      -0.196  -7.176  -9.304  1.00  0.00    -0.269 OA
BRANCH  30  33
ATOM     33  C   UNL     1       1.171  -9.066  -8.964  1.00  0.00     0.039 A 
ATOM     34  C   UNL     1       1.045 -10.292  -8.311  1.00  0.00     0.014 A 
ATOM     35  C   UNL     1       2.133  -8.883  -9.958  1.00  0.00     0.014 A 
ATOM     36  C   UNL     1       2.023 -11.253  -8.486  1.00  0.00     0.010 A 
ATOM     37  C   UNL     1       3.030  -9.917 -10.237  1.00  0.00     0.010 A 
ATOM     38  C   UNL     1       3.014 -11.091  -9.468  1.00  0.00    -0.014 A 
BRANCH  38  39
ATOM     39  C   UNL     1       3.982 -12.196  -9.688  1.00  0.00     0.031 A 
ATOM     40  C   UNL     1       5.459 -11.991  -9.500  1.00  0.00     0.074 A 
ATOM     41  C   UNL     1       3.493 -13.413  -9.998  1.00  0.00     0.049 A 
ATOM     42  N   UNL     1       6.429 -12.856  -9.649  1.00  0.00    -0.248 NA
ATOM     43  C   UNL     1       5.913 -10.649  -9.102  1.00  0.00     0.031 C 
ATOM     44  C   UNL     1       2.071 -13.713 -10.189  1.00  0.00     0.029 A 
ATOM     45  N   UNL     1       4.109 -14.626 -10.164  1.00  0.00    -0.354 N 
ATOM     46  C   UNL     1       7.606 -12.159  -9.400  1.00  0.00     0.074 A 
ATOM     47  C   UNL     1       7.232 -10.793  -9.108  1.00  0.00     0.031 C 
ATOM     48  C   UNL     1       1.916 -15.030 -10.353  1.00  0.00     0.029 A 
ATOM     49  C   UNL     1       3.231 -15.659 -10.400  1.00  0.00     0.049 A 
ATOM     50  H   UNL     1       5.085 -14.746 -10.120  1.00  0.00     0.167 HD
ATOM     51  C   UNL     1       8.877 -12.627  -9.412  1.00  0.00     0.034 A 
ATOM     52  C   UNL     1       3.451 -16.964 -10.653  1.00  0.00     0.034 A 
ATOM     53  C   UNL     1       9.216 -14.004  -9.676  1.00  0.00     0.049 A 
ATOM     54  C   UNL     1       4.872 -17.451 -10.674  1.00  0.00     0.074 A 
ATOM     55  C   UNL     1      10.471 -14.586  -9.692  1.00  0.00     0.029 A 
ATOM     56  N   UNL     1       8.305 -15.013  -9.957  1.00  0.00    -0.354 N 
ATOM     57  N   UNL     1       5.973 -16.779 -10.430  1.00  0.00    -0.248 NA
ATOM     58  C   UNL     1       5.090 -18.862 -11.015  1.00  0.00     0.031 C 
ATOM     59  C   UNL     1      10.324 -15.930 -10.038  1.00  0.00     0.029 A 
ATOM     60  C   UNL     1       8.972 -16.208 -10.172  1.00  0.00     0.049 A 
ATOM     61  H   UNL     1       7.328 -14.897  -9.998  1.00  0.00     0.167 HD
ATOM     62  C   UNL     1       7.016 -17.684 -10.586  1.00  0.00     0.074 A 
ATOM     63  C   UNL     1       6.410 -18.961 -10.908  1.00  0.00     0.031 C 
ATOM     64  C   UNL     1       8.352 -17.474 -10.487  1.00  0.00     0.034 A 
BRANCH  51  65
ATOM     65  C   UNL     1      10.011 -11.669  -9.136  1.00  0.00     0.023 A 
ATOM     66  C   UNL     1      10.971 -11.412 -10.134  1.00  0.00     0.031 A 
ATOM     67  C   UNL     1      10.217 -11.116  -7.860  1.00  0.00     0.131 A 
ATOM     68  C   UNL     1      12.110 -10.655  -9.830  1.00  0.00     0.055 A 
ATOM     69  C   UNL     1      11.334 -10.330  -7.573  1.00  0.00     0.041 A 
ATOM     70  F   UNL     1       9.331 -11.329  -6.874  1.00  0.00    -0.206 F 
ATOM     71  C   UNL     1      12.293 -10.107  -8.557  1.00  0.00     0.022 A 
BRANCH  68  72
ATOM     72  S   UNL     1      13.426 -10.403 -11.053  1.00  0.00     0.124 S 
ATOM     73  O   UNL     1      13.465  -8.945 -11.154  1.00  0.00    -0.237 OA
ATOM     74  O   UNL     1      14.577 -11.013 -10.393  1.00  0.00    -0.237 OA
ATOM     75  O   UNL     1      12.939 -11.094 -12.241  1.00  0.00    -0.744 OA
ENDBRANCH  68  72
ENDBRANCH  51  65
BRANCH  52  76
ATOM     76  C   UNL     1       2.283 -17.865 -10.874  1.00  0.00     0.023 A 
ATOM     77  C   UNL     1       1.366 -17.613 -11.913  1.00  0.00     0.031 A 
ATOM     78  C   UNL     1       1.984 -18.894  -9.967  1.00  0.00     0.131 A 
ATOM     79  C   UNL     1       0.151 -18.309 -11.957  1.00  0.00     0.055 A 
ATOM     80  C   UNL     1       0.810 -19.643 -10.066  1.00  0.00     0.041 A 
ATOM     81  F   UNL     1       2.820 -19.165  -8.952  1.00  0.00    -0.206 F 
ATOM     82  C   UNL     1      -0.125 -19.335 -11.050  1.00  0.00     0.022 A 
BRANCH  79  83
ATOM     83  S   UNL     1      -1.177 -17.781 -13.076  1.00  0.00     0.124 S 
ATOM     84  O   UNL     1      -1.335 -18.951 -13.933  1.00  0.00    -0.237 OA
ATOM     85  O   UNL     1      -2.273 -17.529 -12.142  1.00  0.00    -0.237 OA
ATOM     86  O   UNL     1      -0.632 -16.591 -13.721  1.00  0.00    -0.744 OA
ENDBRANCH  79  83
ENDBRANCH  52  76
BRANCH  64  87
ATOM     87  C   UNL     1       9.276 -18.639 -10.734  1.00  0.00     0.023 A 
ATOM     88  C   UNL     1      10.099 -19.117  -9.698  1.00  0.00     0.031 A 
ATOM     89  C   UNL     1       9.448 -19.169 -12.024  1.00  0.00     0.131 A 
ATOM     90  C   UNL     1      11.089 -20.066  -9.979  1.00  0.00     0.055 A 
ATOM     91  C   UNL     1      10.405 -20.149 -12.289  1.00  0.00     0.041 A 
ATOM     92  F   UNL     1       8.691 -18.738 -13.045  1.00  0.00    -0.206 F 
ATOM     93  C   UNL     1      11.241 -20.590 -11.267  1.00  0.00     0.022 A 
BRANCH  90  94
ATOM     94  S   UNL     1      12.273 -20.585  -8.707  1.00  0.00     0.124 S 
ATOM     95  O   UNL     1      12.008 -22.020  -8.618  1.00  0.00    -0.237 OA
ATOM     96  O   UNL     1      13.552 -20.223  -9.311  1.00  0.00    -0.237 OA
ATOM     97  O   UNL     1      11.891 -19.809  -7.532  1.00  0.00    -0.744 OA
ENDBRANCH  90  94
ENDBRANCH  64  87
ENDBRANCH  38  39
ENDBRANCH  30  33
ENDBRANCH  28  29
ENDBRANCH   1  28
TORSDOF 16
