REMARK SMILES CC(C)C[C@H](NC(=O)[C@H](Cc1ccccc1)NC(=O)CNC(=O)C[NH3+])C(=O)NCCCCNC(=O)c1ccc(-c2c3nc(c(-c4cc(S(=O)(=O)[O-])ccc4F)c4ccc([nH]4)c(-c4cc(S(=O)(=O)[O-])ccc4F)c4nc(c(-c5cc(S(=O)(=O)[O-])ccc5F)c5ccc2[nH]5)C=C4)C=C3)cc1
REMARK SMILES IDX 26 1 27 2 28 3 5 5 4 6 2 7 1 8 3 9 6 10 7 11 8 13 9 14 17 15
REMARK SMILES IDX 18 16 19 18 20 19 21 20 22 21 23 23 24 24 25 25 10 29 11 30
REMARK SMILES IDX 12 31 16 32 13 33 15 34 14 35 29 36 30 37 31 38 32 39 33 40
REMARK SMILES IDX 34 41 35 43 36 44 37 45 98 46 38 47 97 48 39 49 40 50 41 51
REMARK SMILES IDX 91 52 42 53 96 54 90 55 92 56 43 57 95 58 89 59 88 60 44 62
REMARK SMILES IDX 76 63 56 64 75 65 57 66 60 67 74 68 93 69 58 70 59 71 73 73
REMARK SMILES IDX 94 74 61 75 45 76 46 77 54 78 47 79 53 80 55 81 52 82 48 83
REMARK SMILES IDX 49 84 50 85 51 86 77 87 78 88 86 89 79 90 85 91 87 92 84 93
REMARK SMILES IDX 80 94 81 95 82 96 83 97 62 98 63 99 71 100 64 101 70 102
REMARK SMILES IDX 72 103 69 104 65 105 66 106 67 107 68 108
REMARK H PARENT 28 4 6 12 17 17 21 22 25 26 25 27 25 28 33 42 92 61 60 72
REMARK Flexibility Score: inf
ROOT
ATOM      1  C   UNL     1      -5.449   6.168  -2.604  1.00  0.00     0.242 C 
ATOM      2  O   UNL     1      -6.319   7.040  -2.751  1.00  0.00    -0.273 OA
ATOM      3  N   UNL     1      -5.024   6.020  -1.323  1.00  0.00    -0.354 N 
ATOM      4  H   UNL     1      -5.318   6.766  -0.752  1.00  0.00     0.163 HD
ENDROOT
BRANCH   1   5
ATOM      5  C   UNL     1      -4.852   5.492  -3.881  1.00  0.00     0.171 C 
BRANCH   5   6
ATOM      6  C   UNL     1      -4.681   3.953  -3.922  1.00  0.00     0.038 C 
BRANCH   6   7
ATOM      7  C   UNL     1      -3.629   3.184  -4.774  1.00  0.00    -0.015 C 
ATOM      8  C   UNL     1      -2.460   3.959  -5.351  1.00  0.00     0.007 C 
ATOM      9  C   UNL     1      -3.113   1.974  -3.974  1.00  0.00     0.007 C 
ENDBRANCH   6   7
ENDBRANCH   5   6
BRANCH   5  10
ATOM     10  N   UNL     1      -3.953   6.348  -4.664  1.00  0.00    -0.343 N 
ATOM     11  C   UNL     1      -2.755   6.951  -4.432  1.00  0.00     0.243 C 
ATOM     12  H   UNL     1      -4.297   6.528  -5.569  1.00  0.00     0.164 HD
ATOM     13  O   UNL     1      -2.170   7.442  -5.402  1.00  0.00    -0.273 OA
BRANCH  11  14
ATOM     14  C   UNL     1      -2.152   7.038  -3.021  1.00  0.00     0.175 C 
BRANCH  14  15
ATOM     15  N   UNL     1      -0.796   6.281  -3.034  1.00  0.00    -0.342 N 
ATOM     16  C   UNL     1      -0.246   5.006  -2.971  1.00  0.00     0.240 C 
ATOM     17  H   UNL     1      -0.067   6.937  -3.115  1.00  0.00     0.164 HD
ATOM     18  O   UNL     1       0.580   4.845  -3.893  1.00  0.00    -0.273 OA
BRANCH  16  19
ATOM     19  C   UNL     1      -0.469   3.674  -2.013  1.00  0.00     0.216 C 
BRANCH  19  20
ATOM     20  N   UNL     1      -0.321   3.567  -0.534  1.00  0.00    -0.342 N 
ATOM     21  C   UNL     1      -0.902   2.859   0.490  1.00  0.00     0.275 C 
ATOM     22  H   UNL     1       0.385   4.166  -0.200  1.00  0.00     0.164 HD
ATOM     23  O   UNL     1      -0.736   3.292   1.639  1.00  0.00    -0.268 OA
BRANCH  21  24
ATOM     24  C   UNL     1      -1.843   1.662   0.275  1.00  0.00     0.360 C 
BRANCH  24  25
ATOM     25  N   UNL     1      -3.264   1.948   0.574  1.00  0.00    -0.350 N 
ATOM     26  H   UNL     1      -3.361   2.193   1.560  1.00  0.00     0.344 HD
ATOM     27  H   UNL     1      -3.827   1.122   0.372  1.00  0.00     0.344 HD
ATOM     28  H   UNL     1      -3.583   2.726  -0.003  1.00  0.00     0.344 HD
ENDBRANCH  24  25
ENDBRANCH  21  24
ENDBRANCH  19  20
ENDBRANCH  16  19
ENDBRANCH  14  15
BRANCH  14  29
ATOM     29  C   UNL     1      -2.079   8.621  -2.752  1.00  0.00     0.070 C 
BRANCH  29  30
ATOM     30  C   UNL     1      -2.331   9.159  -1.342  1.00  0.00    -0.045 A 
ATOM     31  C   UNL     1      -1.326   9.846  -0.645  1.00  0.00     0.004 A 
ATOM     32  C   UNL     1      -3.539   8.911  -0.663  1.00  0.00     0.004 A 
ATOM     33  C   UNL     1      -1.456  10.109   0.726  1.00  0.00     0.000 A 
ATOM     34  C   UNL     1      -3.643   9.112   0.722  1.00  0.00     0.000 A 
ATOM     35  C   UNL     1      -2.586   9.685   1.421  1.00  0.00     0.000 A 
ENDBRANCH  29  30
ENDBRANCH  14  29
ENDBRANCH  11  14
ENDBRANCH   5  10
ENDBRANCH   1   5
BRANCH   3  36
ATOM     36  C   UNL     1      -4.251   5.050  -0.579  1.00  0.00     0.116 C 
BRANCH  36  37
ATOM     37  C   UNL     1      -2.717   5.100  -0.591  1.00  0.00     0.023 C 
BRANCH  37  38
ATOM     38  C   UNL     1      -1.941   6.235   0.122  1.00  0.00     0.023 C 
BRANCH  38  39
ATOM     39  C   UNL     1      -0.414   6.375   0.489  1.00  0.00     0.116 C 
BRANCH  39  40
ATOM     40  N   UNL     1       0.648   6.094  -0.487  1.00  0.00    -0.352 N 
ATOM     41  C   UNL     1       2.022   5.830  -0.378  1.00  0.00     0.251 C 
ATOM     42  H   UNL     1       0.327   6.090  -1.418  1.00  0.00     0.163 HD
ATOM     43  O   UNL     1       2.654   5.534  -1.357  1.00  0.00    -0.269 OA
BRANCH  41  44
ATOM     44  C   UNL     1       2.725   6.035   0.913  1.00  0.00     0.039 A 
ATOM     45  C   UNL     1       3.949   6.720   0.875  1.00  0.00     0.014 A 
ATOM     46  C   UNL     1       2.150   5.709   2.129  1.00  0.00     0.014 A 
ATOM     47  C   UNL     1       4.473   7.260   2.049  1.00  0.00     0.010 A 
ATOM     48  C   UNL     1       2.602   6.340   3.276  1.00  0.00     0.010 A 
ATOM     49  C   UNL     1       3.737   7.163   3.236  1.00  0.00    -0.014 A 
BRANCH  49  50
ATOM     50  C   UNL     1       4.085   7.955   4.438  1.00  0.00     0.031 A 
ATOM     51  C   UNL     1       4.405   7.247   5.720  1.00  0.00     0.074 A 
ATOM     52  C   UNL     1       3.970   9.299   4.390  1.00  0.00     0.049 A 
ATOM     53  N   UNL     1       4.566   7.737   6.919  1.00  0.00    -0.248 NA
ATOM     54  C   UNL     1       4.507   5.781   5.645  1.00  0.00     0.031 C 
ATOM     55  C   UNL     1       3.599  10.077   3.203  1.00  0.00     0.029 A 
ATOM     56  N   UNL     1       4.136  10.251   5.363  1.00  0.00    -0.354 N 
ATOM     57  C   UNL     1       4.757   6.638   7.749  1.00  0.00     0.074 A 
ATOM     58  C   UNL     1       4.624   5.458   6.923  1.00  0.00     0.031 C 
ATOM     59  C   UNL     1       3.599  11.383   3.510  1.00  0.00     0.029 A 
ATOM     60  C   UNL     1       3.916  11.537   4.924  1.00  0.00     0.049 A 
ATOM     61  H   UNL     1       4.388  10.034   6.289  1.00  0.00     0.167 HD
ATOM     62  C   UNL     1       5.038   6.623   9.075  1.00  0.00     0.034 A 
ATOM     63  C   UNL     1       3.959  12.705   5.594  1.00  0.00     0.034 A 
ATOM     64  C   UNL     1       5.181   7.823   9.862  1.00  0.00     0.049 A 
ATOM     65  C   UNL     1       4.300  12.666   7.062  1.00  0.00     0.074 A 
ATOM     66  C   UNL     1       5.512   7.949  11.199  1.00  0.00     0.029 A 
ATOM     67  N   UNL     1       5.001   9.114   9.374  1.00  0.00    -0.354 N 
ATOM     68  N   UNL     1       4.526  11.622   7.827  1.00  0.00    -0.248 NA
ATOM     69  C   UNL     1       4.402  13.956   7.753  1.00  0.00     0.031 C 
ATOM     70  C   UNL     1       5.480   9.309  11.531  1.00  0.00     0.029 A 
ATOM     71  C   UNL     1       5.196  10.039  10.387  1.00  0.00     0.049 A 
ATOM     72  H   UNL     1       4.768   9.337   8.444  1.00  0.00     0.167 HD
ATOM     73  C   UNL     1       4.827  12.132   9.085  1.00  0.00     0.074 A 
ATOM     74  C   UNL     1       4.769  13.577   8.968  1.00  0.00     0.031 C 
ATOM     75  C   UNL     1       5.125  11.474  10.235  1.00  0.00     0.034 A 
BRANCH  62  76
ATOM     76  C   UNL     1       5.177   5.272   9.735  1.00  0.00     0.023 A 
ATOM     77  C   UNL     1       6.160   4.351   9.328  1.00  0.00     0.031 A 
ATOM     78  C   UNL     1       4.276   4.867  10.735  1.00  0.00     0.131 A 
ATOM     79  C   UNL     1       6.156   3.045   9.841  1.00  0.00     0.055 A 
ATOM     80  C   UNL     1       4.335   3.595  11.309  1.00  0.00     0.041 A 
ATOM     81  F   UNL     1       3.302   5.691  11.153  1.00  0.00    -0.206 F 
ATOM     82  C   UNL     1       5.266   2.668  10.848  1.00  0.00     0.022 A 
BRANCH  79  83
ATOM     83  S   UNL     1       7.218   1.803   9.053  1.00  0.00     0.124 S 
ATOM     84  O   UNL     1       6.703   1.802   7.685  1.00  0.00    -0.237 OA
ATOM     85  O   UNL     1       8.550   2.366   9.233  1.00  0.00    -0.237 OA
ATOM     86  O   UNL     1       6.946   0.586   9.814  1.00  0.00    -0.744 OA
ENDBRANCH  79  83
ENDBRANCH  62  76
BRANCH  63  87
ATOM     87  C   UNL     1       3.691  13.997   4.897  1.00  0.00     0.023 A 
ATOM     88  C   UNL     1       4.701  14.963   4.759  1.00  0.00     0.031 A 
ATOM     89  C   UNL     1       2.419  14.299   4.379  1.00  0.00     0.131 A 
ATOM     90  C   UNL     1       4.413  16.201   4.161  1.00  0.00     0.055 A 
ATOM     91  C   UNL     1       2.150  15.513   3.741  1.00  0.00     0.041 A 
ATOM     92  F   UNL     1       1.419  13.408   4.472  1.00  0.00    -0.206 F 
ATOM     93  C   UNL     1       3.147  16.478   3.641  1.00  0.00     0.022 A 
BRANCH  90  94
ATOM     94  S   UNL     1       5.702  17.478   4.142  1.00  0.00     0.124 S 
ATOM     95  O   UNL     1       6.011  17.610   5.561  1.00  0.00    -0.237 OA
ATOM     96  O   UNL     1       6.731  16.856   3.315  1.00  0.00    -0.237 OA
ATOM     97  O   UNL     1       5.032  18.628   3.539  1.00  0.00    -0.744 OA
ENDBRANCH  90  94
ENDBRANCH  63  87
BRANCH  75  98
ATOM     98  C   UNL     1       5.450  12.325  11.435  1.00  0.00     0.023 A 
ATOM     99  C   UNL     1       4.472  13.113  12.065  1.00  0.00     0.031 A 
ATOM    100  C   UNL     1       6.759  12.351  11.946  1.00  0.00     0.131 A 
ATOM    101  C   UNL     1       4.831  13.939  13.139  1.00  0.00     0.055 A 
ATOM    102  C   UNL     1       7.097  13.130  13.052  1.00  0.00     0.041 A 
ATOM    103  F   UNL     1       7.729  11.617  11.378  1.00  0.00    -0.206 F 
ATOM    104  C   UNL     1       6.133  13.940  13.647  1.00  0.00     0.022 A 
BRANCH 101 105
ATOM    105  S   UNL     1       3.592  15.081  13.808  1.00  0.00     0.124 S 
ATOM    106  O   UNL     1       3.259  15.886  12.638  1.00  0.00    -0.237 OA
ATOM    107  O   UNL     1       2.549  14.172  14.273  1.00  0.00    -0.237 OA
ATOM    108  O   UNL     1       4.312  15.789  14.864  1.00  0.00    -0.744 OA
ENDBRANCH 101 105
ENDBRANCH  75  98
ENDBRANCH  49  50
ENDBRANCH  41  44
ENDBRANCH  39  40
ENDBRANCH  38  39
ENDBRANCH  37  38
ENDBRANCH  36  37
ENDBRANCH   3  36
TORSDOF 25
