REMARK SMILES COC(=O)c1c(NC(=O)CCC(=O)NCCCCNC(=O)c2ccc(-c3c4nc(c(-c5cc(S(=O)(=O)[O-])ccc5F)c5ccc([nH]5)c(-c5cc(S(=O)(=O)[O-])ccc5F)c5nc(c(-c6cc(S(=O)(=O)[O-])ccc6F)c6ccc3[nH]6)C=C5)C=C4)cc2)sc2c1CCCCCC2
REMARK SMILES IDX 15 1 14 2 12 3 13 4 11 6 10 7 8 8 7 9 9 11 6 12 5 13 87 14
REMARK SMILES IDX 85 15 86 16 3 17 4 18 2 19 1 20 88 21 89 22 90 23 93 25
REMARK SMILES IDX 92 26 91 27 16 29 17 30 18 31 19 32 20 33 21 35 22 36 23 37
REMARK SMILES IDX 84 38 24 39 83 40 25 41 26 42 27 43 77 44 28 45 82 46 76 47
REMARK SMILES IDX 78 48 29 49 81 50 75 51 74 52 30 54 62 55 42 56 61 57 43 58
REMARK SMILES IDX 46 59 60 60 79 61 44 62 45 63 59 65 80 66 47 67 31 68 32 69
REMARK SMILES IDX 40 70 33 71 39 72 41 73 38 74 34 75 35 76 36 77 37 78 63 79
REMARK SMILES IDX 64 80 72 81 65 82 71 83 73 84 70 85 66 86 67 87 68 88 69 89
REMARK SMILES IDX 48 90 49 91 57 92 50 93 56 94 58 95 55 96 51 97 52 98 53 99
REMARK SMILES IDX 54 100
REMARK H PARENT 14 5 7 10 19 34 78 53 46 64
REMARK Flexibility Score: 100.00
ROOT
ATOM      1  C   UNL     1      -2.669   2.058  -3.966  1.00  0.00     0.116 C 
ENDROOT
BRANCH   1   2
ATOM      2  N   UNL     1      -1.280   2.438  -3.783  1.00  0.00    -0.356 N 
ATOM      3  C   UNL     1      -0.242   1.727  -3.262  1.00  0.00     0.220 C 
ATOM      4  O   UNL     1       0.902   2.158  -3.413  1.00  0.00    -0.275 OA
ATOM      5  H   UNL     1      -1.054   3.349  -4.080  1.00  0.00     0.163 HD
BRANCH   3   6
ATOM      6  C   UNL     1      -0.482   0.432  -2.529  1.00  0.00     0.110 C 
BRANCH   6   7
ATOM      7  C   UNL     1      -0.887   0.486  -1.062  1.00  0.00     0.110 C 
BRANCH   7   8
ATOM      8  C   UNL     1      -1.827   1.540  -0.546  1.00  0.00     0.225 C 
ATOM      9  N   UNL     1      -1.543   2.855  -0.383  1.00  0.00    -0.317 N 
ATOM     10  H   UNL     1      -2.251   3.353   0.086  1.00  0.00     0.170 HD
ATOM     11  O   UNL     1      -2.979   1.192  -0.241  1.00  0.00    -0.275 OA
BRANCH   9  12
ATOM     12  C   UNL     1      -0.472   3.635  -0.735  1.00  0.00     0.110 A 
ATOM     13  C   UNL     1       0.906   3.598  -0.723  1.00  0.00     0.098 A 
ATOM     14  C   UNL     1       1.466   4.710  -1.509  1.00  0.00    -0.017 A 
ATOM     15  S   UNL     1      -1.036   5.156  -1.245  1.00  0.00    -0.122 S 
ATOM     16  C   UNL     1       0.462   5.560  -1.969  1.00  0.00     0.011 A 
BRANCH  13  17
ATOM     17  C   UNL     1       1.685   2.681   0.091  1.00  0.00     0.341 C 
ATOM     18  O   UNL     1       2.048   2.966   1.228  1.00  0.00    -0.246 OA
BRANCH  17  19
ATOM     19  O   UNL     1       1.942   1.492  -0.514  1.00  0.00    -0.465 OA
ATOM     20  C   UNL     1       2.453   0.486   0.365  1.00  0.00     0.282 C 
ENDBRANCH  17  19
ENDBRANCH  13  17
BRANCH  14  21
ATOM     21  C   UNL     1       2.944   4.896  -1.742  1.00  0.00     0.037 C 
BRANCH  21  22
ATOM     22  C   UNL     1       3.430   4.631  -3.165  1.00  0.00     0.005 C 
BRANCH  22  23
ATOM     23  C   UNL     1       2.783   5.426  -4.298  1.00  0.00     0.000 CG0
ATOM     24  G   UNL     1       2.730   6.942  -4.114  1.00  0.00     0.000 G0
ENDBRANCH  22  23
ENDBRANCH  21  22
ENDBRANCH  14  21
BRANCH  16  25
ATOM     25  C   UNL     1       0.452   6.744  -2.909  1.00  0.00     0.047 C 
BRANCH  25  26
ATOM     26  C   UNL     1       1.765   7.499  -3.060  1.00  0.00     0.006 C 
BRANCH  26  27
ATOM     27  C   UNL     1       2.730   6.942  -4.114  1.00  0.00     0.000 CG0
ATOM     28  G   UNL     1       2.783   5.426  -4.298  1.00  0.00     0.000 G0
ENDBRANCH  26  27
ENDBRANCH  25  26
ENDBRANCH  16  25
ENDBRANCH   9  12
ENDBRANCH   7   8
ENDBRANCH   6   7
ENDBRANCH   3   6
ENDBRANCH   1   2
BRANCH   1  29
ATOM     29  C   UNL     1      -3.660   2.947  -3.211  1.00  0.00     0.023 C 
BRANCH  29  30
ATOM     30  C   UNL     1      -3.677   4.433  -3.581  1.00  0.00     0.023 C 
BRANCH  30  31
ATOM     31  C   UNL     1      -4.347   4.750  -4.904  1.00  0.00     0.116 C 
BRANCH  31  32
ATOM     32  N   UNL     1      -5.748   4.334  -4.948  1.00  0.00    -0.352 N 
ATOM     33  C   UNL     1      -6.517   4.109  -6.075  1.00  0.00     0.251 C 
ATOM     34  H   UNL     1      -6.193   4.199  -4.080  1.00  0.00     0.163 HD
ATOM     35  O   UNL     1      -7.739   4.059  -6.018  1.00  0.00    -0.269 OA
BRANCH  33  36
ATOM     36  C   UNL     1      -5.795   3.942  -7.345  1.00  0.00     0.039 A 
ATOM     37  C   UNL     1      -5.970   4.844  -8.395  1.00  0.00     0.014 A 
ATOM     38  C   UNL     1      -4.765   3.008  -7.352  1.00  0.00     0.014 A 
ATOM     39  C   UNL     1      -5.018   4.877  -9.414  1.00  0.00     0.010 A 
ATOM     40  C   UNL     1      -3.755   3.153  -8.274  1.00  0.00     0.010 A 
ATOM     41  C   UNL     1      -3.880   4.059  -9.332  1.00  0.00    -0.014 A 
BRANCH  41  42
ATOM     42  C   UNL     1      -2.782   4.197 -10.297  1.00  0.00     0.031 A 
ATOM     43  C   UNL     1      -2.236   5.569 -10.550  1.00  0.00     0.074 A 
ATOM     44  C   UNL     1      -2.100   3.135 -10.778  1.00  0.00     0.049 A 
ATOM     45  N   UNL     1      -2.196   6.223 -11.667  1.00  0.00    -0.248 NA
ATOM     46  C   UNL     1      -1.700   6.332  -9.413  1.00  0.00     0.031 C 
ATOM     47  C   UNL     1      -2.249   1.715 -10.431  1.00  0.00     0.029 A 
ATOM     48  N   UNL     1      -1.017   3.128 -11.601  1.00  0.00    -0.354 N 
ATOM     49  C   UNL     1      -1.487   7.404 -11.431  1.00  0.00     0.074 A 
ATOM     50  C   UNL     1      -1.318   7.470 -10.001  1.00  0.00     0.031 C 
ATOM     51  C   UNL     1      -1.148   1.037 -10.815  1.00  0.00     0.029 A 
ATOM     52  C   UNL     1      -0.335   1.921 -11.625  1.00  0.00     0.049 A 
ATOM     53  H   UNL     1      -0.742   3.911 -12.132  1.00  0.00     0.167 HD
ATOM     54  C   UNL     1      -0.972   8.157 -12.450  1.00  0.00     0.034 A 
ATOM     55  C   UNL     1       0.821   1.640 -12.268  1.00  0.00     0.034 A 
ATOM     56  C   UNL     1      -1.546   7.769 -13.717  1.00  0.00     0.049 A 
ATOM     57  C   UNL     1       0.944   2.617 -13.373  1.00  0.00     0.074 A 
ATOM     58  C   UNL     1      -2.822   7.762 -14.245  1.00  0.00     0.029 A 
ATOM     59  N   UNL     1      -0.808   6.954 -14.545  1.00  0.00    -0.354 N 
ATOM     60  N   UNL     1       0.091   2.690 -14.360  1.00  0.00    -0.248 NA
ATOM     61  C   UNL     1       1.746   3.811 -13.163  1.00  0.00     0.031 C 
ATOM     62  C   UNL     1      -2.894   6.554 -15.002  1.00  0.00     0.029 A 
ATOM     63  C   UNL     1      -1.641   5.938 -14.943  1.00  0.00     0.049 A 
ATOM     64  H   UNL     1       0.134   7.077 -14.802  1.00  0.00     0.167 HD
ATOM     65  C   UNL     1      -0.060   4.045 -14.608  1.00  0.00     0.074 A 
ATOM     66  C   UNL     1       1.072   4.673 -13.930  1.00  0.00     0.031 C 
ATOM     67  C   UNL     1      -1.227   4.555 -15.104  1.00  0.00     0.034 A 
BRANCH  54  68
ATOM     68  C   UNL     1       0.235   9.078 -12.393  1.00  0.00     0.023 A 
ATOM     69  C   UNL     1       0.597   9.769 -13.573  1.00  0.00     0.031 A 
ATOM     70  C   UNL     1       1.186   9.125 -11.352  1.00  0.00     0.131 A 
ATOM     71  C   UNL     1       1.859  10.379 -13.712  1.00  0.00     0.055 A 
ATOM     72  C   UNL     1       2.414   9.790 -11.470  1.00  0.00     0.041 A 
ATOM     73  F   UNL     1       1.027   8.461 -10.202  1.00  0.00    -0.206 F 
ATOM     74  C   UNL     1       2.771  10.396 -12.663  1.00  0.00     0.022 A 
BRANCH  71  75
ATOM     75  S   UNL     1       2.361  10.986 -15.347  1.00  0.00     0.124 S 
ATOM     76  O   UNL     1       2.058   9.841 -16.199  1.00  0.00    -0.237 OA
ATOM     77  O   UNL     1       1.506  12.156 -15.510  1.00  0.00    -0.237 OA
ATOM     78  O   UNL     1       3.784  11.274 -15.179  1.00  0.00    -0.744 OA
ENDBRANCH  71  75
ENDBRANCH  54  68
BRANCH  55  79
ATOM     79  C   UNL     1       1.913   0.789 -11.744  1.00  0.00     0.023 A 
ATOM     80  C   UNL     1       2.836   0.137 -12.578  1.00  0.00     0.031 A 
ATOM     81  C   UNL     1       2.180   0.776 -10.354  1.00  0.00     0.131 A 
ATOM     82  C   UNL     1       3.966  -0.498 -12.017  1.00  0.00     0.055 A 
ATOM     83  C   UNL     1       3.295   0.141  -9.804  1.00  0.00     0.041 A 
ATOM     84  F   UNL     1       1.399   1.447  -9.492  1.00  0.00    -0.206 F 
ATOM     85  C   UNL     1       4.200  -0.494 -10.639  1.00  0.00     0.022 A 
BRANCH  82  86
ATOM     86  S   UNL     1       5.207  -1.264 -13.105  1.00  0.00     0.124 S 
ATOM     87  O   UNL     1       4.489  -2.424 -13.621  1.00  0.00    -0.237 OA
ATOM     88  O   UNL     1       5.485  -0.196 -14.059  1.00  0.00    -0.237 OA
ATOM     89  O   UNL     1       6.310  -1.575 -12.196  1.00  0.00    -0.744 OA
ENDBRANCH  82  86
ENDBRANCH  55  79
BRANCH  67  90
ATOM     90  C   UNL     1      -2.276   3.596 -15.636  1.00  0.00     0.023 A 
ATOM     91  C   UNL     1      -2.913   2.596 -14.865  1.00  0.00     0.031 A 
ATOM     92  C   UNL     1      -2.762   3.822 -16.936  1.00  0.00     0.131 A 
ATOM     93  C   UNL     1      -3.991   1.867 -15.404  1.00  0.00     0.055 A 
ATOM     94  C   UNL     1      -3.841   3.110 -17.460  1.00  0.00     0.041 A 
ATOM     95  F   UNL     1      -2.223   4.782 -17.706  1.00  0.00    -0.206 F 
ATOM     96  C   UNL     1      -4.459   2.127 -16.697  1.00  0.00     0.022 A 
BRANCH  93  97
ATOM     97  S   UNL     1      -4.814   0.565 -14.428  1.00  0.00     0.124 S 
ATOM     98  O   UNL     1      -3.706  -0.243 -13.932  1.00  0.00    -0.237 OA
ATOM     99  O   UNL     1      -5.544   1.334 -13.424  1.00  0.00    -0.237 OA
ATOM    100  O   UNL     1      -5.665  -0.110 -15.410  1.00  0.00    -0.744 OA
ENDBRANCH  93  97
ENDBRANCH  67  90
ENDBRANCH  41  42
ENDBRANCH  33  36
ENDBRANCH  31  32
ENDBRANCH  30  31
ENDBRANCH  29  30
ENDBRANCH   1  29
TORSDOF 19
