REMARK SMILES Cc1nc(-c2ccco2)nc(S)c1C(=O)NCCCCNC(=O)c1ccc(-c2c3nc(c(-c4cc(S(=O)(=O)[O-])ccc4F)c4ccc([nH]4)c(-c4cc(S(=O)(=O)[O-])ccc4F)c4nc(c(-c5cc(S(=O)(=O)[O-])ccc5F)c5ccc2[nH]5)C=C4)C=C3)cc1
REMARK SMILES IDX 19 1 18 2 17 3 16 4 14 5 15 6 13 8 1 9 2 10 3 11 4 12 11 13
REMARK SMILES IDX 10 14 5 15 6 16 9 17 7 18 8 19 12 20 20 22 21 23 22 24 23 26
REMARK SMILES IDX 24 27 25 28 86 29 26 30 85 31 27 32 28 33 29 34 79 35 30 36
REMARK SMILES IDX 84 37 78 38 80 39 31 40 83 41 77 42 76 43 32 45 64 46 44 47
REMARK SMILES IDX 63 48 45 49 48 50 62 51 81 52 46 53 47 54 61 56 82 57 49 58
REMARK SMILES IDX 33 59 34 60 42 61 35 62 41 63 43 64 40 65 36 66 37 67 38 68
REMARK SMILES IDX 39 69 65 70 66 71 74 72 67 73 73 74 75 75 72 76 68 77 69 78
REMARK SMILES IDX 70 79 71 80 50 81 51 82 59 83 52 84 58 85 60 86 57 87 53 88
REMARK SMILES IDX 54 89 55 90 56 91
REMARK H PARENT 16 7 12 21 21 25 80 44 48 55
REMARK Flexibility Score: inf
ROOT
ATOM      1  C   UNL     1      -0.954   3.475  -1.288  1.00  0.00     0.023 C 
ENDROOT
BRANCH   1   2
ATOM      2  C   UNL     1      -0.361   2.183  -1.851  1.00  0.00     0.023 C 
BRANCH   2   3
ATOM      3  C   UNL     1       0.028   1.112  -0.837  1.00  0.00     0.116 C 
BRANCH   3   4
ATOM      4  N   UNL     1      -1.039   0.699   0.057  1.00  0.00    -0.352 N 
ATOM      5  C   UNL     1      -1.214  -0.492   0.719  1.00  0.00     0.255 C 
ATOM      6  O   UNL     1      -2.120  -0.601   1.542  1.00  0.00    -0.269 OA
ATOM      7  H   UNL     1      -1.740   1.372   0.212  1.00  0.00     0.163 HD
BRANCH   5   8
ATOM      8  C   UNL     1      -0.378  -1.672   0.438  1.00  0.00     0.093 A 
ATOM      9  C   UNL     1       1.801  -0.585   1.203  1.00  0.00     0.068 C 
ATOM     10  C   UNL     1       0.988  -1.723   0.671  1.00  0.00     0.055 A 
ATOM     11  N   UNL     1       1.717  -2.835   0.415  1.00  0.00    -0.230 NA
ATOM     12  C   UNL     1       1.064  -3.917  -0.035  1.00  0.00     0.196 A 
ATOM     13  C   UNL     1      -0.965  -2.866   0.022  1.00  0.00     0.110 A 
ATOM     14  N   UNL     1      -0.254  -3.986  -0.252  1.00  0.00    -0.218 NA
BRANCH  12  15
ATOM     15  C   UNL     1       1.855  -5.094  -0.349  1.00  0.00     0.171 A 
ATOM     16  C   UNL     1       1.665  -6.186  -1.176  1.00  0.00     0.054 A 
ATOM     17  O   UNL     1       3.067  -5.208   0.279  1.00  0.00    -0.461 OA
ATOM     18  C   UNL     1       2.825  -6.992  -1.060  1.00  0.00     0.043 A 
ATOM     19  C   UNL     1       3.640  -6.359  -0.153  1.00  0.00     0.196 A 
ENDBRANCH  12  15
BRANCH  13  20
ATOM     20  S   UNL     1      -2.722  -3.080  -0.235  1.00  0.00    -0.123 SA
ATOM     21  H   UNL     1      -2.969  -4.356  -0.637  1.00  0.00     0.110 HD
ENDBRANCH  13  20
ENDBRANCH   5   8
ENDBRANCH   3   4
ENDBRANCH   2   3
ENDBRANCH   1   2
BRANCH   1  22
ATOM     22  C   UNL     1      -0.286   4.059  -0.046  1.00  0.00     0.116 C 
BRANCH  22  23
ATOM     23  N   UNL     1       1.093   4.484  -0.245  1.00  0.00    -0.352 N 
ATOM     24  C   UNL     1       1.657   5.742  -0.213  1.00  0.00     0.251 C 
ATOM     25  H   UNL     1       1.726   3.754  -0.434  1.00  0.00     0.163 HD
ATOM     26  O   UNL     1       2.853   5.874  -0.462  1.00  0.00    -0.269 OA
BRANCH  24  27
ATOM     27  C   UNL     1       0.817   6.932   0.053  1.00  0.00     0.039 A 
ATOM     28  C   UNL     1      -0.109   6.940   1.094  1.00  0.00     0.014 A 
ATOM     29  C   UNL     1       0.915   8.036  -0.799  1.00  0.00     0.014 A 
ATOM     30  C   UNL     1      -1.096   7.919   1.123  1.00  0.00     0.010 A 
ATOM     31  C   UNL     1      -0.014   9.078  -0.697  1.00  0.00     0.010 A 
ATOM     32  C   UNL     1      -1.080   8.988   0.211  1.00  0.00    -0.014 A 
BRANCH  32  33
ATOM     33  C   UNL     1      -2.207   9.963   0.200  1.00  0.00     0.031 A 
ATOM     34  C   UNL     1      -3.090  10.109  -1.017  1.00  0.00     0.074 A 
ATOM     35  C   UNL     1      -2.489  10.663   1.316  1.00  0.00     0.049 A 
ATOM     36  N   UNL     1      -4.134  10.880  -1.188  1.00  0.00    -0.248 NA
ATOM     37  C   UNL     1      -2.760   9.290  -2.195  1.00  0.00     0.031 C 
ATOM     38  C   UNL     1      -1.716  10.599   2.557  1.00  0.00     0.029 A 
ATOM     39  N   UNL     1      -3.508  11.537   1.605  1.00  0.00    -0.354 N 
ATOM     40  C   UNL     1      -4.568  10.659  -2.491  1.00  0.00     0.074 A 
ATOM     41  C   UNL     1      -3.657   9.704  -3.080  1.00  0.00     0.031 C 
ATOM     42  C   UNL     1      -2.323  11.343   3.491  1.00  0.00     0.029 A 
ATOM     43  C   UNL     1      -3.482  12.006   2.899  1.00  0.00     0.049 A 
ATOM     44  H   UNL     1      -4.192  11.803   0.949  1.00  0.00     0.167 HD
ATOM     45  C   UNL     1      -5.636  11.192  -3.131  1.00  0.00     0.034 A 
ATOM     46  C   UNL     1      -4.287  12.879   3.540  1.00  0.00     0.034 A 
ATOM     47  C   UNL     1      -6.561  12.114  -2.523  1.00  0.00     0.049 A 
ATOM     48  C   UNL     1      -5.460  13.467   2.800  1.00  0.00     0.074 A 
ATOM     49  C   UNL     1      -7.689  12.686  -3.086  1.00  0.00     0.029 A 
ATOM     50  N   UNL     1      -6.482  12.587  -1.222  1.00  0.00    -0.354 N 
ATOM     51  N   UNL     1      -5.867  13.222   1.577  1.00  0.00    -0.248 NA
ATOM     52  C   UNL     1      -6.283  14.449   3.519  1.00  0.00     0.031 C 
ATOM     53  C   UNL     1      -8.259  13.545  -2.147  1.00  0.00     0.029 A 
ATOM     54  C   UNL     1      -7.528  13.461  -0.973  1.00  0.00     0.049 A 
ATOM     55  H   UNL     1      -5.785  12.340  -0.572  1.00  0.00     0.167 HD
ATOM     56  C   UNL     1      -6.999  14.010   1.385  1.00  0.00     0.074 A 
ATOM     57  C   UNL     1      -7.231  14.713   2.629  1.00  0.00     0.031 C 
ATOM     58  C   UNL     1      -7.765  14.145   0.275  1.00  0.00     0.034 A 
BRANCH  45  59
ATOM     59  C   UNL     1      -5.902  10.795  -4.563  1.00  0.00     0.023 A 
ATOM     60  C   UNL     1      -5.843  11.764  -5.583  1.00  0.00     0.031 A 
ATOM     61  C   UNL     1      -6.359   9.507  -4.894  1.00  0.00     0.131 A 
ATOM     62  C   UNL     1      -6.275  11.441  -6.876  1.00  0.00     0.055 A 
ATOM     63  C   UNL     1      -6.752   9.180  -6.193  1.00  0.00     0.041 A 
ATOM     64  F   UNL     1      -6.431   8.548  -3.957  1.00  0.00    -0.206 F 
ATOM     65  C   UNL     1      -6.724  10.154  -7.188  1.00  0.00     0.022 A 
BRANCH  62  66
ATOM     66  S   UNL     1      -6.332  12.694  -8.187  1.00  0.00     0.124 S 
ATOM     67  O   UNL     1      -5.489  12.090  -9.216  1.00  0.00    -0.237 OA
ATOM     68  O   UNL     1      -7.758  12.745  -8.498  1.00  0.00    -0.237 OA
ATOM     69  O   UNL     1      -5.779  13.888  -7.556  1.00  0.00    -0.744 OA
ENDBRANCH  62  66
ENDBRANCH  45  59
BRANCH  46  70
ATOM     70  C   UNL     1      -4.010  13.207   4.970  1.00  0.00     0.023 A 
ATOM     71  C   UNL     1      -2.784  13.783   5.352  1.00  0.00     0.031 A 
ATOM     72  C   UNL     1      -4.912  12.846   5.984  1.00  0.00     0.131 A 
ATOM     73  C   UNL     1      -2.460  13.903   6.709  1.00  0.00     0.055 A 
ATOM     74  C   UNL     1      -4.618  13.041   7.335  1.00  0.00     0.041 A 
ATOM     75  F   UNL     1      -6.090  12.283   5.672  1.00  0.00    -0.206 F 
ATOM     76  C   UNL     1      -3.377  13.551   7.703  1.00  0.00     0.022 A 
BRANCH  73  77
ATOM     77  S   UNL     1      -0.781  14.361   7.222  1.00  0.00     0.124 S 
ATOM     78  O   UNL     1      -1.005  15.641   7.885  1.00  0.00    -0.237 OA
ATOM     79  O   UNL     1      -0.420  13.250   8.099  1.00  0.00    -0.237 OA
ATOM     80  O   UNL     1      -0.042  14.419   5.965  1.00  0.00    -0.744 OA
ENDBRANCH  73  77
ENDBRANCH  46  70
BRANCH  58  81
ATOM     81  C   UNL     1      -8.944  15.087   0.320  1.00  0.00     0.023 A 
ATOM     82  C   UNL     1     -10.251  14.589   0.155  1.00  0.00     0.031 A 
ATOM     83  C   UNL     1      -8.761  16.480   0.366  1.00  0.00     0.131 A 
ATOM     84  C   UNL     1     -11.320  15.480   0.002  1.00  0.00     0.055 A 
ATOM     85  C   UNL     1      -9.836  17.362   0.257  1.00  0.00     0.041 A 
ATOM     86  F   UNL     1      -7.532  17.001   0.511  1.00  0.00    -0.206 F 
ATOM     87  C   UNL     1     -11.121  16.863   0.059  1.00  0.00     0.022 A 
BRANCH  84  88
ATOM     88  S   UNL     1     -12.992  14.881  -0.367  1.00  0.00     0.124 S 
ATOM     89  O   UNL     1     -13.748  15.370   0.784  1.00  0.00    -0.237 OA
ATOM     90  O   UNL     1     -13.286  15.547  -1.634  1.00  0.00    -0.237 OA
ATOM     91  O   UNL     1     -12.840  13.432  -0.441  1.00  0.00    -0.744 OA
ENDBRANCH  84  88
ENDBRANCH  58  81
ENDBRANCH  32  33
ENDBRANCH  24  27
ENDBRANCH  22  23
ENDBRANCH   1  22
TORSDOF 16
