REMARK SMILES Cc1csc2nc(C(=O)NCCCCNC(=O)c3ccc(-c4c5nc(c(-c6cc(S(=O)(=O)[O-])ccc6F)c6ccc([nH]6)c(-c6cc(S(=O)(=O)[O-])ccc6F)c6nc(c(-c7cc(S(=O)(=O)[O-])ccc7F)c7ccc4[nH]7)C=C6)C=C5)cc3)cn12
REMARK SMILES IDX 14 1 13 2 12 3 11 4 10 5 8 6 9 7 7 9 1 10 2 11 3 12 82 13
REMARK SMILES IDX 4 14 5 15 81 16 6 17 15 18 16 19 17 21 18 22 19 23 80 24
REMARK SMILES IDX 20 25 79 26 21 27 22 28 23 29 73 30 24 31 78 32 72 33 74 34
REMARK SMILES IDX 25 35 77 36 71 37 70 38 26 40 58 41 38 42 57 43 39 44 42 45
REMARK SMILES IDX 56 46 75 47 40 48 41 49 55 51 76 52 43 53 27 54 28 55 36 56
REMARK SMILES IDX 29 57 35 58 37 59 34 60 30 61 31 62 32 63 33 64 59 65 60 66
REMARK SMILES IDX 68 67 61 68 67 69 69 70 66 71 62 72 63 73 64 74 65 75 44 76
REMARK SMILES IDX 45 77 53 78 46 79 52 80 54 81 51 82 47 83 48 84 49 85 50 86
REMARK H PARENT 10 8 15 20 74 39 42 50
REMARK Flexibility Score: inf
ROOT
ATOM      1  C   UNL     1      -3.614  -1.885   9.779  1.00  0.00     0.116 C 
ENDROOT
BRANCH   1   2
ATOM      2  C   UNL     1      -4.054  -1.785   8.321  1.00  0.00     0.023 C 
BRANCH   2   3
ATOM      3  C   UNL     1      -3.132  -0.960   7.406  1.00  0.00     0.023 C 
BRANCH   3   4
ATOM      4  C   UNL     1      -1.702  -1.489   7.246  1.00  0.00     0.116 C 
BRANCH   4   5
ATOM      5  N   UNL     1      -1.635  -2.667   6.397  1.00  0.00    -0.351 N 
ATOM      6  C   UNL     1      -1.244  -2.801   5.084  1.00  0.00     0.271 C 
ATOM      7  O   UNL     1      -1.236  -3.934   4.599  1.00  0.00    -0.267 OA
ATOM      8  H   UNL     1      -1.914  -3.505   6.832  1.00  0.00     0.163 HD
BRANCH   6   9
ATOM      9  C   UNL     1      -0.845  -1.630   4.289  1.00  0.00     0.148 A 
ATOM     10  C   UNL     1       0.948  -0.356   0.337  1.00  0.00     0.066 C 
ATOM     11  C   UNL     1       0.499   0.300   1.592  1.00  0.00     0.032 A 
ATOM     12  C   UNL     1       0.498   1.627   1.833  1.00  0.00     0.090 A 
ATOM     13  N   UNL     1      -0.027  -0.397   2.668  1.00  0.00    -0.294 N 
ATOM     14  S   UNL     1      -0.166   2.057   3.415  1.00  0.00    -0.105 S 
ATOM     15  C   UNL     1      -0.444   0.372   3.711  1.00  0.00     0.194 A 
ATOM     16  C   UNL     1      -0.278  -1.691   3.012  1.00  0.00     0.128 A 
ATOM     17  N   UNL     1      -0.981  -0.302   4.685  1.00  0.00    -0.214 NA
ENDBRANCH   6   9
ENDBRANCH   4   5
ENDBRANCH   3   4
ENDBRANCH   2   3
ENDBRANCH   1   2
BRANCH   1  18
ATOM     18  N   UNL     1      -3.564  -0.593  10.475  1.00  0.00    -0.352 N 
ATOM     19  C   UNL     1      -3.056  -0.309  11.741  1.00  0.00     0.251 C 
ATOM     20  H   UNL     1      -3.940   0.172   9.983  1.00  0.00     0.163 HD
ATOM     21  O   UNL     1      -3.451   0.658  12.370  1.00  0.00    -0.269 OA
BRANCH  19  22
ATOM     22  C   UNL     1      -2.009  -1.196  12.291  1.00  0.00     0.039 A 
ATOM     23  C   UNL     1      -1.899  -1.520  13.647  1.00  0.00     0.014 A 
ATOM     24  C   UNL     1      -1.128  -1.739  11.368  1.00  0.00     0.014 A 
ATOM     25  C   UNL     1      -0.928  -2.447  14.035  1.00  0.00     0.010 A 
ATOM     26  C   UNL     1      -0.383  -2.828  11.704  1.00  0.00     0.010 A 
ATOM     27  C   UNL     1      -0.178  -3.101  13.045  1.00  0.00    -0.014 A 
BRANCH  27  28
ATOM     28  C   UNL     1       0.774  -4.167  13.324  1.00  0.00     0.031 A 
ATOM     29  C   UNL     1       0.163  -5.348  13.975  1.00  0.00     0.074 A 
ATOM     30  C   UNL     1       2.006  -4.198  12.760  1.00  0.00     0.049 A 
ATOM     31  N   UNL     1       0.286  -5.708  15.207  1.00  0.00    -0.248 NA
ATOM     32  C   UNL     1      -0.873  -6.099  13.243  1.00  0.00     0.031 C 
ATOM     33  C   UNL     1       2.600  -3.243  11.815  1.00  0.00     0.029 A 
ATOM     34  N   UNL     1       2.952  -5.171  12.811  1.00  0.00    -0.354 N 
ATOM     35  C   UNL     1      -0.415  -6.902  15.317  1.00  0.00     0.074 A 
ATOM     36  C   UNL     1      -1.314  -6.923  14.196  1.00  0.00     0.031 C 
ATOM     37  C   UNL     1       3.668  -3.807  11.207  1.00  0.00     0.029 A 
ATOM     38  C   UNL     1       3.928  -5.100  11.816  1.00  0.00     0.049 A 
ATOM     39  H   UNL     1       2.950  -5.875  13.499  1.00  0.00     0.167 HD
ATOM     40  C   UNL     1       0.025  -7.895  16.140  1.00  0.00     0.034 A 
ATOM     41  C   UNL     1       4.845  -6.057  11.492  1.00  0.00     0.034 A 
ATOM     42  C   UNL     1       1.065  -7.398  17.023  1.00  0.00     0.049 A 
ATOM     43  C   UNL     1       4.966  -6.933  12.692  1.00  0.00     0.074 A 
ATOM     44  C   UNL     1       1.147  -6.341  17.912  1.00  0.00     0.029 A 
ATOM     45  N   UNL     1       2.373  -7.739  16.740  1.00  0.00    -0.354 N 
ATOM     46  N   UNL     1       5.428  -6.508  13.839  1.00  0.00    -0.248 NA
ATOM     47  C   UNL     1       4.078  -8.086  12.778  1.00  0.00     0.031 C 
ATOM     48  C   UNL     1       2.435  -5.773  17.679  1.00  0.00     0.029 A 
ATOM     49  C   UNL     1       3.116  -6.583  16.767  1.00  0.00     0.049 A 
ATOM     50  H   UNL     1       2.711  -8.645  16.552  1.00  0.00     0.167 HD
ATOM     51  C   UNL     1       4.561  -7.022  14.792  1.00  0.00     0.074 A 
ATOM     52  C   UNL     1       3.799  -8.057  14.087  1.00  0.00     0.031 C 
ATOM     53  C   UNL     1       4.309  -6.363  15.965  1.00  0.00     0.034 A 
BRANCH  40  54
ATOM     54  C   UNL     1      -0.172  -9.379  15.907  1.00  0.00     0.023 A 
ATOM     55  C   UNL     1       0.373 -10.245  16.873  1.00  0.00     0.031 A 
ATOM     56  C   UNL     1      -0.593  -9.995  14.706  1.00  0.00     0.131 A 
ATOM     57  C   UNL     1       0.600 -11.601  16.587  1.00  0.00     0.055 A 
ATOM     58  C   UNL     1      -0.432 -11.360  14.454  1.00  0.00     0.041 A 
ATOM     59  F   UNL     1      -1.100  -9.315  13.673  1.00  0.00    -0.206 F 
ATOM     60  C   UNL     1       0.203 -12.166  15.381  1.00  0.00     0.022 A 
BRANCH  57  61
ATOM     61  S   UNL     1       1.599 -12.560  17.751  1.00  0.00     0.124 S 
ATOM     62  O   UNL     1       2.804 -11.742  17.842  1.00  0.00    -0.237 OA
ATOM     63  O   UNL     1       0.744 -12.581  18.933  1.00  0.00    -0.237 OA
ATOM     64  O   UNL     1       1.764 -13.845  17.077  1.00  0.00    -0.744 OA
ENDBRANCH  57  61
ENDBRANCH  40  54
BRANCH  41  65
ATOM     65  C   UNL     1       5.320  -6.439  10.120  1.00  0.00     0.023 A 
ATOM     66  C   UNL     1       6.451  -7.259   9.880  1.00  0.00     0.031 A 
ATOM     67  C   UNL     1       4.497  -6.179   8.999  1.00  0.00     0.131 A 
ATOM     68  C   UNL     1       6.711  -7.766   8.577  1.00  0.00     0.055 A 
ATOM     69  C   UNL     1       4.758  -6.681   7.721  1.00  0.00     0.041 A 
ATOM     70  F   UNL     1       3.350  -5.493   9.120  1.00  0.00    -0.206 F 
ATOM     71  C   UNL     1       5.861  -7.486   7.506  1.00  0.00     0.022 A 
BRANCH  68  72
ATOM     72  S   UNL     1       8.119  -8.888   8.258  1.00  0.00     0.124 S 
ATOM     73  O   UNL     1       9.263  -7.991   8.373  1.00  0.00    -0.237 OA
ATOM     74  O   UNL     1       7.971  -9.891   9.306  1.00  0.00    -0.237 OA
ATOM     75  O   UNL     1       7.863  -9.383   6.903  1.00  0.00    -0.744 OA
ENDBRANCH  68  72
ENDBRANCH  41  65
BRANCH  53  76
ATOM     76  C   UNL     1       5.196  -5.196  16.370  1.00  0.00     0.023 A 
ATOM     77  C   UNL     1       5.462  -4.050  15.583  1.00  0.00     0.031 A 
ATOM     78  C   UNL     1       5.683  -5.198  17.691  1.00  0.00     0.131 A 
ATOM     79  C   UNL     1       6.198  -2.975  16.126  1.00  0.00     0.055 A 
ATOM     80  C   UNL     1       6.384  -4.122  18.232  1.00  0.00     0.041 A 
ATOM     81  F   UNL     1       5.450  -6.245  18.501  1.00  0.00    -0.206 F 
ATOM     82  C   UNL     1       6.650  -3.008  17.449  1.00  0.00     0.022 A 
BRANCH  79  83
ATOM     83  S   UNL     1       6.616  -1.514  15.117  1.00  0.00     0.124 S 
ATOM     84  O   UNL     1       7.049  -2.087  13.848  1.00  0.00    -0.237 OA
ATOM     85  O   UNL     1       5.356  -0.777  15.090  1.00  0.00    -0.237 OA
ATOM     86  O   UNL     1       7.682  -0.866  15.885  1.00  0.00    -0.744 OA
ENDBRANCH  79  83
ENDBRANCH  53  76
ENDBRANCH  27  28
ENDBRANCH  19  22
ENDBRANCH   1  18
TORSDOF 14
