REMARK SMILES Cc1cc(Br)ccc1NS(=O)(=O)c1ccc(C(=O)NCCCCNC(=O)c2ccc(-c3c4nc(c(-c5cc(S(=O)(=O)[O-])ccc5F)c5ccc([nH]5)c(-c5cc(S(=O)(=O)[O-])ccc5F)c5nc(c(-c6cc(S(=O)(=O)[O-])ccc6F)c6ccc3[nH]6)C=C5)C=C4)cc2)cc1
REMARK SMILES IDX 21 1 20 2 19 3 17 4 18 5 16 7 13 8 14 9 91 10 15 11 90 12
REMARK SMILES IDX 10 13 11 14 12 15 9 16 8 18 1 19 2 20 3 21 4 22 7 23 5 24
REMARK SMILES IDX 6 25 22 26 23 27 24 28 25 29 26 31 27 32 28 33 89 34 29 35
REMARK SMILES IDX 88 36 30 37 31 38 32 39 82 40 33 41 87 42 81 43 83 44 34 45
REMARK SMILES IDX 86 46 80 47 79 48 35 50 67 51 47 52 66 53 48 54 51 55 65 56
REMARK SMILES IDX 84 57 49 58 50 59 64 61 85 62 52 63 36 64 37 65 45 66 38 67
REMARK SMILES IDX 44 68 46 69 43 70 39 71 40 72 41 73 42 74 68 75 69 76 77 77
REMARK SMILES IDX 70 78 76 79 78 80 75 81 71 82 72 83 73 84 74 85 53 86 54 87
REMARK SMILES IDX 62 88 55 89 61 90 63 91 60 92 56 93 57 94 58 95 59 96
REMARK H PARENT 19 6 9 17 24 30 83 49 51 60
REMARK Flexibility Score: inf
ROOT
ATOM      1  C   UNL     1      -2.063   9.385   0.866  1.00  0.00     0.023 C 
ENDROOT
BRANCH   1   2
ATOM      2  C   UNL     1      -1.562   8.570  -0.325  1.00  0.00     0.116 C 
BRANCH   2   3
ATOM      3  N   UNL     1      -0.394   7.794   0.041  1.00  0.00    -0.352 N 
ATOM      4  C   UNL     1      -0.260   6.441   0.198  1.00  0.00     0.251 C 
ATOM      5  O   UNL     1       0.838   5.955   0.454  1.00  0.00    -0.269 OA
ATOM      6  H   UNL     1       0.424   8.317   0.200  1.00  0.00     0.163 HD
BRANCH   4   7
ATOM      7  C   UNL     1      -1.412   5.531   0.012  1.00  0.00     0.039 A 
ATOM      8  C   UNL     1      -3.397   3.585  -0.231  1.00  0.00     0.087 A 
ATOM      9  C   UNL     1      -2.243   3.506  -1.020  1.00  0.00     0.023 A 
ATOM     10  C   UNL     1      -3.599   4.676   0.624  1.00  0.00     0.023 A 
ATOM     11  C   UNL     1      -1.238   4.461  -0.872  1.00  0.00     0.015 A 
ATOM     12  C   UNL     1      -2.596   5.647   0.752  1.00  0.00     0.015 A 
BRANCH   8  13
ATOM     13  S   UNL     1      -4.585   2.262  -0.330  1.00  0.00     0.261 S 
ATOM     14  O   UNL     1      -4.525   1.696  -1.660  1.00  0.00    -0.201 OA
ATOM     15  O   UNL     1      -5.841   2.758   0.198  1.00  0.00    -0.201 OA
BRANCH  13  16
ATOM     16  N   UNL     1      -4.059   1.069   0.776  1.00  0.00    -0.279 N 
ATOM     17  H   UNL     1      -4.653   0.761   1.499  1.00  0.00     0.180 HD
BRANCH  16  18
ATOM     18  C   UNL     1      -2.741   0.522   0.637  1.00  0.00     0.052 A 
ATOM     19  C   UNL     1      -3.535  -1.711  -0.358  1.00  0.00     0.046 C 
ATOM     20  C   UNL     1      -2.476  -0.717   0.030  1.00  0.00    -0.026 A 
ATOM     21  C   UNL     1      -1.131  -1.119  -0.124  1.00  0.00     0.021 A 
ATOM     22  C   UNL     1      -0.085  -0.306   0.311  1.00  0.00     0.018 A 
ATOM     23  C   UNL     1      -1.678   1.291   1.127  1.00  0.00     0.028 A 
ATOM     24  Br  UNL     1       1.705  -0.858   0.066  1.00  0.00    -0.051 Br
ATOM     25  C   UNL     1      -0.354   0.896   0.947  1.00  0.00     0.018 A 
ENDBRANCH  16  18
ENDBRANCH  13  16
ENDBRANCH   8  13
ENDBRANCH   4   7
ENDBRANCH   2   3
ENDBRANCH   1   2
BRANCH   1  26
ATOM     26  C   UNL     1      -1.185  10.590   1.222  1.00  0.00     0.023 C 
BRANCH  26  27
ATOM     27  C   UNL     1      -1.031  11.630   0.116  1.00  0.00     0.116 C 
BRANCH  27  28
ATOM     28  N   UNL     1      -2.305  12.143  -0.365  1.00  0.00    -0.352 N 
ATOM     29  C   UNL     1      -2.603  13.411  -0.803  1.00  0.00     0.251 C 
ATOM     30  H   UNL     1      -3.049  11.498  -0.378  1.00  0.00     0.163 HD
ATOM     31  O   UNL     1      -3.763  13.714  -1.061  1.00  0.00    -0.269 OA
BRANCH  29  32
ATOM     32  C   UNL     1      -1.519  14.407  -0.917  1.00  0.00     0.039 A 
ATOM     33  C   UNL     1      -1.683  15.655  -0.313  1.00  0.00     0.014 A 
ATOM     34  C   UNL     1      -0.330  14.090  -1.579  1.00  0.00     0.014 A 
ATOM     35  C   UNL     1      -0.625  16.565  -0.316  1.00  0.00     0.010 A 
ATOM     36  C   UNL     1       0.745  14.972  -1.524  1.00  0.00     0.010 A 
ATOM     37  C   UNL     1       0.609  16.216  -0.890  1.00  0.00    -0.014 A 
BRANCH  37  38
ATOM     38  C   UNL     1       1.768  17.143  -0.839  1.00  0.00     0.031 A 
ATOM     39  C   UNL     1       2.327  17.715  -2.112  1.00  0.00     0.074 A 
ATOM     40  C   UNL     1       2.352  17.415   0.345  1.00  0.00     0.049 A 
ATOM     41  N   UNL     1       3.377  18.475  -2.288  1.00  0.00    -0.248 NA
ATOM     42  C   UNL     1       1.628  17.357  -3.356  1.00  0.00     0.031 C 
ATOM     43  C   UNL     1       1.923  16.882   1.641  1.00  0.00     0.029 A 
ATOM     44  N   UNL     1       3.437  18.197   0.653  1.00  0.00    -0.354 N 
ATOM     45  C   UNL     1       3.471  18.678  -3.660  1.00  0.00     0.074 A 
ATOM     46  C   UNL     1       2.409  17.908  -4.272  1.00  0.00     0.031 C 
ATOM     47  C   UNL     1       2.723  17.370   2.603  1.00  0.00     0.029 A 
ATOM     48  C   UNL     1       3.746  18.213   1.994  1.00  0.00     0.049 A 
ATOM     49  H   UNL     1       3.947  18.699  -0.023  1.00  0.00     0.167 HD
ATOM     50  C   UNL     1       4.348  19.455  -4.344  1.00  0.00     0.034 A 
ATOM     51  C   UNL     1       4.747  18.829   2.654  1.00  0.00     0.034 A 
ATOM     52  C   UNL     1       5.393  20.226  -3.715  1.00  0.00     0.049 A 
ATOM     53  C   UNL     1       5.720  19.673   1.870  1.00  0.00     0.074 A 
ATOM     54  C   UNL     1       6.304  21.085  -4.303  1.00  0.00     0.029 A 
ATOM     55  N   UNL     1       5.670  20.226  -2.353  1.00  0.00    -0.354 N 
ATOM     56  N   UNL     1       5.765  19.896   0.576  1.00  0.00    -0.248 NA
ATOM     57  C   UNL     1       6.768  20.359   2.636  1.00  0.00     0.031 C 
ATOM     58  C   UNL     1       7.170  21.555  -3.308  1.00  0.00     0.029 A 
ATOM     59  C   UNL     1       6.754  21.049  -2.087  1.00  0.00     0.049 A 
ATOM     60  H   UNL     1       5.170  19.716  -1.675  1.00  0.00     0.167 HD
ATOM     61  C   UNL     1       6.828  20.773   0.380  1.00  0.00     0.074 A 
ATOM     62  C   UNL     1       7.384  21.050   1.689  1.00  0.00     0.031 C 
ATOM     63  C   UNL     1       7.301  21.306  -0.776  1.00  0.00     0.034 A 
BRANCH  50  64
ATOM     64  C   UNL     1       4.221  19.486  -5.848  1.00  0.00     0.023 A 
ATOM     65  C   UNL     1       3.067  19.982  -6.480  1.00  0.00     0.031 A 
ATOM     66  C   UNL     1       5.254  18.990  -6.662  1.00  0.00     0.131 A 
ATOM     67  C   UNL     1       2.941  19.900  -7.875  1.00  0.00     0.055 A 
ATOM     68  C   UNL     1       5.157  18.988  -8.056  1.00  0.00     0.041 A 
ATOM     69  F   UNL     1       6.372  18.485  -6.117  1.00  0.00    -0.206 F 
ATOM     70  C   UNL     1       3.989  19.430  -8.669  1.00  0.00     0.022 A 
BRANCH  67  71
ATOM     71  S   UNL     1       1.333  20.284  -8.623  1.00  0.00     0.124 S 
ATOM     72  O   UNL     1       0.467  19.301  -7.976  1.00  0.00    -0.237 OA
ATOM     73  O   UNL     1       1.127  21.673  -8.232  1.00  0.00    -0.237 OA
ATOM     74  O   UNL     1       1.558  20.063 -10.050  1.00  0.00    -0.744 OA
ENDBRANCH  67  71
ENDBRANCH  50  64
BRANCH  51  75
ATOM     75  C   UNL     1       4.894  18.669   4.129  1.00  0.00     0.023 A 
ATOM     76  C   UNL     1       4.756  19.767   4.993  1.00  0.00     0.031 A 
ATOM     77  C   UNL     1       5.223  17.424   4.694  1.00  0.00     0.131 A 
ATOM     78  C   UNL     1       4.997  19.613   6.367  1.00  0.00     0.055 A 
ATOM     79  C   UNL     1       5.408  17.263   6.069  1.00  0.00     0.041 A 
ATOM     80  F   UNL     1       5.360  16.339   3.915  1.00  0.00    -0.206 F 
ATOM     81  C   UNL     1       5.310  18.366   6.912  1.00  0.00     0.022 A 
BRANCH  78  82
ATOM     82  S   UNL     1       4.985  21.088   7.421  1.00  0.00     0.124 S 
ATOM     83  O   UNL     1       5.996  21.921   6.779  1.00  0.00    -0.237 OA
ATOM     84  O   UNL     1       3.604  21.540   7.293  1.00  0.00    -0.237 OA
ATOM     85  O   UNL     1       5.348  20.568   8.738  1.00  0.00    -0.744 OA
ENDBRANCH  78  82
ENDBRANCH  51  75
BRANCH  63  86
ATOM     86  C   UNL     1       8.449  22.278  -0.661  1.00  0.00     0.023 A 
ATOM     87  C   UNL     1       9.727  21.869  -0.242  1.00  0.00     0.031 A 
ATOM     88  C   UNL     1       8.256  23.637  -0.966  1.00  0.00     0.131 A 
ATOM     89  C   UNL     1      10.748  22.818  -0.085  1.00  0.00     0.055 A 
ATOM     90  C   UNL     1       9.291  24.567  -0.866  1.00  0.00     0.041 A 
ATOM     91  F   UNL     1       7.055  24.083  -1.369  1.00  0.00    -0.206 F 
ATOM     92  C   UNL     1      10.543  24.162  -0.411  1.00  0.00     0.022 A 
BRANCH  89  93
ATOM     93  S   UNL     1      12.325  22.290   0.637  1.00  0.00     0.124 S 
ATOM     94  O   UNL     1      11.906  21.767   1.933  1.00  0.00    -0.237 OA
ATOM     95  O   UNL     1      12.795  21.301  -0.328  1.00  0.00    -0.237 OA
ATOM     96  O   UNL     1      13.109  23.523   0.690  1.00  0.00    -0.744 OA
ENDBRANCH  89  93
ENDBRANCH  63  86
ENDBRANCH  37  38
ENDBRANCH  29  32
ENDBRANCH  27  28
ENDBRANCH  26  27
ENDBRANCH   1  26
TORSDOF 17
