REMARK SMILES C[C@H]([NH2+]Cc1cc(C(=O)NCCCCNC(=O)c2ccc(-c3c4nc(c(-c5cc(S(=O)(=O)[O-])ccc5F)c5ccc([nH]5)c(-c5cc(S(=O)(=O)[O-])ccc5F)c5nc(c(-c6cc(S(=O)(=O)[O-])ccc6F)c6ccc3[nH]6)C=C5)C=C4)cc2)cs1)c1ccsc1
REMARK SMILES IDX 12 1 11 2 10 3 8 4 9 5 7 7 5 8 6 9 82 10 81 11 4 12 3 13
REMARK SMILES IDX 2 16 1 17 83 18 84 19 87 20 85 21 86 22 13 23 14 24 15 25
REMARK SMILES IDX 16 26 17 28 18 29 19 30 80 31 20 32 79 33 21 34 22 35 23 36
REMARK SMILES IDX 73 37 24 38 78 39 72 40 74 41 25 42 77 43 71 44 70 45 26 47
REMARK SMILES IDX 58 48 38 49 57 50 39 51 42 52 56 53 75 54 40 55 41 56 55 58
REMARK SMILES IDX 76 59 43 60 27 61 28 62 36 63 29 64 35 65 37 66 34 67 30 68
REMARK SMILES IDX 31 69 32 70 33 71 59 72 60 73 68 74 61 75 67 76 69 77 66 78
REMARK SMILES IDX 62 79 63 80 64 81 65 82 44 83 45 84 53 85 46 86 52 87 54 88
REMARK SMILES IDX 51 89 47 90 48 91 49 92 50 93
REMARK H PARENT 10 6 3 14 3 15 15 27 74 46 42 57
REMARK Flexibility Score: inf
ROOT
ATOM      1  C   UNL     1       7.124   1.840  -1.323  1.00  0.00     0.023 C 
ENDROOT
BRANCH   1   2
ATOM      2  C   UNL     1       5.994   2.337  -2.224  1.00  0.00     0.116 C 
BRANCH   2   3
ATOM      3  N   UNL     1       5.988   1.628  -3.485  1.00  0.00    -0.352 N 
ATOM      4  C   UNL     1       5.239   0.581  -3.957  1.00  0.00     0.252 C 
ATOM      5  O   UNL     1       5.453   0.235  -5.119  1.00  0.00    -0.269 OA
ATOM      6  H   UNL     1       6.652   1.962  -4.130  1.00  0.00     0.163 HD
BRANCH   4   7
ATOM      7  C   UNL     1       4.207  -0.082  -3.149  1.00  0.00     0.051 A 
ATOM      8  C   UNL     1       2.824  -0.780  -1.364  1.00  0.00     0.059 A 
ATOM      9  C   UNL     1       3.953  -0.073  -1.737  1.00  0.00     0.035 A 
ATOM     10  S   UNL     1       2.129  -1.581  -2.701  1.00  0.00    -0.142 S 
ATOM     11  C   UNL     1       3.290  -0.924  -3.765  1.00  0.00     0.079 A 
BRANCH   8  12
ATOM     12  C   UNL     1       2.242  -0.918   0.013  1.00  0.00     0.308 C 
BRANCH  12  13
ATOM     13  N   UNL     1       0.994  -0.169   0.136  1.00  0.00    -0.336 N 
ATOM     14  H   UNL     1       1.140   0.775  -0.222  1.00  0.00     0.347 HD
ATOM     15  H   UNL     1       0.278  -0.660  -0.399  1.00  0.00     0.347 HD
BRANCH  13  16
ATOM     16  C   UNL     1       0.539  -0.082   1.525  1.00  0.00     0.211 C 
ATOM     17  C   UNL     1       1.166   1.110   2.255  1.00  0.00     0.081 C 
BRANCH  16  18
ATOM     18  C   UNL     1      -0.973  -0.037   1.491  1.00  0.00     0.020 A 
ATOM     19  C   UNL     1      -1.798   1.140   1.437  1.00  0.00     0.021 A 
ATOM     20  C   UNL     1      -1.770  -1.172   1.502  1.00  0.00     0.074 A 
ATOM     21  C   UNL     1      -3.145   0.853   1.438  1.00  0.00     0.065 A 
ATOM     22  S   UNL     1      -3.442  -0.827   1.483  1.00  0.00    -0.152 S 
ENDBRANCH  16  18
ENDBRANCH  13  16
ENDBRANCH  12  13
ENDBRANCH   8  12
ENDBRANCH   4   7
ENDBRANCH   2   3
ENDBRANCH   1   2
BRANCH   1  23
ATOM     23  C   UNL     1       8.498   2.424  -1.676  1.00  0.00     0.023 C 
BRANCH  23  24
ATOM     24  C   UNL     1       8.593   3.946  -1.604  1.00  0.00     0.116 C 
BRANCH  24  25
ATOM     25  N   UNL     1       8.208   4.482  -0.307  1.00  0.00    -0.352 N 
ATOM     26  C   UNL     1       8.735   5.561   0.363  1.00  0.00     0.251 C 
ATOM     27  H   UNL     1       7.475   4.011   0.150  1.00  0.00     0.163 HD
ATOM     28  O   UNL     1       8.381   5.795   1.514  1.00  0.00    -0.269 OA
BRANCH  26  29
ATOM     29  C   UNL     1       9.755   6.399  -0.301  1.00  0.00     0.039 A 
ATOM     30  C   UNL     1      10.925   6.712   0.391  1.00  0.00     0.014 A 
ATOM     31  C   UNL     1       9.572   6.836  -1.616  1.00  0.00     0.014 A 
ATOM     32  C   UNL     1      11.943   7.410  -0.262  1.00  0.00     0.010 A 
ATOM     33  C   UNL     1      10.619   7.460  -2.288  1.00  0.00     0.010 A 
ATOM     34  C   UNL     1      11.816   7.755  -1.618  1.00  0.00    -0.014 A 
BRANCH  34  35
ATOM     35  C   UNL     1      12.929   8.421  -2.345  1.00  0.00     0.031 A 
ATOM     36  C   UNL     1      12.743   9.802  -2.913  1.00  0.00     0.074 A 
ATOM     37  C   UNL     1      14.091   7.762  -2.532  1.00  0.00     0.049 A 
ATOM     38  N   UNL     1      13.580  10.531  -3.605  1.00  0.00    -0.248 NA
ATOM     39  C   UNL     1      11.432  10.434  -2.698  1.00  0.00     0.031 C 
ATOM     40  C   UNL     1      14.373   6.401  -2.067  1.00  0.00     0.029 A 
ATOM     41  N   UNL     1      15.251   8.142  -3.159  1.00  0.00    -0.354 N 
ATOM     42  C   UNL     1      12.898  11.703  -3.913  1.00  0.00     0.074 A 
ATOM     43  C   UNL     1      11.555  11.553  -3.394  1.00  0.00     0.031 C 
ATOM     44  C   UNL     1      15.634   6.077  -2.392  1.00  0.00     0.029 A 
ATOM     45  C   UNL     1      16.236   7.182  -3.132  1.00  0.00     0.049 A 
ATOM     46  H   UNL     1      15.367   9.021  -3.588  1.00  0.00     0.167 HD
ATOM     47  C   UNL     1      13.356  12.812  -4.546  1.00  0.00     0.034 A 
ATOM     48  C   UNL     1      17.481   7.187  -3.651  1.00  0.00     0.034 A 
ATOM     49  C   UNL     1      14.700  12.944  -5.053  1.00  0.00     0.049 A 
ATOM     50  C   UNL     1      17.957   8.418  -4.381  1.00  0.00     0.074 A 
ATOM     51  C   UNL     1      15.286  14.039  -5.665  1.00  0.00     0.029 A 
ATOM     52  N   UNL     1      15.668  11.946  -5.020  1.00  0.00    -0.354 N 
ATOM     53  N   UNL     1      17.317   9.542  -4.612  1.00  0.00    -0.248 NA
ATOM     54  C   UNL     1      19.326   8.386  -4.908  1.00  0.00     0.031 C 
ATOM     55  C   UNL     1      16.574  13.677  -6.073  1.00  0.00     0.029 A 
ATOM     56  C   UNL     1      16.830  12.389  -5.633  1.00  0.00     0.049 A 
ATOM     57  H   UNL     1      15.545  11.056  -4.619  1.00  0.00     0.167 HD
ATOM     58  C   UNL     1      18.221  10.362  -5.282  1.00  0.00     0.074 A 
ATOM     59  C   UNL     1      19.453   9.610  -5.399  1.00  0.00     0.031 C 
ATOM     60  C   UNL     1      18.050  11.624  -5.755  1.00  0.00     0.034 A 
BRANCH  47  61
ATOM     61  C   UNL     1      12.385  13.953  -4.743  1.00  0.00     0.023 A 
ATOM     62  C   UNL     1      11.798  14.622  -3.654  1.00  0.00     0.031 A 
ATOM     63  C   UNL     1      12.023  14.365  -6.038  1.00  0.00     0.131 A 
ATOM     64  C   UNL     1      10.826  15.608  -3.877  1.00  0.00     0.055 A 
ATOM     65  C   UNL     1      11.121  15.409  -6.254  1.00  0.00     0.041 A 
ATOM     66  F   UNL     1      12.530  13.751  -7.119  1.00  0.00    -0.206 F 
ATOM     67  C   UNL     1      10.504  16.027  -5.170  1.00  0.00     0.022 A 
BRANCH  64  68
ATOM     68  S   UNL     1       9.878  16.225  -2.459  1.00  0.00     0.124 S 
ATOM     69  O   UNL     1       9.286  14.992  -1.942  1.00  0.00    -0.237 OA
ATOM     70  O   UNL     1      10.910  16.835  -1.630  1.00  0.00    -0.237 OA
ATOM     71  O   UNL     1       8.927  17.157  -3.062  1.00  0.00    -0.744 OA
ENDBRANCH  64  68
ENDBRANCH  47  61
BRANCH  48  72
ATOM     72  C   UNL     1      18.365   5.993  -3.513  1.00  0.00     0.023 A 
ATOM     73  C   UNL     1      19.578   6.065  -2.809  1.00  0.00     0.031 A 
ATOM     74  C   UNL     1      18.034   4.771  -4.127  1.00  0.00     0.131 A 
ATOM     75  C   UNL     1      20.440   4.957  -2.781  1.00  0.00     0.055 A 
ATOM     76  C   UNL     1      18.866   3.653  -4.045  1.00  0.00     0.041 A 
ATOM     77  F   UNL     1      16.886   4.644  -4.812  1.00  0.00    -0.206 F 
ATOM     78  C   UNL     1      20.085   3.747  -3.381  1.00  0.00     0.022 A 
BRANCH  75  79
ATOM     79  S   UNL     1      22.081   5.152  -2.034  1.00  0.00     0.124 S 
ATOM     80  O   UNL     1      22.636   6.249  -2.819  1.00  0.00    -0.237 OA
ATOM     81  O   UNL     1      21.747   5.460  -0.647  1.00  0.00    -0.237 OA
ATOM     82  O   UNL     1      22.708   3.850  -2.248  1.00  0.00    -0.744 OA
ENDBRANCH  75  79
ENDBRANCH  48  72
BRANCH  60  83
ATOM     83  C   UNL     1      19.247  12.284  -6.400  1.00  0.00     0.023 A 
ATOM     84  C   UNL     1      19.815  11.794  -7.589  1.00  0.00     0.031 A 
ATOM     85  C   UNL     1      19.839  13.412  -5.803  1.00  0.00     0.131 A 
ATOM     86  C   UNL     1      20.977  12.387  -8.106  1.00  0.00     0.055 A 
ATOM     87  C   UNL     1      20.951  14.042  -6.362  1.00  0.00     0.041 A 
ATOM     88  F   UNL     1      19.344  13.922  -4.664  1.00  0.00    -0.206 F 
ATOM     89  C   UNL     1      21.537  13.520  -7.511  1.00  0.00     0.022 A 
BRANCH  86  90
ATOM     90  S   UNL     1      21.814  11.587  -9.502  1.00  0.00     0.124 S 
ATOM     91  O   UNL     1      22.075  10.252  -8.974  1.00  0.00    -0.237 OA
ATOM     92  O   UNL     1      20.811  11.671 -10.558  1.00  0.00    -0.237 OA
ATOM     93  O   UNL     1      23.002  12.414  -9.709  1.00  0.00    -0.744 OA
ENDBRANCH  86  90
ENDBRANCH  60  83
ENDBRANCH  34  35
ENDBRANCH  26  29
ENDBRANCH  24  25
ENDBRANCH  23  24
ENDBRANCH   1  23
TORSDOF 18
