REMARK SMILES O=C(NCCCCNC(=O)c1ccc(S(=O)(=O)[O-])cc1N1C(=O)/C(=C\c2ccccc2S)[NH+]=C1c1ccccc1)c1ccc(-c2c3nc(c(-c4cc(S(=O)(=O)[O-])ccc4F)c4ccc([nH]4)c(-c4cc(S(=O)(=O)[O-])ccc4F)c4nc(c(-c5cc(S(=O)(=O)[O-])ccc5F)c5ccc2[nH]5)C=C4)C=C3)cc1
REMARK SMILES IDX 5 1 4 2 3 3 1 4 2 5 41 7 42 8 103 9 43 10 102 11 44 12 45 13
REMARK SMILES IDX 46 14 96 15 47 16 101 17 95 18 97 19 48 20 100 21 94 22
REMARK SMILES IDX 93 23 49 25 81 26 61 27 80 28 62 29 65 30 79 31 98 32 63 33
REMARK SMILES IDX 64 34 78 36 99 37 66 38 50 39 51 40 59 41 52 42 58 43 60 44
REMARK SMILES IDX 57 45 53 46 54 47 55 48 56 49 82 50 83 51 91 52 84 53 90 54
REMARK SMILES IDX 92 55 89 56 85 57 86 58 87 59 88 60 67 61 68 62 76 63 69 64
REMARK SMILES IDX 75 65 77 66 74 67 70 68 71 69 72 70 73 71 6 72 7 73 8 74
REMARK SMILES IDX 9 75 10 77 11 78 12 79 20 80 13 81 19 82 14 83 21 84 22 85
REMARK SMILES IDX 34 86 23 87 24 88 33 89 25 90 35 92 36 93 40 94 37 95 39 96
REMARK SMILES IDX 38 97 26 98 27 99 31 100 28 101 30 102 29 103 32 104 15 106
REMARK SMILES IDX 16 107 17 108 18 109
REMARK H PARENT 3 6 97 24 65 35 8 76 33 91 32 105
REMARK Flexibility Score: inf
ROOT
ATOM      1  C   UNL     1       5.234   1.632  -1.739  1.00  0.00     0.023 C 
ENDROOT
BRANCH   1   2
ATOM      2  C   UNL     1       4.758   1.165  -0.369  1.00  0.00     0.116 C 
BRANCH   2   3
ATOM      3  N   UNL     1       3.306   1.153  -0.215  1.00  0.00    -0.352 N 
ATOM      4  O   UNL     1       1.245   0.242   0.003  1.00  0.00    -0.269 OA
ATOM      5  C   UNL     1       2.462   0.084   0.002  1.00  0.00     0.251 C 
ATOM      6  H   UNL     1       2.868   2.033  -0.273  1.00  0.00     0.163 HD
BRANCH   5   7
ATOM      7  C   UNL     1       3.040  -1.262   0.200  1.00  0.00     0.039 A 
ATOM      8  C   UNL     1       4.107  -1.437   1.082  1.00  0.00     0.014 A 
ATOM      9  C   UNL     1       2.558  -2.341  -0.544  1.00  0.00     0.014 A 
ATOM     10  C   UNL     1       4.822  -2.625   1.062  1.00  0.00     0.010 A 
ATOM     11  C   UNL     1       3.210  -3.577  -0.471  1.00  0.00     0.010 A 
ATOM     12  C   UNL     1       4.376  -3.717   0.299  1.00  0.00    -0.014 A 
BRANCH  12  13
ATOM     13  C   UNL     1       5.121  -5.002   0.376  1.00  0.00     0.031 A 
ATOM     14  C   UNL     1       5.780  -5.602  -0.837  1.00  0.00     0.074 A 
ATOM     15  C   UNL     1       5.234  -5.604   1.577  1.00  0.00     0.049 A 
ATOM     16  N   UNL     1       6.465  -6.713  -0.936  1.00  0.00    -0.248 NA
ATOM     17  C   UNL     1       5.646  -4.867  -2.103  1.00  0.00     0.031 C 
ATOM     18  C   UNL     1       4.640  -5.107   2.822  1.00  0.00     0.029 A 
ATOM     19  N   UNL     1       5.896  -6.740   1.959  1.00  0.00    -0.354 N 
ATOM     20  C   UNL     1       6.829  -6.825  -2.275  1.00  0.00     0.074 A 
ATOM     21  C   UNL     1       6.258  -5.680  -2.954  1.00  0.00     0.031 C 
ATOM     22  C   UNL     1       5.011  -5.901   3.835  1.00  0.00     0.029 A 
ATOM     23  C   UNL     1       5.788  -7.012   3.303  1.00  0.00     0.049 A 
ATOM     24  H   UNL     1       6.401  -7.308   1.333  1.00  0.00     0.167 HD
ATOM     25  C   UNL     1       7.573  -7.790  -2.873  1.00  0.00     0.034 A 
ATOM     26  C   UNL     1       6.232  -8.056   4.028  1.00  0.00     0.034 A 
ATOM     27  C   UNL     1       8.133  -8.923  -2.172  1.00  0.00     0.049 A 
ATOM     28  C   UNL     1       7.006  -9.139   3.329  1.00  0.00     0.074 A 
ATOM     29  C   UNL     1       8.924  -9.943  -2.675  1.00  0.00     0.029 A 
ATOM     30  N   UNL     1       7.956  -9.194  -0.820  1.00  0.00    -0.354 N 
ATOM     31  N   UNL     1       7.345  -9.223   2.063  1.00  0.00    -0.248 NA
ATOM     32  C   UNL     1       7.457 -10.264   4.154  1.00  0.00     0.031 C 
ATOM     33  C   UNL     1       9.159 -10.866  -1.649  1.00  0.00     0.029 A 
ATOM     34  C   UNL     1       8.590 -10.382  -0.482  1.00  0.00     0.049 A 
ATOM     35  H   UNL     1       7.453  -8.626  -0.193  1.00  0.00     0.167 HD
ATOM     36  C   UNL     1       8.070 -10.404   1.946  1.00  0.00     0.074 A 
ATOM     37  C   UNL     1       8.136 -10.983   3.273  1.00  0.00     0.031 C 
ATOM     38  C   UNL     1       8.632 -10.959   0.842  1.00  0.00     0.034 A 
BRANCH  25  39
ATOM     39  C   UNL     1       7.780  -7.690  -4.369  1.00  0.00     0.023 A 
ATOM     40  C   UNL     1       8.483  -6.623  -4.955  1.00  0.00     0.031 A 
ATOM     41  C   UNL     1       7.258  -8.678  -5.224  1.00  0.00     0.131 A 
ATOM     42  C   UNL     1       8.587  -6.534  -6.353  1.00  0.00     0.055 A 
ATOM     43  C   UNL     1       7.434  -8.626  -6.609  1.00  0.00     0.041 A 
ATOM     44  F   UNL     1       6.560  -9.712  -4.728  1.00  0.00    -0.206 F 
ATOM     45  C   UNL     1       8.089  -7.542  -7.182  1.00  0.00     0.022 A 
BRANCH  42  46
ATOM     46  S   UNL     1       9.257  -5.013  -7.079  1.00  0.00     0.124 S 
ATOM     47  O   UNL     1       8.360  -4.000  -6.526  1.00  0.00    -0.237 OA
ATOM     48  O   UNL     1      10.625  -4.998  -6.574  1.00  0.00    -0.237 OA
ATOM     49  O   UNL     1       9.124  -5.231  -8.518  1.00  0.00    -0.744 OA
ENDBRANCH  42  46
ENDBRANCH  25  39
BRANCH  26  50
ATOM     50  C   UNL     1       5.915  -8.146   5.481  1.00  0.00     0.023 A 
ATOM     51  C   UNL     1       6.931  -8.135   6.447  1.00  0.00     0.031 A 
ATOM     52  C   UNL     1       4.584  -8.264   5.923  1.00  0.00     0.131 A 
ATOM     53  C   UNL     1       6.605  -8.283   7.804  1.00  0.00     0.055 A 
ATOM     54  C   UNL     1       4.261  -8.348   7.277  1.00  0.00     0.041 A 
ATOM     55  F   UNL     1       3.573  -8.276   5.040  1.00  0.00    -0.206 F 
ATOM     56  C   UNL     1       5.276  -8.371   8.226  1.00  0.00     0.022 A 
BRANCH  53  57
ATOM     57  S   UNL     1       7.952  -8.445   9.006  1.00  0.00     0.124 S 
ATOM     58  O   UNL     1       8.674  -9.601   8.487  1.00  0.00    -0.237 OA
ATOM     59  O   UNL     1       8.627  -7.157   8.880  1.00  0.00    -0.237 OA
ATOM     60  O   UNL     1       7.254  -8.660  10.271  1.00  0.00    -0.744 OA
ENDBRANCH  53  57
ENDBRANCH  26  50
BRANCH  38  61
ATOM     61  C   UNL     1       9.403 -12.241   1.044  1.00  0.00     0.023 A 
ATOM     62  C   UNL     1       8.768 -13.432   1.436  1.00  0.00     0.031 A 
ATOM     63  C   UNL     1      10.798 -12.261   0.869  1.00  0.00     0.131 A 
ATOM     64  C   UNL     1       9.534 -14.578   1.701  1.00  0.00     0.055 A 
ATOM     65  C   UNL     1      11.547 -13.421   1.071  1.00  0.00     0.041 A 
ATOM     66  F   UNL     1      11.457 -11.150   0.501  1.00  0.00    -0.206 F 
ATOM     67  C   UNL     1      10.918 -14.584   1.504  1.00  0.00     0.022 A 
BRANCH  64  68
ATOM     68  S   UNL     1       8.712 -16.032   2.408  1.00  0.00     0.124 S 
ATOM     69  O   UNL     1       8.145 -15.491   3.639  1.00  0.00    -0.237 OA
ATOM     70  O   UNL     1       7.753 -16.385   1.366  1.00  0.00    -0.237 OA
ATOM     71  O   UNL     1       9.803 -16.986   2.594  1.00  0.00    -0.744 OA
ENDBRANCH  64  68
ENDBRANCH  38  61
ENDBRANCH  12  13
ENDBRANCH   5   7
ENDBRANCH   2   3
ENDBRANCH   1   2
BRANCH   1  72
ATOM     72  C   UNL     1       4.900   3.070  -2.100  1.00  0.00     0.023 C 
BRANCH  72  73
ATOM     73  C   UNL     1       5.262   4.108  -1.056  1.00  0.00     0.116 C 
BRANCH  73  74
ATOM     74  N   UNL     1       6.659   4.366  -0.833  1.00  0.00    -0.352 N 
ATOM     75  C   UNL     1       7.252   5.588  -0.580  1.00  0.00     0.255 C 
ATOM     76  H   UNL     1       7.259   3.586  -0.864  1.00  0.00     0.163 HD
ATOM     77  O   UNL     1       8.477   5.665  -0.535  1.00  0.00    -0.269 OA
BRANCH  75  78
ATOM     78  C   UNL     1       6.443   6.848  -0.491  1.00  0.00     0.087 A 
ATOM     79  C   UNL     1       6.922   7.896  -1.304  1.00  0.00     0.019 A 
ATOM     80  C   UNL     1       5.262   7.043   0.270  1.00  0.00     0.150 A 
ATOM     81  C   UNL     1       6.248   9.114  -1.383  1.00  0.00     0.020 A 
ATOM     82  C   UNL     1       4.591   8.276   0.177  1.00  0.00     0.072 A 
ATOM     83  C   UNL     1       5.083   9.295  -0.642  1.00  0.00     0.059 A 
BRANCH  80  84
ATOM     84  N   UNL     1       4.764   6.095   1.196  1.00  0.00    -0.153 N 
ATOM     85  C   UNL     1       5.580   5.498   2.131  1.00  0.00     0.386 C 
ATOM     86  C   UNL     1       3.465   5.738   1.482  1.00  0.00     0.295 C 
ATOM     87  O   UNL     1       6.777   5.622   2.302  1.00  0.00    -0.236 OA
ATOM     88  C   UNL     1       4.608   4.757   2.990  1.00  0.00     0.216 C 
ATOM     89  N   UNL     1       3.329   4.951   2.514  1.00  0.00    -0.233 N 
ATOM     90  C   UNL     1       4.891   4.064   4.103  1.00  0.00     0.069 C 
ATOM     91  H   UNL     1       2.493   4.577   2.874  1.00  0.00     0.312 HD
BRANCH  86  92
ATOM     92  C   UNL     1       2.278   6.131   0.673  1.00  0.00     0.065 A 
ATOM     93  C   UNL     1       1.103   6.483   1.345  1.00  0.00     0.017 A 
ATOM     94  C   UNL     1       2.256   6.066  -0.725  1.00  0.00     0.017 A 
ATOM     95  C   UNL     1      -0.060   6.781   0.626  1.00  0.00     0.001 A 
ATOM     96  C   UNL     1       1.091   6.343  -1.442  1.00  0.00     0.001 A 
ATOM     97  C   UNL     1      -0.067   6.704  -0.766  1.00  0.00     0.000 A 
ENDBRANCH  86  92
BRANCH  90  98
ATOM     98  C   UNL     1       6.226   3.932   4.709  1.00  0.00    -0.008 A 
ATOM     99  C   UNL     1       6.851   2.676   4.620  1.00  0.00     0.009 A 
ATOM    100  C   UNL     1       6.897   4.987   5.365  1.00  0.00     0.011 A 
ATOM    101  C   UNL     1       8.132   2.477   5.139  1.00  0.00     0.001 A 
ATOM    102  C   UNL     1       8.193   4.776   5.861  1.00  0.00     0.015 A 
ATOM    103  C   UNL     1       8.809   3.530   5.745  1.00  0.00     0.001 A 
BRANCH 100 104
ATOM    104  S   UNL     1       6.189   6.609   5.671  1.00  0.00    -0.143 SA
ATOM    105  H   UNL     1       4.940   6.667   5.137  1.00  0.00     0.108 HD
ENDBRANCH 100 104
ENDBRANCH  90  98
ENDBRANCH  80  84
BRANCH  83 106
ATOM    106  S   UNL     1       4.257  10.858  -0.715  1.00  0.00     0.124 S 
ATOM    107  O   UNL     1       5.163  11.868  -0.218  1.00  0.00    -0.237 OA
ATOM    108  O   UNL     1       3.635  10.966  -2.015  1.00  0.00    -0.237 OA
ATOM    109  O   UNL     1       3.051  10.767   0.354  1.00  0.00    -0.744 OA
ENDBRANCH  83 106
ENDBRANCH  75  78
ENDBRANCH  73  74
ENDBRANCH  72  73
ENDBRANCH   1  72
TORSDOF 19
