REMARK SMILES C[C@H](NC(=O)c1ccncc1/C=C/C(=O)NCCCCNC(=O)c1ccc(-c2c3nc(c(-c4cc(S(=O)(=O)[O-])ccc4F)c4ccc([nH]4)c(-c4cc(S(=O)(=O)[O-])ccc4F)c4nc(c(-c5cc(S(=O)(=O)[O-])ccc5F)c5ccc2[nH]5)C=C4)C=C3)cc1)c1ccco1
REMARK SMILES IDX 18 1 17 2 16 3 14 4 15 5 13 7 12 8 11 9 6 10 7 11 8 12 10 13
REMARK SMILES IDX 9 14 4 15 3 16 5 18 2 19 1 20 87 21 88 22 91 23 89 24 90 25
REMARK SMILES IDX 19 26 20 27 21 28 22 29 23 31 24 32 25 33 86 34 26 35 85 36
REMARK SMILES IDX 27 37 28 38 29 39 79 40 30 41 84 42 78 43 80 44 31 45 83 46
REMARK SMILES IDX 77 47 76 48 32 50 64 51 44 52 63 53 45 54 48 55 62 56 81 57
REMARK SMILES IDX 46 58 47 59 61 61 82 62 49 63 33 64 34 65 42 66 35 67 41 68
REMARK SMILES IDX 43 69 40 70 36 71 37 72 38 73 39 74 65 75 66 76 74 77 67 78
REMARK SMILES IDX 73 79 75 80 72 81 68 82 69 83 70 84 71 85 50 86 51 87 59 88
REMARK SMILES IDX 52 89 58 90 60 91 57 92 53 93 54 94 55 95 56 96
REMARK H PARENT 16 6 3 17 21 30 80 49 48 60
REMARK Flexibility Score: inf
ROOT
ATOM      1  C   UNL     1       4.200   3.179   0.818  1.00  0.00     0.023 C 
ENDROOT
BRANCH   1   2
ATOM      2  C   UNL     1       5.270   2.583  -0.098  1.00  0.00     0.116 C 
BRANCH   2   3
ATOM      3  N   UNL     1       6.493   2.339   0.645  1.00  0.00    -0.353 N 
ATOM      4  C   UNL     1       7.021   1.173   1.097  1.00  0.00     0.244 C 
ATOM      5  O   UNL     1       8.107   1.167   1.673  1.00  0.00    -0.270 OA
ATOM      6  H   UNL     1       7.022   3.144   0.852  1.00  0.00     0.163 HD
BRANCH   4   7
ATOM      7  C   UNL     1       6.354  -0.119   0.816  1.00  0.00     0.072 C 
ATOM      8  C   UNL     1       5.057  -0.392   1.031  1.00  0.00     0.016 C 
BRANCH   8   9
ATOM      9  C   UNL     1       4.463  -1.697   0.704  1.00  0.00     0.006 A 
ATOM     10  C   UNL     1       3.233  -1.849   0.048  1.00  0.00     0.050 A 
ATOM     11  C   UNL     1       2.761  -3.122  -0.293  1.00  0.00     0.034 A 
ATOM     12  C   UNL     1       3.491  -4.219   0.114  1.00  0.00     0.112 A 
ATOM     13  C   UNL     1       5.099  -2.880   1.077  1.00  0.00     0.119 A 
ATOM     14  N   UNL     1       4.639  -4.127   0.811  1.00  0.00    -0.264 NA
BRANCH  10  15
ATOM     15  C   UNL     1       2.413  -0.689  -0.363  1.00  0.00     0.252 C 
ATOM     16  N   UNL     1       1.139  -0.564   0.132  1.00  0.00    -0.342 N 
ATOM     17  H   UNL     1       0.568   0.098  -0.321  1.00  0.00     0.164 HD
ATOM     18  O   UNL     1       2.868   0.133  -1.149  1.00  0.00    -0.269 OA
BRANCH  16  19
ATOM     19  C   UNL     1       0.519  -1.280   1.240  1.00  0.00     0.145 C 
ATOM     20  C   UNL     1       0.911  -0.657   2.575  1.00  0.00     0.039 C 
BRANCH  19  21
ATOM     21  C   UNL     1      -0.961  -1.279   1.046  1.00  0.00     0.125 A 
ATOM     22  C   UNL     1      -1.892  -2.290   0.917  1.00  0.00     0.048 A 
ATOM     23  O   UNL     1      -1.584  -0.066   0.992  1.00  0.00    -0.467 OA
ATOM     24  C   UNL     1      -3.154  -1.660   0.794  1.00  0.00     0.042 A 
ATOM     25  C   UNL     1      -2.912  -0.307   0.843  1.00  0.00     0.195 A 
ENDBRANCH  19  21
ENDBRANCH  16  19
ENDBRANCH  10  15
ENDBRANCH   8   9
ENDBRANCH   4   7
ENDBRANCH   2   3
ENDBRANCH   1   2
BRANCH   1  26
ATOM     26  C   UNL     1       4.395   4.669   1.115  1.00  0.00     0.023 C 
BRANCH  26  27
ATOM     27  C   UNL     1       4.340   5.576  -0.109  1.00  0.00     0.116 C 
BRANCH  27  28
ATOM     28  N   UNL     1       3.097   5.454  -0.849  1.00  0.00    -0.352 N 
ATOM     29  C   UNL     1       2.417   6.420  -1.554  1.00  0.00     0.251 C 
ATOM     30  H   UNL     1       2.685   4.560  -0.846  1.00  0.00     0.163 HD
ATOM     31  O   UNL     1       1.303   6.182  -1.994  1.00  0.00    -0.269 OA
BRANCH  29  32
ATOM     32  C   UNL     1       3.033   7.754  -1.740  1.00  0.00     0.039 A 
ATOM     33  C   UNL     1       2.236   8.889  -1.571  1.00  0.00     0.014 A 
ATOM     34  C   UNL     1       4.380   7.887  -2.087  1.00  0.00     0.014 A 
ATOM     35  C   UNL     1       2.802  10.156  -1.718  1.00  0.00     0.010 A 
ATOM     36  C   UNL     1       4.961   9.149  -2.148  1.00  0.00     0.010 A 
ATOM     37  C   UNL     1       4.172  10.298  -1.990  1.00  0.00    -0.014 A 
BRANCH  37  38
ATOM     38  C   UNL     1       4.777  11.642  -2.173  1.00  0.00     0.031 A 
ATOM     39  C   UNL     1       5.355  12.028  -3.508  1.00  0.00     0.074 A 
ATOM     40  C   UNL     1       4.835  12.499  -1.135  1.00  0.00     0.049 A 
ATOM     41  N   UNL     1       5.943  13.140  -3.869  1.00  0.00    -0.248 NA
ATOM     42  C   UNL     1       5.297  11.009  -4.567  1.00  0.00     0.031 C 
ATOM     43  C   UNL     1       4.363  12.214   0.222  1.00  0.00     0.029 A 
ATOM     44  N   UNL     1       5.316  13.781  -1.058  1.00  0.00    -0.354 N 
ATOM     45  C   UNL     1       6.327  12.951  -5.193  1.00  0.00     0.074 A 
ATOM     46  C   UNL     1       5.989  11.587  -5.535  1.00  0.00     0.031 C 
ATOM     47  C   UNL     1       4.553  13.300   0.989  1.00  0.00     0.029 A 
ATOM     48  C   UNL     1       5.189  14.343   0.191  1.00  0.00     0.049 A 
ATOM     49  H   UNL     1       5.715  14.253  -1.823  1.00  0.00     0.167 HD
ATOM     50  C   UNL     1       6.875  13.844  -6.057  1.00  0.00     0.034 A 
ATOM     51  C   UNL     1       5.545  15.563   0.640  1.00  0.00     0.034 A 
ATOM     52  C   UNL     1       7.206  15.201  -5.694  1.00  0.00     0.049 A 
ATOM     53  C   UNL     1       6.149  16.544  -0.332  1.00  0.00     0.074 A 
ATOM     54  C   UNL     1       7.741  16.203  -6.484  1.00  0.00     0.029 A 
ATOM     55  N   UNL     1       7.035  15.747  -4.427  1.00  0.00    -0.354 N 
ATOM     56  N   UNL     1       6.460  16.372  -1.597  1.00  0.00    -0.248 NA
ATOM     57  C   UNL     1       6.423  17.892   0.178  1.00  0.00     0.031 C 
ATOM     58  C   UNL     1       7.952  17.331  -5.682  1.00  0.00     0.029 A 
ATOM     59  C   UNL     1       7.470  17.064  -4.410  1.00  0.00     0.049 A 
ATOM     60  H   UNL     1       6.660  15.268  -3.653  1.00  0.00     0.167 HD
ATOM     61  C   UNL     1       6.936  17.602  -2.042  1.00  0.00     0.074 A 
ATOM     62  C   UNL     1       6.854  18.508  -0.913  1.00  0.00     0.031 C 
ATOM     63  C   UNL     1       7.393  17.954  -3.272  1.00  0.00     0.034 A 
BRANCH  50  64
ATOM     64  C   UNL     1       7.160  13.354  -7.460  1.00  0.00     0.023 A 
ATOM     65  C   UNL     1       6.133  12.860  -8.289  1.00  0.00     0.031 A 
ATOM     66  C   UNL     1       8.474  13.309  -7.955  1.00  0.00     0.131 A 
ATOM     67  C   UNL     1       6.448  12.246  -9.510  1.00  0.00     0.055 A 
ATOM     68  C   UNL     1       8.770  12.788  -9.218  1.00  0.00     0.041 A 
ATOM     69  F   UNL     1       9.502  13.745  -7.210  1.00  0.00    -0.206 F 
ATOM     70  C   UNL     1       7.757  12.231  -9.994  1.00  0.00     0.022 A 
BRANCH  67  71
ATOM     71  S   UNL     1       5.153  11.301 -10.359  1.00  0.00     0.124 S 
ATOM     72  O   UNL     1       4.779  10.328  -9.335  1.00  0.00    -0.237 OA
ATOM     73  O   UNL     1       4.160  12.325 -10.661  1.00  0.00    -0.237 OA
ATOM     74  O   UNL     1       5.843  10.738 -11.518  1.00  0.00    -0.744 OA
ENDBRANCH  67  71
ENDBRANCH  50  64
BRANCH  51  75
ATOM     75  C   UNL     1       5.331  15.925   2.070  1.00  0.00     0.023 A 
ATOM     76  C   UNL     1       4.413  16.919   2.443  1.00  0.00     0.031 A 
ATOM     77  C   UNL     1       6.060  15.284   3.088  1.00  0.00     0.131 A 
ATOM     78  C   UNL     1       4.276  17.272   3.796  1.00  0.00     0.055 A 
ATOM     79  C   UNL     1       5.884  15.603   4.435  1.00  0.00     0.041 A 
ATOM     80  F   UNL     1       6.943  14.318   2.786  1.00  0.00    -0.206 F 
ATOM     81  C   UNL     1       4.995  16.612   4.795  1.00  0.00     0.022 A 
BRANCH  78  82
ATOM     82  S   UNL     1       3.186  18.656   4.228  1.00  0.00     0.124 S 
ATOM     83  O   UNL     1       3.788  19.754   3.481  1.00  0.00    -0.237 OA
ATOM     84  O   UNL     1       1.892  18.185   3.747  1.00  0.00    -0.237 OA
ATOM     85  O   UNL     1       3.312  18.747   5.682  1.00  0.00    -0.744 OA
ENDBRANCH  78  82
ENDBRANCH  51  75
BRANCH  63  86
ATOM     86  C   UNL     1       7.788  19.399  -3.469  1.00  0.00     0.023 A 
ATOM     87  C   UNL     1       8.867  19.977  -2.777  1.00  0.00     0.031 A 
ATOM     88  C   UNL     1       7.051  20.217  -4.344  1.00  0.00     0.131 A 
ATOM     89  C   UNL     1       9.133  21.348  -2.916  1.00  0.00     0.055 A 
ATOM     90  C   UNL     1       7.364  21.564  -4.532  1.00  0.00     0.041 A 
ATOM     91  F   UNL     1       6.009  19.721  -5.029  1.00  0.00    -0.206 F 
ATOM     92  C   UNL     1       8.399  22.141  -3.802  1.00  0.00     0.022 A 
BRANCH  89  93
ATOM     93  S   UNL     1      10.370  22.110  -1.830  1.00  0.00     0.124 S 
ATOM     94  O   UNL     1       9.876  21.745  -0.505  1.00  0.00    -0.237 OA
ATOM     95  O   UNL     1      11.602  21.454  -2.254  1.00  0.00    -0.237 OA
ATOM     96  O   UNL     1      10.281  23.533  -2.154  1.00  0.00    -0.744 OA
ENDBRANCH  89  93
ENDBRANCH  63  86
ENDBRANCH  37  38
ENDBRANCH  29  32
ENDBRANCH  27  28
ENDBRANCH  26  27
ENDBRANCH   1  26
TORSDOF 18
