REMARK SMILES COC(=O)c1ccc(-c2ccc(C(=O)NCCCCNC(=O)c3ccc(-c4c5nc(c(-c6cc(S(=O)(=O)[O-])ccc6F)c6ccc([nH]6)c(-c6cc(S(=O)(=O)[O-])ccc6F)c6nc(c(-c7cc(S(=O)(=O)[O-])ccc7F)c7ccc4[nH]7)C=C6)C=C5)cc3)cc2O)cc1F
REMARK SMILES IDX 17 1 16 2 15 3 13 4 14 5 12 7 9 8 10 9 87 10 11 11 86 12
REMARK SMILES IDX 8 13 5 14 6 15 90 16 7 17 89 18 91 19 3 20 4 21 2 22 1 23
REMARK SMILES IDX 88 24 18 26 19 27 20 28 21 29 22 31 23 32 24 33 85 34 25 35
REMARK SMILES IDX 84 36 26 37 27 38 28 39 78 40 29 41 83 42 77 43 79 44 30 45
REMARK SMILES IDX 82 46 76 47 75 48 31 50 63 51 43 52 62 53 44 54 47 55 61 56
REMARK SMILES IDX 80 57 45 58 46 59 60 61 81 62 48 63 32 64 33 65 41 66 34 67
REMARK SMILES IDX 40 68 42 69 39 70 35 71 36 72 37 73 38 74 64 75 65 76 73 77
REMARK SMILES IDX 66 78 72 79 74 80 71 81 67 82 68 83 69 84 70 85 49 86 50 87
REMARK SMILES IDX 58 88 51 89 57 90 59 91 56 92 52 93 53 94 54 95 55 96
REMARK H PARENT 15 6 88 25 20 30 79 49 47 60
REMARK Flexibility Score: inf
ROOT
ATOM      1  C   UNL     1      -3.380  -8.514   9.192  1.00  0.00     0.023 C 
ENDROOT
BRANCH   1   2
ATOM      2  C   UNL     1      -3.798  -7.130   9.694  1.00  0.00     0.116 C 
BRANCH   2   3
ATOM      3  N   UNL     1      -2.764  -6.563  10.535  1.00  0.00    -0.352 N 
ATOM      4  C   UNL     1      -1.701  -5.739  10.276  1.00  0.00     0.251 C 
ATOM      5  O   UNL     1      -0.985  -5.430  11.230  1.00  0.00    -0.269 OA
ATOM      6  H   UNL     1      -2.841  -6.822  11.482  1.00  0.00     0.163 HD
BRANCH   4   7
ATOM      7  C   UNL     1      -1.384  -5.171   8.930  1.00  0.00     0.043 A 
ATOM      8  C   UNL     1      -0.645  -3.945   6.475  1.00  0.00     0.024 A 
ATOM      9  C   UNL     1      -0.172  -3.446   7.695  1.00  0.00     0.013 A 
ATOM     10  C   UNL     1      -1.489  -5.063   6.509  1.00  0.00     0.124 A 
ATOM     11  C   UNL     1      -0.547  -4.044   8.904  1.00  0.00     0.015 A 
ATOM     12  C   UNL     1      -1.819  -5.694   7.711  1.00  0.00     0.060 A 
BRANCH   8  13
ATOM     13  C   UNL     1      -0.222  -3.345   5.205  1.00  0.00    -0.012 A 
ATOM     14  C   UNL     1       0.578  -2.329   2.711  1.00  0.00     0.095 A 
ATOM     15  C   UNL     1       1.502  -2.997   3.521  1.00  0.00     0.019 A 
ATOM     16  C   UNL     1      -0.738  -2.178   3.140  1.00  0.00     0.138 A 
ATOM     17  C   UNL     1       1.104  -3.491   4.764  1.00  0.00     0.010 A 
ATOM     18  C   UNL     1      -1.138  -2.677   4.378  1.00  0.00     0.049 A 
ATOM     19  F   UNL     1      -1.658  -1.587   2.364  1.00  0.00    -0.206 F 
BRANCH  14  20
ATOM     20  C   UNL     1       1.034  -1.828   1.404  1.00  0.00     0.340 C 
ATOM     21  O   UNL     1       1.842  -2.412   0.707  1.00  0.00    -0.246 OA
BRANCH  20  22
ATOM     22  O   UNL     1       0.518  -0.593   1.184  1.00  0.00    -0.465 OA
ATOM     23  C   UNL     1       0.997   0.024  -0.009  1.00  0.00     0.282 C 
ENDBRANCH  20  22
ENDBRANCH  14  20
ENDBRANCH   8  13
BRANCH  10  24
ATOM     24  O   UNL     1      -1.982  -5.563   5.332  1.00  0.00    -0.507 OA
ATOM     25  H   UNL     1      -1.767  -5.148   4.520  1.00  0.00     0.293 HD
ENDBRANCH  10  24
ENDBRANCH   4   7
ENDBRANCH   2   3
ENDBRANCH   1   2
BRANCH   1  26
ATOM     26  C   UNL     1      -3.615  -9.641  10.203  1.00  0.00     0.023 C 
BRANCH  26  27
ATOM     27  C   UNL     1      -5.072  -9.842  10.604  1.00  0.00     0.116 C 
BRANCH  27  28
ATOM     28  N   UNL     1      -5.949 -10.068   9.467  1.00  0.00    -0.352 N 
ATOM     29  C   UNL     1      -7.111 -10.797   9.418  1.00  0.00     0.251 C 
ATOM     30  H   UNL     1      -5.673  -9.644   8.623  1.00  0.00     0.163 HD
ATOM     31  O   UNL     1      -7.661 -10.994   8.339  1.00  0.00    -0.269 OA
BRANCH  29  32
ATOM     32  C   UNL     1      -7.662 -11.368  10.664  1.00  0.00     0.039 A 
ATOM     33  C   UNL     1      -8.072 -12.702  10.666  1.00  0.00     0.014 A 
ATOM     34  C   UNL     1      -7.755 -10.598  11.828  1.00  0.00     0.014 A 
ATOM     35  C   UNL     1      -8.538 -13.275  11.849  1.00  0.00     0.010 A 
ATOM     36  C   UNL     1      -8.142 -11.194  13.023  1.00  0.00     0.010 A 
ATOM     37  C   UNL     1      -8.553 -12.534  13.043  1.00  0.00    -0.014 A 
BRANCH  37  38
ATOM     38  C   UNL     1      -9.037 -13.142  14.308  1.00  0.00     0.031 A 
ATOM     39  C   UNL     1     -10.278 -12.607  14.969  1.00  0.00     0.074 A 
ATOM     40  C   UNL     1      -8.353 -14.162  14.863  1.00  0.00     0.049 A 
ATOM     41  N   UNL     1     -10.853 -12.996  16.077  1.00  0.00    -0.248 NA
ATOM     42  C   UNL     1     -10.948 -11.470  14.315  1.00  0.00     0.031 C 
ATOM     43  C   UNL     1      -7.116 -14.739  14.329  1.00  0.00     0.029 A 
ATOM     44  N   UNL     1      -8.605 -14.906  15.988  1.00  0.00    -0.354 N 
ATOM     45  C   UNL     1     -11.944 -12.153  16.252  1.00  0.00     0.074 A 
ATOM     46  C   UNL     1     -11.914 -11.189  15.176  1.00  0.00     0.031 C 
ATOM     47  C   UNL     1      -6.747 -15.776  15.097  1.00  0.00     0.029 A 
ATOM     48  C   UNL     1      -7.693 -15.914  16.201  1.00  0.00     0.049 A 
ATOM     49  H   UNL     1      -9.367 -14.734  16.587  1.00  0.00     0.167 HD
ATOM     50  C   UNL     1     -12.904 -12.201  17.206  1.00  0.00     0.034 A 
ATOM     51  C   UNL     1      -7.626 -16.844  17.175  1.00  0.00     0.034 A 
ATOM     52  C   UNL     1     -12.944 -13.190  18.250  1.00  0.00     0.049 A 
ATOM     53  C   UNL     1      -8.688 -16.858  18.243  1.00  0.00     0.074 A 
ATOM     54  C   UNL     1     -13.908 -13.367  19.226  1.00  0.00     0.029 A 
ATOM     55  N   UNL     1     -11.979 -14.165  18.456  1.00  0.00    -0.354 N 
ATOM     56  N   UNL     1      -9.732 -16.073  18.372  1.00  0.00    -0.248 NA
ATOM     57  C   UNL     1      -8.564 -17.874  19.297  1.00  0.00     0.031 C 
ATOM     58  C   UNL     1     -13.495 -14.409  20.060  1.00  0.00     0.029 A 
ATOM     59  C   UNL     1     -12.306 -14.924  19.566  1.00  0.00     0.049 A 
ATOM     60  H   UNL     1     -11.181 -14.298  17.895  1.00  0.00     0.167 HD
ATOM     61  C   UNL     1     -10.396 -16.510  19.513  1.00  0.00     0.074 A 
ATOM     62  C   UNL     1      -9.640 -17.631  20.033  1.00  0.00     0.031 C 
ATOM     63  C   UNL     1     -11.532 -16.028  20.076  1.00  0.00     0.034 A 
BRANCH  50  64
ATOM     64  C   UNL     1     -13.991 -11.160  17.163  1.00  0.00     0.023 A 
ATOM     65  C   UNL     1     -14.937 -11.131  16.124  1.00  0.00     0.031 A 
ATOM     66  C   UNL     1     -14.101 -10.205  18.188  1.00  0.00     0.131 A 
ATOM     67  C   UNL     1     -15.927 -10.138  16.110  1.00  0.00     0.055 A 
ATOM     68  C   UNL     1     -15.128  -9.260  18.203  1.00  0.00     0.041 A 
ATOM     69  F   UNL     1     -13.212 -10.178  19.194  1.00  0.00    -0.206 F 
ATOM     70  C   UNL     1     -16.044  -9.218  17.156  1.00  0.00     0.022 A 
BRANCH  67  71
ATOM     71  S   UNL     1     -17.014 -10.017  14.665  1.00  0.00     0.124 S 
ATOM     72  O   UNL     1     -16.065  -9.657  13.614  1.00  0.00    -0.237 OA
ATOM     73  O   UNL     1     -17.581 -11.358  14.580  1.00  0.00    -0.237 OA
ATOM     74  O   UNL     1     -17.957  -8.963  15.033  1.00  0.00    -0.744 OA
ENDBRANCH  67  71
ENDBRANCH  50  64
BRANCH  51  75
ATOM     75  C   UNL     1      -6.514 -17.834  17.182  1.00  0.00     0.023 A 
ATOM     76  C   UNL     1      -6.753 -19.192  16.920  1.00  0.00     0.031 A 
ATOM     77  C   UNL     1      -5.191 -17.432  17.436  1.00  0.00     0.131 A 
ATOM     78  C   UNL     1      -5.686 -20.104  16.935  1.00  0.00     0.055 A 
ATOM     79  C   UNL     1      -4.128 -18.336  17.413  1.00  0.00     0.041 A 
ATOM     80  F   UNL     1      -4.910 -16.142  17.683  1.00  0.00    -0.206 F 
ATOM     81  C   UNL     1      -4.374 -19.683  17.166  1.00  0.00     0.022 A 
BRANCH  78  82
ATOM     82  S   UNL     1      -6.037 -21.864  16.669  1.00  0.00     0.124 S 
ATOM     83  O   UNL     1      -6.861 -22.180  17.831  1.00  0.00    -0.237 OA
ATOM     84  O   UNL     1      -6.722 -21.848  15.381  1.00  0.00    -0.237 OA
ATOM     85  O   UNL     1      -4.711 -22.477  16.658  1.00  0.00    -0.744 OA
ENDBRANCH  78  82
ENDBRANCH  51  75
BRANCH  63  86
ATOM     86  C   UNL     1     -12.043 -16.708  21.316  1.00  0.00     0.023 A 
ATOM     87  C   UNL     1     -11.422 -16.512  22.559  1.00  0.00     0.031 A 
ATOM     88  C   UNL     1     -13.220 -17.474  21.267  1.00  0.00     0.131 A 
ATOM     89  C   UNL     1     -11.980 -17.085  23.711  1.00  0.00     0.055 A 
ATOM     90  C   UNL     1     -13.793 -18.007  22.421  1.00  0.00     0.041 A 
ATOM     91  F   UNL     1     -13.853 -17.680  20.101  1.00  0.00    -0.206 F 
ATOM     92  C   UNL     1     -13.172 -17.814  23.652  1.00  0.00     0.022 A 
BRANCH  89  93
ATOM     93  S   UNL     1     -11.129 -16.862  25.296  1.00  0.00     0.124 S 
ATOM     94  O   UNL     1      -9.905 -17.631  25.092  1.00  0.00    -0.237 OA
ATOM     95  O   UNL     1     -10.966 -15.414  25.370  1.00  0.00    -0.237 OA
ATOM     96  O   UNL     1     -12.062 -17.428  26.268  1.00  0.00    -0.744 OA
ENDBRANCH  89  93
ENDBRANCH  63  86
ENDBRANCH  37  38
ENDBRANCH  29  32
ENDBRANCH  27  28
ENDBRANCH  26  27
ENDBRANCH   1  26
TORSDOF 18
