REMARK SMILES CC(=O)N1CCC(C(=O)NC[C@@H]2CC[C@@H](C(=O)NCCCCNC(=O)c3ccc(-c4c5nc(c(-c6cc(S(=O)(=O)[O-])ccc6F)c6ccc([nH]6)c(-c6cc(S(=O)(=O)[O-])ccc6F)c6nc(c(-c7cc(S(=O)(=O)[O-])ccc7F)c7ccc4[nH]7)C=C6)C=C5)cc3)O2)CC1
REMARK SMILES IDX 20 1 19 2 18 3 16 4 17 5 15 7 12 8 13 9 89 10 14 11 11 12
REMARK SMILES IDX 10 13 8 14 9 15 7 17 1 18 2 19 3 20 4 21 5 22 91 23 6 24
REMARK SMILES IDX 90 25 21 26 22 27 23 28 24 29 25 31 26 32 27 33 88 34 28 35
REMARK SMILES IDX 87 36 29 37 30 38 31 39 81 40 32 41 86 42 80 43 82 44 33 45
REMARK SMILES IDX 85 46 79 47 78 48 34 50 66 51 46 52 65 53 47 54 50 55 64 56
REMARK SMILES IDX 83 57 48 58 49 59 63 61 84 62 51 63 35 64 36 65 44 66 37 67
REMARK SMILES IDX 43 68 45 69 42 70 38 71 39 72 40 73 41 74 67 75 68 76 76 77
REMARK SMILES IDX 69 78 75 79 77 80 74 81 70 82 71 83 72 84 73 85 52 86 53 87
REMARK SMILES IDX 61 88 54 89 60 90 62 91 59 92 55 93 56 94 57 95 58 96
REMARK H PARENT 18 6 10 16 23 30 82 49 50 60
REMARK Flexibility Score: inf
ROOT
ATOM      1  C   UNL     1       1.802  11.539  -4.660  1.00  0.00     0.023 C 
ENDROOT
BRANCH   1   2
ATOM      2  C   UNL     1       1.438  10.896  -3.322  1.00  0.00     0.116 C 
BRANCH   2   3
ATOM      3  N   UNL     1       0.068  10.422  -3.309  1.00  0.00    -0.354 N 
ATOM      4  C   UNL     1      -0.391   9.141  -3.449  1.00  0.00     0.249 C 
ATOM      5  O   UNL     1      -1.608   8.954  -3.455  1.00  0.00    -0.272 OA
ATOM      6  H   UNL     1      -0.623  11.112  -3.184  1.00  0.00     0.163 HD
BRANCH   4   7
ATOM      7  C   UNL     1       0.633   8.001  -3.599  1.00  0.00     0.207 C 
ATOM      8  C   UNL     1       0.921   6.452  -1.884  1.00  0.00     0.138 C 
ATOM      9  C   UNL     1       0.703   5.661  -3.159  1.00  0.00     0.037 C 
ATOM     10  O   UNL     1       1.308   7.759  -2.345  1.00  0.00    -0.363 OA
ATOM     11  C   UNL     1       0.004   6.676  -4.028  1.00  0.00     0.045 C 
BRANCH   8  12
ATOM     12  C   UNL     1       2.010   5.841  -1.002  1.00  0.00     0.147 C 
BRANCH  12  13
ATOM     13  N   UNL     1       2.217   6.597   0.227  1.00  0.00    -0.353 N 
ATOM     14  C   UNL     1       2.134   6.249   1.538  1.00  0.00     0.223 C 
ATOM     15  O   UNL     1       2.471   7.083   2.382  1.00  0.00    -0.275 OA
ATOM     16  H   UNL     1       2.463   7.539   0.080  1.00  0.00     0.163 HD
BRANCH  14  17
ATOM     17  C   UNL     1       1.637   4.881   1.985  1.00  0.00     0.082 C 
ATOM     18  C   UNL     1       1.213   0.314  -0.094  1.00  0.00     0.114 C 
ATOM     19  C   UNL     1       0.322   1.485   0.229  1.00  0.00     0.219 C 
ATOM     20  O   UNL     1      -0.697   1.685  -0.431  1.00  0.00    -0.275 OA
ATOM     21  N   UNL     1       0.680   2.273   1.311  1.00  0.00    -0.343 N 
ATOM     22  C   UNL     1      -0.278   3.234   1.840  1.00  0.00     0.120 C 
ATOM     23  C   UNL     1       2.014   2.362   1.894  1.00  0.00     0.120 C 
ATOM     24  C   UNL     1       0.181   4.652   1.550  1.00  0.00     0.035 C 
ATOM     25  C   UNL     1       2.611   3.745   1.624  1.00  0.00     0.035 C 
ENDBRANCH  14  17
ENDBRANCH  12  13
ENDBRANCH   8  12
ENDBRANCH   4   7
ENDBRANCH   2   3
ENDBRANCH   1   2
BRANCH   1  26
ATOM     26  C   UNL     1       0.978  12.778  -5.025  1.00  0.00     0.023 C 
BRANCH  26  27
ATOM     27  C   UNL     1       0.997  13.906  -3.997  1.00  0.00     0.116 C 
BRANCH  27  28
ATOM     28  N   UNL     1       2.328  14.446  -3.775  1.00  0.00    -0.352 N 
ATOM     29  C   UNL     1       2.734  15.759  -3.720  1.00  0.00     0.251 C 
ATOM     30  H   UNL     1       3.040  13.778  -3.646  1.00  0.00     0.163 HD
ATOM     31  O   UNL     1       3.933  16.021  -3.670  1.00  0.00    -0.269 OA
BRANCH  29  32
ATOM     32  C   UNL     1       1.732  16.849  -3.758  1.00  0.00     0.039 A 
ATOM     33  C   UNL     1       1.959  17.946  -4.594  1.00  0.00     0.014 A 
ATOM     34  C   UNL     1       0.569  16.790  -2.985  1.00  0.00     0.014 A 
ATOM     35  C   UNL     1       0.987  18.945  -4.710  1.00  0.00     0.010 A 
ATOM     36  C   UNL     1      -0.428  17.748  -3.155  1.00  0.00     0.010 A 
ATOM     37  C   UNL     1      -0.233  18.835  -4.022  1.00  0.00    -0.014 A 
BRANCH  37  38
ATOM     38  C   UNL     1      -1.315  19.841  -4.198  1.00  0.00     0.031 A 
ATOM     39  C   UNL     1      -1.772  20.671  -3.029  1.00  0.00     0.074 A 
ATOM     40  C   UNL     1      -1.935  19.957  -5.390  1.00  0.00     0.049 A 
ATOM     41  N   UNL     1      -2.761  21.526  -2.955  1.00  0.00    -0.248 NA
ATOM     42  C   UNL     1      -1.037  20.491  -1.769  1.00  0.00     0.031 C 
ATOM     43  C   UNL     1      -1.608  19.185  -6.591  1.00  0.00     0.029 A 
ATOM     44  N   UNL     1      -2.978  20.758  -5.787  1.00  0.00    -0.354 N 
ATOM     45  C   UNL     1      -2.776  21.975  -1.638  1.00  0.00     0.074 A 
ATOM     46  C   UNL     1      -1.736  21.249  -0.939  1.00  0.00     0.031 C 
ATOM     47  C   UNL     1      -2.418  19.564  -7.592  1.00  0.00     0.029 A 
ATOM     48  C   UNL     1      -3.356  20.567  -7.096  1.00  0.00     0.049 A 
ATOM     49  H   UNL     1      -3.414  21.408  -5.190  1.00  0.00     0.167 HD
ATOM     50  C   UNL     1      -3.568  22.919  -1.071  1.00  0.00     0.034 A 
ATOM     51  C   UNL     1      -4.356  21.120  -7.812  1.00  0.00     0.034 A 
ATOM     52  C   UNL     1      -4.596  23.640  -1.786  1.00  0.00     0.049 A 
ATOM     53  C   UNL     1      -5.247  22.143  -7.153  1.00  0.00     0.074 A 
ATOM     54  C   UNL     1      -5.418  24.652  -1.323  1.00  0.00     0.029 A 
ATOM     55  N   UNL     1      -4.951  23.417  -3.110  1.00  0.00    -0.354 N 
ATOM     56  N   UNL     1      -5.219  22.591  -5.919  1.00  0.00    -0.248 NA
ATOM     57  C   UNL     1      -6.299  22.740  -7.986  1.00  0.00     0.031 C 
ATOM     58  C   UNL     1      -6.316  24.989  -2.341  1.00  0.00     0.029 A 
ATOM     59  C   UNL     1      -6.002  24.249  -3.469  1.00  0.00     0.049 A 
ATOM     60  H   UNL     1      -4.520  22.764  -3.708  1.00  0.00     0.167 HD
ATOM     61  C   UNL     1      -6.228  23.547  -5.839  1.00  0.00     0.074 A 
ATOM     62  C   UNL     1      -6.837  23.618  -7.152  1.00  0.00     0.031 C 
ATOM     63  C   UNL     1      -6.610  24.304  -4.779  1.00  0.00     0.034 A 
BRANCH  50  64
ATOM     64  C   UNL     1      -3.369  23.200   0.401  1.00  0.00     0.023 A 
ATOM     65  C   UNL     1      -2.150  23.692   0.901  1.00  0.00     0.031 A 
ATOM     66  C   UNL     1      -4.399  22.943   1.322  1.00  0.00     0.131 A 
ATOM     67  C   UNL     1      -1.963  23.829   2.285  1.00  0.00     0.055 A 
ATOM     68  C   UNL     1      -4.236  23.166   2.692  1.00  0.00     0.041 A 
ATOM     69  F   UNL     1      -5.579  22.454   0.910  1.00  0.00    -0.206 F 
ATOM     70  C   UNL     1      -3.006  23.595   3.182  1.00  0.00     0.022 A 
BRANCH  67  71
ATOM     71  S   UNL     1      -0.290  24.162   2.902  1.00  0.00     0.124 S 
ATOM     72  O   UNL     1       0.455  23.028   2.361  1.00  0.00    -0.237 OA
ATOM     73  O   UNL     1       0.009  25.463   2.315  1.00  0.00    -0.237 OA
ATOM     74  O   UNL     1      -0.453  24.154   4.354  1.00  0.00    -0.744 OA
ENDBRANCH  67  71
ENDBRANCH  50  64
BRANCH  51  75
ATOM     75  C   UNL     1      -4.582  20.714  -9.230  1.00  0.00     0.023 A 
ATOM     76  C   UNL     1      -4.417  21.631 -10.280  1.00  0.00     0.031 A 
ATOM     77  C   UNL     1      -5.001  19.411  -9.551  1.00  0.00     0.131 A 
ATOM     78  C   UNL     1      -4.712  21.245 -11.598  1.00  0.00     0.055 A 
ATOM     79  C   UNL     1      -5.241  19.017 -10.869  1.00  0.00     0.041 A 
ATOM     80  F   UNL     1      -5.170  18.494  -8.585  1.00  0.00    -0.206 F 
ATOM     81  C   UNL     1      -5.109  19.941 -11.900  1.00  0.00     0.022 A 
BRANCH  78  82
ATOM     82  S   UNL     1      -4.646  22.500 -12.906  1.00  0.00     0.124 S 
ATOM     83  O   UNL     1      -5.614  23.480 -12.426  1.00  0.00    -0.237 OA
ATOM     84  O   UNL     1      -3.246  22.907 -12.864  1.00  0.00    -0.237 OA
ATOM     85  O   UNL     1      -5.043  21.764 -14.104  1.00  0.00    -0.744 OA
ENDBRANCH  78  82
ENDBRANCH  51  75
BRANCH  63  86
ATOM     86  C   UNL     1      -7.708  25.315  -5.013  1.00  0.00     0.023 A 
ATOM     87  C   UNL     1      -9.027  24.927  -5.304  1.00  0.00     0.031 A 
ATOM     88  C   UNL     1      -7.423  26.691  -4.946  1.00  0.00     0.131 A 
ATOM     89  C   UNL     1     -10.001  25.903  -5.568  1.00  0.00     0.055 A 
ATOM     90  C   UNL     1      -8.409  27.657  -5.148  1.00  0.00     0.041 A 
ATOM     91  F   UNL     1      -6.180  27.119  -4.676  1.00  0.00    -0.206 F 
ATOM     92  C   UNL     1      -9.704  27.265  -5.473  1.00  0.00     0.022 A 
BRANCH  89  93
ATOM     93  S   UNL     1     -11.643  25.370  -6.124  1.00  0.00     0.124 S 
ATOM     94  O   UNL     1     -11.325  24.621  -7.335  1.00  0.00    -0.237 OA
ATOM     95  O   UNL     1     -12.116  24.581  -4.991  1.00  0.00    -0.237 OA
ATOM     96  O   UNL     1     -12.357  26.628  -6.342  1.00  0.00    -0.744 OA
ENDBRANCH  89  93
ENDBRANCH  63  86
ENDBRANCH  37  38
ENDBRANCH  29  32
ENDBRANCH  27  28
ENDBRANCH  26  27
ENDBRANCH   1  26
TORSDOF 17
