REMARK SMILES Cc1nc2n(n1)[C@@H](c1ccc([N+](=O)[O-])o1)CC(C(=O)NCCCCNC(=O)c1ccc(-c3c4nc(c(-c5cc(S(=O)(=O)[O-])ccc5F)c5ccc([nH]5)c(-c5cc(S(=O)(=O)[O-])ccc5F)c5nc(c(-c6cc(S(=O)(=O)[O-])ccc6F)c6ccc3[nH]6)C=C5)C=C4)cc1)=N2
REMARK SMILES IDX 23 1 22 2 21 3 20 4 18 5 19 6 17 8 1 9 2 10 3 11 6 12 4 13
REMARK SMILES IDX 5 14 91 15 7 16 16 17 8 18 9 19 15 20 10 21 11 22 12 23
REMARK SMILES IDX 13 24 14 25 24 26 25 27 26 28 27 30 28 31 29 32 90 33 30 34
REMARK SMILES IDX 89 35 31 36 32 37 33 38 83 39 34 40 88 41 82 42 84 43 35 44
REMARK SMILES IDX 87 45 81 46 80 47 36 49 68 50 48 51 67 52 49 53 52 54 66 55
REMARK SMILES IDX 85 56 50 57 51 58 65 60 86 61 53 62 37 63 38 64 46 65 39 66
REMARK SMILES IDX 45 67 47 68 44 69 40 70 41 71 42 72 43 73 69 74 70 75 78 76
REMARK SMILES IDX 71 77 77 78 79 79 76 80 72 81 73 82 74 83 75 84 54 85 55 86
REMARK SMILES IDX 63 87 56 88 62 89 64 90 61 91 57 92 58 93 59 94 60 95
REMARK H PARENT 20 7 25 29 84 48 52 59
REMARK Flexibility Score: inf
ROOT
ATOM      1  C   UNL     1      -4.052  10.140   2.596  1.00  0.00     0.023 C 
ENDROOT
BRANCH   1   2
ATOM      2  C   UNL     1      -2.931   9.288   1.960  1.00  0.00     0.023 C 
BRANCH   2   3
ATOM      3  C   UNL     1      -2.282   8.270   2.906  1.00  0.00     0.116 C 
BRANCH   3   4
ATOM      4  N   UNL     1      -3.106   7.076   3.047  1.00  0.00    -0.351 N 
ATOM      5  C   UNL     1      -3.043   5.759   2.668  1.00  0.00     0.265 C 
ATOM      6  O   UNL     1      -4.014   5.059   2.958  1.00  0.00    -0.268 OA
ATOM      7  H   UNL     1      -3.931   7.266   3.550  1.00  0.00     0.163 HD
BRANCH   5   8
ATOM      8  C   UNL     1      -1.872   5.077   1.929  1.00  0.00     0.112 C 
ATOM      9  C   UNL     1       1.036   0.381   0.107  1.00  0.00     0.092 C 
ATOM     10  C   UNL     1       0.443   1.691   0.442  1.00  0.00     0.149 A 
ATOM     11  N   UNL     1      -0.718   1.807   1.162  1.00  0.00    -0.195 NA
ATOM     12  N   UNL     1       0.978   2.855   0.051  1.00  0.00    -0.154 NA
ATOM     13  C   UNL     1      -0.927   3.104   1.241  1.00  0.00     0.249 A 
ATOM     14  N   UNL     1       0.079   3.724   0.556  1.00  0.00    -0.219 N 
ATOM     15  N   UNL     1      -1.927   3.779   1.847  1.00  0.00    -0.211 NA
ATOM     16  C   UNL     1       0.191   5.158   0.416  1.00  0.00     0.184 C 
ATOM     17  C   UNL     1      -0.725   5.897   1.402  1.00  0.00     0.098 C 
BRANCH  16  18
ATOM     18  C   UNL     1      -0.035   5.599  -1.004  1.00  0.00     0.136 A 
ATOM     19  C   UNL     1      -0.184   4.962  -2.226  1.00  0.00     0.056 A 
ATOM     20  O   UNL     1      -0.054   6.957  -1.196  1.00  0.00    -0.404 OA
ATOM     21  C   UNL     1      -0.318   5.977  -3.212  1.00  0.00     0.134 A 
ATOM     22  C   UNL     1      -0.242   7.163  -2.525  1.00  0.00     0.433 A 
BRANCH  22  23
ATOM     23  N   UNL     1      -0.320   8.525  -2.946  1.00  0.00     0.102 N 
ATOM     24  O   UNL     1      -0.409   8.718  -4.166  1.00  0.00    -0.256 OA
ATOM     25  O   UNL     1      -0.303   9.398  -2.069  1.00  0.00    -0.256 OA
ENDBRANCH  22  23
ENDBRANCH  16  18
ENDBRANCH   5   8
ENDBRANCH   3   4
ENDBRANCH   2   3
ENDBRANCH   1   2
BRANCH   1  26
ATOM     26  C   UNL     1      -3.594  11.235   3.582  1.00  0.00     0.116 C 
BRANCH  26  27
ATOM     27  N   UNL     1      -2.772  12.236   2.922  1.00  0.00    -0.352 N 
ATOM     28  C   UNL     1      -2.604  13.582   3.122  1.00  0.00     0.251 C 
ATOM     29  H   UNL     1      -2.228  11.876   2.185  1.00  0.00     0.163 HD
ATOM     30  O   UNL     1      -1.958  14.193   2.268  1.00  0.00    -0.269 OA
BRANCH  28  31
ATOM     31  C   UNL     1      -3.159  14.336   4.275  1.00  0.00     0.039 A 
ATOM     32  C   UNL     1      -3.530  15.673   4.048  1.00  0.00     0.014 A 
ATOM     33  C   UNL     1      -3.211  13.837   5.577  1.00  0.00     0.014 A 
ATOM     34  C   UNL     1      -3.992  16.484   5.092  1.00  0.00     0.010 A 
ATOM     35  C   UNL     1      -3.674  14.654   6.624  1.00  0.00     0.010 A 
ATOM     36  C   UNL     1      -4.089  15.978   6.393  1.00  0.00    -0.014 A 
BRANCH  36  37
ATOM     37  C   UNL     1      -4.790  16.788   7.423  1.00  0.00     0.031 A 
ATOM     38  C   UNL     1      -5.760  16.041   8.276  1.00  0.00     0.074 A 
ATOM     39  C   UNL     1      -4.361  17.972   7.917  1.00  0.00     0.049 A 
ATOM     40  N   UNL     1      -5.383  15.359   9.317  1.00  0.00    -0.248 NA
ATOM     41  C   UNL     1      -7.150  15.818   7.887  1.00  0.00     0.031 C 
ATOM     42  C   UNL     1      -2.952  18.364   8.001  1.00  0.00     0.029 A 
ATOM     43  N   UNL     1      -5.024  18.932   8.653  1.00  0.00    -0.354 N 
ATOM     44  C   UNL     1      -6.446  14.562   9.690  1.00  0.00     0.074 A 
ATOM     45  C   UNL     1      -7.529  14.896   8.787  1.00  0.00     0.031 C 
ATOM     46  C   UNL     1      -2.842  19.377   8.888  1.00  0.00     0.029 A 
ATOM     47  C   UNL     1      -4.173  19.827   9.306  1.00  0.00     0.049 A 
ATOM     48  H   UNL     1      -6.005  18.982   8.713  1.00  0.00     0.167 HD
ATOM     49  C   UNL     1      -6.362  13.651  10.694  1.00  0.00     0.034 A 
ATOM     50  C   UNL     1      -4.414  20.399  10.520  1.00  0.00     0.034 A 
ATOM     51  C   UNL     1      -5.106  13.601  11.386  1.00  0.00     0.049 A 
ATOM     52  C   UNL     1      -4.487  19.214  11.443  1.00  0.00     0.074 A 
ATOM     53  C   UNL     1      -3.934  12.881  11.293  1.00  0.00     0.029 A 
ATOM     54  N   UNL     1      -4.876  14.492  12.409  1.00  0.00    -0.354 N 
ATOM     55  N   UNL     1      -3.476  18.582  11.970  1.00  0.00    -0.248 NA
ATOM     56  C   UNL     1      -5.767  18.512  11.545  1.00  0.00     0.031 C 
ATOM     57  C   UNL     1      -2.938  13.682  11.936  1.00  0.00     0.029 A 
ATOM     58  C   UNL     1      -3.559  14.870  12.314  1.00  0.00     0.049 A 
ATOM     59  H   UNL     1      -5.529  14.798  13.079  1.00  0.00     0.167 HD
ATOM     60  C   UNL     1      -3.942  17.301  12.260  1.00  0.00     0.074 A 
ATOM     61  C   UNL     1      -5.370  17.338  12.014  1.00  0.00     0.031 C 
ATOM     62  C   UNL     1      -3.120  16.237  12.500  1.00  0.00     0.034 A 
BRANCH  49  63
ATOM     63  C   UNL     1      -7.460  12.763  11.126  1.00  0.00     0.023 A 
ATOM     64  C   UNL     1      -7.922  12.880  12.444  1.00  0.00     0.031 A 
ATOM     65  C   UNL     1      -7.900  11.679  10.357  1.00  0.00     0.131 A 
ATOM     66  C   UNL     1      -8.758  11.902  12.985  1.00  0.00     0.055 A 
ATOM     67  C   UNL     1      -8.751  10.709  10.896  1.00  0.00     0.041 A 
ATOM     68  F   UNL     1      -7.467  11.514   9.097  1.00  0.00    -0.206 F 
ATOM     69  C   UNL     1      -9.170  10.809  12.223  1.00  0.00     0.022 A 
BRANCH  66  70
ATOM     70  S   UNL     1      -9.193  12.036  14.738  1.00  0.00     0.124 S 
ATOM     71  O   UNL     1      -7.898  12.286  15.360  1.00  0.00    -0.237 OA
ATOM     72  O   UNL     1     -10.123  13.160  14.723  1.00  0.00    -0.237 OA
ATOM     73  O   UNL     1      -9.787  10.733  15.037  1.00  0.00    -0.744 OA
ENDBRANCH  66  70
ENDBRANCH  49  63
BRANCH  50  74
ATOM     74  C   UNL     1      -5.391  21.538  10.595  1.00  0.00     0.023 A 
ATOM     75  C   UNL     1      -5.255  22.612   9.689  1.00  0.00     0.031 A 
ATOM     76  C   UNL     1      -6.410  21.667  11.560  1.00  0.00     0.131 A 
ATOM     77  C   UNL     1      -6.143  23.705   9.720  1.00  0.00     0.055 A 
ATOM     78  C   UNL     1      -7.324  22.727  11.556  1.00  0.00     0.041 A 
ATOM     79  F   UNL     1      -6.559  20.774  12.548  1.00  0.00    -0.206 F 
ATOM     80  C   UNL     1      -7.201  23.749  10.626  1.00  0.00     0.022 A 
BRANCH  77  81
ATOM     81  S   UNL     1      -5.918  25.076   8.552  1.00  0.00     0.124 S 
ATOM     82  O   UNL     1      -4.806  25.806   9.151  1.00  0.00    -0.237 OA
ATOM     83  O   UNL     1      -5.629  24.386   7.299  1.00  0.00    -0.237 OA
ATOM     84  O   UNL     1      -7.207  25.766   8.588  1.00  0.00    -0.744 OA
ENDBRANCH  77  81
ENDBRANCH  50  74
BRANCH  62  85
ATOM     85  C   UNL     1      -1.666  16.559  12.661  1.00  0.00     0.023 A 
ATOM     86  C   UNL     1      -1.215  17.278  13.782  1.00  0.00     0.031 A 
ATOM     87  C   UNL     1      -0.712  16.146  11.714  1.00  0.00     0.131 A 
ATOM     88  C   UNL     1       0.154  17.544  13.941  1.00  0.00     0.055 A 
ATOM     89  C   UNL     1       0.652  16.380  11.895  1.00  0.00     0.041 A 
ATOM     90  F   UNL     1      -1.079  15.498  10.596  1.00  0.00    -0.206 F 
ATOM     91  C   UNL     1       1.091  17.079  13.014  1.00  0.00     0.022 A 
BRANCH  88  92
ATOM     92  S   UNL     1       0.713  18.477  15.393  1.00  0.00     0.124 S 
ATOM     93  O   UNL     1       0.237  19.828  15.102  1.00  0.00    -0.237 OA
ATOM     94  O   UNL     1       0.056  17.789  16.493  1.00  0.00    -0.237 OA
ATOM     95  O   UNL     1       2.170  18.320  15.355  1.00  0.00    -0.744 OA
ENDBRANCH  88  92
ENDBRANCH  62  85
ENDBRANCH  36  37
ENDBRANCH  28  31
ENDBRANCH  26  27
ENDBRANCH   1  26
TORSDOF 16
