REMARK SMILES CC[N@@H+]1CCC[C@@H]1C[N@@H+](C)C[C@H]([NH3+])C(=O)NCCCCNC(=O)c1ccc(-c2c3nc(c(-c4cc(S(=O)(=O)[O-])ccc4F)c4ccc([nH]4)c(-c4cc(S(=O)(=O)[O-])ccc4F)c4nc(c(-c5cc(S(=O)(=O)[O-])ccc5F)c5ccc2[nH]5)C=C4)C=C3)cc1
REMARK SMILES IDX 17 1 16 2 14 3 15 4 12 6 11 7 9 8 10 9 8 11 7 12 3 13 4 14
REMARK SMILES IDX 5 16 6 17 2 18 1 19 13 20 18 24 19 25 20 26 21 27 22 28
REMARK SMILES IDX 23 30 24 31 25 32 86 33 26 34 85 35 27 36 28 37 29 38 79 39
REMARK SMILES IDX 30 40 84 41 78 42 80 43 31 44 83 45 77 46 76 47 32 49 64 50
REMARK SMILES IDX 44 51 63 52 45 53 48 54 62 55 81 56 46 57 47 58 61 60 82 61
REMARK SMILES IDX 49 62 33 63 34 64 42 65 35 66 41 67 43 68 40 69 36 70 37 71
REMARK SMILES IDX 38 72 39 73 65 74 66 75 74 76 67 77 73 78 75 79 72 80 68 81
REMARK SMILES IDX 69 82 70 83 71 84 50 85 51 86 59 87 52 88 58 89 60 90 57 91
REMARK SMILES IDX 53 92 54 93 55 94 56 95
REMARK H PARENT 16 5 9 10 3 15 13 21 13 22 13 23 21 29 80 48 48 59
REMARK Flexibility Score: inf
ROOT
ATOM      1  C   UNL     1       4.268   6.303   1.963  1.00  0.00     0.116 C 
ENDROOT
BRANCH   1   2
ATOM      2  N   UNL     1       3.964   6.354   3.367  1.00  0.00    -0.351 N 
ATOM      3  C   UNL     1       2.883   5.821   4.024  1.00  0.00     0.284 C 
ATOM      4  O   UNL     1       2.960   5.779   5.260  1.00  0.00    -0.268 OA
ATOM      5  H   UNL     1       4.615   6.832   3.930  1.00  0.00     0.163 HD
BRANCH   3   6
ATOM      6  C   UNL     1       1.595   5.280   3.325  1.00  0.00     0.326 C 
BRANCH   6   7
ATOM      7  C   UNL     1       1.516   3.760   2.939  1.00  0.00     0.338 C 
BRANCH   7   8
ATOM      8  N   UNL     1       2.375   3.037   1.967  1.00  0.00    -0.327 N 
ATOM      9  C   UNL     1       3.585   2.561   2.652  1.00  0.00     0.333 C 
ATOM     10  H   UNL     1       1.814   2.253   1.634  1.00  0.00     0.348 HD
BRANCH   8  11
ATOM     11  C   UNL     1       2.703   3.758   0.731  1.00  0.00     0.327 C 
BRANCH  11  12
ATOM     12  C   UNL     1       1.895   3.554  -0.581  1.00  0.00     0.239 C 
ATOM     13  N   UNL     1       2.295   4.441  -1.739  1.00  0.00    -0.328 N 
ATOM     14  C   UNL     1       1.056   4.681  -2.489  1.00  0.00     0.262 C 
ATOM     15  H   UNL     1       3.005   3.972  -2.302  1.00  0.00     0.348 HD
ATOM     16  C   UNL     1       0.005   4.830  -1.413  1.00  0.00     0.068 C 
ATOM     17  C   UNL     1       0.379   3.736  -0.431  1.00  0.00     0.077 C 
BRANCH  13  18
ATOM     18  C   UNL     1       2.978   5.689  -1.363  1.00  0.00     0.259 C 
ATOM     19  C   UNL     1       3.356   6.631  -2.502  1.00  0.00     0.071 C 
ENDBRANCH  13  18
ENDBRANCH  11  12
ENDBRANCH   8  11
ENDBRANCH   7   8
ENDBRANCH   6   7
BRANCH   6  20
ATOM     20  N   UNL     1       0.966   6.241   2.383  1.00  0.00    -0.343 N 
ATOM     21  H   UNL     1       1.555   6.341   1.556  1.00  0.00     0.345 HD
ATOM     22  H   UNL     1       0.864   7.147   2.839  1.00  0.00     0.345 HD
ATOM     23  H   UNL     1       0.048   5.894   2.106  1.00  0.00     0.345 HD
ENDBRANCH   6  20
ENDBRANCH   3   6
ENDBRANCH   1   2
BRANCH   1  24
ATOM     24  C   UNL     1       5.286   7.276   1.391  1.00  0.00     0.023 C 
BRANCH  24  25
ATOM     25  C   UNL     1       6.749   6.843   1.402  1.00  0.00     0.023 C 
BRANCH  25  26
ATOM     26  C   UNL     1       7.069   5.391   1.044  1.00  0.00     0.116 C 
BRANCH  26  27
ATOM     27  N   UNL     1       6.816   5.008  -0.344  1.00  0.00    -0.352 N 
ATOM     28  C   UNL     1       7.683   4.761  -1.389  1.00  0.00     0.251 C 
ATOM     29  H   UNL     1       5.863   4.910  -0.572  1.00  0.00     0.163 HD
ATOM     30  O   UNL     1       7.236   4.499  -2.503  1.00  0.00    -0.269 OA
BRANCH  28  31
ATOM     31  C   UNL     1       9.143   4.869  -1.186  1.00  0.00     0.039 A 
ATOM     32  C   UNL     1       9.911   5.598  -2.097  1.00  0.00     0.014 A 
ATOM     33  C   UNL     1       9.742   4.314  -0.059  1.00  0.00     0.014 A 
ATOM     34  C   UNL     1      11.240   5.902  -1.788  1.00  0.00     0.010 A 
ATOM     35  C   UNL     1      11.012   4.732   0.312  1.00  0.00     0.010 A 
ATOM     36  C   UNL     1      11.774   5.548  -0.539  1.00  0.00    -0.014 A 
BRANCH  36  37
ATOM     37  C   UNL     1      13.105   6.030  -0.076  1.00  0.00     0.031 A 
ATOM     38  C   UNL     1      14.147   5.040   0.374  1.00  0.00     0.074 A 
ATOM     39  C   UNL     1      13.330   7.354   0.056  1.00  0.00     0.049 A 
ATOM     40  N   UNL     1      15.288   5.251   0.977  1.00  0.00    -0.248 NA
ATOM     41  C   UNL     1      13.831   3.618   0.171  1.00  0.00     0.031 C 
ATOM     42  C   UNL     1      12.378   8.418  -0.280  1.00  0.00     0.029 A 
ATOM     43  N   UNL     1      14.427   8.037   0.522  1.00  0.00    -0.354 N 
ATOM     44  C   UNL     1      15.805   3.991   1.260  1.00  0.00     0.074 A 
ATOM     45  C   UNL     1      14.815   3.027   0.830  1.00  0.00     0.031 C 
ATOM     46  C   UNL     1      12.945   9.611  -0.046  1.00  0.00     0.029 A 
ATOM     47  C   UNL     1      14.277   9.405   0.509  1.00  0.00     0.049 A 
ATOM     48  H   UNL     1      15.245   7.588   0.836  1.00  0.00     0.167 HD
ATOM     49  C   UNL     1      17.007   3.665   1.798  1.00  0.00     0.034 A 
ATOM     50  C   UNL     1      15.114  10.383   0.911  1.00  0.00     0.034 A 
ATOM     51  C   UNL     1      18.001   4.639   2.177  1.00  0.00     0.049 A 
ATOM     52  C   UNL     1      16.455  10.000   1.480  1.00  0.00     0.074 A 
ATOM     53  C   UNL     1      19.278   4.425   2.663  1.00  0.00     0.029 A 
ATOM     54  N   UNL     1      17.829   6.016   2.105  1.00  0.00    -0.354 N 
ATOM     55  N   UNL     1      16.948   8.802   1.698  1.00  0.00    -0.248 NA
ATOM     56  C   UNL     1      17.356  11.099   1.849  1.00  0.00     0.031 C 
ATOM     57  C   UNL     1      19.858   5.669   2.936  1.00  0.00     0.029 A 
ATOM     58  C   UNL     1      18.970   6.662   2.555  1.00  0.00     0.049 A 
ATOM     59  H   UNL     1      17.016   6.467   1.782  1.00  0.00     0.167 HD
ATOM     60  C   UNL     1      18.231   9.007   2.198  1.00  0.00     0.074 A 
ATOM     61  C   UNL     1      18.438  10.440   2.237  1.00  0.00     0.031 C 
ATOM     62  C   UNL     1      19.157   8.093   2.588  1.00  0.00     0.034 A 
BRANCH  49  63
ATOM     63  C   UNL     1      17.295   2.197   2.013  1.00  0.00     0.023 A 
ATOM     64  C   UNL     1      17.328   1.288   0.940  1.00  0.00     0.031 A 
ATOM     65  C   UNL     1      17.491   1.687   3.308  1.00  0.00     0.131 A 
ATOM     66  C   UNL     1      17.450  -0.087   1.188  1.00  0.00     0.055 A 
ATOM     67  C   UNL     1      17.708   0.327   3.540  1.00  0.00     0.041 A 
ATOM     68  F   UNL     1      17.454   2.500   4.376  1.00  0.00    -0.206 F 
ATOM     69  C   UNL     1      17.668  -0.573   2.478  1.00  0.00     0.022 A 
BRANCH  66  70
ATOM     70  S   UNL     1      17.152  -1.239  -0.181  1.00  0.00     0.124 S 
ATOM     71  O   UNL     1      15.778  -0.905  -0.551  1.00  0.00    -0.237 OA
ATOM     72  O   UNL     1      18.182  -0.862  -1.142  1.00  0.00    -0.237 OA
ATOM     73  O   UNL     1      17.322  -2.554   0.434  1.00  0.00    -0.744 OA
ENDBRANCH  66  70
ENDBRANCH  49  63
BRANCH  50  74
ATOM     74  C   UNL     1      14.722  11.817   0.786  1.00  0.00     0.023 A 
ATOM     75  C   UNL     1      15.412  12.678  -0.082  1.00  0.00     0.031 A 
ATOM     76  C   UNL     1      13.680  12.359   1.559  1.00  0.00     0.131 A 
ATOM     77  C   UNL     1      15.087  14.043  -0.122  1.00  0.00     0.055 A 
ATOM     78  C   UNL     1      13.326  13.707   1.478  1.00  0.00     0.041 A 
ATOM     79  F   UNL     1      12.980  11.579   2.398  1.00  0.00    -0.206 F 
ATOM     80  C   UNL     1      14.041  14.561   0.644  1.00  0.00     0.022 A 
BRANCH  77  81
ATOM     81  S   UNL     1      16.111  15.149  -1.131  1.00  0.00     0.124 S 
ATOM     82  O   UNL     1      17.435  14.933  -0.559  1.00  0.00    -0.237 OA
ATOM     83  O   UNL     1      15.897  14.618  -2.473  1.00  0.00    -0.237 OA
ATOM     84  O   UNL     1      15.531  16.468  -0.884  1.00  0.00    -0.744 OA
ENDBRANCH  77  81
ENDBRANCH  50  74
BRANCH  62  85
ATOM     85  C   UNL     1      20.494   8.626   3.036  1.00  0.00     0.023 A 
ATOM     86  C   UNL     1      20.637   9.368   4.220  1.00  0.00     0.031 A 
ATOM     87  C   UNL     1      21.641   8.392   2.256  1.00  0.00     0.131 A 
ATOM     88  C   UNL     1      21.889   9.899   4.564  1.00  0.00     0.055 A 
ATOM     89  C   UNL     1      22.895   8.873   2.634  1.00  0.00     0.041 A 
ATOM     90  F   UNL     1      21.560   7.690   1.115  1.00  0.00    -0.206 F 
ATOM     91  C   UNL     1      23.022   9.641   3.787  1.00  0.00     0.022 A 
BRANCH  88  92
ATOM     92  S   UNL     1      22.003  11.005   5.997  1.00  0.00     0.124 S 
ATOM     93  O   UNL     1      21.074  12.070   5.632  1.00  0.00    -0.237 OA
ATOM     94  O   UNL     1      21.581  10.139   7.093  1.00  0.00    -0.237 OA
ATOM     95  O   UNL     1      23.412  11.392   6.021  1.00  0.00    -0.744 OA
ENDBRANCH  88  92
ENDBRANCH  62  85
ENDBRANCH  36  37
ENDBRANCH  28  31
ENDBRANCH  26  27
ENDBRANCH  25  26
ENDBRANCH  24  25
ENDBRANCH   1  24
TORSDOF 20
