REMARK SMILES Cc1ccnc(C(=O)c2[nH]c3ccc(OC(F)(F)F)cc3c2CC(=O)NCCCCNC(=O)c2ccc(-c3c4nc(c(-c5cc(S(=O)(=O)[O-])ccc5F)c5ccc([nH]5)c(-c5cc(S(=O)(=O)[O-])ccc5F)c5nc(c(-c6cc(S(=O)(=O)[O-])ccc6F)c6ccc3[nH]6)C=C5)C=C4)cc2)c1
REMARK SMILES IDX 28 1 27 2 26 3 24 4 25 5 23 7 22 8 9 9 10 10 11 11 21 13
REMARK SMILES IDX 12 14 20 15 13 16 14 17 7 18 8 19 6 20 1 21 2 22 3 23 97 24
REMARK SMILES IDX 4 25 5 26 15 27 16 28 17 29 18 30 19 31 29 32 30 33 31 34
REMARK SMILES IDX 32 35 33 37 34 38 35 39 96 40 36 41 95 42 37 43 38 44 39 45
REMARK SMILES IDX 89 46 40 47 94 48 88 49 90 50 41 51 93 52 87 53 86 54 42 56
REMARK SMILES IDX 74 57 54 58 73 59 55 60 58 61 72 62 91 63 56 64 57 65 71 67
REMARK SMILES IDX 92 68 59 69 43 70 44 71 52 72 45 73 51 74 53 75 50 76 46 77
REMARK SMILES IDX 47 78 48 79 49 80 75 81 76 82 84 83 77 84 83 85 85 86 82 87
REMARK SMILES IDX 78 88 79 89 80 90 81 91 60 92 61 93 69 94 62 95 68 96 70 97
REMARK SMILES IDX 67 98 63 99 64 100 65 101 66 102
REMARK H PARENT 26 6 10 12 31 36 90 55 58 66
REMARK Flexibility Score: inf
ROOT
ATOM      1  C   UNL     1       3.092  -6.842  -0.745  1.00  0.00     0.023 C 
ENDROOT
BRANCH   1   2
ATOM      2  C   UNL     1       3.439  -6.872   0.742  1.00  0.00     0.116 C 
BRANCH   2   3
ATOM      3  N   UNL     1       4.011  -5.628   1.215  1.00  0.00    -0.356 N 
ATOM      4  C   UNL     1       3.414  -4.602   1.891  1.00  0.00     0.224 C 
ATOM      5  O   UNL     1       4.131  -3.704   2.342  1.00  0.00    -0.275 OA
ATOM      6  H   UNL     1       4.968  -5.504   1.022  1.00  0.00     0.163 HD
BRANCH   4   7
ATOM      7  C   UNL     1       1.923  -4.626   2.198  1.00  0.00     0.138 C 
BRANCH   7   8
ATOM      8  C   UNL     1       1.018  -4.651   0.999  1.00  0.00    -0.002 A 
ATOM      9  C   UNL     1       0.928  -3.702  -0.015  1.00  0.00     0.093 A 
ATOM     10  N   UNL     1       0.061  -4.196  -0.964  1.00  0.00    -0.352 N 
ATOM     11  C   UNL     1      -0.515  -5.366  -0.534  1.00  0.00     0.046 A 
ATOM     12  H   UNL     1      -0.121  -3.769  -1.831  1.00  0.00     0.167 HD
ATOM     13  C   UNL     1       0.049  -5.668   0.701  1.00  0.00     0.008 A 
ATOM     14  C   UNL     1      -1.462  -6.186  -1.155  1.00  0.00     0.030 A 
ATOM     15  C   UNL     1      -0.373  -6.846   1.353  1.00  0.00     0.057 A 
ATOM     16  C   UNL     1      -1.854  -7.354  -0.488  1.00  0.00     0.049 A 
ATOM     17  C   UNL     1      -1.322  -7.689   0.755  1.00  0.00     0.130 A 
BRANCH   9  18
ATOM     18  C   UNL     1       1.663  -2.459  -0.184  1.00  0.00     0.227 C 
ATOM     19  O   UNL     1       2.870  -2.465  -0.395  1.00  0.00    -0.285 OA
BRANCH  18  20
ATOM     20  C   UNL     1       0.897  -1.156  -0.131  1.00  0.00     0.113 A 
ATOM     21  C   UNL     1      -2.618   0.224   0.251  1.00  0.00     0.044 C 
ATOM     22  C   UNL     1      -1.133   0.127   0.072  1.00  0.00    -0.047 A 
ATOM     23  C   UNL     1      -0.370   1.281  -0.106  1.00  0.00     0.023 A 
ATOM     24  C   UNL     1      -0.482  -1.111   0.081  1.00  0.00     0.036 A 
ATOM     25  C   UNL     1       0.996   1.152  -0.289  1.00  0.00     0.112 A 
ATOM     26  N   UNL     1       1.637  -0.033  -0.319  1.00  0.00    -0.253 NA
ENDBRANCH  18  20
ENDBRANCH   9  18
BRANCH  17  27
ATOM     27  O   UNL     1      -1.621  -8.798   1.496  1.00  0.00    -0.406 OA
BRANCH  27  28
ATOM     28  C   UNL     1      -2.548  -9.724   0.958  1.00  0.00     0.573 C 
ATOM     29  F   UNL     1      -3.757  -9.150   0.776  1.00  0.00    -0.132 F 
ATOM     30  F   UNL     1      -2.111 -10.234  -0.212  1.00  0.00    -0.132 F 
ATOM     31  F   UNL     1      -2.700 -10.743   1.833  1.00  0.00    -0.132 F 
ENDBRANCH  27  28
ENDBRANCH  17  27
ENDBRANCH   7   8
ENDBRANCH   4   7
ENDBRANCH   2   3
ENDBRANCH   1   2
BRANCH   1  32
ATOM     32  C   UNL     1       4.286  -6.824  -1.701  1.00  0.00     0.023 C 
BRANCH  32  33
ATOM     33  C   UNL     1       5.255  -7.995  -1.571  1.00  0.00     0.116 C 
BRANCH  33  34
ATOM     34  N   UNL     1       4.616  -9.292  -1.723  1.00  0.00    -0.352 N 
ATOM     35  C   UNL     1       5.132 -10.455  -2.245  1.00  0.00     0.251 C 
ATOM     36  H   UNL     1       3.685  -9.345  -1.408  1.00  0.00     0.163 HD
ATOM     37  O   UNL     1       4.402 -11.432  -2.381  1.00  0.00    -0.269 OA
BRANCH  35  38
ATOM     38  C   UNL     1       6.545 -10.511  -2.685  1.00  0.00     0.039 A 
ATOM     39  C   UNL     1       6.839 -11.102  -3.918  1.00  0.00     0.014 A 
ATOM     40  C   UNL     1       7.574  -9.985  -1.899  1.00  0.00     0.014 A 
ATOM     41  C   UNL     1       8.152 -11.102  -4.395  1.00  0.00     0.010 A 
ATOM     42  C   UNL     1       8.874  -9.937  -2.399  1.00  0.00     0.010 A 
ATOM     43  C   UNL     1       9.172 -10.488  -3.654  1.00  0.00    -0.014 A 
BRANCH  43  44
ATOM     44  C   UNL     1      10.559 -10.406  -4.173  1.00  0.00     0.031 A 
ATOM     45  C   UNL     1      11.663 -11.172  -3.504  1.00  0.00     0.074 A 
ATOM     46  C   UNL     1      10.836  -9.575  -5.197  1.00  0.00     0.049 A 
ATOM     47  N   UNL     1      12.949 -11.158  -3.746  1.00  0.00    -0.248 NA
ATOM     48  C   UNL     1      11.266 -12.049  -2.393  1.00  0.00     0.031 C 
ATOM     49  C   UNL     1       9.857  -8.745  -5.902  1.00  0.00     0.029 A 
ATOM     50  N   UNL     1      12.027  -9.281  -5.810  1.00  0.00    -0.354 N 
ATOM     51  C   UNL     1      13.521 -12.008  -2.806  1.00  0.00     0.074 A 
ATOM     52  C   UNL     1      12.441 -12.481  -1.962  1.00  0.00     0.031 C 
ATOM     53  C   UNL     1      10.487  -8.044  -6.860  1.00  0.00     0.029 A 
ATOM     54  C   UNL     1      11.913  -8.351  -6.814  1.00  0.00     0.049 A 
ATOM     55  H   UNL     1      12.882  -9.697  -5.554  1.00  0.00     0.167 HD
ATOM     56  C   UNL     1      14.820 -12.372  -2.669  1.00  0.00     0.034 A 
ATOM     57  C   UNL     1      12.854  -7.798  -7.602  1.00  0.00     0.034 A 
ATOM     58  C   UNL     1      15.883 -11.903  -3.524  1.00  0.00     0.049 A 
ATOM     59  C   UNL     1      14.290  -8.204  -7.428  1.00  0.00     0.074 A 
ATOM     60  C   UNL     1      17.221 -12.263  -3.522  1.00  0.00     0.029 A 
ATOM     61  N   UNL     1      15.730 -10.959  -4.532  1.00  0.00    -0.354 N 
ATOM     62  N   UNL     1      14.812  -9.039  -6.560  1.00  0.00    -0.248 NA
ATOM     63  C   UNL     1      15.262  -7.594  -8.343  1.00  0.00     0.031 C 
ATOM     64  C   UNL     1      17.883 -11.503  -4.497  1.00  0.00     0.029 A 
ATOM     65  C   UNL     1      16.951 -10.705  -5.140  1.00  0.00     0.049 A 
ATOM     66  H   UNL     1      14.878 -10.532  -4.779  1.00  0.00     0.167 HD
ATOM     67  C   UNL     1      16.174  -9.068  -6.837  1.00  0.00     0.074 A 
ATOM     68  C   UNL     1      16.392  -8.167  -7.952  1.00  0.00     0.031 C 
ATOM     69  C   UNL     1      17.154  -9.784  -6.232  1.00  0.00     0.034 A 
BRANCH  56  70
ATOM     70  C   UNL     1      15.149 -13.300  -1.526  1.00  0.00     0.023 A 
ATOM     71  C   UNL     1      14.633 -14.607  -1.468  1.00  0.00     0.031 A 
ATOM     72  C   UNL     1      15.927 -12.850  -0.445  1.00  0.00     0.131 A 
ATOM     73  C   UNL     1      14.820 -15.383  -0.315  1.00  0.00     0.055 A 
ATOM     74  C   UNL     1      16.176 -13.657   0.667  1.00  0.00     0.041 A 
ATOM     75  F   UNL     1      16.430 -11.606  -0.436  1.00  0.00    -0.206 F 
ATOM     76  C   UNL     1      15.605 -14.924   0.746  1.00  0.00     0.022 A 
BRANCH  73  77
ATOM     77  S   UNL     1      13.881 -16.926  -0.151  1.00  0.00     0.124 S 
ATOM     78  O   UNL     1      12.508 -16.458  -0.321  1.00  0.00    -0.237 OA
ATOM     79  O   UNL     1      14.419 -17.738  -1.236  1.00  0.00    -0.237 OA
ATOM     80  O   UNL     1      14.210 -17.386   1.197  1.00  0.00    -0.744 OA
ENDBRANCH  73  77
ENDBRANCH  56  70
BRANCH  57  81
ATOM     81  C   UNL     1      12.469  -6.793  -8.624  1.00  0.00     0.023 A 
ATOM     82  C   UNL     1      12.440  -7.129  -9.985  1.00  0.00     0.031 A 
ATOM     83  C   UNL     1      12.129  -5.482  -8.251  1.00  0.00     0.131 A 
ATOM     84  C   UNL     1      12.098  -6.155 -10.934  1.00  0.00     0.055 A 
ATOM     85  C   UNL     1      11.765  -4.523  -9.196  1.00  0.00     0.041 A 
ATOM     86  F   UNL     1      12.131  -5.123  -6.957  1.00  0.00    -0.206 F 
ATOM     87  C   UNL     1      11.755  -4.856 -10.548  1.00  0.00     0.022 A 
BRANCH  84  88
ATOM     88  S   UNL     1      12.125  -6.605 -12.690  1.00  0.00     0.124 S 
ATOM     89  O   UNL     1      13.538  -6.897 -12.902  1.00  0.00    -0.237 OA
ATOM     90  O   UNL     1      11.221  -7.750 -12.726  1.00  0.00    -0.237 OA
ATOM     91  O   UNL     1      11.627  -5.404 -13.357  1.00  0.00    -0.744 OA
ENDBRANCH  84  88
ENDBRANCH  57  81
BRANCH  69  92
ATOM     92  C   UNL     1      18.540  -9.637  -6.800  1.00  0.00     0.023 A 
ATOM     93  C   UNL     1      19.299  -8.473  -6.595  1.00  0.00     0.031 A 
ATOM     94  C   UNL     1      19.091 -10.666  -7.583  1.00  0.00     0.131 A 
ATOM     95  C   UNL     1      20.555  -8.346  -7.206  1.00  0.00     0.055 A 
ATOM     96  C   UNL     1      20.358 -10.550  -8.155  1.00  0.00     0.041 A 
ATOM     97  F   UNL     1      18.401 -11.795  -7.810  1.00  0.00    -0.206 F 
ATOM     98  C   UNL     1      21.093  -9.381  -7.976  1.00  0.00     0.022 A 
BRANCH  95  99
ATOM     99  S   UNL     1      21.455  -6.780  -7.036  1.00  0.00     0.124 S 
ATOM    100  O   UNL     1      20.529  -5.830  -7.645  1.00  0.00    -0.237 OA
ATOM    101  O   UNL     1      21.624  -6.670  -5.591  1.00  0.00    -0.237 OA
ATOM    102  O   UNL     1      22.689  -7.010  -7.787  1.00  0.00    -0.744 OA
ENDBRANCH  95  99
ENDBRANCH  69  92
ENDBRANCH  43  44
ENDBRANCH  35  38
ENDBRANCH  33  34
ENDBRANCH  32  33
ENDBRANCH   1  32
TORSDOF 19
