REMARK SMILES C[C@@H](Oc1ccc(-c2ccccc2)cc1)C(=O)N1CCC[C@H](C(=O)NCCCCNC(=O)c2ccc(-c3c4nc(c(-c5cc(S(=O)(=O)[O-])ccc5F)c5ccc([nH]5)c(-c5cc(S(=O)(=O)[O-])ccc5F)c5nc(c(-c6cc(S(=O)(=O)[O-])ccc6F)c6ccc3[nH]6)C=C5)C=C4)cc2)C1
REMARK SMILES IDX 26 1 25 2 23 3 24 4 22 6 18 7 19 8 96 9 20 10 21 11 16 12
REMARK SMILES IDX 17 13 2 14 1 15 3 16 4 17 5 18 15 19 6 20 14 21 7 22 8 23
REMARK SMILES IDX 9 24 13 25 10 26 12 27 11 28 27 29 28 30 29 31 30 32 31 33
REMARK SMILES IDX 32 35 33 36 34 37 95 38 35 39 94 40 36 41 37 42 38 43 88 44
REMARK SMILES IDX 39 45 93 46 87 47 89 48 40 49 92 50 86 51 85 52 41 54 73 55
REMARK SMILES IDX 53 56 72 57 54 58 57 59 71 60 90 61 55 62 56 63 70 65 91 66
REMARK SMILES IDX 58 67 42 68 43 69 51 70 44 71 50 72 52 73 49 74 45 75 46 76
REMARK SMILES IDX 47 77 48 78 74 79 75 80 83 81 76 82 82 83 84 84 81 85 77 86
REMARK SMILES IDX 78 87 79 88 80 89 59 90 60 91 68 92 61 93 67 94 69 95 66 96
REMARK SMILES IDX 62 97 63 98 64 99 65 100
REMARK H PARENT 25 5 30 34 89 53 57 64
REMARK Flexibility Score: inf
ROOT
ATOM      1  C   UNL     1      -3.537   0.053   0.978  1.00  0.00     0.116 C 
ENDROOT
BRANCH   1   2
ATOM      2  N   UNL     1      -3.432  -1.243   0.345  1.00  0.00    -0.356 N 
ATOM      3  C   UNL     1      -2.964  -1.618  -0.871  1.00  0.00     0.224 C 
ATOM      4  O   UNL     1      -2.832  -2.836  -1.052  1.00  0.00    -0.275 OA
ATOM      5  H   UNL     1      -3.760  -1.988   0.898  1.00  0.00     0.163 HD
BRANCH   3   6
ATOM      6  C   UNL     1      -2.607  -0.659  -2.016  1.00  0.00     0.098 C 
ATOM      7  N   UNL     1      -1.532   1.444  -1.220  1.00  0.00    -0.339 N 
ATOM      8  C   UNL     1      -2.538   2.282  -1.870  1.00  0.00     0.119 C 
ATOM      9  C   UNL     1      -1.314   0.139  -1.824  1.00  0.00     0.133 C 
ATOM     10  C   UNL     1      -3.881   1.588  -2.063  1.00  0.00     0.022 C 
ATOM     11  C   UNL     1      -3.775   0.156  -2.575  1.00  0.00     0.017 C 
BRANCH   7  12
ATOM     12  C   UNL     1      -0.834   1.961  -0.129  1.00  0.00     0.263 C 
ATOM     13  O   UNL     1      -1.361   2.811   0.599  1.00  0.00    -0.271 OA
BRANCH  12  14
ATOM     14  C   UNL     1       0.628   1.546   0.136  1.00  0.00     0.259 C 
ATOM     15  C   UNL     1       0.843   0.114   0.615  1.00  0.00     0.064 C 
BRANCH  14  16
ATOM     16  O   UNL     1       1.318   1.788  -1.099  1.00  0.00    -0.481 OA
BRANCH  16  17
ATOM     17  C   UNL     1       2.620   2.156  -0.919  1.00  0.00     0.120 A 
ATOM     18  C   UNL     1       2.973   3.484  -0.693  1.00  0.00     0.047 A 
ATOM     19  C   UNL     1       3.595   1.192  -1.134  1.00  0.00     0.047 A 
ATOM     20  C   UNL     1       4.325   3.853  -0.710  1.00  0.00     0.012 A 
ATOM     21  C   UNL     1       4.937   1.560  -1.141  1.00  0.00     0.012 A 
ATOM     22  C   UNL     1       5.327   2.900  -0.969  1.00  0.00    -0.018 A 
BRANCH  22  23
ATOM     23  C   UNL     1       6.740   3.276  -1.144  1.00  0.00    -0.018 A 
ATOM     24  C   UNL     1       7.446   4.010  -0.182  1.00  0.00     0.009 A 
ATOM     25  C   UNL     1       7.428   2.878  -2.307  1.00  0.00     0.009 A 
ATOM     26  C   UNL     1       8.799   4.315  -0.367  1.00  0.00     0.001 A 
ATOM     27  C   UNL     1       8.777   3.180  -2.493  1.00  0.00     0.001 A 
ATOM     28  C   UNL     1       9.464   3.896  -1.519  1.00  0.00     0.000 A 
ENDBRANCH  22  23
ENDBRANCH  16  17
ENDBRANCH  14  16
ENDBRANCH  12  14
ENDBRANCH   7  12
ENDBRANCH   3   6
ENDBRANCH   1   2
BRANCH   1  29
ATOM     29  C   UNL     1      -4.973   0.477   1.270  1.00  0.00     0.023 C 
BRANCH  29  30
ATOM     30  C   UNL     1      -5.419   0.265   2.713  1.00  0.00     0.023 C 
BRANCH  30  31
ATOM     31  C   UNL     1      -4.559   0.947   3.774  1.00  0.00     0.116 C 
BRANCH  31  32
ATOM     32  N   UNL     1      -4.401   2.382   3.596  1.00  0.00    -0.352 N 
ATOM     33  C   UNL     1      -4.359   3.362   4.571  1.00  0.00     0.251 C 
ATOM     34  H   UNL     1      -4.312   2.695   2.667  1.00  0.00     0.163 HD
ATOM     35  O   UNL     1      -4.323   4.541   4.268  1.00  0.00    -0.269 OA
BRANCH  33  36
ATOM     36  C   UNL     1      -4.409   2.948   5.993  1.00  0.00     0.039 A 
ATOM     37  C   UNL     1      -5.336   3.552   6.843  1.00  0.00     0.014 A 
ATOM     38  C   UNL     1      -3.589   1.917   6.460  1.00  0.00     0.014 A 
ATOM     39  C   UNL     1      -5.499   3.062   8.141  1.00  0.00     0.010 A 
ATOM     40  C   UNL     1      -3.817   1.373   7.719  1.00  0.00     0.010 A 
ATOM     41  C   UNL     1      -4.774   1.939   8.575  1.00  0.00    -0.014 A 
BRANCH  41  42
ATOM     42  C   UNL     1      -4.997   1.351   9.922  1.00  0.00     0.031 A 
ATOM     43  C   UNL     1      -3.874   1.319  10.924  1.00  0.00     0.074 A 
ATOM     44  C   UNL     1      -6.186   0.790  10.219  1.00  0.00     0.049 A 
ATOM     45  N   UNL     1      -3.852   0.809  12.129  1.00  0.00    -0.248 NA
ATOM     46  C   UNL     1      -2.594   1.903  10.497  1.00  0.00     0.031 C 
ATOM     47  C   UNL     1      -7.330   0.696   9.308  1.00  0.00     0.029 A 
ATOM     48  N   UNL     1      -6.633   0.190  11.370  1.00  0.00    -0.354 N 
ATOM     49  C   UNL     1      -2.554   0.996  12.595  1.00  0.00     0.074 A 
ATOM     50  C   UNL     1      -1.804   1.595  11.513  1.00  0.00     0.031 C 
ATOM     51  C   UNL     1      -8.355   0.108   9.946  1.00  0.00     0.029 A 
ATOM     52  C   UNL     1      -7.936  -0.248  11.297  1.00  0.00     0.049 A 
ATOM     53  H   UNL     1      -6.074   0.083  12.173  1.00  0.00     0.167 HD
ATOM     54  C   UNL     1      -2.043   0.723  13.822  1.00  0.00     0.034 A 
ATOM     55  C   UNL     1      -8.705  -0.864  12.217  1.00  0.00     0.034 A 
ATOM     56  C   UNL     1      -2.813   0.146  14.897  1.00  0.00     0.049 A 
ATOM     57  C   UNL     1      -8.124  -1.137  13.582  1.00  0.00     0.074 A 
ATOM     58  C   UNL     1      -2.418  -0.119  16.197  1.00  0.00     0.029 A 
ATOM     59  N   UNL     1      -4.139  -0.257  14.797  1.00  0.00    -0.354 N 
ATOM     60  N   UNL     1      -6.913  -0.894  14.029  1.00  0.00    -0.248 NA
ATOM     61  C   UNL     1      -9.021  -1.747  14.570  1.00  0.00     0.031 C 
ATOM     62  C   UNL     1      -3.485  -0.733  16.864  1.00  0.00     0.029 A 
ATOM     63  C   UNL     1      -4.570  -0.788  16.004  1.00  0.00     0.049 A 
ATOM     64  H   UNL     1      -4.693  -0.178  13.987  1.00  0.00     0.167 HD
ATOM     65  C   UNL     1      -6.914  -1.298  15.361  1.00  0.00     0.074 A 
ATOM     66  C   UNL     1      -8.252  -1.776  15.647  1.00  0.00     0.031 C 
ATOM     67  C   UNL     1      -5.904  -1.274  16.268  1.00  0.00     0.034 A 
BRANCH  54  68
ATOM     68  C   UNL     1      -0.582   1.035  14.047  1.00  0.00     0.023 A 
ATOM     69  C   UNL     1      -0.084   2.347  13.947  1.00  0.00     0.031 A 
ATOM     70  C   UNL     1       0.336   0.005  14.319  1.00  0.00     0.131 A 
ATOM     71  C   UNL     1       1.296   2.582  14.026  1.00  0.00     0.055 A 
ATOM     72  C   UNL     1       1.699   0.259  14.486  1.00  0.00     0.041 A 
ATOM     73  F   UNL     1      -0.074  -1.270  14.407  1.00  0.00    -0.206 F 
ATOM     74  C   UNL     1       2.190   1.551  14.321  1.00  0.00     0.022 A 
BRANCH  71  75
ATOM     75  S   UNL     1       1.920   4.227  13.582  1.00  0.00     0.124 S 
ATOM     76  O   UNL     1       1.457   4.353  12.201  1.00  0.00    -0.237 OA
ATOM     77  O   UNL     1       1.264   5.088  14.557  1.00  0.00    -0.237 OA
ATOM     78  O   UNL     1       3.368   4.097  13.736  1.00  0.00    -0.744 OA
ENDBRANCH  71  75
ENDBRANCH  54  68
BRANCH  55  79
ATOM     79  C   UNL     1     -10.107  -1.255  11.895  1.00  0.00     0.023 A 
ATOM     80  C   UNL     1     -11.194  -0.657  12.553  1.00  0.00     0.031 A 
ATOM     81  C   UNL     1     -10.380  -2.265  10.955  1.00  0.00     0.131 A 
ATOM     82  C   UNL     1     -12.500  -1.107  12.301  1.00  0.00     0.055 A 
ATOM     83  C   UNL     1     -11.684  -2.674  10.671  1.00  0.00     0.041 A 
ATOM     84  F   UNL     1      -9.378  -2.863  10.291  1.00  0.00    -0.206 F 
ATOM     85  C   UNL     1     -12.753  -2.103  11.356  1.00  0.00     0.022 A 
BRANCH  82  86
ATOM     86  S   UNL     1     -13.860  -0.424  13.288  1.00  0.00     0.124 S 
ATOM     87  O   UNL     1     -13.439  -0.754  14.644  1.00  0.00    -0.237 OA
ATOM     88  O   UNL     1     -13.815   0.990  12.928  1.00  0.00    -0.237 OA
ATOM     89  O   UNL     1     -15.031  -1.151  12.802  1.00  0.00    -0.744 OA
ENDBRANCH  82  86
ENDBRANCH  55  79
BRANCH  67  90
ATOM     90  C   UNL     1      -6.231  -1.746  17.664  1.00  0.00     0.023 A 
ATOM     91  C   UNL     1      -6.573  -3.084  17.930  1.00  0.00     0.031 A 
ATOM     92  C   UNL     1      -6.233  -0.837  18.736  1.00  0.00     0.131 A 
ATOM     93  C   UNL     1      -6.968  -3.460  19.223  1.00  0.00     0.055 A 
ATOM     94  C   UNL     1      -6.565  -1.231  20.033  1.00  0.00     0.041 A 
ATOM     95  F   UNL     1      -5.916   0.453  18.539  1.00  0.00    -0.206 F 
ATOM     96  C   UNL     1      -6.951  -2.546  20.279  1.00  0.00     0.022 A 
BRANCH  93  97
ATOM     97  S   UNL     1      -7.614  -5.136  19.481  1.00  0.00     0.124 S 
ATOM     98  O   UNL     1      -8.713  -5.189  18.522  1.00  0.00    -0.237 OA
ATOM     99  O   UNL     1      -6.455  -5.967  19.170  1.00  0.00    -0.237 OA
ATOM    100  O   UNL     1      -8.017  -5.135  20.886  1.00  0.00    -0.744 OA
ENDBRANCH  93  97
ENDBRANCH  67  90
ENDBRANCH  41  42
ENDBRANCH  33  36
ENDBRANCH  31  32
ENDBRANCH  30  31
ENDBRANCH  29  30
ENDBRANCH   1  29
TORSDOF 19
