REMARK SMILES C[C@@H]1CCCC[C@@H]1NC(=O)[C@@H](C)n1cc(C(=O)NCCCCNC(=O)c2ccc(-c3c4nc(c(-c5cc(S(=O)(=O)[O-])ccc5F)c5ccc([nH]5)c(-c5cc(S(=O)(=O)[O-])ccc5F)c5nc(c(-c6cc(S(=O)(=O)[O-])ccc6F)c6ccc3[nH]6)C=C5)C=C4)cc2)cn1
REMARK SMILES IDX 20 1 19 2 18 3 16 4 17 5 15 7 13 8 14 9 90 10 89 11 11 12
REMARK SMILES IDX 12 13 9 14 8 15 10 17 7 18 1 19 2 20 3 21 4 22 6 23 5 24
REMARK SMILES IDX 21 25 22 26 23 27 24 28 25 30 26 31 27 32 88 33 28 34 87 35
REMARK SMILES IDX 29 36 30 37 31 38 81 39 32 40 86 41 80 42 82 43 33 44 85 45
REMARK SMILES IDX 79 46 78 47 34 49 66 50 46 51 65 52 47 53 50 54 64 55 83 56
REMARK SMILES IDX 48 57 49 58 63 60 84 61 51 62 35 63 36 64 44 65 37 66 43 67
REMARK SMILES IDX 45 68 42 69 38 70 39 71 40 72 41 73 67 74 68 75 76 76 69 77
REMARK SMILES IDX 75 78 77 79 74 80 70 81 71 82 72 83 73 84 52 85 53 86 61 87
REMARK SMILES IDX 54 88 60 89 62 90 59 91 55 92 56 93 57 94 58 95
REMARK H PARENT 18 6 8 16 23 29 82 48 50 59
REMARK Flexibility Score: inf
ROOT
ATOM      1  C   UNL     1       3.738   1.443  -6.205  1.00  0.00     0.023 C 
ENDROOT
BRANCH   1   2
ATOM      2  C   UNL     1       4.593   1.414  -4.943  1.00  0.00     0.116 C 
BRANCH   2   3
ATOM      3  N   UNL     1       4.411   2.538  -4.051  1.00  0.00    -0.352 N 
ATOM      4  C   UNL     1       3.616   2.612  -2.937  1.00  0.00     0.254 C 
ATOM      5  O   UNL     1       3.487   3.682  -2.345  1.00  0.00    -0.269 OA
ATOM      6  H   UNL     1       4.922   3.350  -4.271  1.00  0.00     0.163 HD
BRANCH   4   7
ATOM      7  C   UNL     1       2.840   1.448  -2.589  1.00  0.00     0.077 A 
ATOM      8  N   UNL     1       2.086  -0.578  -2.144  1.00  0.00    -0.260 N 
ATOM      9  C   UNL     1       3.236   0.155  -2.293  1.00  0.00     0.123 A 
ATOM     10  N   UNL     1       0.981   0.166  -2.378  1.00  0.00    -0.180 NA
ATOM     11  C   UNL     1       1.442   1.407  -2.515  1.00  0.00     0.149 A 
BRANCH   8  12
ATOM     12  C   UNL     1       1.984  -2.033  -2.011  1.00  0.00     0.193 C 
ATOM     13  C   UNL     1       0.891  -2.648  -2.887  1.00  0.00     0.044 C 
BRANCH  12  14
ATOM     14  C   UNL     1       1.894  -2.561  -0.577  1.00  0.00     0.244 C 
ATOM     15  N   UNL     1       0.881  -2.251   0.288  1.00  0.00    -0.351 N 
ATOM     16  H   UNL     1       0.757  -2.869   1.044  1.00  0.00     0.163 HD
ATOM     17  O   UNL     1       2.699  -3.419  -0.192  1.00  0.00    -0.273 OA
BRANCH  15  18
ATOM     18  C   UNL     1      -0.036  -1.125   0.234  1.00  0.00     0.084 C 
ATOM     19  C   UNL     1       0.766  -0.109   2.462  1.00  0.00     0.010 C 
ATOM     20  C   UNL     1       0.539   0.111   0.959  1.00  0.00     0.008 C 
ATOM     21  C   UNL     1      -0.373   1.326   0.721  1.00  0.00     0.005 C 
ATOM     22  C   UNL     1      -1.853   1.047   1.002  1.00  0.00     0.000 C 
ATOM     23  C   UNL     1      -1.454  -1.444   0.705  1.00  0.00     0.025 C 
ATOM     24  C   UNL     1      -2.353  -0.250   0.365  1.00  0.00     0.002 C 
ENDBRANCH  15  18
ENDBRANCH  12  14
ENDBRANCH   8  12
ENDBRANCH   4   7
ENDBRANCH   2   3
ENDBRANCH   1   2
BRANCH   1  25
ATOM     25  C   UNL     1       4.040   2.541  -7.232  1.00  0.00     0.023 C 
BRANCH  25  26
ATOM     26  C   UNL     1       5.495   2.699  -7.675  1.00  0.00     0.116 C 
BRANCH  26  27
ATOM     27  N   UNL     1       6.099   1.482  -8.223  1.00  0.00    -0.352 N 
ATOM     28  C   UNL     1       7.450   1.209  -8.408  1.00  0.00     0.251 C 
ATOM     29  H   UNL     1       5.473   0.771  -8.492  1.00  0.00     0.163 HD
ATOM     30  O   UNL     1       7.811   0.370  -9.225  1.00  0.00    -0.269 OA
BRANCH  28  31
ATOM     31  C   UNL     1       8.435   1.927  -7.575  1.00  0.00     0.039 A 
ATOM     32  C   UNL     1       9.625   2.464  -8.057  1.00  0.00     0.014 A 
ATOM     33  C   UNL     1       8.103   2.079  -6.239  1.00  0.00     0.014 A 
ATOM     34  C   UNL     1      10.403   3.243  -7.193  1.00  0.00     0.010 A 
ATOM     35  C   UNL     1       8.748   2.987  -5.449  1.00  0.00     0.010 A 
ATOM     36  C   UNL     1       9.942   3.522  -5.893  1.00  0.00    -0.014 A 
BRANCH  36  37
ATOM     37  C   UNL     1      10.619   4.462  -5.006  1.00  0.00     0.031 A 
ATOM     38  C   UNL     1      10.811   5.814  -5.590  1.00  0.00     0.074 A 
ATOM     39  C   UNL     1      10.809   4.235  -3.686  1.00  0.00     0.049 A 
ATOM     40  N   UNL     1      11.914   6.350  -5.992  1.00  0.00    -0.248 NA
ATOM     41  C   UNL     1       9.615   6.604  -5.928  1.00  0.00     0.031 C 
ATOM     42  C   UNL     1      10.353   3.095  -2.879  1.00  0.00     0.029 A 
ATOM     43  N   UNL     1      11.359   5.052  -2.748  1.00  0.00    -0.354 N 
ATOM     44  C   UNL     1      11.588   7.644  -6.385  1.00  0.00     0.074 A 
ATOM     45  C   UNL     1      10.160   7.651  -6.551  1.00  0.00     0.031 C 
ATOM     46  C   UNL     1      10.433   3.401  -1.565  1.00  0.00     0.029 A 
ATOM     47  C   UNL     1      11.121   4.671  -1.429  1.00  0.00     0.049 A 
ATOM     48  H   UNL     1      11.885   5.850  -2.983  1.00  0.00     0.167 HD
ATOM     49  C   UNL     1      12.494   8.658  -6.281  1.00  0.00     0.034 A 
ATOM     50  C   UNL     1      11.454   5.352  -0.299  1.00  0.00     0.034 A 
ATOM     51  C   UNL     1      13.826   8.130  -6.064  1.00  0.00     0.049 A 
ATOM     52  C   UNL     1      12.539   6.291  -0.678  1.00  0.00     0.074 A 
ATOM     53  C   UNL     1      14.645   7.256  -6.756  1.00  0.00     0.029 A 
ATOM     54  N   UNL     1      14.335   8.166  -4.783  1.00  0.00    -0.354 N 
ATOM     55  N   UNL     1      13.714   5.895  -1.088  1.00  0.00    -0.248 NA
ATOM     56  C   UNL     1      12.164   7.635  -1.090  1.00  0.00     0.031 C 
ATOM     57  C   UNL     1      15.239   6.439  -5.748  1.00  0.00     0.029 A 
ATOM     58  C   UNL     1      14.833   6.917  -4.500  1.00  0.00     0.049 A 
ATOM     59  H   UNL     1      14.341   8.945  -4.181  1.00  0.00     0.167 HD
ATOM     60  C   UNL     1      14.027   6.732  -2.149  1.00  0.00     0.074 A 
ATOM     61  C   UNL     1      13.085   7.845  -2.037  1.00  0.00     0.031 C 
ATOM     62  C   UNL     1      14.820   6.309  -3.179  1.00  0.00     0.034 A 
BRANCH  49  63
ATOM     63  C   UNL     1      12.157  10.109  -5.995  1.00  0.00     0.023 A 
ATOM     64  C   UNL     1      13.239  11.005  -5.889  1.00  0.00     0.031 A 
ATOM     65  C   UNL     1      10.911  10.606  -5.551  1.00  0.00     0.131 A 
ATOM     66  C   UNL     1      13.089  12.256  -5.264  1.00  0.00     0.055 A 
ATOM     67  C   UNL     1      10.752  11.879  -4.993  1.00  0.00     0.041 A 
ATOM     68  F   UNL     1       9.793   9.873  -5.544  1.00  0.00    -0.206 F 
ATOM     69  C   UNL     1      11.851  12.699  -4.812  1.00  0.00     0.022 A 
BRANCH  66  70
ATOM     70  S   UNL     1      14.582  13.207  -4.883  1.00  0.00     0.124 S 
ATOM     71  O   UNL     1      15.375  12.224  -4.153  1.00  0.00    -0.237 OA
ATOM     72  O   UNL     1      15.059  13.561  -6.215  1.00  0.00    -0.237 OA
ATOM     73  O   UNL     1      14.077  14.320  -4.083  1.00  0.00    -0.744 OA
ENDBRANCH  66  70
ENDBRANCH  49  63
BRANCH  50  74
ATOM     74  C   UNL     1      10.652   5.463   0.951  1.00  0.00     0.023 A 
ATOM     75  C   UNL     1      11.206   5.786   2.208  1.00  0.00     0.031 A 
ATOM     76  C   UNL     1       9.240   5.476   0.859  1.00  0.00     0.131 A 
ATOM     77  C   UNL     1      10.359   6.101   3.300  1.00  0.00     0.055 A 
ATOM     78  C   UNL     1       8.411   5.787   1.938  1.00  0.00     0.041 A 
ATOM     79  F   UNL     1       8.623   5.264  -0.315  1.00  0.00    -0.206 F 
ATOM     80  C   UNL     1       8.968   6.109   3.164  1.00  0.00     0.022 A 
BRANCH  77  81
ATOM     81  S   UNL     1      11.062   6.580   4.915  1.00  0.00     0.124 S 
ATOM     82  O   UNL     1      11.768   5.371   5.321  1.00  0.00    -0.237 OA
ATOM     83  O   UNL     1      11.889   7.729   4.566  1.00  0.00    -0.237 OA
ATOM     84  O   UNL     1       9.883   6.899   5.722  1.00  0.00    -0.744 OA
ENDBRANCH  77  81
ENDBRANCH  50  74
BRANCH  62  85
ATOM     85  C   UNL     1      15.593   5.011  -3.016  1.00  0.00     0.023 A 
ATOM     86  C   UNL     1      15.018   3.743  -2.763  1.00  0.00     0.031 A 
ATOM     87  C   UNL     1      16.978   5.058  -3.258  1.00  0.00     0.131 A 
ATOM     88  C   UNL     1      15.830   2.589  -2.753  1.00  0.00     0.055 A 
ATOM     89  C   UNL     1      17.773   3.913  -3.268  1.00  0.00     0.041 A 
ATOM     90  F   UNL     1      17.582   6.228  -3.530  1.00  0.00    -0.206 F 
ATOM     91  C   UNL     1      17.202   2.673  -3.011  1.00  0.00     0.022 A 
BRANCH  88  92
ATOM     92  S   UNL     1      15.122   0.947  -2.389  1.00  0.00     0.124 S 
ATOM     93  O   UNL     1      14.318   1.178  -1.195  1.00  0.00    -0.237 OA
ATOM     94  O   UNL     1      14.382   0.643  -3.610  1.00  0.00    -0.237 OA
ATOM     95  O   UNL     1      16.303   0.108  -2.172  1.00  0.00    -0.744 OA
ENDBRANCH  88  92
ENDBRANCH  62  85
ENDBRANCH  36  37
ENDBRANCH  28  31
ENDBRANCH  26  27
ENDBRANCH  25  26
ENDBRANCH   1  25
TORSDOF 17
