REMARK SMILES O=C(NCCCCNC(=O)c1cccc(-c2ccc(/C=N\O)o2)c1)c1ccc(-c2c3nc(c(-c4cc(S(=O)(=O)[O-])ccc4F)c4ccc([nH]4)c(-c4cc(S(=O)(=O)[O-])ccc4F)c4nc(c(-c5cc(S(=O)(=O)[O-])ccc5F)c5ccc2[nH]5)C=C4)C=C3)cc1
REMARK SMILES IDX 5 1 4 2 3 3 1 4 2 5 25 7 26 8 87 9 27 10 86 11 28 12 29 13
REMARK SMILES IDX 30 14 80 15 31 16 85 17 79 18 81 19 32 20 84 21 78 22 77 23
REMARK SMILES IDX 33 25 65 26 45 27 64 28 46 29 49 30 63 31 82 32 47 33 48 34
REMARK SMILES IDX 62 36 83 37 50 38 34 39 35 40 43 41 36 42 42 43 44 44 41 45
REMARK SMILES IDX 37 46 38 47 39 48 40 49 66 50 67 51 75 52 68 53 74 54 76 55
REMARK SMILES IDX 73 56 69 57 70 58 71 59 72 60 51 61 52 62 60 63 53 64 59 65
REMARK SMILES IDX 61 66 58 67 54 68 55 69 56 70 57 71 6 72 7 73 8 74 9 75
REMARK SMILES IDX 10 77 11 78 12 79 24 80 13 81 15 82 14 83 16 84 17 85 23 86
REMARK SMILES IDX 18 87 19 88 20 89 21 90 22 91
REMARK H PARENT 3 6 81 24 49 35 8 76 22 92
REMARK Flexibility Score: inf
ROOT
ATOM      1  C   UNL     1       4.927  -1.476  -2.148  1.00  0.00     0.023 C 
ENDROOT
BRANCH   1   2
ATOM      2  C   UNL     1       4.568  -0.292  -1.263  1.00  0.00     0.116 C 
BRANCH   2   3
ATOM      3  N   UNL     1       3.131  -0.098  -1.121  1.00  0.00    -0.352 N 
ATOM      4  O   UNL     1       1.144  -0.038  -0.050  1.00  0.00    -0.269 OA
ATOM      5  C   UNL     1       2.368  -0.076   0.025  1.00  0.00     0.251 C 
ATOM      6  H   UNL     1       2.636   0.035  -1.962  1.00  0.00     0.163 HD
BRANCH   5   7
ATOM      7  C   UNL     1       3.037  -0.124   1.343  1.00  0.00     0.039 A 
ATOM      8  C   UNL     1       4.149   0.681   1.596  1.00  0.00     0.014 A 
ATOM      9  C   UNL     1       2.566  -1.001   2.324  1.00  0.00     0.014 A 
ATOM     10  C   UNL     1       4.888   0.488   2.755  1.00  0.00     0.010 A 
ATOM     11  C   UNL     1       3.253  -1.113   3.538  1.00  0.00     0.010 A 
ATOM     12  C   UNL     1       4.438  -0.392   3.752  1.00  0.00    -0.014 A 
BRANCH  12  13
ATOM     13  C   UNL     1       5.191  -0.481   5.030  1.00  0.00     0.031 A 
ATOM     14  C   UNL     1       5.839  -1.765   5.471  1.00  0.00     0.074 A 
ATOM     15  C   UNL     1       5.312   0.632   5.781  1.00  0.00     0.049 A 
ATOM     16  N   UNL     1       6.528  -2.009   6.557  1.00  0.00    -0.248 NA
ATOM     17  C   UNL     1       5.689  -2.927   4.584  1.00  0.00     0.031 C 
ATOM     18  C   UNL     1       4.728   1.935   5.448  1.00  0.00     0.029 A 
ATOM     19  N   UNL     1       5.975   0.860   6.959  1.00  0.00    -0.354 N 
ATOM     20  C   UNL     1       6.886  -3.351   6.494  1.00  0.00     0.074 A 
ATOM     21  C   UNL     1       6.300  -3.878   5.277  1.00  0.00     0.031 C 
ATOM     22  C   UNL     1       5.100   2.834   6.369  1.00  0.00     0.029 A 
ATOM     23  C   UNL     1       5.871   2.158   7.404  1.00  0.00     0.049 A 
ATOM     24  H   UNL     1       6.476   0.163   7.440  1.00  0.00     0.167 HD
ATOM     25  C   UNL     1       7.639  -4.070   7.365  1.00  0.00     0.034 A 
ATOM     26  C   UNL     1       6.316   2.737   8.535  1.00  0.00     0.034 A 
ATOM     27  C   UNL     1       8.206  -3.524   8.577  1.00  0.00     0.049 A 
ATOM     28  C   UNL     1       7.085   1.898   9.519  1.00  0.00     0.074 A 
ATOM     29  C   UNL     1       9.000  -4.158   9.519  1.00  0.00     0.029 A 
ATOM     30  N   UNL     1       8.031  -2.220   9.026  1.00  0.00    -0.354 N 
ATOM     31  N   UNL     1       7.425   0.632   9.436  1.00  0.00    -0.248 NA
ATOM     32  C   UNL     1       7.533   2.565  10.746  1.00  0.00     0.031 C 
ATOM     33  C   UNL     1       9.235  -3.266  10.571  1.00  0.00     0.029 A 
ATOM     34  C   UNL     1       8.669  -2.044  10.246  1.00  0.00     0.049 A 
ATOM     35  H   UNL     1       7.528  -1.522   8.547  1.00  0.00     0.167 HD
ATOM     36  C   UNL     1       8.152   0.360  10.590  1.00  0.00     0.074 A 
ATOM     37  C   UNL     1       8.219   1.599  11.339  1.00  0.00     0.031 C 
ATOM     38  C   UNL     1       8.716  -0.807  10.993  1.00  0.00     0.034 A 
BRANCH  25  39
ATOM     39  C   UNL     1       7.853  -5.537   7.063  1.00  0.00     0.023 A 
ATOM     40  C   UNL     1       8.539  -5.966   5.913  1.00  0.00     0.031 A 
ATOM     41  C   UNL     1       7.354  -6.523   7.934  1.00  0.00     0.131 A 
ATOM     42  C   UNL     1       8.647  -7.337   5.631  1.00  0.00     0.055 A 
ATOM     43  C   UNL     1       7.538  -7.886   7.690  1.00  0.00     0.041 A 
ATOM     44  F   UNL     1       6.671  -6.179   9.037  1.00  0.00    -0.206 F 
ATOM     45  C   UNL     1       8.175  -8.300   6.525  1.00  0.00     0.022 A 
BRANCH  42  46
ATOM     46  S   UNL     1       9.281  -7.840   4.007  1.00  0.00     0.124 S 
ATOM     47  O   UNL     1       8.357  -7.159   3.104  1.00  0.00    -0.237 OA
ATOM     48  O   UNL     1      10.646  -7.327   4.029  1.00  0.00    -0.237 OA
ATOM     49  O   UNL     1       9.160  -9.296   4.027  1.00  0.00    -0.744 OA
ENDBRANCH  42  46
ENDBRANCH  25  39
BRANCH  26  50
ATOM     50  C   UNL     1       6.008   4.168   8.818  1.00  0.00     0.023 A 
ATOM     51  C   UNL     1       7.032   5.114   8.966  1.00  0.00     0.031 A 
ATOM     52  C   UNL     1       4.679   4.603   8.983  1.00  0.00     0.131 A 
ATOM     53  C   UNL     1       6.716   6.435   9.321  1.00  0.00     0.055 A 
ATOM     54  C   UNL     1       4.367   5.932   9.268  1.00  0.00     0.041 A 
ATOM     55  F   UNL     1       3.660   3.739   8.852  1.00  0.00    -0.206 F 
ATOM     56  C   UNL     1       5.390   6.854   9.455  1.00  0.00     0.022 A 
BRANCH  53  57
ATOM     57  S   UNL     1       8.072   7.575   9.708  1.00  0.00     0.124 S 
ATOM     58  O   UNL     1       8.761   6.862  10.777  1.00  0.00    -0.237 OA
ATOM     59  O   UNL     1       8.775   7.653   8.432  1.00  0.00    -0.237 OA
ATOM     60  O   UNL     1       7.382   8.797  10.114  1.00  0.00    -0.744 OA
ENDBRANCH  53  57
ENDBRANCH  26  50
BRANCH  38  61
ATOM     61  C   UNL     1       9.497  -0.777  12.286  1.00  0.00     0.023 A 
ATOM     62  C   UNL     1       8.877  -0.523  13.522  1.00  0.00     0.031 A 
ATOM     63  C   UNL     1      10.888  -0.980  12.275  1.00  0.00     0.131 A 
ATOM     64  C   UNL     1       9.654  -0.416  14.685  1.00  0.00     0.055 A 
ATOM     65  C   UNL     1      11.647  -0.942  13.446  1.00  0.00     0.041 A 
ATOM     66  F   UNL     1      11.536  -1.218  11.123  1.00  0.00    -0.206 F 
ATOM     67  C   UNL     1      11.032  -0.643  14.658  1.00  0.00     0.022 A 
BRANCH  64  68
ATOM     68  S   UNL     1       8.856   0.135  16.218  1.00  0.00     0.124 S 
ATOM     69  O   UNL     1       8.310   1.431  15.827  1.00  0.00    -0.237 OA
ATOM     70  O   UNL     1       7.879  -0.921  16.459  1.00  0.00    -0.237 OA
ATOM     71  O   UNL     1       9.958   0.191  17.178  1.00  0.00    -0.744 OA
ENDBRANCH  64  68
ENDBRANCH  38  61
ENDBRANCH  12  13
ENDBRANCH   5   7
ENDBRANCH   2   3
ENDBRANCH   1   2
BRANCH   1  72
ATOM     72  C   UNL     1       4.465  -1.361  -3.597  1.00  0.00     0.023 C 
BRANCH  72  73
ATOM     73  C   UNL     1       4.903  -0.089  -4.316  1.00  0.00     0.116 C 
BRANCH  73  74
ATOM     74  N   UNL     1       6.351   0.032  -4.415  1.00  0.00    -0.352 N 
ATOM     75  C   UNL     1       7.128   0.176  -5.538  1.00  0.00     0.251 C 
ATOM     76  H   UNL     1       6.839   0.007  -3.560  1.00  0.00     0.163 HD
ATOM     77  O   UNL     1       8.352   0.120  -5.475  1.00  0.00    -0.269 OA
BRANCH  75  78
ATOM     78  C   UNL     1       6.476   0.392  -6.843  1.00  0.00     0.040 A 
ATOM     79  C   UNL     1       6.781  -0.451  -7.911  1.00  0.00     0.014 A 
ATOM     80  C   UNL     1       5.548   1.426  -6.996  1.00  0.00     0.025 A 
ATOM     81  C   UNL     1       6.089  -0.307  -9.114  1.00  0.00     0.002 A 
ATOM     82  C   UNL     1       4.829   1.555  -8.187  1.00  0.00     0.018 A 
ATOM     83  C   UNL     1       5.099   0.675  -9.242  1.00  0.00     0.012 A 
BRANCH  82  84
ATOM     84  C   UNL     1       3.814   2.588  -8.283  1.00  0.00     0.134 A 
ATOM     85  C   UNL     1       3.790   3.921  -7.933  1.00  0.00     0.051 A 
ATOM     86  O   UNL     1       2.582   2.197  -8.717  1.00  0.00    -0.455 OA
ATOM     87  C   UNL     1       2.468   4.367  -8.155  1.00  0.00     0.053 A 
ATOM     88  C   UNL     1       1.746   3.278  -8.613  1.00  0.00     0.149 A 
BRANCH  88  89
ATOM     89  C   UNL     1       0.344   3.192  -8.942  1.00  0.00     0.200 C 
ATOM     90  N   UNL     1      -0.384   2.170  -9.293  1.00  0.00    -0.094 NA
BRANCH  90  91
ATOM     91  O   UNL     1       0.340   0.977  -9.342  1.00  0.00    -0.411 OA
ATOM     92  H   UNL     1      -0.088   0.179  -9.583  1.00  0.00     0.330 HD
ENDBRANCH  90  91
ENDBRANCH  88  89
ENDBRANCH  82  84
ENDBRANCH  75  78
ENDBRANCH  73  74
ENDBRANCH  72  73
ENDBRANCH   1  72
TORSDOF 17
