REMARK SMILES CC1(C)CCN(c2ncccc2C(=O)NCCCCNC(=O)c2ccc(-c3c4nc(c(-c5cc(S(=O)(=O)[O-])ccc5F)c5ccc([nH]5)c(-c5cc(S(=O)(=O)[O-])ccc5F)c5nc(c(-c6cc(S(=O)(=O)[O-])ccc6F)c6ccc3[nH]6)C=C5)C=C4)cc2)C1
REMARK SMILES IDX 18 1 17 2 16 3 15 4 13 5 14 6 12 8 7 9 8 10 9 11 11 12 10 13
REMARK SMILES IDX 6 14 1 15 2 16 3 17 4 18 86 19 5 20 19 21 20 22 21 23 22 25
REMARK SMILES IDX 23 26 24 27 85 28 25 29 84 30 26 31 27 32 28 33 78 34 29 35
REMARK SMILES IDX 83 36 77 37 79 38 30 39 82 40 76 41 75 42 31 44 63 45 43 46
REMARK SMILES IDX 62 47 44 48 47 49 61 50 80 51 45 52 46 53 60 55 81 56 48 57
REMARK SMILES IDX 32 58 33 59 41 60 34 61 40 62 42 63 39 64 35 65 36 66 37 67
REMARK SMILES IDX 38 68 64 69 65 70 73 71 66 72 72 73 74 74 71 75 67 76 68 77
REMARK SMILES IDX 69 78 70 79 49 80 50 81 58 82 51 83 57 84 59 85 56 86 52 87
REMARK SMILES IDX 53 88 54 89 55 90
REMARK H PARENT 15 7 20 24 79 43 47 54
REMARK Flexibility Score: inf
ROOT
ATOM      1  C   UNL     1       3.164   6.508   3.595  1.00  0.00     0.023 C 
ENDROOT
BRANCH   1   2
ATOM      2  C   UNL     1       3.860   5.917   2.360  1.00  0.00     0.023 C 
BRANCH   2   3
ATOM      3  C   UNL     1       4.422   4.510   2.570  1.00  0.00     0.116 C 
BRANCH   3   4
ATOM      4  N   UNL     1       3.348   3.549   2.686  1.00  0.00    -0.352 N 
ATOM      5  C   UNL     1       2.693   2.692   1.836  1.00  0.00     0.255 C 
ATOM      6  O   UNL     1       1.810   2.049   2.403  1.00  0.00    -0.269 OA
ATOM      7  H   UNL     1       2.999   3.495   3.605  1.00  0.00     0.163 HD
BRANCH   5   8
ATOM      8  C   UNL     1       3.026   2.493   0.378  1.00  0.00     0.082 A 
ATOM      9  C   UNL     1       2.568   1.352  -0.322  1.00  0.00     0.141 A 
ATOM     10  N   UNL     1       3.046   1.036  -1.561  1.00  0.00    -0.238 NA
ATOM     11  C   UNL     1       3.905   1.875  -2.166  1.00  0.00     0.113 A 
ATOM     12  C   UNL     1       3.846   3.380  -0.335  1.00  0.00     0.019 A 
ATOM     13  C   UNL     1       4.305   3.068  -1.612  1.00  0.00     0.021 A 
BRANCH   9  14
ATOM     14  N   UNL     1       1.549   0.542   0.123  1.00  0.00    -0.355 N 
ATOM     15  C   UNL     1      -1.091  -0.181  -1.619  1.00  0.00     0.013 C 
ATOM     16  C   UNL     1      -0.732  -0.112  -0.126  1.00  0.00    -0.016 C 
ATOM     17  C   UNL     1      -2.019  -0.042   0.701  1.00  0.00     0.013 C 
ATOM     18  C   UNL     1       0.144  -1.304   0.292  1.00  0.00     0.030 C 
ATOM     19  C   UNL     1       0.191   1.095   0.161  1.00  0.00     0.124 C 
ATOM     20  C   UNL     1       1.547  -0.884  -0.145  1.00  0.00     0.119 C 
ENDBRANCH   9  14
ENDBRANCH   5   8
ENDBRANCH   3   4
ENDBRANCH   2   3
ENDBRANCH   1   2
BRANCH   1  21
ATOM     21  C   UNL     1       4.015   6.566   4.861  1.00  0.00     0.116 C 
BRANCH  21  22
ATOM     22  N   UNL     1       5.289   7.237   4.661  1.00  0.00    -0.352 N 
ATOM     23  C   UNL     1       6.017   7.988   5.553  1.00  0.00     0.251 C 
ATOM     24  H   UNL     1       5.683   7.141   3.764  1.00  0.00     0.163 HD
ATOM     25  O   UNL     1       7.022   8.575   5.176  1.00  0.00    -0.269 OA
BRANCH  23  26
ATOM     26  C   UNL     1       5.549   8.111   6.950  1.00  0.00     0.039 A 
ATOM     27  C   UNL     1       5.463   9.384   7.517  1.00  0.00     0.014 A 
ATOM     28  C   UNL     1       5.175   6.982   7.684  1.00  0.00     0.014 A 
ATOM     29  C   UNL     1       4.937   9.532   8.802  1.00  0.00     0.010 A 
ATOM     30  C   UNL     1       4.596   7.138   8.941  1.00  0.00     0.010 A 
ATOM     31  C   UNL     1       4.467   8.414   9.509  1.00  0.00    -0.014 A 
BRANCH  31  32
ATOM     32  C   UNL     1       3.833   8.562  10.845  1.00  0.00     0.031 A 
ATOM     33  C   UNL     1       4.493   7.974  12.060  1.00  0.00     0.074 A 
ATOM     34  C   UNL     1       2.635   9.169  10.948  1.00  0.00     0.049 A 
ATOM     35  N   UNL     1       4.067   7.932  13.296  1.00  0.00    -0.248 NA
ATOM     36  C   UNL     1       5.792   7.320  11.848  1.00  0.00     0.031 C 
ATOM     37  C   UNL     1       1.880   9.743   9.832  1.00  0.00     0.029 A 
ATOM     38  N   UNL     1       1.838   9.399  12.040  1.00  0.00    -0.354 N 
ATOM     39  C   UNL     1       5.040   7.239  14.009  1.00  0.00     0.074 A 
ATOM     40  C   UNL     1       6.043   6.824  13.050  1.00  0.00     0.031 C 
ATOM     41  C   UNL     1       0.742  10.279  10.301  1.00  0.00     0.029 A 
ATOM     42  C   UNL     1       0.664  10.052  11.741  1.00  0.00     0.049 A 
ATOM     43  H   UNL     1       2.082   9.122  12.953  1.00  0.00     0.167 HD
ATOM     44  C   UNL     1       5.102   6.993  15.342  1.00  0.00     0.034 A 
ATOM     45  C   UNL     1      -0.360  10.417  12.535  1.00  0.00     0.034 A 
ATOM     46  C   UNL     1       4.093   7.418  16.283  1.00  0.00     0.049 A 
ATOM     47  C   UNL     1      -0.283  10.111  14.009  1.00  0.00     0.074 A 
ATOM     48  C   UNL     1       4.073   7.263  17.658  1.00  0.00     0.029 A 
ATOM     49  N   UNL     1       2.918   8.078  15.943  1.00  0.00    -0.354 N 
ATOM     50  N   UNL     1       0.664   9.493  14.676  1.00  0.00    -0.248 NA
ATOM     51  C   UNL     1      -1.409  10.561  14.836  1.00  0.00     0.031 C 
ATOM     52  C   UNL     1       2.863   7.773  18.142  1.00  0.00     0.029 A 
ATOM     53  C   UNL     1       2.156   8.312  17.078  1.00  0.00     0.049 A 
ATOM     54  H   UNL     1       2.663   8.341  15.030  1.00  0.00     0.167 HD
ATOM     55  C   UNL     1       0.261   9.509  16.008  1.00  0.00     0.074 A 
ATOM     56  C   UNL     1      -1.008  10.208  16.049  1.00  0.00     0.031 C 
ATOM     57  C   UNL     1       0.885   8.998  17.100  1.00  0.00     0.034 A 
BRANCH  44  58
ATOM     58  C   UNL     1       6.291   6.206  15.842  1.00  0.00     0.023 A 
ATOM     59  C   UNL     1       7.604   6.690  15.702  1.00  0.00     0.031 A 
ATOM     60  C   UNL     1       6.118   4.938  16.422  1.00  0.00     0.131 A 
ATOM     61  C   UNL     1       8.693   5.877  16.050  1.00  0.00     0.055 A 
ATOM     62  C   UNL     1       7.204   4.168  16.849  1.00  0.00     0.041 A 
ATOM     63  F   UNL     1       4.891   4.412  16.566  1.00  0.00    -0.206 F 
ATOM     64  C   UNL     1       8.502   4.629  16.646  1.00  0.00     0.022 A 
BRANCH  61  65
ATOM     65  S   UNL     1      10.358   6.407  15.562  1.00  0.00     0.124 S 
ATOM     66  O   UNL     1      10.218   6.518  14.112  1.00  0.00    -0.237 OA
ATOM     67  O   UNL     1      10.515   7.662  16.287  1.00  0.00    -0.237 OA
ATOM     68  O   UNL     1      11.213   5.312  16.015  1.00  0.00    -0.744 OA
ENDBRANCH  61  65
ENDBRANCH  44  58
BRANCH  45  69
ATOM     69  C   UNL     1      -1.547  11.113  11.963  1.00  0.00     0.023 A 
ATOM     70  C   UNL     1      -1.839  12.442  12.310  1.00  0.00     0.031 A 
ATOM     71  C   UNL     1      -2.425  10.450  11.088  1.00  0.00     0.131 A 
ATOM     72  C   UNL     1      -3.004  13.053  11.820  1.00  0.00     0.055 A 
ATOM     73  C   UNL     1      -3.557  11.078  10.565  1.00  0.00     0.041 A 
ATOM     74  F   UNL     1      -2.187   9.182  10.719  1.00  0.00    -0.206 F 
ATOM     75  C   UNL     1      -3.858  12.384  10.941  1.00  0.00     0.022 A 
BRANCH  72  76
ATOM     76  S   UNL     1      -3.424  14.716  12.408  1.00  0.00     0.124 S 
ATOM     77  O   UNL     1      -3.519  14.508  13.848  1.00  0.00    -0.237 OA
ATOM     78  O   UNL     1      -2.282  15.498  11.946  1.00  0.00    -0.237 OA
ATOM     79  O   UNL     1      -4.688  15.006  11.733  1.00  0.00    -0.744 OA
ENDBRANCH  72  76
ENDBRANCH  45  69
BRANCH  57  80
ATOM     80  C   UNL     1       0.217   9.223  18.434  1.00  0.00     0.023 A 
ATOM     81  C   UNL     1      -1.005   8.610  18.763  1.00  0.00     0.031 A 
ATOM     82  C   UNL     1       0.805  10.079  19.382  1.00  0.00     0.131 A 
ATOM     83  C   UNL     1      -1.627   8.905  19.985  1.00  0.00     0.055 A 
ATOM     84  C   UNL     1       0.210  10.323  20.621  1.00  0.00     0.041 A 
ATOM     85  F   UNL     1       1.970  10.692  19.119  1.00  0.00    -0.206 F 
ATOM     86  C   UNL     1      -1.020   9.745  20.922  1.00  0.00     0.022 A 
BRANCH  83  87
ATOM     87  S   UNL     1      -3.288   8.245  20.299  1.00  0.00     0.124 S 
ATOM     88  O   UNL     1      -4.051   8.801  19.186  1.00  0.00    -0.237 OA
ATOM     89  O   UNL     1      -3.064   6.804  20.262  1.00  0.00    -0.237 OA
ATOM     90  O   UNL     1      -3.628   8.785  21.615  1.00  0.00    -0.744 OA
ENDBRANCH  83  87
ENDBRANCH  57  80
ENDBRANCH  31  32
ENDBRANCH  23  26
ENDBRANCH  21  22
ENDBRANCH   1  21
TORSDOF 15
