REMARK SMILES O=C(NCCCCNC(=O)[C@H]1CC=CC[C@@H]1C(=O)Nc1ccccc1C(=O)NCc1ccco1)c1ccc(-c2c3nc(c(-c4cc(S(=O)(=O)[O-])ccc4F)c4ccc([nH]4)c(-c4cc(S(=O)(=O)[O-])ccc4F)c4nc(c(-c5cc(S(=O)(=O)[O-])ccc5F)c5ccc2[nH]5)C=C4)C=C3)cc1
REMARK SMILES IDX 6 1 5 2 4 3 3 4 1 5 2 6 35 8 36 9 97 10 37 11 96 12 38 13
REMARK SMILES IDX 39 14 40 15 90 16 41 17 95 18 89 19 91 20 42 21 94 22 88 23
REMARK SMILES IDX 87 24 43 26 75 27 55 28 74 29 56 30 59 31 73 32 92 33 57 34
REMARK SMILES IDX 58 35 72 37 93 38 60 39 44 40 45 41 53 42 46 43 52 44 54 45
REMARK SMILES IDX 51 46 47 47 48 48 49 49 50 50 76 51 77 52 85 53 78 54 84 55
REMARK SMILES IDX 86 56 83 57 79 58 80 59 81 60 82 61 61 62 62 63 70 64 63 65
REMARK SMILES IDX 69 66 71 67 68 68 64 69 65 70 66 71 67 72 7 73 8 74 9 75
REMARK SMILES IDX 10 77 11 78 12 79 16 80 13 81 15 82 14 83 17 84 18 85 19 86
REMARK SMILES IDX 20 88 21 89 25 90 22 91 24 92 23 93 26 94 27 95 28 96 29 98
REMARK SMILES IDX 30 99 31 100 34 101 32 102 33 103
REMARK H PARENT 3 7 91 25 59 36 8 76 19 87 28 97
REMARK Flexibility Score: inf
ROOT
ATOM      1  C   UNL     1       5.281   1.816   2.801  1.00  0.00     0.023 C 
ENDROOT
BRANCH   1   2
ATOM      2  C   UNL     1       5.477   1.838   1.293  1.00  0.00     0.023 C 
BRANCH   2   3
ATOM      3  C   UNL     1       4.773   0.726   0.532  1.00  0.00     0.116 C 
BRANCH   3   4
ATOM      4  N   UNL     1       3.336   0.611   0.767  1.00  0.00    -0.352 N 
ATOM      5  O   UNL     1       1.201   0.109   0.160  1.00  0.00    -0.269 OA
ATOM      6  C   UNL     1       2.387   0.155  -0.130  1.00  0.00     0.251 C 
ATOM      7  H   UNL     1       3.010   0.886   1.655  1.00  0.00     0.163 HD
BRANCH   6   8
ATOM      8  C   UNL     1       2.862  -0.230  -1.476  1.00  0.00     0.039 A 
ATOM      9  C   UNL     1       3.905  -1.151  -1.586  1.00  0.00     0.014 A 
ATOM     10  C   UNL     1       2.405   0.475  -2.591  1.00  0.00     0.014 A 
ATOM     11  C   UNL     1       4.623  -1.214  -2.770  1.00  0.00     0.010 A 
ATOM     12  C   UNL     1       3.064   0.320  -3.813  1.00  0.00     0.010 A 
ATOM     13  C   UNL     1       4.210  -0.487  -3.900  1.00  0.00    -0.014 A 
BRANCH  13  14
ATOM     14  C   UNL     1       4.982  -0.620  -5.162  1.00  0.00     0.031 A 
ATOM     15  C   UNL     1       5.684   0.558  -5.783  1.00  0.00     0.074 A 
ATOM     16  C   UNL     1       5.086  -1.844  -5.715  1.00  0.00     0.049 A 
ATOM     17  N   UNL     1       6.375   0.613  -6.894  1.00  0.00    -0.248 NA
ATOM     18  C   UNL     1       5.592   1.842  -5.073  1.00  0.00     0.031 C 
ATOM     19  C   UNL     1       4.459  -3.059  -5.185  1.00  0.00     0.029 A 
ATOM     20  N   UNL     1       5.771  -2.281  -6.817  1.00  0.00    -0.354 N 
ATOM     21  C   UNL     1       6.776   1.938  -7.035  1.00  0.00     0.074 A 
ATOM     22  C   UNL     1       6.233   2.658  -5.901  1.00  0.00     0.031 C 
ATOM     23  C   UNL     1       4.841  -4.110  -5.921  1.00  0.00     0.029 A 
ATOM     24  C   UNL     1       5.657  -3.635  -7.030  1.00  0.00     0.049 A 
ATOM     25  H   UNL     1       6.294  -1.684  -7.400  1.00  0.00     0.167 HD
ATOM     26  C   UNL     1       7.527   2.495  -8.019  1.00  0.00     0.034 A 
ATOM     27  C   UNL     1       6.126  -4.408  -8.026  1.00  0.00     0.034 A 
ATOM     28  C   UNL     1       8.069   1.750  -9.134  1.00  0.00     0.049 A 
ATOM     29  C   UNL     1       6.921  -3.760  -9.122  1.00  0.00     0.074 A 
ATOM     30  C   UNL     1       8.854   2.207 -10.179  1.00  0.00     0.029 A 
ATOM     31  N   UNL     1       7.882   0.389  -9.349  1.00  0.00    -0.354 N 
ATOM     32  N   UNL     1       7.261  -2.499  -9.257  1.00  0.00    -0.248 NA
ATOM     33  C   UNL     1       7.385  -4.635 -10.203  1.00  0.00     0.031 C 
ATOM     34  C   UNL     1       9.089   1.139 -11.055  1.00  0.00     0.029 A 
ATOM     35  C   UNL     1       8.511  -0.002 -10.523  1.00  0.00     0.049 A 
ATOM     36  H   UNL     1       7.376  -0.211  -8.755  1.00  0.00     0.167 HD
ATOM     37  C   UNL     1       7.986  -2.430 -10.440  1.00  0.00     0.074 A 
ATOM     38  C   UNL     1       8.055  -3.781 -10.963  1.00  0.00     0.031 C 
ATOM     39  C   UNL     1       8.542  -1.349 -11.042  1.00  0.00     0.034 A 
BRANCH  26  40
ATOM     40  C   UNL     1       7.758   3.988  -7.966  1.00  0.00     0.023 A 
ATOM     41  C   UNL     1       8.506   4.593  -6.941  1.00  0.00     0.031 A 
ATOM     42  C   UNL     1       7.211   4.823  -8.959  1.00  0.00     0.131 A 
ATOM     43  C   UNL     1       8.635   5.991  -6.897  1.00  0.00     0.055 A 
ATOM     44  C   UNL     1       7.404   6.206  -8.950  1.00  0.00     0.041 A 
ATOM     45  F   UNL     1       6.471   4.307  -9.953  1.00  0.00    -0.206 F 
ATOM     46  C   UNL     1       8.109   6.800  -7.908  1.00  0.00     0.022 A 
BRANCH  43  47
ATOM     47  S   UNL     1       9.392   6.750  -5.433  1.00  0.00     0.124 S 
ATOM     48  O   UNL     1       8.529   6.253  -4.364  1.00  0.00    -0.237 OA
ATOM     49  O   UNL     1      10.746   6.211  -5.464  1.00  0.00    -0.237 OA
ATOM     50  O   UNL     1       9.284   8.184  -5.695  1.00  0.00    -0.744 OA
ENDBRANCH  43  47
ENDBRANCH  26  40
BRANCH  27  51
ATOM     51  C   UNL     1       5.805  -5.861  -8.050  1.00  0.00     0.023 A 
ATOM     52  C   UNL     1       6.811  -6.828  -7.912  1.00  0.00     0.031 A 
ATOM     53  C   UNL     1       4.477  -6.302  -8.201  1.00  0.00     0.131 A 
ATOM     54  C   UNL     1       6.476  -8.190  -7.950  1.00  0.00     0.055 A 
ATOM     55  C   UNL     1       4.143  -7.655  -8.187  1.00  0.00     0.041 A 
ATOM     56  F   UNL     1       3.477  -5.414  -8.329  1.00  0.00    -0.206 F 
ATOM     57  C   UNL     1       5.148  -8.609  -8.070  1.00  0.00     0.022 A 
BRANCH  54  58
ATOM     58  S   UNL     1       7.812  -9.414  -7.898  1.00  0.00     0.124 S 
ATOM     59  O   UNL     1       8.611  -9.032  -9.057  1.00  0.00    -0.237 OA
ATOM     60  O   UNL     1       8.409  -9.154  -6.593  1.00  0.00    -0.237 OA
ATOM     61  O   UNL     1       7.109 -10.689  -8.017  1.00  0.00    -0.744 OA
ENDBRANCH  54  58
ENDBRANCH  27  51
BRANCH  39  62
ATOM     62  C   UNL     1       9.287  -1.610 -12.325  1.00  0.00     0.023 A 
ATOM     63  C   UNL     1       8.615  -1.998 -13.497  1.00  0.00     0.031 A 
ATOM     64  C   UNL     1      10.689  -1.512 -12.362  1.00  0.00     0.131 A 
ATOM     65  C   UNL     1       9.351  -2.334 -14.643  1.00  0.00     0.055 A 
ATOM     66  C   UNL     1      11.411  -1.794 -13.521  1.00  0.00     0.041 A 
ATOM     67  F   UNL     1      11.377  -1.149 -11.268  1.00  0.00    -0.206 F 
ATOM     68  C   UNL     1      10.744  -2.221 -14.666  1.00  0.00     0.022 A 
BRANCH  65  69
ATOM     69  S   UNL     1       8.469  -3.013 -16.074  1.00  0.00     0.124 S 
ATOM     70  O   UNL     1       7.850  -4.209 -15.510  1.00  0.00    -0.237 OA
ATOM     71  O   UNL     1       7.557  -1.928 -16.423  1.00  0.00    -0.237 OA
ATOM     72  O   UNL     1       9.532  -3.264 -17.045  1.00  0.00    -0.744 OA
ENDBRANCH  65  69
ENDBRANCH  39  62
ENDBRANCH  13  14
ENDBRANCH   6   8
ENDBRANCH   3   4
ENDBRANCH   2   3
ENDBRANCH   1   2
BRANCH   1  73
ATOM     73  C   UNL     1       5.662   0.514   3.498  1.00  0.00     0.116 C 
BRANCH  73  74
ATOM     74  N   UNL     1       6.779   0.660   4.410  1.00  0.00    -0.356 N 
ATOM     75  C   UNL     1       6.925   1.038   5.698  1.00  0.00     0.224 C 
ATOM     76  H   UNL     1       7.638   0.427   3.989  1.00  0.00     0.163 HD
ATOM     77  O   UNL     1       8.066   0.883   6.161  1.00  0.00    -0.275 OA
BRANCH  75  78
ATOM     78  C   UNL     1       5.877   1.719   6.586  1.00  0.00     0.095 C 
ATOM     79  C   UNL     1       6.231   3.208   6.720  1.00  0.00     0.041 C 
ATOM     80  C   UNL     1       4.386   1.432   6.379  1.00  0.00     0.095 C 
ATOM     81  C   UNL     1       5.442   4.115   5.833  1.00  0.00    -0.030 C 
ATOM     82  C   UNL     1       3.573   2.483   5.590  1.00  0.00     0.041 C 
ATOM     83  C   UNL     1       4.255   3.783   5.318  1.00  0.00    -0.030 C 
BRANCH  80  84
ATOM     84  C   UNL     1       3.644   1.325   7.707  1.00  0.00     0.228 C 
ATOM     85  O   UNL     1       3.894   2.052   8.668  1.00  0.00    -0.274 OA
ATOM     86  N   UNL     1       2.495   0.565   7.728  1.00  0.00    -0.325 N 
ATOM     87  H   UNL     1       1.814   0.836   8.386  1.00  0.00     0.169 HD
BRANCH  86  88
ATOM     88  C   UNL     1       2.168  -0.546   6.934  1.00  0.00     0.054 A 
ATOM     89  C   UNL     1       0.887  -0.523   6.364  1.00  0.00     0.027 A 
ATOM     90  C   UNL     1       3.023  -1.636   6.676  1.00  0.00     0.063 A 
ATOM     91  C   UNL     1       0.502  -1.494   5.439  1.00  0.00     0.002 A 
ATOM     92  C   UNL     1       2.624  -2.600   5.730  1.00  0.00     0.016 A 
ATOM     93  C   UNL     1       1.379  -2.521   5.104  1.00  0.00     0.001 A 
BRANCH  90  94
ATOM     94  C   UNL     1       4.341  -1.901   7.326  1.00  0.00     0.253 C 
ATOM     95  O   UNL     1       5.277  -2.261   6.614  1.00  0.00    -0.269 OA
ATOM     96  N   UNL     1       4.528  -1.826   8.687  1.00  0.00    -0.345 N 
ATOM     97  H   UNL     1       5.411  -2.115   9.014  1.00  0.00     0.164 HD
BRANCH  96  98
ATOM     98  C   UNL     1       3.598  -1.379   9.697  1.00  0.00     0.191 C 
BRANCH  98  99
ATOM     99  C   UNL     1       3.994  -1.715  11.082  1.00  0.00     0.122 A 
ATOM    100  C   UNL     1       4.658  -2.748  11.709  1.00  0.00     0.047 A 
ATOM    101  O   UNL     1       3.585  -0.801  12.014  1.00  0.00    -0.467 OA
ATOM    102  C   UNL     1       4.656  -2.440  13.095  1.00  0.00     0.042 A 
ATOM    103  C   UNL     1       3.997  -1.242  13.226  1.00  0.00     0.195 A 
ENDBRANCH  98  99
ENDBRANCH  96  98
ENDBRANCH  90  94
ENDBRANCH  86  88
ENDBRANCH  80  84
ENDBRANCH  75  78
ENDBRANCH  73  74
ENDBRANCH   1  73
TORSDOF 19
