REMARK SMILES O=C(NCCCCNC(=O)c1n[nH]c2cc(Br)cc(Cl)c12)c1ccc(-c2c3nc(c(-c4cc(S(=O)(=O)[O-])ccc4F)c4ccc([nH]4)c(-c4cc(S(=O)(=O)[O-])ccc4F)c4nc(c(-c5cc(S(=O)(=O)[O-])ccc5F)c5ccc2[nH]5)C=C4)C=C3)cc1
REMARK SMILES IDX 4 1 3 2 1 3 2 4 22 6 23 7 84 8 24 9 83 10 25 11 26 12 27 13
REMARK SMILES IDX 77 14 28 15 82 16 76 17 78 18 29 19 81 20 75 21 74 22 30 24
REMARK SMILES IDX 62 25 42 26 61 27 43 28 46 29 60 30 79 31 44 32 45 33 59 35
REMARK SMILES IDX 80 36 47 37 31 38 32 39 40 40 33 41 39 42 41 43 38 44 34 45
REMARK SMILES IDX 35 46 36 47 37 48 63 49 64 50 72 51 65 52 71 53 73 54 70 55
REMARK SMILES IDX 66 56 67 57 68 58 69 59 48 60 49 61 57 62 50 63 56 64 58 65
REMARK SMILES IDX 55 66 51 67 52 68 53 69 54 70 5 71 6 72 7 73 8 74 9 75 10 77
REMARK SMILES IDX 11 78 12 79 21 80 13 81 14 82 19 83 15 85 18 86 20 87 16 88
REMARK SMILES IDX 17 89
REMARK H PARENT 3 5 78 23 46 34 8 76 13 84
REMARK Flexibility Score: inf
ROOT
ATOM      1  C   UNL     1       4.565   0.270   0.870  1.00  0.00     0.116 C 
ENDROOT
BRANCH   1   2
ATOM      2  N   UNL     1       3.153  -0.056   0.851  1.00  0.00    -0.352 N 
ATOM      3  O   UNL     1       1.091  -0.490   0.212  1.00  0.00    -0.269 OA
ATOM      4  C   UNL     1       2.120   0.151  -0.027  1.00  0.00     0.251 C 
ATOM      5  H   UNL     1       2.868  -0.541   1.659  1.00  0.00     0.163 HD
BRANCH   4   6
ATOM      6  C   UNL     1       2.123   1.093  -1.186  1.00  0.00     0.039 A 
ATOM      7  C   UNL     1       3.233   1.759  -1.699  1.00  0.00     0.014 A 
ATOM      8  C   UNL     1       0.869   1.335  -1.792  1.00  0.00     0.014 A 
ATOM      9  C   UNL     1       3.087   2.673  -2.748  1.00  0.00     0.010 A 
ATOM     10  C   UNL     1       0.720   2.243  -2.843  1.00  0.00     0.010 A 
ATOM     11  C   UNL     1       1.831   2.931  -3.316  1.00  0.00    -0.014 A 
BRANCH  11  12
ATOM     12  C   UNL     1       1.773   3.777  -4.513  1.00  0.00     0.031 A 
ATOM     13  C   UNL     1       2.520   3.237  -5.683  1.00  0.00     0.074 A 
ATOM     14  C   UNL     1       1.057   4.909  -4.683  1.00  0.00     0.049 A 
ATOM     15  N   UNL     1       3.621   3.683  -6.192  1.00  0.00    -0.248 NA
ATOM     16  C   UNL     1       2.042   1.990  -6.295  1.00  0.00     0.031 C 
ATOM     17  C   UNL     1       0.059   5.501  -3.796  1.00  0.00     0.029 A 
ATOM     18  N   UNL     1       1.050   5.753  -5.763  1.00  0.00    -0.354 N 
ATOM     19  C   UNL     1       3.877   2.903  -7.316  1.00  0.00     0.074 A 
ATOM     20  C   UNL     1       2.959   1.796  -7.245  1.00  0.00     0.031 C 
ATOM     21  C   UNL     1      -0.584   6.503  -4.444  1.00  0.00     0.029 A 
ATOM     22  C   UNL     1       0.048   6.720  -5.737  1.00  0.00     0.049 A 
ATOM     23  H   UNL     1       1.701   5.682  -6.497  1.00  0.00     0.167 HD
ATOM     24  C   UNL     1       4.702   3.336  -8.310  1.00  0.00     0.034 A 
ATOM     25  C   UNL     1      -0.238   7.633  -6.705  1.00  0.00     0.034 A 
ATOM     26  C   UNL     1       5.543   4.422  -7.863  1.00  0.00     0.049 A 
ATOM     27  C   UNL     1       1.018   7.856  -7.460  1.00  0.00     0.074 A 
ATOM     28  C   UNL     1       6.475   4.582  -6.854  1.00  0.00     0.029 A 
ATOM     29  N   UNL     1       5.231   5.698  -8.271  1.00  0.00    -0.354 N 
ATOM     30  N   UNL     1       2.087   8.390  -6.938  1.00  0.00    -0.248 NA
ATOM     31  C   UNL     1       1.228   7.123  -8.697  1.00  0.00     0.031 C 
ATOM     32  C   UNL     1       6.271   5.911  -6.373  1.00  0.00     0.029 A 
ATOM     33  C   UNL     1       5.268   6.491  -7.152  1.00  0.00     0.049 A 
ATOM     34  H   UNL     1       5.021   5.986  -9.189  1.00  0.00     0.167 HD
ATOM     35  C   UNL     1       3.144   7.719  -7.529  1.00  0.00     0.074 A 
ATOM     36  C   UNL     1       2.560   7.034  -8.679  1.00  0.00     0.031 C 
ATOM     37  C   UNL     1       4.337   7.568  -6.884  1.00  0.00     0.034 A 
BRANCH  24  38
ATOM     38  C   UNL     1       4.535   3.013  -9.779  1.00  0.00     0.023 A 
ATOM     39  C   UNL     1       5.498   3.522 -10.675  1.00  0.00     0.031 A 
ATOM     40  C   UNL     1       3.358   2.501 -10.370  1.00  0.00     0.131 A 
ATOM     41  C   UNL     1       5.236   3.599 -12.055  1.00  0.00     0.055 A 
ATOM     42  C   UNL     1       3.131   2.518 -11.749  1.00  0.00     0.041 A 
ATOM     43  F   UNL     1       2.328   2.046  -9.648  1.00  0.00    -0.206 F 
ATOM     44  C   UNL     1       4.057   3.098 -12.599  1.00  0.00     0.022 A 
BRANCH  41  45
ATOM     45  S   UNL     1       6.391   4.522 -13.102  1.00  0.00     0.124 S 
ATOM     46  O   UNL     1       6.393   5.830 -12.456  1.00  0.00    -0.237 OA
ATOM     47  O   UNL     1       7.613   3.736 -12.969  1.00  0.00    -0.237 OA
ATOM     48  O   UNL     1       5.763   4.477 -14.421  1.00  0.00    -0.744 OA
ENDBRANCH  41  45
ENDBRANCH  24  38
BRANCH  25  49
ATOM     49  C   UNL     1      -1.565   8.130  -7.174  1.00  0.00     0.023 A 
ATOM     50  C   UNL     1      -1.691   9.214  -8.075  1.00  0.00     0.031 A 
ATOM     51  C   UNL     1      -2.728   7.361  -6.953  1.00  0.00     0.131 A 
ATOM     52  C   UNL     1      -2.925   9.476  -8.718  1.00  0.00     0.055 A 
ATOM     53  C   UNL     1      -3.945   7.626  -7.588  1.00  0.00     0.041 A 
ATOM     54  F   UNL     1      -2.701   6.264  -6.181  1.00  0.00    -0.206 F 
ATOM     55  C   UNL     1      -4.045   8.678  -8.485  1.00  0.00     0.022 A 
BRANCH  52  56
ATOM     56  S   UNL     1      -3.062  10.785  -9.981  1.00  0.00     0.124 S 
ATOM     57  O   UNL     1      -3.201  11.985  -9.164  1.00  0.00    -0.237 OA
ATOM     58  O   UNL     1      -1.814  10.648 -10.723  1.00  0.00    -0.237 OA
ATOM     59  O   UNL     1      -4.262  10.407 -10.730  1.00  0.00    -0.744 OA
ENDBRANCH  52  56
ENDBRANCH  25  49
BRANCH  37  60
ATOM     60  C   UNL     1       4.612   8.410  -5.659  1.00  0.00     0.023 A 
ATOM     61  C   UNL     1       3.888   8.324  -4.449  1.00  0.00     0.031 A 
ATOM     62  C   UNL     1       5.764   9.214  -5.681  1.00  0.00     0.131 A 
ATOM     63  C   UNL     1       4.332   9.033  -3.314  1.00  0.00     0.055 A 
ATOM     64  C   UNL     1       6.209   9.900  -4.552  1.00  0.00     0.041 A 
ATOM     65  F   UNL     1       6.509   9.305  -6.795  1.00  0.00    -0.206 F 
ATOM     66  C   UNL     1       5.494   9.811  -3.363  1.00  0.00     0.022 A 
BRANCH  63  67
ATOM     67  S   UNL     1       3.432   8.907  -1.734  1.00  0.00     0.124 S 
ATOM     68  O   UNL     1       2.132   9.492  -2.045  1.00  0.00    -0.237 OA
ATOM     69  O   UNL     1       3.444   7.472  -1.464  1.00  0.00    -0.237 OA
ATOM     70  O   UNL     1       4.248   9.699  -0.810  1.00  0.00    -0.744 OA
ENDBRANCH  63  67
ENDBRANCH  37  60
ENDBRANCH  11  12
ENDBRANCH   4   6
ENDBRANCH   1   2
BRANCH   1  71
ATOM     71  C   UNL     1       4.912   1.642   1.447  1.00  0.00     0.023 C 
BRANCH  71  72
ATOM     72  C   UNL     1       4.427   1.926   2.873  1.00  0.00     0.023 C 
BRANCH  72  73
ATOM     73  C   UNL     1       4.819   0.912   3.945  1.00  0.00     0.116 C 
BRANCH  73  74
ATOM     74  N   UNL     1       6.254   0.775   4.138  1.00  0.00    -0.351 N 
ATOM     75  C   UNL     1       6.968   0.686   5.316  1.00  0.00     0.272 C 
ATOM     76  H   UNL     1       6.791   0.742   3.313  1.00  0.00     0.163 HD
ATOM     77  O   UNL     1       8.190   0.525   5.259  1.00  0.00    -0.267 OA
BRANCH  75  78
ATOM     78  C   UNL     1       6.255   0.821   6.593  1.00  0.00     0.159 A 
ATOM     79  N   UNL     1       6.513   1.866   7.404  1.00  0.00    -0.169 NA
ATOM     80  C   UNL     1       5.227  -0.012   7.141  1.00  0.00     0.051 A 
ATOM     81  N   UNL     1       5.614   1.758   8.387  1.00  0.00    -0.277 N 
ATOM     82  C   UNL     1       4.779   0.682   8.267  1.00  0.00     0.068 A 
ATOM     83  C   UNL     1       4.581  -1.225   6.836  1.00  0.00     0.054 A 
ATOM     84  H   UNL     1       5.558   2.398   9.133  1.00  0.00     0.190 HD
ATOM     85  C   UNL     1       3.685   0.272   9.040  1.00  0.00     0.044 A 
ATOM     86  C   UNL     1       3.476  -1.659   7.570  1.00  0.00     0.037 A 
ATOM     87  Cl  UNL     1       5.223  -2.176   5.572  1.00  0.00    -0.083 Cl
ATOM     88  C   UNL     1       3.031  -0.900   8.647  1.00  0.00     0.021 A 
ATOM     89  Br  UNL     1       1.508  -1.471   9.616  1.00  0.00    -0.051 Br
ENDBRANCH  75  78
ENDBRANCH  73  74
ENDBRANCH  72  73
ENDBRANCH  71  72
ENDBRANCH   1  71
TORSDOF 14
