REMARK SMILES CC(C)c1cc(C2CC[NH+](Cc3c[nH]nc3C(=O)NCCCCNC(=O)c3ccc(-c4c5nc(c(-c6cc(S(=O)(=O)[O-])ccc6F)c6ccc([nH]6)c(-c6cc(S(=O)(=O)[O-])ccc6F)c6nc(c(-c7cc(S(=O)(=O)[O-])ccc7F)c7ccc4[nH]7)C=C6)C=C5)cc3)CC2)n[nH]1
REMARK SMILES IDX 21 1 20 2 19 3 17 4 18 5 16 7 12 8 13 9 14 10 15 11 11 13
REMARK SMILES IDX 10 14 7 15 8 16 91 17 9 18 90 19 6 21 4 22 5 23 93 24 92 25
REMARK SMILES IDX 2 27 1 28 3 29 22 30 23 31 24 32 25 33 26 35 27 36 28 37
REMARK SMILES IDX 89 38 29 39 88 40 30 41 31 42 32 43 82 44 33 45 87 46 81 47
REMARK SMILES IDX 83 48 34 49 86 50 80 51 79 52 35 54 67 55 47 56 66 57 48 58
REMARK SMILES IDX 51 59 65 60 84 61 49 62 50 63 64 65 85 66 52 67 36 68 37 69
REMARK SMILES IDX 45 70 38 71 44 72 46 73 43 74 39 75 40 76 41 77 42 78 68 79
REMARK SMILES IDX 69 80 77 81 70 82 76 83 78 84 75 85 71 86 72 87 73 88 74 89
REMARK SMILES IDX 53 90 54 91 62 92 55 93 61 94 63 95 60 96 56 97 57 98 58 99
REMARK SMILES IDX 59 100
REMARK H PARENT 19 6 14 12 10 20 93 26 24 34 83 53 51 64
REMARK Flexibility Score: inf
ROOT
ATOM      1  C   UNL     1      -5.612  -5.664  -3.506  1.00  0.00     0.023 C 
ENDROOT
BRANCH   1   2
ATOM      2  C   UNL     1      -4.972  -6.881  -2.842  1.00  0.00     0.116 C 
BRANCH   2   3
ATOM      3  N   UNL     1      -3.646  -7.146  -3.327  1.00  0.00    -0.351 N 
ATOM      4  C   UNL     1      -2.391  -7.238  -2.783  1.00  0.00     0.272 C 
ATOM      5  O   UNL     1      -1.544  -7.511  -3.648  1.00  0.00    -0.267 OA
ATOM      6  H   UNL     1      -3.637  -7.303  -4.299  1.00  0.00     0.163 HD
BRANCH   4   7
ATOM      7  C   UNL     1      -1.969  -7.053  -1.354  1.00  0.00     0.158 A 
ATOM      8  C   UNL     1      -2.581  -6.805  -0.056  1.00  0.00     0.057 A 
ATOM      9  C   UNL     1      -1.521  -6.792   0.840  1.00  0.00     0.115 A 
ATOM     10  N   UNL     1      -0.399  -6.995   0.123  1.00  0.00    -0.284 N 
ATOM     11  N   UNL     1      -0.625  -7.140  -1.172  1.00  0.00    -0.170 NA
ATOM     12  H   UNL     1       0.500  -7.033   0.523  1.00  0.00     0.189 HD
BRANCH   8  13
ATOM     13  C   UNL     1      -3.983  -6.629   0.427  1.00  0.00     0.303 C 
BRANCH  13  14
ATOM     14  N   UNL     1      -4.426  -5.222   0.529  1.00  0.00    -0.331 N 
ATOM     15  C   UNL     1      -4.482  -2.290   0.880  1.00  0.00     0.051 C 
ATOM     16  C   UNL     1      -4.789  -3.266   2.020  1.00  0.00     0.071 C 
ATOM     17  C   UNL     1      -4.680  -2.974  -0.475  1.00  0.00     0.071 C 
ATOM     18  C   UNL     1      -4.139  -4.641   1.846  1.00  0.00     0.263 C 
ATOM     19  C   UNL     1      -3.983  -4.331  -0.548  1.00  0.00     0.263 C 
ATOM     20  H   UNL     1      -5.436  -5.288   0.409  1.00  0.00     0.348 HD
BRANCH  15  21
ATOM     21  C   UNL     1      -3.136  -1.619   0.995  1.00  0.00     0.066 A 
ATOM     22  C   UNL     1      -0.966  -1.116   0.993  1.00  0.00     0.038 A 
ATOM     23  C   UNL     1      -1.837  -2.182   0.956  1.00  0.00     0.049 A 
ATOM     24  N   UNL     1      -1.761  -0.009   1.103  1.00  0.00    -0.282 N 
ATOM     25  N   UNL     1      -3.072  -0.286   1.116  1.00  0.00    -0.180 NA
ATOM     26  H   UNL     1      -1.403   0.906   1.166  1.00  0.00     0.190 HD
BRANCH  22  27
ATOM     27  C   UNL     1       0.527  -1.077   0.924  1.00  0.00     0.031 C 
ATOM     28  C   UNL     1       1.032  -0.033  -0.072  1.00  0.00     0.014 C 
ATOM     29  C   UNL     1       1.129  -0.852   2.310  1.00  0.00     0.014 C 
ENDBRANCH  22  27
ENDBRANCH  15  21
ENDBRANCH  13  14
ENDBRANCH   8  13
ENDBRANCH   4   7
ENDBRANCH   2   3
ENDBRANCH   1   2
BRANCH   1  30
ATOM     30  C   UNL     1      -6.396  -5.959  -4.775  1.00  0.00     0.023 C 
BRANCH  30  31
ATOM     31  C   UNL     1      -7.473  -7.028  -4.642  1.00  0.00     0.116 C 
BRANCH  31  32
ATOM     32  N   UNL     1      -8.375  -6.837  -3.510  1.00  0.00    -0.352 N 
ATOM     33  C   UNL     1      -9.744  -6.994  -3.471  1.00  0.00     0.251 C 
ATOM     34  H   UNL     1      -7.951  -6.560  -2.666  1.00  0.00     0.163 HD
ATOM     35  O   UNL     1     -10.374  -6.748  -2.451  1.00  0.00    -0.269 OA
BRANCH  33  36
ATOM     36  C   UNL     1     -10.435  -7.410  -4.708  1.00  0.00     0.039 A 
ATOM     37  C   UNL     1     -11.439  -6.592  -5.229  1.00  0.00     0.014 A 
ATOM     38  C   UNL     1      -9.979  -8.523  -5.417  1.00  0.00     0.014 A 
ATOM     39  C   UNL     1     -11.909  -6.827  -6.522  1.00  0.00     0.010 A 
ATOM     40  C   UNL     1     -10.380  -8.697  -6.734  1.00  0.00     0.010 A 
ATOM     41  C   UNL     1     -11.336  -7.840  -7.307  1.00  0.00    -0.014 A 
BRANCH  41  42
ATOM     42  C   UNL     1     -11.692  -8.021  -8.739  1.00  0.00     0.031 A 
ATOM     43  C   UNL     1     -12.260  -9.334  -9.201  1.00  0.00     0.074 A 
ATOM     44  C   UNL     1     -11.387  -7.060  -9.635  1.00  0.00     0.049 A 
ATOM     45  N   UNL     1     -12.465  -9.768 -10.417  1.00  0.00    -0.248 NA
ATOM     46  C   UNL     1     -12.588 -10.307  -8.149  1.00  0.00     0.031 C 
ATOM     47  C   UNL     1     -10.768  -5.769  -9.320  1.00  0.00     0.029 A 
ATOM     48  N   UNL     1     -11.533  -7.030 -10.999  1.00  0.00    -0.354 N 
ATOM     49  C   UNL     1     -12.901 -11.082 -10.278  1.00  0.00     0.074 A 
ATOM     50  C   UNL     1     -12.876 -11.384  -8.862  1.00  0.00     0.031 C 
ATOM     51  C   UNL     1     -10.601  -5.071 -10.456  1.00  0.00     0.029 A 
ATOM     52  C   UNL     1     -11.059  -5.877 -11.582  1.00  0.00     0.049 A 
ATOM     53  H   UNL     1     -11.940  -7.765 -11.513  1.00  0.00     0.167 HD
ATOM     54  C   UNL     1     -13.304 -11.948 -11.241  1.00  0.00     0.034 A 
ATOM     55  C   UNL     1     -10.984  -5.518 -12.879  1.00  0.00     0.034 A 
ATOM     56  C   UNL     1     -13.370 -11.610 -12.641  1.00  0.00     0.049 A 
ATOM     57  C   UNL     1     -11.486  -6.474 -13.929  1.00  0.00     0.074 A 
ATOM     58  C   UNL     1     -13.850 -12.372 -13.691  1.00  0.00     0.029 A 
ATOM     59  N   UNL     1     -12.942 -10.406 -13.186  1.00  0.00    -0.354 N 
ATOM     60  N   UNL     1     -11.950  -7.693 -13.779  1.00  0.00    -0.248 NA
ATOM     61  C   UNL     1     -11.464  -6.003 -15.320  1.00  0.00     0.031 C 
ATOM     62  C   UNL     1     -13.672 -11.648 -14.876  1.00  0.00     0.029 A 
ATOM     63  C   UNL     1     -13.132 -10.412 -14.559  1.00  0.00     0.049 A 
ATOM     64  H   UNL     1     -12.560  -9.658 -12.672  1.00  0.00     0.167 HD
ATOM     65  C   UNL     1     -12.296  -8.125 -15.055  1.00  0.00     0.074 A 
ATOM     66  C   UNL     1     -11.996  -7.034 -15.960  1.00  0.00     0.031 C 
ATOM     67  C   UNL     1     -12.820  -9.315 -15.444  1.00  0.00     0.034 A 
BRANCH  54  68
ATOM     68  C   UNL     1     -13.682 -13.341 -10.800  1.00  0.00     0.023 A 
ATOM     69  C   UNL     1     -14.754 -13.570  -9.920  1.00  0.00     0.031 A 
ATOM     70  C   UNL     1     -12.923 -14.449 -11.215  1.00  0.00     0.131 A 
ATOM     71  C   UNL     1     -14.975 -14.856  -9.405  1.00  0.00     0.055 A 
ATOM     72  C   UNL     1     -13.205 -15.742 -10.769  1.00  0.00     0.041 A 
ATOM     73  F   UNL     1     -11.876 -14.290 -12.040  1.00  0.00    -0.206 F 
ATOM     74  C   UNL     1     -14.223 -15.949  -9.842  1.00  0.00     0.022 A 
BRANCH  71  75
ATOM     75  S   UNL     1     -16.145 -15.045  -8.033  1.00  0.00     0.124 S 
ATOM     76  O   UNL     1     -15.551 -14.177  -7.019  1.00  0.00    -0.237 OA
ATOM     77  O   UNL     1     -17.396 -14.579  -8.619  1.00  0.00    -0.237 OA
ATOM     78  O   UNL     1     -16.090 -16.473  -7.730  1.00  0.00    -0.744 OA
ENDBRANCH  71  75
ENDBRANCH  54  68
BRANCH  55  79
ATOM     79  C   UNL     1     -10.403  -4.202 -13.263  1.00  0.00     0.023 A 
ATOM     80  C   UNL     1     -11.210  -3.185 -13.795  1.00  0.00     0.031 A 
ATOM     81  C   UNL     1      -9.027  -3.952 -13.125  1.00  0.00     0.131 A 
ATOM     82  C   UNL     1     -10.628  -1.976 -14.208  1.00  0.00     0.055 A 
ATOM     83  C   UNL     1      -8.459  -2.733 -13.499  1.00  0.00     0.041 A 
ATOM     84  F   UNL     1      -8.215  -4.889 -12.609  1.00  0.00    -0.206 F 
ATOM     85  C   UNL     1      -9.260  -1.739 -14.055  1.00  0.00     0.022 A 
BRANCH  82  86
ATOM     86  S   UNL     1     -11.682  -0.733 -15.005  1.00  0.00     0.124 S 
ATOM     87  O   UNL     1     -12.193  -1.468 -16.156  1.00  0.00    -0.237 OA
ATOM     88  O   UNL     1     -12.648  -0.436 -13.952  1.00  0.00    -0.237 OA
ATOM     89  O   UNL     1     -10.753   0.351 -15.318  1.00  0.00    -0.744 OA
ENDBRANCH  82  86
ENDBRANCH  55  79
BRANCH  67  90
ATOM     90  C   UNL     1     -13.143  -9.472 -16.905  1.00  0.00     0.023 A 
ATOM     91  C   UNL     1     -12.134  -9.603 -17.874  1.00  0.00     0.031 A 
ATOM     92  C   UNL     1     -14.483  -9.492 -17.330  1.00  0.00     0.131 A 
ATOM     93  C   UNL     1     -12.480  -9.710 -19.229  1.00  0.00     0.055 A 
ATOM     94  C   UNL     1     -14.822  -9.644 -18.674  1.00  0.00     0.041 A 
ATOM     95  F   UNL     1     -15.482  -9.370 -16.442  1.00  0.00    -0.206 F 
ATOM     96  C   UNL     1     -13.818  -9.745 -19.633  1.00  0.00     0.022 A 
BRANCH  93  97
ATOM     97  S   UNL     1     -11.157  -9.747 -20.468  1.00  0.00     0.124 S 
ATOM     98  O   UNL     1     -10.515  -8.452 -20.266  1.00  0.00    -0.237 OA
ATOM     99  O   UNL     1     -10.379 -10.914 -20.062  1.00  0.00    -0.237 OA
ATOM    100  O   UNL     1     -11.875  -9.893 -21.733  1.00  0.00    -0.744 OA
ENDBRANCH  93  97
ENDBRANCH  67  90
ENDBRANCH  41  42
ENDBRANCH  33  36
ENDBRANCH  31  32
ENDBRANCH  30  31
ENDBRANCH   1  30
TORSDOF 18
