REMARK SMILES O=C(CC[NH2+][C@@H]1CCCC[C@@H]1[C@@H]1CCC[NH2+]1)NCCCCNC(=O)c1ccc(-c2c3nc(c(-c4cc(S(=O)(=O)[O-])ccc4F)c4ccc([nH]4)c(-c4cc(S(=O)(=O)[O-])ccc4F)c4nc(c(-c5cc(S(=O)(=O)[O-])ccc5F)c5ccc2[nH]5)C=C4)C=C3)cc1
REMARK SMILES IDX 19 1 18 2 17 3 1 4 2 5 3 7 4 8 5 9 6 12 7 13 11 14 8 15
REMARK SMILES IDX 10 16 9 17 12 18 13 19 16 20 14 21 15 22 20 25 21 26 22 27
REMARK SMILES IDX 23 28 24 30 25 31 26 32 87 33 27 34 86 35 28 36 29 37 30 38
REMARK SMILES IDX 80 39 31 40 85 41 79 42 81 43 32 44 84 45 78 46 77 47 33 49
REMARK SMILES IDX 65 50 45 51 64 52 46 53 49 54 63 55 82 56 47 57 48 58 62 60
REMARK SMILES IDX 83 61 50 62 34 63 35 64 43 65 36 66 42 67 44 68 41 69 37 70
REMARK SMILES IDX 38 71 39 72 40 73 66 74 67 75 75 76 68 77 74 78 76 79 73 80
REMARK SMILES IDX 69 81 70 82 71 83 72 84 51 85 52 86 60 87 53 88 59 89 61 90
REMARK SMILES IDX 58 91 54 92 55 93 56 94 57 95
REMARK H PARENT 17 6 5 10 5 11 16 23 16 24 22 29 81 48 49 59
REMARK Flexibility Score: inf
ROOT
ATOM      1  C   UNL     1       2.419  -2.235   2.812  1.00  0.00     0.023 C 
ENDROOT
BRANCH   1   2
ATOM      2  C   UNL     1       2.057  -0.848   2.284  1.00  0.00     0.116 C 
BRANCH   2   3
ATOM      3  N   UNL     1       2.763  -0.551   1.058  1.00  0.00    -0.356 N 
ATOM      4  O   UNL     1       0.971   0.187  -0.191  1.00  0.00    -0.275 OA
ATOM      5  C   UNL     1       2.167  -0.055  -0.080  1.00  0.00     0.225 C 
ATOM      6  H   UNL     1       3.733  -0.715   1.035  1.00  0.00     0.163 HD
BRANCH   5   7
ATOM      7  C   UNL     1       3.160   0.172  -1.202  1.00  0.00     0.161 C 
BRANCH   7   8
ATOM      8  C   UNL     1       4.022   1.419  -0.988  1.00  0.00     0.270 C 
BRANCH   8   9
ATOM      9  N   UNL     1       4.719   1.417   0.306  1.00  0.00    -0.343 N 
ATOM     10  H   UNL     1       5.293   0.576   0.361  1.00  0.00     0.346 HD
ATOM     11  H   UNL     1       4.000   1.449   1.029  1.00  0.00     0.346 HD
BRANCH   9  12
ATOM     12  C   UNL     1       5.589   2.589   0.518  1.00  0.00     0.191 C 
ATOM     13  C   UNL     1       6.321   2.397   1.862  1.00  0.00     0.065 C 
ATOM     14  C   UNL     1       4.872   3.970   0.436  1.00  0.00     0.105 C 
ATOM     15  C   UNL     1       7.280   3.541   2.185  1.00  0.00     0.006 C 
ATOM     16  C   UNL     1       5.897   5.085   0.726  1.00  0.00     0.016 C 
ATOM     17  C   UNL     1       6.667   4.928   2.030  1.00  0.00     0.001 C 
BRANCH  14  18
ATOM     18  C   UNL     1       3.520   4.055   1.206  1.00  0.00     0.191 C 
ATOM     19  C   UNL     1       2.753   5.357   1.010  1.00  0.00     0.071 C 
ATOM     20  N   UNL     1       3.512   3.834   2.657  1.00  0.00    -0.343 N 
ATOM     21  C   UNL     1       1.661   5.236   2.054  1.00  0.00     0.067 C 
ATOM     22  C   UNL     1       2.368   4.566   3.219  1.00  0.00     0.260 C 
ATOM     23  H   UNL     1       4.380   4.182   3.065  1.00  0.00     0.346 HD
ATOM     24  H   UNL     1       3.434   2.839   2.865  1.00  0.00     0.346 HD
ENDBRANCH  14  18
ENDBRANCH   9  12
ENDBRANCH   8   9
ENDBRANCH   7   8
ENDBRANCH   5   7
ENDBRANCH   2   3
ENDBRANCH   1   2
BRANCH   1  25
ATOM     25  C   UNL     1       3.906  -2.441   3.127  1.00  0.00     0.023 C 
BRANCH  25  26
ATOM     26  C   UNL     1       4.486  -1.503   4.182  1.00  0.00     0.116 C 
BRANCH  26  27
ATOM     27  N   UNL     1       3.896  -1.716   5.494  1.00  0.00    -0.352 N 
ATOM     28  C   UNL     1       4.501  -2.008   6.694  1.00  0.00     0.251 C 
ATOM     29  H   UNL     1       2.915  -1.638   5.528  1.00  0.00     0.163 HD
ATOM     30  O   UNL     1       3.810  -2.336   7.653  1.00  0.00    -0.269 OA
BRANCH  28  31
ATOM     31  C   UNL     1       5.977  -1.959   6.823  1.00  0.00     0.039 A 
ATOM     32  C   UNL     1       6.626  -2.975   7.530  1.00  0.00     0.014 A 
ATOM     33  C   UNL     1       6.722  -0.916   6.265  1.00  0.00     0.014 A 
ATOM     34  C   UNL     1       8.022  -2.984   7.614  1.00  0.00     0.010 A 
ATOM     35  C   UNL     1       8.116  -0.968   6.285  1.00  0.00     0.010 A 
ATOM     36  C   UNL     1       8.783  -2.004   6.957  1.00  0.00    -0.014 A 
BRANCH  36  37
ATOM     37  C   UNL     1      10.271  -2.054   6.956  1.00  0.00     0.031 A 
ATOM     38  C   UNL     1      11.070  -0.944   7.585  1.00  0.00     0.074 A 
ATOM     39  C   UNL     1      10.906  -3.073   6.341  1.00  0.00     0.049 A 
ATOM     40  N   UNL     1      12.368  -0.771   7.617  1.00  0.00    -0.248 NA
ATOM     41  C   UNL     1      10.306   0.128   8.239  1.00  0.00     0.031 C 
ATOM     42  C   UNL     1      10.246  -4.193   5.667  1.00  0.00     0.029 A 
ATOM     43  N   UNL     1      12.245  -3.331   6.174  1.00  0.00    -0.354 N 
ATOM     44  C   UNL     1      12.576   0.429   8.289  1.00  0.00     0.074 A 
ATOM     45  C   UNL     1      11.267   0.972   8.585  1.00  0.00     0.031 C 
ATOM     46  C   UNL     1      11.180  -5.027   5.182  1.00  0.00     0.029 A 
ATOM     47  C   UNL     1      12.504  -4.479   5.460  1.00  0.00     0.049 A 
ATOM     48  H   UNL     1      12.954  -2.749   6.533  1.00  0.00     0.167 HD
ATOM     49  C   UNL     1      13.748   1.011   8.647  1.00  0.00     0.034 A 
ATOM     50  C   UNL     1      13.671  -5.020   5.055  1.00  0.00     0.034 A 
ATOM     51  C   UNL     1      15.047   0.456   8.344  1.00  0.00     0.049 A 
ATOM     52  C   UNL     1      14.961  -4.330   5.422  1.00  0.00     0.074 A 
ATOM     53  C   UNL     1      16.294   0.942   8.695  1.00  0.00     0.029 A 
ATOM     54  N   UNL     1      15.268  -0.702   7.608  1.00  0.00    -0.354 N 
ATOM     55  N   UNL     1      15.141  -3.217   6.096  1.00  0.00    -0.248 NA
ATOM     56  C   UNL     1      16.206  -4.974   4.983  1.00  0.00     0.031 C 
ATOM     57  C   UNL     1      17.267   0.127   8.107  1.00  0.00     0.029 A 
ATOM     58  C   UNL     1      16.631  -0.923   7.465  1.00  0.00     0.049 A 
ATOM     59  H   UNL     1      14.562  -1.281   7.242  1.00  0.00     0.167 HD
ATOM     60  C   UNL     1      16.520  -3.048   6.189  1.00  0.00     0.074 A 
ATOM     61  C   UNL     1      17.122  -4.181   5.517  1.00  0.00     0.031 C 
ATOM     62  C   UNL     1      17.224  -2.050   6.782  1.00  0.00     0.034 A 
BRANCH  49  63
ATOM     63  C   UNL     1      13.674   2.329   9.383  1.00  0.00     0.023 A 
ATOM     64  C   UNL     1      13.048   2.440  10.638  1.00  0.00     0.031 A 
ATOM     65  C   UNL     1      14.215   3.497   8.816  1.00  0.00     0.131 A 
ATOM     66  C   UNL     1      12.907   3.698  11.243  1.00  0.00     0.055 A 
ATOM     67  C   UNL     1      14.150   4.731   9.466  1.00  0.00     0.041 A 
ATOM     68  F   UNL     1      14.806   3.462   7.611  1.00  0.00    -0.206 F 
ATOM     69  C   UNL     1      13.478   4.840  10.680  1.00  0.00     0.022 A 
BRANCH  66  70
ATOM     70  S   UNL     1      11.829   3.843  12.694  1.00  0.00     0.124 S 
ATOM     71  O   UNL     1      10.559   3.345  12.169  1.00  0.00    -0.237 OA
ATOM     72  O   UNL     1      12.496   2.989  13.670  1.00  0.00    -0.237 OA
ATOM     73  O   UNL     1      11.851   5.273  12.996  1.00  0.00    -0.744 OA
ENDBRANCH  66  70
ENDBRANCH  49  63
BRANCH  50  74
ATOM     74  C   UNL     1      13.681  -6.269   4.237  1.00  0.00     0.023 A 
ATOM     75  C   UNL     1      14.277  -7.446   4.715  1.00  0.00     0.031 A 
ATOM     76  C   UNL     1      13.134  -6.288   2.941  1.00  0.00     0.131 A 
ATOM     77  C   UNL     1      14.357  -8.577   3.887  1.00  0.00     0.055 A 
ATOM     78  C   UNL     1      13.160  -7.434   2.144  1.00  0.00     0.041 A 
ATOM     79  F   UNL     1      12.552  -5.190   2.432  1.00  0.00    -0.206 F 
ATOM     80  C   UNL     1      13.788  -8.584   2.612  1.00  0.00     0.022 A 
BRANCH  77  81
ATOM     81  S   UNL     1      15.304 -10.013   4.465  1.00  0.00     0.124 S 
ATOM     82  O   UNL     1      16.618  -9.426   4.697  1.00  0.00    -0.237 OA
ATOM     83  O   UNL     1      14.558 -10.409   5.654  1.00  0.00    -0.237 OA
ATOM     84  O   UNL     1      15.225 -10.946   3.343  1.00  0.00    -0.744 OA
ENDBRANCH  77  81
ENDBRANCH  50  74
BRANCH  62  85
ATOM     85  C   UNL     1      18.731  -2.167   6.771  1.00  0.00     0.023 A 
ATOM     86  C   UNL     1      19.474  -2.115   5.579  1.00  0.00     0.031 A 
ATOM     87  C   UNL     1      19.433  -2.344   7.978  1.00  0.00     0.131 A 
ATOM     88  C   UNL     1      20.865  -2.296   5.612  1.00  0.00     0.055 A 
ATOM     89  C   UNL     1      20.824  -2.455   8.012  1.00  0.00     0.041 A 
ATOM     90  F   UNL     1      18.777  -2.408   9.148  1.00  0.00    -0.206 F 
ATOM     91  C   UNL     1      21.547  -2.446   6.823  1.00  0.00     0.022 A 
BRANCH  88  92
ATOM     92  S   UNL     1      21.764  -2.437   4.043  1.00  0.00     0.124 S 
ATOM     93  O   UNL     1      21.098  -3.571   3.413  1.00  0.00    -0.237 OA
ATOM     94  O   UNL     1      21.526  -1.135   3.429  1.00  0.00    -0.237 OA
ATOM     95  O   UNL     1      23.144  -2.681   4.459  1.00  0.00    -0.744 OA
ENDBRANCH  88  92
ENDBRANCH  62  85
ENDBRANCH  36  37
ENDBRANCH  28  31
ENDBRANCH  26  27
ENDBRANCH  25  26
ENDBRANCH   1  25
TORSDOF 18
