REMARK SMILES C[C@@H]1CN(c2ccc(N)cc2C(=O)NCCCCNC(=O)c2ccc(-c3c4nc(c(-c5cc(S(=O)(=O)[O-])ccc5F)c5ccc([nH]5)c(-c5cc(S(=O)(=O)[O-])ccc5F)c5nc(c(-c6cc(S(=O)(=O)[O-])ccc6F)c6ccc3[nH]6)C=C5)C=C4)cc2)C[C@H]1C
REMARK SMILES IDX 17 1 16 2 15 3 14 4 12 5 13 6 11 8 5 9 6 10 7 11 10 12 8 13
REMARK SMILES IDX 4 14 1 15 2 16 3 17 86 18 85 19 87 20 9 21 18 24 19 25 20 26
REMARK SMILES IDX 21 28 22 29 23 30 84 31 24 32 83 33 25 34 26 35 27 36 77 37
REMARK SMILES IDX 28 38 82 39 76 40 78 41 29 42 81 43 75 44 74 45 30 47 62 48
REMARK SMILES IDX 42 49 61 50 43 51 46 52 60 53 79 54 44 55 45 56 59 58 80 59
REMARK SMILES IDX 47 60 31 61 32 62 40 63 33 64 39 65 41 66 38 67 34 68 35 69
REMARK SMILES IDX 36 70 37 71 63 72 64 73 72 74 65 75 71 76 73 77 70 78 66 79
REMARK SMILES IDX 67 80 68 81 69 82 48 83 49 84 57 85 50 86 56 87 58 88 55 89
REMARK SMILES IDX 51 90 52 91 53 92 54 93
REMARK H PARENT 14 7 9 22 9 23 19 27 78 46 46 57
REMARK Flexibility Score: inf
ROOT
ATOM      1  C   UNL     1       4.491   1.085   1.443  1.00  0.00     0.023 C 
ENDROOT
BRANCH   1   2
ATOM      2  C   UNL     1       3.872   1.899   0.304  1.00  0.00     0.023 C 
BRANCH   2   3
ATOM      3  C   UNL     1       2.947   3.050   0.675  1.00  0.00     0.116 C 
BRANCH   3   4
ATOM      4  N   UNL     1       3.519   4.367   0.712  1.00  0.00    -0.352 N 
ATOM      5  C   UNL     1       2.968   5.585   0.372  1.00  0.00     0.253 C 
ATOM      6  O   UNL     1       3.562   6.569   0.834  1.00  0.00    -0.269 OA
ATOM      7  H   UNL     1       4.450   4.407   1.030  1.00  0.00     0.163 HD
BRANCH   5   8
ATOM      8  C   UNL     1       1.822   5.849  -0.580  1.00  0.00     0.065 A 
ATOM      9  C   UNL     1       0.604   5.161  -0.792  1.00  0.00     0.050 A 
ATOM     10  C   UNL     1      -0.279   5.696  -1.766  1.00  0.00     0.029 A 
ATOM     11  C   UNL     1      -0.002   6.843  -2.510  1.00  0.00     0.027 A 
ATOM     12  C   UNL     1       2.072   7.019  -1.359  1.00  0.00     0.041 A 
ATOM     13  C   UNL     1       1.170   7.538  -2.291  1.00  0.00     0.032 A 
BRANCH   9  14
ATOM     14  N   UNL     1       0.176   4.018  -0.156  1.00  0.00    -0.370 N 
ATOM     15  C   UNL     1      -0.573   0.462  -0.140  1.00  0.00     0.010 C 
ATOM     16  C   UNL     1      -0.908   1.923   0.136  1.00  0.00     0.010 C 
ATOM     17  C   UNL     1      -0.271   2.844  -0.913  1.00  0.00     0.120 C 
ATOM     18  C   UNL     1      -0.364   2.447   1.476  1.00  0.00     0.010 C 
ATOM     19  C   UNL     1      -0.231   3.961   1.240  1.00  0.00     0.120 C 
ATOM     20  C   UNL     1      -1.221   2.093   2.677  1.00  0.00     0.010 C 
ENDBRANCH   9  14
BRANCH  13  21
ATOM     21  N   UNL     1       1.495   8.639  -3.067  1.00  0.00    -0.399 N 
ATOM     22  H   UNL     1       0.846   8.990  -3.719  1.00  0.00     0.156 HD
ATOM     23  H   UNL     1       2.374   9.070  -2.966  1.00  0.00     0.156 HD
ENDBRANCH  13  21
ENDBRANCH   5   8
ENDBRANCH   3   4
ENDBRANCH   2   3
ENDBRANCH   1   2
BRANCH   1  24
ATOM     24  C   UNL     1       3.601   0.667   2.613  1.00  0.00     0.116 C 
BRANCH  24  25
ATOM     25  N   UNL     1       2.351  -0.000   2.258  1.00  0.00    -0.352 N 
ATOM     26  C   UNL     1       1.578  -0.859   3.010  1.00  0.00     0.251 C 
ATOM     27  H   UNL     1       2.013   0.191   1.353  1.00  0.00     0.163 HD
ATOM     28  O   UNL     1       0.532  -1.294   2.567  1.00  0.00    -0.269 OA
BRANCH  26  29
ATOM     29  C   UNL     1       2.082  -1.331   4.326  1.00  0.00     0.039 A 
ATOM     30  C   UNL     1       2.117  -2.710   4.559  1.00  0.00     0.014 A 
ATOM     31  C   UNL     1       2.629  -0.446   5.258  1.00  0.00     0.014 A 
ATOM     32  C   UNL     1       2.845  -3.205   5.640  1.00  0.00     0.010 A 
ATOM     33  C   UNL     1       3.421  -0.944   6.287  1.00  0.00     0.010 A 
ATOM     34  C   UNL     1       3.578  -2.328   6.455  1.00  0.00    -0.014 A 
BRANCH  34  35
ATOM     35  C   UNL     1       4.604  -2.845   7.398  1.00  0.00     0.031 A 
ATOM     36  C   UNL     1       4.477  -2.617   8.874  1.00  0.00     0.074 A 
ATOM     37  C   UNL     1       5.704  -3.438   6.892  1.00  0.00     0.049 A 
ATOM     38  N   UNL     1       5.298  -2.953   9.835  1.00  0.00    -0.248 NA
ATOM     39  C   UNL     1       3.287  -1.883   9.323  1.00  0.00     0.031 C 
ATOM     40  C   UNL     1       5.975  -3.642   5.465  1.00  0.00     0.029 A 
ATOM     41  N   UNL     1       6.804  -3.975   7.513  1.00  0.00    -0.354 N 
ATOM     42  C   UNL     1       4.728  -2.468  11.007  1.00  0.00     0.074 A 
ATOM     43  C   UNL     1       3.528  -1.754  10.619  1.00  0.00     0.031 C 
ATOM     44  C   UNL     1       7.141  -4.291   5.324  1.00  0.00     0.029 A 
ATOM     45  C   UNL     1       7.721  -4.515   6.642  1.00  0.00     0.049 A 
ATOM     46  H   UNL     1       6.925  -3.973   8.490  1.00  0.00     0.167 HD
ATOM     47  C   UNL     1       5.153  -2.625  12.286  1.00  0.00     0.034 A 
ATOM     48  C   UNL     1       8.899  -5.125   6.879  1.00  0.00     0.034 A 
ATOM     49  C   UNL     1       6.359  -3.333  12.647  1.00  0.00     0.049 A 
ATOM     50  C   UNL     1       9.351  -5.292   8.303  1.00  0.00     0.074 A 
ATOM     51  C   UNL     1       6.866  -3.595  13.909  1.00  0.00     0.029 A 
ATOM     52  N   UNL     1       7.258  -3.884  11.740  1.00  0.00    -0.354 N 
ATOM     53  N   UNL     1       8.767  -4.886   9.407  1.00  0.00    -0.248 NA
ATOM     54  C   UNL     1      10.613  -6.010   8.514  1.00  0.00     0.031 C 
ATOM     55  C   UNL     1       8.094  -4.253  13.763  1.00  0.00     0.029 A 
ATOM     56  C   UNL     1       8.326  -4.461  12.413  1.00  0.00     0.049 A 
ATOM     57  H   UNL     1       7.152  -3.867  10.762  1.00  0.00     0.167 HD
ATOM     58  C   UNL     1       9.583  -5.320  10.447  1.00  0.00     0.074 A 
ATOM     59  C   UNL     1      10.688  -6.033   9.836  1.00  0.00     0.031 C 
ATOM     60  C   UNL     1       9.432  -5.147  11.785  1.00  0.00     0.034 A 
BRANCH  47  61
ATOM     61  C   UNL     1       4.309  -1.993  13.368  1.00  0.00     0.023 A 
ATOM     62  C   UNL     1       2.970  -2.375  13.568  1.00  0.00     0.031 A 
ATOM     63  C   UNL     1       4.819  -0.951  14.162  1.00  0.00     0.131 A 
ATOM     64  C   UNL     1       2.159  -1.655  14.458  1.00  0.00     0.055 A 
ATOM     65  C   UNL     1       4.031  -0.297  15.113  1.00  0.00     0.041 A 
ATOM     66  F   UNL     1       6.083  -0.528  14.007  1.00  0.00    -0.206 F 
ATOM     67  C   UNL     1       2.687  -0.633  15.250  1.00  0.00     0.022 A 
BRANCH  64  68
ATOM     68  S   UNL     1       0.370  -1.956  14.432  1.00  0.00     0.124 S 
ATOM     69  O   UNL     1       0.043  -1.663  13.038  1.00  0.00    -0.237 OA
ATOM     70  O   UNL     1       0.280  -3.356  14.830  1.00  0.00    -0.237 OA
ATOM     71  O   UNL     1      -0.153  -0.995  15.401  1.00  0.00    -0.744 OA
ENDBRANCH  64  68
ENDBRANCH  47  61
BRANCH  48  72
ATOM     72  C   UNL     1       9.721  -5.638   5.748  1.00  0.00     0.023 A 
ATOM     73  C   UNL     1       9.896  -7.017   5.553  1.00  0.00     0.031 A 
ATOM     74  C   UNL     1      10.354  -4.757   4.853  1.00  0.00     0.131 A 
ATOM     75  C   UNL     1      10.714  -7.477   4.510  1.00  0.00     0.055 A 
ATOM     76  C   UNL     1      11.134  -5.221   3.792  1.00  0.00     0.041 A 
ATOM     77  F   UNL     1      10.206  -3.430   4.989  1.00  0.00    -0.206 F 
ATOM     78  C   UNL     1      11.326  -6.588   3.622  1.00  0.00     0.022 A 
BRANCH  75  79
ATOM     79  S   UNL     1      11.009  -9.260   4.359  1.00  0.00     0.124 S 
ATOM     80  O   UNL     1      11.628  -9.570   5.643  1.00  0.00    -0.237 OA
ATOM     81  O   UNL     1       9.658  -9.774   4.157  1.00  0.00    -0.237 OA
ATOM     82  O   UNL     1      11.890  -9.363   3.198  1.00  0.00    -0.744 OA
ENDBRANCH  75  79
ENDBRANCH  48  72
BRANCH  60  83
ATOM     83  C   UNL     1      10.483  -5.773  12.667  1.00  0.00     0.023 A 
ATOM     84  C   UNL     1      11.808  -5.302  12.679  1.00  0.00     0.031 A 
ATOM     85  C   UNL     1      10.163  -6.877  13.476  1.00  0.00     0.131 A 
ATOM     86  C   UNL     1      12.779  -5.972  13.439  1.00  0.00     0.055 A 
ATOM     87  C   UNL     1      11.121  -7.504  14.273  1.00  0.00     0.041 A 
ATOM     88  F   UNL     1       8.914  -7.368  13.498  1.00  0.00    -0.206 F 
ATOM     89  C   UNL     1      12.441  -7.061  14.247  1.00  0.00     0.022 A 
BRANCH  86  90
ATOM     90  S   UNL     1      14.513  -5.462  13.280  1.00  0.00     0.124 S 
ATOM     91  O   UNL     1      14.750  -5.632  11.851  1.00  0.00    -0.237 OA
ATOM     92  O   UNL     1      14.477  -4.084  13.761  1.00  0.00    -0.237 OA
ATOM     93  O   UNL     1      15.227  -6.401  14.143  1.00  0.00    -0.744 OA
ENDBRANCH  86  90
ENDBRANCH  60  83
ENDBRANCH  34  35
ENDBRANCH  26  29
ENDBRANCH  24  25
ENDBRANCH   1  24
TORSDOF 16
