REMARK SMILES CC[NH2+][C@@]1(C(=O)NCCCCNC(=O)c2ccc(-c3c4nc(c(-c5cc(S(=O)(=O)[O-])ccc5F)c5ccc([nH]5)c(-c5cc(S(=O)(=O)[O-])ccc5F)c5nc(c(-c6cc(S(=O)(=O)[O-])ccc6F)c6ccc3[nH]6)C=C5)C=C4)cc2)CCC[C@@H]([N@@H+](C)C2CCCC2)C1
REMARK SMILES IDX 10 1 9 2 8 3 7 4 5 5 6 6 4 8 78 9 89 10 79 11 81 12 80 13
REMARK SMILES IDX 3 14 2 17 1 18 82 19 83 20 84 22 85 23 88 24 86 25 87 26
REMARK SMILES IDX 11 27 12 28 13 29 14 31 15 32 16 33 77 34 17 35 76 36 18 37
REMARK SMILES IDX 19 38 20 39 70 40 21 41 75 42 69 43 71 44 22 45 74 46 68 47
REMARK SMILES IDX 67 48 23 50 55 51 35 52 54 53 36 54 39 55 53 56 72 57 37 58
REMARK SMILES IDX 38 59 52 61 73 62 40 63 24 64 25 65 33 66 26 67 32 68 34 69
REMARK SMILES IDX 31 70 27 71 28 72 29 73 30 74 56 75 57 76 65 77 58 78 64 79
REMARK SMILES IDX 66 80 63 81 59 82 60 83 61 84 62 85 41 86 42 87 50 88 43 89
REMARK SMILES IDX 49 90 51 91 48 92 44 93 45 94 46 95 47 96
REMARK H PARENT 7 7 3 15 3 16 82 21 12 30 71 49 39 60
REMARK Flexibility Score: inf
ROOT
ATOM      1  C   UNL     1      -3.563  -7.086  -1.836  1.00  0.00     0.023 C 
ENDROOT
BRANCH   1   2
ATOM      2  C   UNL     1      -2.689  -6.409  -0.790  1.00  0.00     0.023 C 
BRANCH   2   3
ATOM      3  C   UNL     1      -1.316  -5.982  -1.299  1.00  0.00     0.116 C 
BRANCH   3   4
ATOM      4  N   UNL     1      -1.111  -4.545  -1.223  1.00  0.00    -0.351 N 
ATOM      5  C   UNL     1       0.131  -4.004  -1.036  1.00  0.00     0.281 C 
ATOM      6  O   UNL     1       0.715  -3.582  -2.042  1.00  0.00    -0.268 OA
ATOM      7  H   UNL     1      -1.887  -3.946  -1.308  1.00  0.00     0.163 HD
BRANCH   5   8
ATOM      8  C   UNL     1       0.761  -3.840   0.405  1.00  0.00     0.181 C 
ATOM      9  C   UNL     1       1.943  -4.814   0.567  1.00  0.00     0.079 C 
ATOM     10  C   UNL     1      -0.126  -3.959   1.661  1.00  0.00     0.144 C 
ATOM     11  C   UNL     1       1.550  -6.266   0.790  1.00  0.00     0.013 C 
ATOM     12  C   UNL     1      -0.621  -5.374   1.993  1.00  0.00     0.190 C 
ATOM     13  C   UNL     1       0.393  -6.518   1.760  1.00  0.00     0.065 C 
BRANCH   8  14
ATOM     14  N   UNL     1       1.395  -2.463   0.455  1.00  0.00    -0.334 N 
ATOM     15  H   UNL     1       1.687  -2.284   1.416  1.00  0.00     0.347 HD
ATOM     16  H   UNL     1       2.169  -2.482  -0.208  1.00  0.00     0.347 HD
BRANCH  14  17
ATOM     17  C   UNL     1       0.522  -1.358   0.033  1.00  0.00     0.257 C 
ATOM     18  C   UNL     1       1.094  -0.043   0.543  1.00  0.00     0.071 C 
ENDBRANCH  14  17
ENDBRANCH   8  14
BRANCH  12  19
ATOM     19  N   UNL     1      -1.426  -5.452   3.245  1.00  0.00    -0.332 N 
ATOM     20  C   UNL     1      -2.292  -6.639   3.245  1.00  0.00     0.333 C 
ATOM     21  H   UNL     1      -1.949  -4.580   3.166  1.00  0.00     0.348 HD
BRANCH  19  22
ATOM     22  C   UNL     1      -0.799  -5.266   4.563  1.00  0.00     0.184 C 
ATOM     23  C   UNL     1       0.555  -5.902   4.890  1.00  0.00     0.065 C 
ATOM     24  C   UNL     1      -0.659  -3.807   5.046  1.00  0.00     0.065 C 
ATOM     25  C   UNL     1       0.926  -5.241   6.207  1.00  0.00     0.006 C 
ATOM     26  C   UNL     1       0.593  -3.781   5.934  1.00  0.00     0.006 C 
ENDBRANCH  19  22
ENDBRANCH  12  19
ENDBRANCH   5   8
ENDBRANCH   3   4
ENDBRANCH   2   3
ENDBRANCH   1   2
BRANCH   1  27
ATOM     27  C   UNL     1      -2.954  -8.319  -2.489  1.00  0.00     0.116 C 
BRANCH  27  28
ATOM     28  N   UNL     1      -2.583  -9.380  -1.562  1.00  0.00    -0.352 N 
ATOM     29  C   UNL     1      -2.568 -10.735  -1.829  1.00  0.00     0.251 C 
ATOM     30  H   UNL     1      -2.315  -9.104  -0.656  1.00  0.00     0.163 HD
ATOM     31  O   UNL     1      -2.276 -11.551  -0.964  1.00  0.00    -0.269 OA
BRANCH  29  32
ATOM     32  C   UNL     1      -2.977 -11.161  -3.183  1.00  0.00     0.039 A 
ATOM     33  C   UNL     1      -4.146 -11.908  -3.331  1.00  0.00     0.014 A 
ATOM     34  C   UNL     1      -2.311 -10.637  -4.294  1.00  0.00     0.014 A 
ATOM     35  C   UNL     1      -4.706 -12.050  -4.601  1.00  0.00     0.010 A 
ATOM     36  C   UNL     1      -2.918 -10.708  -5.542  1.00  0.00     0.010 A 
ATOM     37  C   UNL     1      -4.128 -11.403  -5.707  1.00  0.00    -0.014 A 
BRANCH  37  38
ATOM     38  C   UNL     1      -4.769 -11.436  -7.048  1.00  0.00     0.031 A 
ATOM     39  C   UNL     1      -4.037 -12.061  -8.203  1.00  0.00     0.074 A 
ATOM     40  C   UNL     1      -5.960 -10.834  -7.244  1.00  0.00     0.049 A 
ATOM     41  N   UNL     1      -4.360 -12.097  -9.469  1.00  0.00    -0.248 NA
ATOM     42  C   UNL     1      -2.744 -12.692  -7.892  1.00  0.00     0.031 C 
ATOM     43  C   UNL     1      -6.742 -10.143  -6.215  1.00  0.00     0.029 A 
ATOM     44  N   UNL     1      -6.719 -10.697  -8.379  1.00  0.00    -0.354 N 
ATOM     45  C   UNL     1      -3.301 -12.732 -10.109  1.00  0.00     0.074 A 
ATOM     46  C   UNL     1      -2.298 -12.996  -9.100  1.00  0.00     0.031 C 
ATOM     47  C   UNL     1      -7.881  -9.683  -6.760  1.00  0.00     0.029 A 
ATOM     48  C   UNL     1      -7.895 -10.008  -8.183  1.00  0.00     0.049 A 
ATOM     49  H   UNL     1      -6.448 -11.058  -9.254  1.00  0.00     0.167 HD
ATOM     50  C   UNL     1      -3.188 -13.092 -11.412  1.00  0.00     0.034 A 
ATOM     51  C   UNL     1      -8.869  -9.675  -9.053  1.00  0.00     0.034 A 
ATOM     52  C   UNL     1      -4.210 -12.848 -12.398  1.00  0.00     0.049 A 
ATOM     53  C   UNL     1      -8.728 -10.092 -10.495  1.00  0.00     0.074 A 
ATOM     54  C   UNL     1      -4.229 -13.214 -13.732  1.00  0.00     0.029 A 
ATOM     55  N   UNL     1      -5.401 -12.175 -12.155  1.00  0.00    -0.354 N 
ATOM     56  N   UNL     1      -7.741 -10.735 -11.076  1.00  0.00    -0.248 NA
ATOM     57  C   UNL     1      -9.837  -9.751 -11.396  1.00  0.00     0.031 C 
ATOM     58  C   UNL     1      -5.406 -12.721 -14.306  1.00  0.00     0.029 A 
ATOM     59  C   UNL     1      -6.153 -12.102 -13.317  1.00  0.00     0.049 A 
ATOM     60  H   UNL     1      -5.672 -11.804 -11.284  1.00  0.00     0.167 HD
ATOM     61  C   UNL     1      -8.127 -10.902 -12.403  1.00  0.00     0.074 A 
ATOM     62  C   UNL     1      -9.439 -10.303 -12.533  1.00  0.00     0.031 C 
ATOM     63  C   UNL     1      -7.460 -11.498 -13.424  1.00  0.00     0.034 A 
BRANCH  50  64
ATOM     64  C   UNL     1      -1.907 -13.772 -11.828  1.00  0.00     0.023 A 
ATOM     65  C   UNL     1      -1.523 -15.010 -11.283  1.00  0.00     0.031 A 
ATOM     66  C   UNL     1      -1.031 -13.154 -12.737  1.00  0.00     0.131 A 
ATOM     67  C   UNL     1      -0.260 -15.543 -11.575  1.00  0.00     0.055 A 
ATOM     68  C   UNL     1       0.188 -13.735 -13.094  1.00  0.00     0.041 A 
ATOM     69  F   UNL     1      -1.333 -11.963 -13.277  1.00  0.00    -0.206 F 
ATOM     70  C   UNL     1       0.589 -14.928 -12.497  1.00  0.00     0.022 A 
BRANCH  67  71
ATOM     71  S   UNL     1       0.320 -16.966 -10.611  1.00  0.00     0.124 S 
ATOM     72  O   UNL     1       0.314 -16.422  -9.254  1.00  0.00    -0.237 OA
ATOM     73  O   UNL     1      -0.692 -17.976 -10.898  1.00  0.00    -0.237 OA
ATOM     74  O   UNL     1       1.646 -17.235 -11.161  1.00  0.00    -0.744 OA
ENDBRANCH  67  71
ENDBRANCH  50  64
BRANCH  51  75
ATOM     75  C   UNL     1     -10.067  -8.911  -8.600  1.00  0.00     0.023 A 
ATOM     76  C   UNL     1     -11.344  -9.493  -8.625  1.00  0.00     0.031 A 
ATOM     77  C   UNL     1      -9.961  -7.572  -8.183  1.00  0.00     0.131 A 
ATOM     78  C   UNL     1     -12.471  -8.727  -8.289  1.00  0.00     0.055 A 
ATOM     79  C   UNL     1     -11.080  -6.827  -7.804  1.00  0.00     0.041 A 
ATOM     80  F   UNL     1      -8.762  -6.969  -8.133  1.00  0.00    -0.206 F 
ATOM     81  C   UNL     1     -12.347  -7.401  -7.869  1.00  0.00     0.022 A 
BRANCH  78  82
ATOM     82  S   UNL     1     -14.115  -9.466  -8.489  1.00  0.00     0.124 S 
ATOM     83  O   UNL     1     -14.110  -9.826  -9.903  1.00  0.00    -0.237 OA
ATOM     84  O   UNL     1     -14.064 -10.577  -7.545  1.00  0.00    -0.237 OA
ATOM     85  O   UNL     1     -15.023  -8.381  -8.124  1.00  0.00    -0.744 OA
ENDBRANCH  78  82
ENDBRANCH  51  75
BRANCH  63  86
ATOM     86  C   UNL     1      -8.169 -11.575 -14.751  1.00  0.00     0.023 A 
ATOM     87  C   UNL     1      -8.415 -10.428 -15.525  1.00  0.00     0.031 A 
ATOM     88  C   UNL     1      -8.612 -12.816 -15.242  1.00  0.00     0.131 A 
ATOM     89  C   UNL     1      -9.129 -10.538 -16.727  1.00  0.00     0.055 A 
ATOM     90  C   UNL     1      -9.275 -12.926 -16.464  1.00  0.00     0.041 A 
ATOM     91  F   UNL     1      -8.402 -13.941 -14.541  1.00  0.00    -0.206 F 
ATOM     92  C   UNL     1      -9.547 -11.782 -17.209  1.00  0.00     0.022 A 
BRANCH  89  93
ATOM     93  S   UNL     1      -9.574  -9.023 -17.618  1.00  0.00     0.124 S 
ATOM     94  O   UNL     1     -10.372  -8.310 -16.625  1.00  0.00    -0.237 OA
ATOM     95  O   UNL     1      -8.269  -8.444 -17.922  1.00  0.00    -0.237 OA
ATOM     96  O   UNL     1     -10.319  -9.512 -18.777  1.00  0.00    -0.744 OA
ENDBRANCH  89  93
ENDBRANCH  63  86
ENDBRANCH  37  38
ENDBRANCH  29  32
ENDBRANCH  27  28
ENDBRANCH   1  27
TORSDOF 18
