REMARK SMILES O=C(NCCCCNC(=O)[C@@H](Cc1c[nH]c2ccccc12)NC(=O)c1ccc(F)cc1F)c1ccc(-c2c3nc(c(-c4cc(S(=O)(=O)[O-])ccc4F)c4ccc([nH]4)c(-c4cc(S(=O)(=O)[O-])ccc4F)c4nc(c(-c5cc(S(=O)(=O)[O-])ccc5F)c5ccc2[nH]5)C=C4)C=C3)cc1
REMARK SMILES IDX 5 1 4 2 3 3 1 4 2 5 33 7 34 8 95 9 35 10 94 11 36 12 37 13
REMARK SMILES IDX 38 14 88 15 39 16 93 17 87 18 89 19 40 20 92 21 86 22 85 23
REMARK SMILES IDX 41 25 73 26 53 27 72 28 54 29 57 30 71 31 90 32 55 33 56 34
REMARK SMILES IDX 70 36 91 37 58 38 42 39 43 40 51 41 44 42 50 43 52 44 49 45
REMARK SMILES IDX 45 46 46 47 47 48 48 49 74 50 75 51 83 52 76 53 82 54 84 55
REMARK SMILES IDX 81 56 77 57 78 58 79 59 80 60 59 61 60 62 68 63 61 64 67 65
REMARK SMILES IDX 69 66 66 67 62 68 63 69 64 70 65 71 6 72 7 73 8 74 9 75
REMARK SMILES IDX 10 77 11 78 12 79 13 80 14 81 21 82 15 83 16 84 20 85 17 87
REMARK SMILES IDX 19 88 18 89 22 90 23 91 24 93 25 94 26 95 31 96 27 97 30 98
REMARK SMILES IDX 32 99 28 100 29 101
REMARK H PARENT 3 6 89 24 57 35 8 76 15 86 22 92
REMARK Flexibility Score: inf
ROOT
ATOM      1  C   UNL     1       6.141   1.325  -0.197  1.00  0.00     0.023 C 
ENDROOT
BRANCH   1   2
ATOM      2  C   UNL     1       5.189   0.438   0.584  1.00  0.00     0.116 C 
BRANCH   2   3
ATOM      3  N   UNL     1       3.764   0.715   0.367  1.00  0.00    -0.352 N 
ATOM      4  O   UNL     1       1.626   0.308  -0.261  1.00  0.00    -0.269 OA
ATOM      5  C   UNL     1       2.751  -0.123  -0.070  1.00  0.00     0.251 C 
ATOM      6  H   UNL     1       3.485   1.639   0.562  1.00  0.00     0.163 HD
BRANCH   5   7
ATOM      7  C   UNL     1       3.084  -1.539  -0.336  1.00  0.00     0.039 A 
ATOM      8  C   UNL     1       3.897  -2.206   0.571  1.00  0.00     0.014 A 
ATOM      9  C   UNL     1       2.742  -2.134  -1.553  1.00  0.00     0.014 A 
ATOM     10  C   UNL     1       4.632  -3.287   0.126  1.00  0.00     0.010 A 
ATOM     11  C   UNL     1       3.347  -3.344  -1.916  1.00  0.00     0.010 A 
ATOM     12  C   UNL     1       4.356  -3.893  -1.112  1.00  0.00    -0.014 A 
BRANCH  12  13
ATOM     13  C   UNL     1       5.139  -5.104  -1.489  1.00  0.00     0.031 A 
ATOM     14  C   UNL     1       5.941  -5.168  -2.764  1.00  0.00     0.074 A 
ATOM     15  C   UNL     1       5.192  -6.120  -0.602  1.00  0.00     0.049 A 
ATOM     16  N   UNL     1       6.662  -6.158  -3.228  1.00  0.00    -0.248 NA
ATOM     17  C   UNL     1       5.927  -3.986  -3.640  1.00  0.00     0.031 C 
ATOM     18  C   UNL     1       4.461  -6.161   0.671  1.00  0.00     0.029 A 
ATOM     19  N   UNL     1       5.919  -7.281  -0.592  1.00  0.00    -0.354 N 
ATOM     20  C   UNL     1       7.139  -5.744  -4.469  1.00  0.00     0.074 A 
ATOM     21  C   UNL     1       6.629  -4.407  -4.685  1.00  0.00     0.031 C 
ATOM     22  C   UNL     1       4.862  -7.221   1.381  1.00  0.00     0.029 A 
ATOM     23  C   UNL     1       5.759  -8.018   0.560  1.00  0.00     0.049 A 
ATOM     24  H   UNL     1       6.500  -7.561  -1.336  1.00  0.00     0.167 HD
ATOM     25  C   UNL     1       7.919  -6.427  -5.344  1.00  0.00     0.034 A 
ATOM     26  C   UNL     1       6.235  -9.227   0.907  1.00  0.00     0.034 A 
ATOM     27  C   UNL     1       8.453  -7.744  -5.082  1.00  0.00     0.049 A 
ATOM     28  C   UNL     1       7.094  -9.956  -0.084  1.00  0.00     0.074 A 
ATOM     29  C   UNL     1       9.281  -8.514  -5.882  1.00  0.00     0.029 A 
ATOM     30  N   UNL     1       8.216  -8.487  -3.932  1.00  0.00    -0.354 N 
ATOM     31  N   UNL     1       7.497  -9.560  -1.269  1.00  0.00    -0.248 NA
ATOM     32  C   UNL     1       7.542 -11.298   0.297  1.00  0.00     0.031 C 
ATOM     33  C   UNL     1       9.495  -9.741  -5.245  1.00  0.00     0.029 A 
ATOM     34  C   UNL     1       8.857  -9.715  -4.015  1.00  0.00     0.049 A 
ATOM     35  H   UNL     1       7.673  -8.186  -3.168  1.00  0.00     0.167 HD
ATOM     36  C   UNL     1       8.242 -10.614  -1.781  1.00  0.00     0.074 A 
ATOM     37  C   UNL     1       8.268 -11.640  -0.756  1.00  0.00     0.031 C 
ATOM     38  C   UNL     1       8.841 -10.732  -2.993  1.00  0.00     0.034 A 
BRANCH  25  39
ATOM     39  C   UNL     1       8.194  -5.803  -6.692  1.00  0.00     0.023 A 
ATOM     40  C   UNL     1       9.001  -4.663  -6.848  1.00  0.00     0.031 A 
ATOM     41  C   UNL     1       7.653  -6.389  -7.853  1.00  0.00     0.131 A 
ATOM     42  C   UNL     1       9.212  -4.125  -8.130  1.00  0.00     0.055 A 
ATOM     43  C   UNL     1       7.917  -5.886  -9.128  1.00  0.00     0.041 A 
ATOM     44  F   UNL     1       6.860  -7.469  -7.764  1.00  0.00    -0.206 F 
ATOM     45  C   UNL     1       8.695  -4.742  -9.272  1.00  0.00     0.022 A 
BRANCH  42  46
ATOM     46  S   UNL     1      10.102  -2.551  -8.281  1.00  0.00     0.124 S 
ATOM     47  O   UNL     1       9.244  -1.651  -7.514  1.00  0.00    -0.237 OA
ATOM     48  O   UNL     1      11.396  -2.861  -7.685  1.00  0.00    -0.237 OA
ATOM     49  O   UNL     1      10.122  -2.304  -9.722  1.00  0.00    -0.744 OA
ENDBRANCH  42  46
ENDBRANCH  25  39
BRANCH  26  50
ATOM     50  C   UNL     1       5.835  -9.847   2.202  1.00  0.00     0.023 A 
ATOM     51  C   UNL     1       6.785 -10.163   3.183  1.00  0.00     0.031 A 
ATOM     52  C   UNL     1       4.484 -10.140   2.472  1.00  0.00     0.131 A 
ATOM     53  C   UNL     1       6.375 -10.779   4.376  1.00  0.00     0.055 A 
ATOM     54  C   UNL     1       4.075 -10.692   3.685  1.00  0.00     0.041 A 
ATOM     55  F   UNL     1       3.533  -9.859   1.567  1.00  0.00    -0.206 F 
ATOM     56  C   UNL     1       5.026 -11.027   4.641  1.00  0.00     0.022 A 
BRANCH  53  57
ATOM     57  S   UNL     1       7.644 -11.337   5.545  1.00  0.00     0.124 S 
ATOM     58  O   UNL     1       8.487 -12.171   4.695  1.00  0.00    -0.237 OA
ATOM     59  O   UNL     1       8.226 -10.073   5.983  1.00  0.00    -0.237 OA
ATOM     60  O   UNL     1       6.877 -12.055   6.560  1.00  0.00    -0.744 OA
ENDBRANCH  53  57
ENDBRANCH  26  50
BRANCH  38  61
ATOM     61  C   UNL     1       9.576 -12.021  -3.243  1.00  0.00     0.023 A 
ATOM     62  C   UNL     1       8.886 -13.238  -3.377  1.00  0.00     0.031 A 
ATOM     63  C   UNL     1      10.980 -12.041  -3.290  1.00  0.00     0.131 A 
ATOM     64  C   UNL     1       9.603 -14.437  -3.482  1.00  0.00     0.055 A 
ATOM     65  C   UNL     1      11.688 -13.231  -3.454  1.00  0.00     0.041 A 
ATOM     66  F   UNL     1      11.684 -10.905  -3.162  1.00  0.00    -0.206 F 
ATOM     67  C   UNL     1      11.000 -14.440  -3.536  1.00  0.00     0.022 A 
BRANCH  64  68
ATOM     68  S   UNL     1       8.688 -16.002  -3.441  1.00  0.00     0.124 S 
ATOM     69  O   UNL     1       8.020 -15.927  -2.147  1.00  0.00    -0.237 OA
ATOM     70  O   UNL     1       7.825 -15.889  -4.612  1.00  0.00    -0.237 OA
ATOM     71  O   UNL     1       9.738 -17.014  -3.540  1.00  0.00    -0.744 OA
ENDBRANCH  64  68
ENDBRANCH  38  61
ENDBRANCH  12  13
ENDBRANCH   5   7
ENDBRANCH   2   3
ENDBRANCH   1   2
BRANCH   1  72
ATOM     72  C   UNL     1       5.927   2.802   0.038  1.00  0.00     0.023 C 
BRANCH  72  73
ATOM     73  C   UNL     1       6.196   3.365   1.448  1.00  0.00     0.116 C 
BRANCH  73  74
ATOM     74  N   UNL     1       7.253   4.365   1.368  1.00  0.00    -0.354 N 
ATOM     75  C   UNL     1       7.286   5.721   1.349  1.00  0.00     0.242 C 
ATOM     76  H   UNL     1       8.150   3.964   1.314  1.00  0.00     0.163 HD
ATOM     77  O   UNL     1       8.289   6.209   0.804  1.00  0.00    -0.273 OA
BRANCH  75  78
ATOM     78  C   UNL     1       6.208   6.699   1.898  1.00  0.00     0.176 C 
BRANCH  78  79
ATOM     79  C   UNL     1       5.276   7.404   0.870  1.00  0.00     0.072 C 
BRANCH  79  80
ATOM     80  C   UNL     1       4.098   6.625   0.376  1.00  0.00    -0.020 A 
ATOM     81  C   UNL     1       4.205   5.412  -0.251  1.00  0.00     0.087 A 
ATOM     82  C   UNL     1       2.725   7.001   0.171  1.00  0.00     0.003 A 
ATOM     83  N   UNL     1       2.968   4.862  -0.389  1.00  0.00    -0.361 N 
ATOM     84  C   UNL     1       2.038   5.857  -0.253  1.00  0.00     0.046 A 
ATOM     85  C   UNL     1       1.998   8.207   0.232  1.00  0.00     0.010 A 
ATOM     86  H   UNL     1       2.776   3.911  -0.557  1.00  0.00     0.166 HD
ATOM     87  C   UNL     1       0.672   5.825  -0.542  1.00  0.00     0.026 A 
ATOM     88  C   UNL     1       0.647   8.216  -0.157  1.00  0.00     0.001 A 
ATOM     89  C   UNL     1      -0.008   7.040  -0.517  1.00  0.00     0.002 A 
ENDBRANCH  79  80
ENDBRANCH  78  79
BRANCH  78  90
ATOM     90  N   UNL     1       5.547   6.348   3.159  1.00  0.00    -0.340 N 
ATOM     91  C   UNL     1       5.811   6.797   4.439  1.00  0.00     0.254 C 
ATOM     92  H   UNL     1       4.811   5.699   3.083  1.00  0.00     0.164 HD
ATOM     93  O   UNL     1       5.178   6.339   5.386  1.00  0.00    -0.269 OA
BRANCH  91  94
ATOM     94  C   UNL     1       6.828   7.847   4.698  1.00  0.00     0.075 A 
ATOM     95  C   UNL     1       6.798   9.081   4.028  1.00  0.00     0.020 A 
ATOM     96  C   UNL     1       7.806   7.631   5.674  1.00  0.00     0.138 A 
ATOM     97  C   UNL     1       7.794  10.033   4.266  1.00  0.00     0.040 A 
ATOM     98  C   UNL     1       8.782   8.591   5.937  1.00  0.00     0.079 A 
ATOM     99  F   UNL     1       7.844   6.487   6.372  1.00  0.00    -0.206 F 
ATOM    100  C   UNL     1       8.778   9.777   5.215  1.00  0.00     0.126 A 
ATOM    101  F   UNL     1       9.729  10.693   5.442  1.00  0.00    -0.207 F 
ENDBRANCH  91  94
ENDBRANCH  78  90
ENDBRANCH  75  78
ENDBRANCH  73  74
ENDBRANCH  72  73
ENDBRANCH   1  72
TORSDOF 18
