REMARK SMILES Cc1nn(CC(=O)NCCCCNC(=O)c2ccc(-c3c4nc(c(-c5cc(S(=O)(=O)[O-])ccc5F)c5ccc([nH]5)c(-c5cc(S(=O)(=O)[O-])ccc5F)c5nc(c(-c6cc(S(=O)(=O)[O-])ccc6F)c6ccc3[nH]6)C=C5)C=C4)cc2)c(C)c1NS(=O)(=O)c1cccc2cccnc12
REMARK SMILES IDX 10 1 9 2 8 3 6 4 7 5 5 7 4 8 1 9 2 10 3 11 81 12 79 13 80 14
REMARK SMILES IDX 82 15 83 17 84 18 85 19 86 20 87 21 95 22 88 23 90 24 94 25
REMARK SMILES IDX 89 26 91 27 93 28 92 29 11 30 12 31 13 32 14 33 15 35 16 36
REMARK SMILES IDX 17 37 78 38 18 39 77 40 19 41 20 42 21 43 71 44 22 45 76 46
REMARK SMILES IDX 70 47 72 48 23 49 75 50 69 51 68 52 24 54 56 55 36 56 55 57
REMARK SMILES IDX 37 58 40 59 54 60 73 61 38 62 39 63 53 65 74 66 41 67 25 68
REMARK SMILES IDX 26 69 34 70 27 71 33 72 35 73 32 74 28 75 29 76 30 77 31 78
REMARK SMILES IDX 57 79 58 80 66 81 59 82 65 83 67 84 64 85 60 86 61 87 62 88
REMARK SMILES IDX 63 89 42 90 43 91 51 92 44 93 50 94 52 95 49 96 45 97 46 98
REMARK SMILES IDX 47 99 48 100
REMARK H PARENT 8 6 82 16 13 34 72 53 40 64
REMARK Flexibility Score: inf
ROOT
ATOM      1  C   UNL     1      -1.681  -3.342  -2.385  1.00  0.00     0.023 C 
ENDROOT
BRANCH   1   2
ATOM      2  C   UNL     1      -1.487  -4.675  -1.649  1.00  0.00     0.116 C 
BRANCH   2   3
ATOM      3  N   UNL     1      -0.220  -5.310  -1.953  1.00  0.00    -0.354 N 
ATOM      4  C   UNL     1       0.890  -5.496  -1.177  1.00  0.00     0.241 C 
ATOM      5  O   UNL     1       1.833  -6.103  -1.699  1.00  0.00    -0.273 OA
ATOM      6  H   UNL     1      -0.147  -5.665  -2.868  1.00  0.00     0.163 HD
BRANCH   4   7
ATOM      7  C   UNL     1       0.940  -5.153   0.299  1.00  0.00     0.244 C 
BRANCH   7   8
ATOM      8  N   UNL     1       0.555  -3.798   0.655  1.00  0.00    -0.258 N 
ATOM      9  C   UNL     1       0.572  -0.359  -0.103  1.00  0.00     0.071 C 
ATOM     10  C   UNL     1       0.286  -1.725   0.404  1.00  0.00     0.084 A 
ATOM     11  N   UNL     1       1.043  -2.744  -0.020  1.00  0.00    -0.175 NA
ATOM     12  C   UNL     1      -0.709  -2.156   1.335  1.00  0.00     0.093 A 
ATOM     13  C   UNL     1      -0.283  -3.421   1.683  1.00  0.00     0.060 A 
ATOM     14  C   UNL     1      -0.578  -4.326   2.819  1.00  0.00     0.069 C 
BRANCH  12  15
ATOM     15  N   UNL     1      -1.786  -1.380   1.761  1.00  0.00    -0.276 N 
ATOM     16  H   UNL     1      -1.795  -0.457   1.419  1.00  0.00     0.180 HD
BRANCH  15  17
ATOM     17  S   UNL     1      -3.077  -1.778   2.771  1.00  0.00     0.264 S 
ATOM     18  O   UNL     1      -2.555  -1.701   4.124  1.00  0.00    -0.201 OA
ATOM     19  O   UNL     1      -4.135  -0.888   2.345  1.00  0.00    -0.201 OA
BRANCH  17  20
ATOM     20  C   UNL     1      -3.614  -3.414   2.337  1.00  0.00     0.114 A 
ATOM     21  C   UNL     1      -3.805  -3.694   0.972  1.00  0.00     0.024 A 
ATOM     22  C   UNL     1      -3.870  -4.373   3.328  1.00  0.00     0.091 A 
ATOM     23  C   UNL     1      -4.228  -4.957   0.573  1.00  0.00     0.002 A 
ATOM     24  C   UNL     1      -4.353  -5.633   2.894  1.00  0.00     0.002 A 
ATOM     25  N   UNL     1      -3.648  -4.167   4.646  1.00  0.00    -0.255 NA
ATOM     26  C   UNL     1      -4.510  -5.920   1.531  1.00  0.00     0.010 A 
ATOM     27  C   UNL     1      -4.662  -6.614   3.845  1.00  0.00     0.012 A 
ATOM     28  C   UNL     1      -3.901  -5.154   5.534  1.00  0.00     0.112 A 
ATOM     29  C   UNL     1      -4.427  -6.378   5.189  1.00  0.00     0.021 A 
ENDBRANCH  17  20
ENDBRANCH  15  17
ENDBRANCH  12  15
ENDBRANCH   7   8
ENDBRANCH   4   7
ENDBRANCH   2   3
ENDBRANCH   1   2
BRANCH   1  30
ATOM     30  C   UNL     1      -1.925  -3.438  -3.900  1.00  0.00     0.023 C 
BRANCH  30  31
ATOM     31  C   UNL     1      -3.218  -4.138  -4.298  1.00  0.00     0.116 C 
BRANCH  31  32
ATOM     32  N   UNL     1      -4.426  -3.397  -3.934  1.00  0.00    -0.352 N 
ATOM     33  C   UNL     1      -5.737  -3.758  -4.207  1.00  0.00     0.251 C 
ATOM     34  H   UNL     1      -4.294  -2.552  -3.445  1.00  0.00     0.163 HD
ATOM     35  O   UNL     1      -6.620  -2.909  -4.249  1.00  0.00    -0.269 OA
BRANCH  33  36
ATOM     36  C   UNL     1      -6.043  -5.184  -4.437  1.00  0.00     0.039 A 
ATOM     37  C   UNL     1      -6.929  -5.604  -5.432  1.00  0.00     0.014 A 
ATOM     38  C   UNL     1      -5.380  -6.117  -3.642  1.00  0.00     0.014 A 
ATOM     39  C   UNL     1      -7.068  -6.973  -5.674  1.00  0.00     0.010 A 
ATOM     40  C   UNL     1      -5.402  -7.447  -3.977  1.00  0.00     0.010 A 
ATOM     41  C   UNL     1      -6.280  -7.890  -4.956  1.00  0.00    -0.014 A 
BRANCH  41  42
ATOM     42  C   UNL     1      -6.250  -9.309  -5.307  1.00  0.00     0.031 A 
ATOM     43  C   UNL     1      -5.897  -9.570  -6.727  1.00  0.00     0.074 A 
ATOM     44  C   UNL     1      -6.297 -10.310  -4.399  1.00  0.00     0.049 A 
ATOM     45  N   UNL     1      -6.690  -9.943  -7.675  1.00  0.00    -0.248 NA
ATOM     46  C   UNL     1      -4.551  -9.203  -7.197  1.00  0.00     0.031 C 
ATOM     47  C   UNL     1      -6.328 -10.205  -2.935  1.00  0.00     0.029 A 
ATOM     48  N   UNL     1      -6.224 -11.657  -4.594  1.00  0.00    -0.354 N 
ATOM     49  C   UNL     1      -5.885 -10.129  -8.794  1.00  0.00     0.074 A 
ATOM     50  C   UNL     1      -4.659  -9.434  -8.508  1.00  0.00     0.031 C 
ATOM     51  C   UNL     1      -6.050 -11.408  -2.383  1.00  0.00     0.029 A 
ATOM     52  C   UNL     1      -5.996 -12.404  -3.438  1.00  0.00     0.049 A 
ATOM     53  H   UNL     1      -6.325 -12.070  -5.482  1.00  0.00     0.167 HD
ATOM     54  C   UNL     1      -6.199 -11.070  -9.729  1.00  0.00     0.034 A 
ATOM     55  C   UNL     1      -5.778 -13.745  -3.346  1.00  0.00     0.034 A 
ATOM     56  C   UNL     1      -7.559 -11.534  -9.547  1.00  0.00     0.049 A 
ATOM     57  C   UNL     1      -6.359 -14.346  -4.572  1.00  0.00     0.074 A 
ATOM     58  C   UNL     1      -8.803 -10.932  -9.540  1.00  0.00     0.029 A 
ATOM     59  N   UNL     1      -7.737 -12.752  -8.927  1.00  0.00    -0.354 N 
ATOM     60  N   UNL     1      -7.634 -14.314  -4.846  1.00  0.00    -0.248 NA
ATOM     61  C   UNL     1      -5.485 -14.541  -5.717  1.00  0.00     0.031 C 
ATOM     62  C   UNL     1      -9.518 -11.582  -8.489  1.00  0.00     0.029 A 
ATOM     63  C   UNL     1      -8.716 -12.604  -7.976  1.00  0.00     0.049 A 
ATOM     64  H   UNL     1      -7.247 -13.582  -9.129  1.00  0.00     0.167 HD
ATOM     65  C   UNL     1      -7.701 -14.031  -6.201  1.00  0.00     0.074 A 
ATOM     66  C   UNL     1      -6.351 -14.286  -6.703  1.00  0.00     0.031 C 
ATOM     67  C   UNL     1      -8.762 -13.349  -6.729  1.00  0.00     0.034 A 
BRANCH  54  68
ATOM     68  C   UNL     1      -5.197 -11.872 -10.539  1.00  0.00     0.023 A 
ATOM     69  C   UNL     1      -5.723 -12.832 -11.427  1.00  0.00     0.031 A 
ATOM     70  C   UNL     1      -3.809 -11.969 -10.290  1.00  0.00     0.131 A 
ATOM     71  C   UNL     1      -4.929 -13.886 -11.909  1.00  0.00     0.055 A 
ATOM     72  C   UNL     1      -3.008 -12.980 -10.831  1.00  0.00     0.041 A 
ATOM     73  F   UNL     1      -3.161 -11.158  -9.448  1.00  0.00    -0.206 F 
ATOM     74  C   UNL     1      -3.573 -13.969 -11.615  1.00  0.00     0.022 A 
BRANCH  71  75
ATOM     75  S   UNL     1      -5.752 -15.250 -12.770  1.00  0.00     0.124 S 
ATOM     76  O   UNL     1      -6.739 -15.664 -11.779  1.00  0.00    -0.237 OA
ATOM     77  O   UNL     1      -6.272 -14.584 -13.960  1.00  0.00    -0.237 OA
ATOM     78  O   UNL     1      -4.670 -16.201 -13.010  1.00  0.00    -0.744 OA
ENDBRANCH  71  75
ENDBRANCH  54  68
BRANCH  55  79
ATOM     79  C   UNL     1      -4.809 -14.459  -2.462  1.00  0.00     0.023 A 
ATOM     80  C   UNL     1      -4.879 -15.846  -2.196  1.00  0.00     0.031 A 
ATOM     81  C   UNL     1      -3.620 -13.803  -2.073  1.00  0.00     0.131 A 
ATOM     82  C   UNL     1      -3.791 -16.513  -1.578  1.00  0.00     0.055 A 
ATOM     83  C   UNL     1      -2.548 -14.467  -1.471  1.00  0.00     0.041 A 
ATOM     84  F   UNL     1      -3.424 -12.503  -2.345  1.00  0.00    -0.206 F 
ATOM     85  C   UNL     1      -2.624 -15.829  -1.231  1.00  0.00     0.022 A 
BRANCH  82  86
ATOM     86  S   UNL     1      -3.838 -18.315  -1.288  1.00  0.00     0.124 S 
ATOM     87  O   UNL     1      -4.878 -18.439  -0.274  1.00  0.00    -0.237 OA
ATOM     88  O   UNL     1      -4.153 -18.839  -2.611  1.00  0.00    -0.237 OA
ATOM     89  O   UNL     1      -2.486 -18.621  -0.817  1.00  0.00    -0.744 OA
ENDBRANCH  82  86
ENDBRANCH  55  79
BRANCH  67  90
ATOM     90  C   UNL     1     -10.018 -13.205  -5.889  1.00  0.00     0.023 A 
ATOM     91  C   UNL     1     -10.093 -12.591  -4.616  1.00  0.00     0.031 A 
ATOM     92  C   UNL     1     -11.223 -13.629  -6.478  1.00  0.00     0.131 A 
ATOM     93  C   UNL     1     -11.344 -12.434  -3.983  1.00  0.00     0.055 A 
ATOM     94  C   UNL     1     -12.458 -13.450  -5.859  1.00  0.00     0.041 A 
ATOM     95  F   UNL     1     -11.221 -14.201  -7.693  1.00  0.00    -0.206 F 
ATOM     96  C   UNL     1     -12.523 -12.856  -4.606  1.00  0.00     0.022 A 
BRANCH  93  97
ATOM     97  S   UNL     1     -11.466 -11.695  -2.319  1.00  0.00     0.124 S 
ATOM     98  O   UNL     1     -10.438 -12.395  -1.556  1.00  0.00    -0.237 OA
ATOM     99  O   UNL     1     -11.214 -10.280  -2.579  1.00  0.00    -0.237 OA
ATOM    100  O   UNL     1     -12.839 -12.001  -1.911  1.00  0.00    -0.744 OA
ENDBRANCH  93  97
ENDBRANCH  67  90
ENDBRANCH  41  42
ENDBRANCH  33  36
ENDBRANCH  31  32
ENDBRANCH  30  31
ENDBRANCH   1  30
TORSDOF 18
