REMARK SMILES Cc1ccc(C(=O)NCCCCNC(=O)c2ccc(-c3c4nc(c(-c5cc(S(=O)(=O)[O-])ccc5F)c5ccc([nH]5)c(-c5cc(S(=O)(=O)[O-])ccc5F)c5nc(c(-c6cc(S(=O)(=O)[O-])ccc6F)c6ccc3[nH]6)C=C5)C=C4)cc2)c2c1N[C@H](c1ccccc1F)[C@H]1CC=C[C@@H]21
REMARK SMILES IDX 11 1 10 2 9 3 8 4 6 5 7 6 5 8 1 9 2 10 3 11 80 12 4 13 79 14
REMARK SMILES IDX 81 15 94 16 82 17 90 19 93 20 91 21 92 22 83 23 84 24 88 25
REMARK SMILES IDX 85 26 87 27 89 28 86 29 12 30 13 31 14 32 15 34 16 35 17 36
REMARK SMILES IDX 78 37 18 38 77 39 19 40 20 41 21 42 71 43 22 44 76 45 70 46
REMARK SMILES IDX 72 47 23 48 75 49 69 50 68 51 24 53 56 54 36 55 55 56 37 57
REMARK SMILES IDX 40 58 54 59 73 60 38 61 39 62 53 64 74 65 41 66 25 67 26 68
REMARK SMILES IDX 34 69 27 70 33 71 35 72 32 73 28 74 29 75 30 76 31 77 57 78
REMARK SMILES IDX 58 79 66 80 59 81 65 82 67 83 64 84 60 85 61 86 62 87 63 88
REMARK SMILES IDX 42 89 43 90 51 91 44 92 50 93 52 94 49 95 45 96 46 97 47 98
REMARK SMILES IDX 48 99
REMARK H PARENT 8 7 81 18 13 33 72 52 40 63
REMARK Flexibility Score: inf
ROOT
ATOM      1  C   UNL     1      -2.231  -5.033  -5.838  1.00  0.00     0.023 C 
ENDROOT
BRANCH   1   2
ATOM      2  C   UNL     1      -1.358  -4.449  -4.722  1.00  0.00     0.023 C 
BRANCH   2   3
ATOM      3  C   UNL     1      -0.188  -3.593  -5.220  1.00  0.00     0.116 C 
BRANCH   3   4
ATOM      4  N   UNL     1      -0.681  -2.337  -5.739  1.00  0.00    -0.352 N 
ATOM      5  C   UNL     1      -0.960  -1.114  -5.184  1.00  0.00     0.251 C 
ATOM      6  O   UNL     1      -1.569  -0.351  -5.933  1.00  0.00    -0.269 OA
ATOM      7  H   UNL     1      -0.857  -2.366  -6.707  1.00  0.00     0.163 HD
BRANCH   5   8
ATOM      8  C   UNL     1      -0.558  -0.684  -3.792  1.00  0.00     0.045 A 
ATOM      9  C   UNL     1       0.744   0.390   0.207  1.00  0.00     0.046 C 
ATOM     10  C   UNL     1       0.218   0.072  -1.167  1.00  0.00    -0.028 A 
ATOM     11  C   UNL     1       0.019  -1.268  -1.497  1.00  0.00     0.006 A 
ATOM     12  C   UNL     1      -0.034   1.070  -2.133  1.00  0.00     0.042 A 
ATOM     13  C   UNL     1      -0.399  -1.629  -2.774  1.00  0.00     0.014 A 
ATOM     14  C   UNL     1      -0.395   0.696  -3.456  1.00  0.00    -0.005 A 
ATOM     15  N   UNL     1       0.072   2.404  -1.770  1.00  0.00    -0.377 N 
ATOM     16  C   UNL     1      -0.674   1.793  -4.464  1.00  0.00     0.050 C 
ATOM     17  C   UNL     1       0.164   3.474  -2.749  1.00  0.00     0.117 C 
ATOM     18  H   UNL     1       0.086   2.635  -0.814  1.00  0.00     0.161 HD
ATOM     19  C   UNL     1      -0.819   3.219  -3.899  1.00  0.00     0.031 C 
ATOM     20  C   UNL     1       0.377   1.994  -5.526  1.00  0.00    -0.023 C 
ATOM     21  C   UNL     1      -0.507   4.118  -5.112  1.00  0.00     0.034 C 
ATOM     22  C   UNL     1       0.450   3.278  -5.898  1.00  0.00    -0.030 C 
BRANCH  17  23
ATOM     23  C   UNL     1       0.029   4.804  -2.008  1.00  0.00     0.010 A 
ATOM     24  C   UNL     1       1.090   5.212  -1.172  1.00  0.00     0.009 A 
ATOM     25  C   UNL     1      -1.084   5.650  -2.087  1.00  0.00     0.128 A 
ATOM     26  C   UNL     1       1.032   6.413  -0.459  1.00  0.00     0.001 A 
ATOM     27  C   UNL     1      -1.143   6.852  -1.381  1.00  0.00     0.039 A 
ATOM     28  F   UNL     1      -2.138   5.353  -2.857  1.00  0.00    -0.207 F 
ATOM     29  C   UNL     1      -0.085   7.236  -0.565  1.00  0.00     0.003 A 
ENDBRANCH  17  23
ENDBRANCH   5   8
ENDBRANCH   3   4
ENDBRANCH   2   3
ENDBRANCH   1   2
BRANCH   1  30
ATOM     30  C   UNL     1      -1.506  -5.972  -6.794  1.00  0.00     0.116 C 
BRANCH  30  31
ATOM     31  N   UNL     1      -0.858  -7.078  -6.105  1.00  0.00    -0.352 N 
ATOM     32  C   UNL     1      -0.676  -8.361  -6.556  1.00  0.00     0.251 C 
ATOM     33  H   UNL     1      -0.507  -6.882  -5.207  1.00  0.00     0.163 HD
ATOM     34  O   UNL     1      -0.210  -9.223  -5.824  1.00  0.00    -0.269 OA
BRANCH  32  35
ATOM     35  C   UNL     1      -1.081  -8.682  -7.936  1.00  0.00     0.039 A 
ATOM     36  C   UNL     1      -2.018  -9.697  -8.145  1.00  0.00     0.014 A 
ATOM     37  C   UNL     1      -0.562  -7.948  -9.006  1.00  0.00     0.014 A 
ATOM     38  C   UNL     1      -2.469  -9.953  -9.439  1.00  0.00     0.010 A 
ATOM     39  C   UNL     1      -1.042  -8.179 -10.290  1.00  0.00     0.010 A 
ATOM     40  C   UNL     1      -1.992  -9.188 -10.515  1.00  0.00    -0.014 A 
BRANCH  40  41
ATOM     41  C   UNL     1      -2.448  -9.448 -11.898  1.00  0.00     0.031 A 
ATOM     42  C   UNL     1      -1.503 -10.083 -12.875  1.00  0.00     0.074 A 
ATOM     43  C   UNL     1      -3.677  -9.058 -12.282  1.00  0.00     0.049 A 
ATOM     44  N   UNL     1      -1.682 -10.341 -14.142  1.00  0.00    -0.248 NA
ATOM     45  C   UNL     1      -0.175 -10.461 -12.363  1.00  0.00     0.031 C 
ATOM     46  C   UNL     1      -4.659  -8.403 -11.418  1.00  0.00     0.029 A 
ATOM     47  N   UNL     1      -4.303  -9.140 -13.500  1.00  0.00    -0.354 N 
ATOM     48  C   UNL     1      -0.491 -10.904 -14.582  1.00  0.00     0.074 A 
ATOM     49  C   UNL     1       0.419 -10.909 -13.459  1.00  0.00     0.031 C 
ATOM     50  C   UNL     1      -5.767  -8.146 -12.133  1.00  0.00     0.029 A 
ATOM     51  C   UNL     1      -5.563  -8.591 -13.510  1.00  0.00     0.049 A 
ATOM     52  H   UNL     1      -3.888  -9.552 -14.292  1.00  0.00     0.167 HD
ATOM     53  C   UNL     1      -0.196 -11.395 -15.807  1.00  0.00     0.034 A 
ATOM     54  C   UNL     1      -6.450  -8.460 -14.517  1.00  0.00     0.034 A 
ATOM     55  C   UNL     1      -1.119 -11.399 -16.909  1.00  0.00     0.049 A 
ATOM     56  C   UNL     1      -6.096  -9.008 -15.876  1.00  0.00     0.074 A 
ATOM     57  C   UNL     1      -0.934 -11.921 -18.176  1.00  0.00     0.029 A 
ATOM     58  N   UNL     1      -2.397 -10.863 -16.876  1.00  0.00    -0.354 N 
ATOM     59  N   UNL     1      -4.998  -9.617 -16.256  1.00  0.00    -0.248 NA
ATOM     60  C   UNL     1      -7.098  -8.861 -16.942  1.00  0.00     0.031 C 
ATOM     61  C   UNL     1      -2.087 -11.668 -18.922  1.00  0.00     0.029 A 
ATOM     62  C   UNL     1      -3.008 -11.027 -18.107  1.00  0.00     0.049 A 
ATOM     63  H   UNL     1      -2.809 -10.430 -16.094  1.00  0.00     0.167 HD
ATOM     64  C   UNL     1      -5.186  -9.951 -17.594  1.00  0.00     0.074 A 
ATOM     65  C   UNL     1      -6.509  -9.486 -17.956  1.00  0.00     0.031 C 
ATOM     66  C   UNL     1      -4.339 -10.583 -18.444  1.00  0.00     0.034 A 
BRANCH  53  67
ATOM     67  C   UNL     1       1.165 -11.996 -16.023  1.00  0.00     0.023 A 
ATOM     68  C   UNL     1       2.081 -11.383 -16.895  1.00  0.00     0.031 A 
ATOM     69  C   UNL     1       1.516 -13.225 -15.436  1.00  0.00     0.131 A 
ATOM     70  C   UNL     1       3.300 -12.013 -17.172  1.00  0.00     0.055 A 
ATOM     71  C   UNL     1       2.745 -13.833 -15.692  1.00  0.00     0.041 A 
ATOM     72  F   UNL     1       0.674 -13.842 -14.591  1.00  0.00    -0.206 F 
ATOM     73  C   UNL     1       3.640 -13.230 -16.570  1.00  0.00     0.022 A 
BRANCH  70  74
ATOM     74  S   UNL     1       4.484 -11.290 -18.339  1.00  0.00     0.124 S 
ATOM     75  O   UNL     1       5.709 -11.252 -17.543  1.00  0.00    -0.237 OA
ATOM     76  O   UNL     1       4.476 -12.266 -19.425  1.00  0.00    -0.237 OA
ATOM     77  O   UNL     1       3.913  -9.985 -18.655  1.00  0.00    -0.744 OA
ENDBRANCH  70  74
ENDBRANCH  53  67
BRANCH  54  78
ATOM     78  C   UNL     1      -7.777  -7.841 -14.243  1.00  0.00     0.023 A 
ATOM     79  C   UNL     1      -7.889  -6.486 -13.885  1.00  0.00     0.031 A 
ATOM     80  C   UNL     1      -8.942  -8.626 -14.244  1.00  0.00     0.131 A 
ATOM     81  C   UNL     1      -9.134  -5.970 -13.497  1.00  0.00     0.055 A 
ATOM     82  C   UNL     1     -10.189  -8.095 -13.909  1.00  0.00     0.041 A 
ATOM     83  F   UNL     1      -8.879  -9.927 -14.567  1.00  0.00    -0.206 F 
ATOM     84  C   UNL     1     -10.287  -6.762 -13.522  1.00  0.00     0.022 A 
BRANCH  81  85
ATOM     85  S   UNL     1      -9.285  -4.277 -12.864  1.00  0.00     0.124 S 
ATOM     86  O   UNL     1     -10.327  -3.720 -13.723  1.00  0.00    -0.237 OA
ATOM     87  O   UNL     1      -9.673  -4.516 -11.476  1.00  0.00    -0.237 OA
ATOM     88  O   UNL     1      -7.951  -3.719 -13.052  1.00  0.00    -0.744 OA
ENDBRANCH  81  85
ENDBRANCH  54  78
BRANCH  66  89
ATOM     89  C   UNL     1      -4.792 -10.841 -19.857  1.00  0.00     0.023 A 
ATOM     90  C   UNL     1      -4.983 -12.164 -20.299  1.00  0.00     0.031 A 
ATOM     91  C   UNL     1      -4.855  -9.803 -20.800  1.00  0.00     0.131 A 
ATOM     92  C   UNL     1      -5.180 -12.418 -21.661  1.00  0.00     0.055 A 
ATOM     93  C   UNL     1      -5.092 -10.059 -22.151  1.00  0.00     0.041 A 
ATOM     94  F   UNL     1      -4.668  -8.528 -20.422  1.00  0.00    -0.206 F 
ATOM     95  C   UNL     1      -5.242 -11.373 -22.588  1.00  0.00     0.022 A 
BRANCH  92  96
ATOM     96  S   UNL     1      -5.292 -14.117 -22.287  1.00  0.00     0.124 S 
ATOM     97  O   UNL     1      -6.550 -14.087 -23.029  1.00  0.00    -0.237 OA
ATOM     98  O   UNL     1      -4.087 -14.220 -23.105  1.00  0.00    -0.237 OA
ATOM     99  O   UNL     1      -5.305 -14.937 -21.080  1.00  0.00    -0.744 OA
ENDBRANCH  92  96
ENDBRANCH  66  89
ENDBRANCH  40  41
ENDBRANCH  32  35
ENDBRANCH  30  31
ENDBRANCH   1  30
TORSDOF 15
