REMARK SMILES CC(C)(C)N(CC(=O)NCCCCNC(=O)c1ccc(-c2c3nc(c(-c4cc(S(=O)(=O)[O-])ccc4F)c4ccc([nH]4)c(-c4cc(S(=O)(=O)[O-])ccc4F)c4nc(c(-c5cc(S(=O)(=O)[O-])ccc5F)c5ccc2[nH]5)C=C4)C=C3)cc1)C(=O)NC[C@H]1CCOC1
REMARK SMILES IDX 11 1 10 2 9 3 7 4 8 5 6 7 5 8 2 9 1 10 3 11 4 12 80 13 81 14
REMARK SMILES IDX 82 15 83 17 84 18 85 19 88 20 86 21 87 22 12 23 13 24 14 25
REMARK SMILES IDX 15 26 16 28 17 29 18 30 79 31 19 32 78 33 20 34 21 35 22 36
REMARK SMILES IDX 72 37 23 38 77 39 71 40 73 41 24 42 76 43 70 44 69 45 25 47
REMARK SMILES IDX 57 48 37 49 56 50 38 51 41 52 55 53 74 54 39 55 40 56 54 58
REMARK SMILES IDX 75 59 42 60 26 61 27 62 35 63 28 64 34 65 36 66 33 67 29 68
REMARK SMILES IDX 30 69 31 70 32 71 58 72 59 73 67 74 60 75 66 76 68 77 65 78
REMARK SMILES IDX 61 79 62 80 63 81 64 82 43 83 44 84 52 85 45 86 51 87 53 88
REMARK SMILES IDX 50 89 46 90 47 91 48 92 49 93
REMARK H PARENT 9 6 82 16 14 27 73 46 41 57
REMARK Flexibility Score: inf
ROOT
ATOM      1  C   UNL     1       0.145  -3.376   2.639  1.00  0.00     0.023 C 
ENDROOT
BRANCH   1   2
ATOM      2  C   UNL     1       0.404  -2.090   1.863  1.00  0.00     0.116 C 
BRANCH   2   3
ATOM      3  N   UNL     1       1.023  -1.060   2.660  1.00  0.00    -0.355 N 
ATOM      4  C   UNL     1       2.290  -0.572   2.566  1.00  0.00     0.239 C 
ATOM      5  O   UNL     1       2.513   0.529   3.083  1.00  0.00    -0.273 OA
ATOM      6  H   UNL     1       0.458  -0.659   3.360  1.00  0.00     0.163 HD
BRANCH   4   7
ATOM      7  C   UNL     1       3.369  -1.247   1.698  1.00  0.00     0.221 C 
BRANCH   7   8
ATOM      8  N   UNL     1       3.532  -2.708   1.765  1.00  0.00    -0.311 N 
BRANCH   8   9
ATOM      9  C   UNL     1       3.590  -3.511   0.465  1.00  0.00     0.037 C 
ATOM     10  C   UNL     1       3.267  -2.697  -0.819  1.00  0.00     0.034 C 
ATOM     11  C   UNL     1       2.590  -4.696   0.453  1.00  0.00     0.034 C 
ATOM     12  C   UNL     1       5.022  -4.059   0.248  1.00  0.00     0.034 C 
ENDBRANCH   8   9
BRANCH   8  13
ATOM     13  C   UNL     1       3.895  -3.360   2.924  1.00  0.00     0.318 C 
ATOM     14  O   UNL     1       3.993  -4.590   2.989  1.00  0.00    -0.249 OA
ATOM     15  N   UNL     1       4.189  -2.763   4.088  1.00  0.00    -0.338 N 
ATOM     16  H   UNL     1       4.247  -3.439   4.801  1.00  0.00     0.165 HD
BRANCH  15  17
ATOM     17  C   UNL     1       4.450  -1.441   4.646  1.00  0.00     0.123 C 
BRANCH  17  18
ATOM     18  C   UNL     1       3.417  -1.070   5.707  1.00  0.00     0.036 C 
ATOM     19  C   UNL     1       3.531  -1.857   6.999  1.00  0.00     0.036 C 
ATOM     20  C   UNL     1       3.560   0.362   6.205  1.00  0.00     0.165 C 
ATOM     21  C   UNL     1       2.803  -0.956   7.970  1.00  0.00     0.160 C 
ATOM     22  O   UNL     1       3.113   0.385   7.571  1.00  0.00    -0.381 OA
ENDBRANCH  17  18
ENDBRANCH  15  17
ENDBRANCH   8  13
ENDBRANCH   7   8
ENDBRANCH   4   7
ENDBRANCH   2   3
ENDBRANCH   1   2
BRANCH   1  23
ATOM     23  C   UNL     1      -1.005  -3.310   3.643  1.00  0.00     0.023 C 
BRANCH  23  24
ATOM     24  C   UNL     1      -2.327  -2.780   3.096  1.00  0.00     0.116 C 
BRANCH  24  25
ATOM     25  N   UNL     1      -2.767  -3.432   1.870  1.00  0.00    -0.352 N 
ATOM     26  C   UNL     1      -4.051  -3.712   1.461  1.00  0.00     0.251 C 
ATOM     27  H   UNL     1      -2.052  -3.709   1.253  1.00  0.00     0.163 HD
ATOM     28  O   UNL     1      -4.242  -4.322   0.413  1.00  0.00    -0.269 OA
BRANCH  26  29
ATOM     29  C   UNL     1      -5.184  -3.319   2.324  1.00  0.00     0.039 A 
ATOM     30  C   UNL     1      -6.136  -4.283   2.663  1.00  0.00     0.014 A 
ATOM     31  C   UNL     1      -5.265  -2.028   2.851  1.00  0.00     0.014 A 
ATOM     32  C   UNL     1      -7.121  -3.976   3.604  1.00  0.00     0.010 A 
ATOM     33  C   UNL     1      -6.200  -1.749   3.843  1.00  0.00     0.010 A 
ATOM     34  C   UNL     1      -7.130  -2.723   4.238  1.00  0.00    -0.014 A 
BRANCH  34  35
ATOM     35  C   UNL     1      -8.099  -2.408   5.320  1.00  0.00     0.031 A 
ATOM     36  C   UNL     1      -9.105  -1.308   5.124  1.00  0.00     0.074 A 
ATOM     37  C   UNL     1      -8.022  -3.058   6.499  1.00  0.00     0.049 A 
ATOM     38  N   UNL     1      -9.951  -0.797   5.980  1.00  0.00    -0.248 NA
ATOM     39  C   UNL     1      -9.138  -0.677   3.796  1.00  0.00     0.031 C 
ATOM     40  C   UNL     1      -7.063  -4.119   6.822  1.00  0.00     0.029 A 
ATOM     41  N   UNL     1      -8.754  -2.917   7.651  1.00  0.00    -0.354 N 
ATOM     42  C   UNL     1     -10.608   0.223   5.300  1.00  0.00     0.074 A 
ATOM     43  C   UNL     1     -10.016   0.297   3.982  1.00  0.00     0.031 C 
ATOM     44  C   UNL     1      -7.282  -4.545   8.076  1.00  0.00     0.029 A 
ATOM     45  C   UNL     1      -8.363  -3.761   8.666  1.00  0.00     0.049 A 
ATOM     46  H   UNL     1      -9.491  -2.271   7.744  1.00  0.00     0.167 HD
ATOM     47  C   UNL     1     -11.628   1.008   5.727  1.00  0.00     0.034 A 
ATOM     48  C   UNL     1      -8.817  -3.880   9.929  1.00  0.00     0.034 A 
ATOM     49  C   UNL     1     -12.221   0.911   7.037  1.00  0.00     0.049 A 
ATOM     50  C   UNL     1      -9.943  -2.985  10.383  1.00  0.00     0.074 A 
ATOM     51  C   UNL     1     -13.276   1.636   7.564  1.00  0.00     0.029 A 
ATOM     52  N   UNL     1     -11.815   0.027   8.028  1.00  0.00    -0.354 N 
ATOM     53  N   UNL     1     -10.571  -2.043   9.716  1.00  0.00    -0.248 NA
ATOM     54  C   UNL     1     -10.430  -3.176  11.756  1.00  0.00     0.031 C 
ATOM     55  C   UNL     1     -13.476   1.224   8.887  1.00  0.00     0.029 A 
ATOM     56  C   UNL     1     -12.588   0.197   9.165  1.00  0.00     0.049 A 
ATOM     57  H   UNL     1     -11.083  -0.626   7.937  1.00  0.00     0.167 HD
ATOM     58  C   UNL     1     -11.551  -1.560  10.579  1.00  0.00     0.074 A 
ATOM     59  C   UNL     1     -11.439  -2.320  11.805  1.00  0.00     0.031 C 
ATOM     60  C   UNL     1     -12.465  -0.577  10.376  1.00  0.00     0.034 A 
BRANCH  47  61
ATOM     61  C   UNL     1     -12.150   2.046   4.765  1.00  0.00     0.023 A 
ATOM     62  C   UNL     1     -12.771   1.678   3.558  1.00  0.00     0.031 A 
ATOM     63  C   UNL     1     -12.006   3.416   5.041  1.00  0.00     0.131 A 
ATOM     64  C   UNL     1     -13.158   2.666   2.640  1.00  0.00     0.055 A 
ATOM     65  C   UNL     1     -12.466   4.396   4.159  1.00  0.00     0.041 A 
ATOM     66  F   UNL     1     -11.403   3.826   6.168  1.00  0.00    -0.206 F 
ATOM     67  C   UNL     1     -13.033   4.023   2.944  1.00  0.00     0.022 A 
BRANCH  64  68
ATOM     68  S   UNL     1     -13.709   2.148   0.993  1.00  0.00     0.124 S 
ATOM     69  O   UNL     1     -12.511   1.490   0.476  1.00  0.00    -0.237 OA
ATOM     70  O   UNL     1     -14.837   1.275   1.296  1.00  0.00    -0.237 OA
ATOM     71  O   UNL     1     -14.054   3.407   0.335  1.00  0.00    -0.744 OA
ENDBRANCH  64  68
ENDBRANCH  47  61
BRANCH  48  72
ATOM     72  C   UNL     1      -8.216  -4.871  10.868  1.00  0.00     0.023 A 
ATOM     73  C   UNL     1      -8.983  -5.929  11.382  1.00  0.00     0.031 A 
ATOM     74  C   UNL     1      -6.893  -4.736  11.322  1.00  0.00     0.131 A 
ATOM     75  C   UNL     1      -8.444  -6.772  12.366  1.00  0.00     0.055 A 
ATOM     76  C   UNL     1      -6.342  -5.612  12.259  1.00  0.00     0.041 A 
ATOM     77  F   UNL     1      -6.113  -3.746  10.859  1.00  0.00    -0.206 F 
ATOM     78  C   UNL     1      -7.125  -6.628  12.801  1.00  0.00     0.022 A 
BRANCH  75  79
ATOM     79  S   UNL     1      -9.532  -7.992  13.153  1.00  0.00     0.124 S 
ATOM     80  O   UNL     1     -10.625  -7.152  13.630  1.00  0.00    -0.237 OA
ATOM     81  O   UNL     1      -9.845  -8.880  12.038  1.00  0.00    -0.237 OA
ATOM     82  O   UNL     1      -8.691  -8.575  14.195  1.00  0.00    -0.744 OA
ENDBRANCH  75  79
ENDBRANCH  48  72
BRANCH  60  83
ATOM     83  C   UNL     1     -13.450  -0.322  11.488  1.00  0.00     0.023 A 
ATOM     84  C   UNL     1     -13.052   0.232  12.717  1.00  0.00     0.031 A 
ATOM     85  C   UNL     1     -14.805  -0.655  11.317  1.00  0.00     0.131 A 
ATOM     86  C   UNL     1     -13.991   0.386  13.748  1.00  0.00     0.055 A 
ATOM     87  C   UNL     1     -15.744  -0.450  12.328  1.00  0.00     0.041 A 
ATOM     88  F   UNL     1     -15.237  -1.187  10.162  1.00  0.00    -0.206 F 
ATOM     89  C   UNL     1     -15.336   0.061  13.556  1.00  0.00     0.022 A 
BRANCH  86  90
ATOM     90  S   UNL     1     -13.412   0.939  15.376  1.00  0.00     0.124 S 
ATOM     91  O   UNL     1     -12.442  -0.094  15.722  1.00  0.00    -0.237 OA
ATOM     92  O   UNL     1     -12.861   2.257  15.079  1.00  0.00    -0.237 OA
ATOM     93  O   UNL     1     -14.628   0.946  16.188  1.00  0.00    -0.744 OA
ENDBRANCH  86  90
ENDBRANCH  60  83
ENDBRANCH  34  35
ENDBRANCH  26  29
ENDBRANCH  24  25
ENDBRANCH  23  24
ENDBRANCH   1  23
TORSDOF 19
