REMARK SMILES C[C@@H](C(=O)NCCCCNC(=O)c1ccc(-c2c3nc(c(-c4cc(S(=O)(=O)[O-])ccc4F)c4ccc([nH]4)c(-c4cc(S(=O)(=O)[O-])ccc4F)c4nc(c(-c5cc(S(=O)(=O)[O-])ccc5F)c5ccc2[nH]5)C=C4)C=C3)cc1)c1ccc(C(=O)c2cccs2)cc1
REMARK SMILES IDX 7 1 6 2 5 3 3 4 4 5 2 7 1 8 76 9 77 10 88 11 78 12 87 13
REMARK SMILES IDX 79 14 80 15 81 16 82 17 83 18 86 19 84 20 85 21 8 22 9 23
REMARK SMILES IDX 10 24 11 25 12 27 13 28 14 29 75 30 15 31 74 32 16 33 17 34
REMARK SMILES IDX 18 35 68 36 19 37 73 38 67 39 69 40 20 41 72 42 66 43 65 44
REMARK SMILES IDX 21 46 53 47 33 48 52 49 34 50 37 51 51 52 70 53 35 54 36 55
REMARK SMILES IDX 50 57 71 58 38 59 22 60 23 61 31 62 24 63 30 64 32 65 29 66
REMARK SMILES IDX 25 67 26 68 27 69 28 70 54 71 55 72 63 73 56 74 62 75 64 76
REMARK SMILES IDX 61 77 57 78 58 79 59 80 60 81 39 82 40 83 48 84 41 85 47 86
REMARK SMILES IDX 49 87 46 88 42 89 43 90 44 91 45 92
REMARK H PARENT 5 6 10 26 69 45 37 56
REMARK Flexibility Score: inf
ROOT
ATOM      1  C   UNL     1       4.210   0.987   0.853  1.00  0.00     0.023 C 
ENDROOT
BRANCH   1   2
ATOM      2  C   UNL     1       3.451   0.084   1.826  1.00  0.00     0.116 C 
BRANCH   2   3
ATOM      3  N   UNL     1       2.438   0.829   2.543  1.00  0.00    -0.356 N 
ATOM      4  C   UNL     1       1.087   0.882   2.366  1.00  0.00     0.227 C 
ATOM      5  O   UNL     1       0.476   1.676   3.082  1.00  0.00    -0.274 OA
ATOM      6  H   UNL     1       2.780   1.387   3.278  1.00  0.00     0.163 HD
BRANCH   4   7
ATOM      7  C   UNL     1       0.404  -0.054   1.351  1.00  0.00     0.105 C 
ATOM      8  C   UNL     1       0.727   0.292  -0.104  1.00  0.00     0.023 C 
BRANCH   7   9
ATOM      9  C   UNL     1      -1.116  -0.108   1.496  1.00  0.00    -0.036 A 
ATOM     10  C   UNL     1      -1.893   1.060   1.505  1.00  0.00     0.005 A 
ATOM     11  C   UNL     1      -1.771  -1.346   1.543  1.00  0.00     0.005 A 
ATOM     12  C   UNL     1      -3.284   0.995   1.595  1.00  0.00     0.012 A 
ATOM     13  C   UNL     1      -3.167  -1.413   1.606  1.00  0.00     0.012 A 
ATOM     14  C   UNL     1      -3.937  -0.242   1.646  1.00  0.00     0.023 A 
BRANCH  14  15
ATOM     15  C   UNL     1      -5.437  -0.245   1.681  1.00  0.00     0.202 C 
ATOM     16  O   UNL     1      -6.025   0.836   1.671  1.00  0.00    -0.288 OA
BRANCH  15  17
ATOM     17  C   UNL     1      -6.144  -1.511   1.677  1.00  0.00     0.075 A 
ATOM     18  C   UNL     1      -6.114  -2.543   2.594  1.00  0.00     0.024 A 
ATOM     19  S   UNL     1      -7.218  -1.840   0.385  1.00  0.00    -0.140 S 
ATOM     20  C   UNL     1      -6.937  -3.638   2.196  1.00  0.00     0.012 A 
ATOM     21  C   UNL     1      -7.588  -3.389   1.008  1.00  0.00     0.065 A 
ENDBRANCH  15  17
ENDBRANCH  14  15
ENDBRANCH   7   9
ENDBRANCH   4   7
ENDBRANCH   2   3
ENDBRANCH   1   2
BRANCH   1  22
ATOM     22  C   UNL     1       4.988   2.128   1.515  1.00  0.00     0.023 C 
BRANCH  22  23
ATOM     23  C   UNL     1       5.976   1.697   2.590  1.00  0.00     0.116 C 
BRANCH  23  24
ATOM     24  N   UNL     1       6.964   0.757   2.090  1.00  0.00    -0.352 N 
ATOM     25  C   UNL     1       8.316   0.725   2.315  1.00  0.00     0.251 C 
ATOM     26  H   UNL     1       6.614   0.044   1.508  1.00  0.00     0.163 HD
ATOM     27  O   UNL     1       9.015  -0.049   1.661  1.00  0.00    -0.269 OA
BRANCH  25  28
ATOM     28  C   UNL     1       8.929   1.628   3.313  1.00  0.00     0.039 A 
ATOM     29  C   UNL     1      10.154   2.228   3.014  1.00  0.00     0.014 A 
ATOM     30  C   UNL     1       8.315   1.870   4.546  1.00  0.00     0.014 A 
ATOM     31  C   UNL     1      10.748   3.089   3.939  1.00  0.00     0.010 A 
ATOM     32  C   UNL     1       8.864   2.798   5.428  1.00  0.00     0.010 A 
ATOM     33  C   UNL     1      10.101   3.395   5.148  1.00  0.00    -0.014 A 
BRANCH  33  34
ATOM     34  C   UNL     1      10.741   4.286   6.151  1.00  0.00     0.031 A 
ATOM     35  C   UNL     1      11.123   3.742   7.503  1.00  0.00     0.074 A 
ATOM     36  C   UNL     1      10.959   5.583   5.855  1.00  0.00     0.049 A 
ATOM     37  N   UNL     1      11.687   4.352   8.514  1.00  0.00    -0.248 NA
ATOM     38  C   UNL     1      10.801   2.330   7.763  1.00  0.00     0.031 C 
ATOM     39  C   UNL     1      10.595   6.235   4.595  1.00  0.00     0.029 A 
ATOM     40  N   UNL     1      11.546   6.584   6.587  1.00  0.00    -0.354 N 
ATOM     41  C   UNL     1      11.772   3.405   9.531  1.00  0.00     0.074 A 
ATOM     42  C   UNL     1      11.134   2.205   9.037  1.00  0.00     0.031 C 
ATOM     43  C   UNL     1      11.005   7.513   4.627  1.00  0.00     0.029 A 
ATOM     44  C   UNL     1      11.622   7.785   5.921  1.00  0.00     0.049 A 
ATOM     45  H   UNL     1      11.881   6.454   7.504  1.00  0.00     0.167 HD
ATOM     46  C   UNL     1      12.353   3.517  10.751  1.00  0.00     0.034 A 
ATOM     47  C   UNL     1      12.134   8.970   6.309  1.00  0.00     0.034 A 
ATOM     48  C   UNL     1      12.998   4.720  11.219  1.00  0.00     0.049 A 
ATOM     49  C   UNL     1      12.765   9.075   7.676  1.00  0.00     0.074 A 
ATOM     50  C   UNL     1      13.664   4.932  12.414  1.00  0.00     0.029 A 
ATOM     51  N   UNL     1      13.053   5.919  10.518  1.00  0.00    -0.354 N 
ATOM     52  N   UNL     1      12.890   8.153   8.604  1.00  0.00    -0.248 NA
ATOM     53  C   UNL     1      13.344  10.374   8.037  1.00  0.00     0.031 C 
ATOM     54  C   UNL     1      14.052   6.275  12.468  1.00  0.00     0.029 A 
ATOM     55  C   UNL     1      13.714   6.880  11.268  1.00  0.00     0.049 A 
ATOM     56  H   UNL     1      12.677   6.064   9.620  1.00  0.00     0.167 HD
ATOM     57  C   UNL     1      13.603   8.752   9.640  1.00  0.00     0.074 A 
ATOM     58  C   UNL     1      13.890  10.107   9.213  1.00  0.00     0.031 C 
ATOM     59  C   UNL     1      13.992   8.230  10.832  1.00  0.00     0.034 A 
BRANCH  46  60
ATOM     60  C   UNL     1      12.287   2.316  11.667  1.00  0.00     0.023 A 
ATOM     61  C   UNL     1      12.866   1.082  11.319  1.00  0.00     0.031 A 
ATOM     62  C   UNL     1      11.604   2.394  12.894  1.00  0.00     0.131 A 
ATOM     63  C   UNL     1      12.679  -0.040  12.141  1.00  0.00     0.055 A 
ATOM     64  C   UNL     1      11.502   1.297  13.753  1.00  0.00     0.041 A 
ATOM     65  F   UNL     1      11.009   3.535  13.275  1.00  0.00    -0.206 F 
ATOM     66  C   UNL     1      12.025   0.066  13.370  1.00  0.00     0.022 A 
BRANCH  63  67
ATOM     67  S   UNL     1      13.158  -1.670  11.505  1.00  0.00     0.124 S 
ATOM     68  O   UNL     1      12.358  -1.757  10.286  1.00  0.00    -0.237 OA
ATOM     69  O   UNL     1      14.596  -1.526  11.317  1.00  0.00    -0.237 OA
ATOM     70  O   UNL     1      12.755  -2.586  12.571  1.00  0.00    -0.744 OA
ENDBRANCH  63  67
ENDBRANCH  46  60
BRANCH  47  71
ATOM     71  C   UNL     1      12.090  10.152   5.400  1.00  0.00     0.023 A 
ATOM     72  C   UNL     1      13.272  10.749   4.930  1.00  0.00     0.031 A 
ATOM     73  C   UNL     1      10.867  10.738   5.028  1.00  0.00     0.131 A 
ATOM     74  C   UNL     1      13.209  11.925   4.166  1.00  0.00     0.055 A 
ATOM     75  C   UNL     1      10.807  11.873   4.217  1.00  0.00     0.041 A 
ATOM     76  F   UNL     1       9.706  10.207   5.444  1.00  0.00    -0.206 F 
ATOM     77  C   UNL     1      11.984  12.482   3.795  1.00  0.00     0.022 A 
BRANCH  74  78
ATOM     78  S   UNL     1      14.757  12.773   3.748  1.00  0.00     0.124 S 
ATOM     79  O   UNL     1      15.326  13.020   5.067  1.00  0.00    -0.237 OA
ATOM     80  O   UNL     1      15.438  11.773   2.931  1.00  0.00    -0.237 OA
ATOM     81  O   UNL     1      14.309  13.962   3.027  1.00  0.00    -0.744 OA
ENDBRANCH  74  78
ENDBRANCH  47  71
BRANCH  59  82
ATOM     82  C   UNL     1      14.834   9.111  11.727  1.00  0.00     0.023 A 
ATOM     83  C   UNL     1      14.341  10.310  12.272  1.00  0.00     0.031 A 
ATOM     84  C   UNL     1      16.165   8.755  12.013  1.00  0.00     0.131 A 
ATOM     85  C   UNL     1      15.196  11.147  13.006  1.00  0.00     0.055 A 
ATOM     86  C   UNL     1      16.986   9.554  12.809  1.00  0.00     0.041 A 
ATOM     87  F   UNL     1      16.692   7.623  11.519  1.00  0.00    -0.206 F 
ATOM     88  C   UNL     1      16.509  10.768  13.294  1.00  0.00     0.022 A 
BRANCH  85  89
ATOM     89  S   UNL     1      14.608  12.800  13.467  1.00  0.00     0.124 S 
ATOM     90  O   UNL     1      14.220  13.355  12.174  1.00  0.00    -0.237 OA
ATOM     91  O   UNL     1      13.515  12.497  14.384  1.00  0.00    -0.237 OA
ATOM     92  O   UNL     1      15.780  13.421  14.082  1.00  0.00    -0.744 OA
ENDBRANCH  85  89
ENDBRANCH  59  82
ENDBRANCH  33  34
ENDBRANCH  25  28
ENDBRANCH  23  24
ENDBRANCH  22  23
ENDBRANCH   1  22
TORSDOF 17
