REMARK SMILES O=C(NCCCCNC(=O)[C@@H]1CN(c2ncccn2)CCN1C(=O)C1CCOCC1)c1ccc(-c2c3nc(c(-c4cc(S(=O)(=O)[O-])ccc4F)c4ccc([nH]4)c(-c4cc(S(=O)(=O)[O-])ccc4F)c4nc(c(-c5cc(S(=O)(=O)[O-])ccc5F)c5ccc2[nH]5)C=C4)C=C3)cc1
REMARK SMILES IDX 5 1 4 2 3 3 1 4 2 5 31 7 32 8 93 9 33 10 92 11 34 12 35 13
REMARK SMILES IDX 36 14 86 15 37 16 91 17 85 18 87 19 38 20 90 21 84 22 83 23
REMARK SMILES IDX 39 25 71 26 51 27 70 28 52 29 55 30 69 31 88 32 53 33 54 34
REMARK SMILES IDX 68 36 89 37 56 38 40 39 41 40 49 41 42 42 48 43 50 44 47 45
REMARK SMILES IDX 43 46 44 47 45 48 46 49 72 50 73 51 81 52 74 53 80 54 82 55
REMARK SMILES IDX 79 56 75 57 76 58 77 59 78 60 57 61 58 62 66 63 59 64 65 65
REMARK SMILES IDX 67 66 64 67 60 68 61 69 62 70 63 71 6 72 7 73 8 74 9 75
REMARK SMILES IDX 10 77 11 78 12 79 22 80 13 81 21 82 20 83 23 84 24 85 25 86
REMARK SMILES IDX 26 87 30 88 27 89 29 90 28 91 14 92 15 93 19 94 16 95 18 96
REMARK SMILES IDX 17 97
REMARK H PARENT 3 6 87 24 55 35 8 76
REMARK Flexibility Score: inf
ROOT
ATOM      1  C   UNL     1       4.680  -1.756  -1.992  1.00  0.00     0.023 C 
ENDROOT
BRANCH   1   2
ATOM      2  C   UNL     1       4.518  -0.480  -1.177  1.00  0.00     0.116 C 
BRANCH   2   3
ATOM      3  N   UNL     1       3.124  -0.079  -1.055  1.00  0.00    -0.352 N 
ATOM      4  O   UNL     1       1.187   0.301   0.037  1.00  0.00    -0.269 OA
ATOM      5  C   UNL     1       2.398   0.158   0.091  1.00  0.00     0.251 C 
ATOM      6  H   UNL     1       2.637   0.038  -1.902  1.00  0.00     0.163 HD
BRANCH   5   7
ATOM      7  C   UNL     1       3.109   0.222   1.386  1.00  0.00     0.039 A 
ATOM      8  C   UNL     1       4.273   0.985   1.508  1.00  0.00     0.014 A 
ATOM      9  C   UNL     1       2.616  -0.498   2.476  1.00  0.00     0.014 A 
ATOM     10  C   UNL     1       5.013   0.928   2.682  1.00  0.00     0.010 A 
ATOM     11  C   UNL     1       3.320  -0.488   3.684  1.00  0.00     0.010 A 
ATOM     12  C   UNL     1       4.535   0.207   3.788  1.00  0.00    -0.014 A 
BRANCH  12  13
ATOM     13  C   UNL     1       5.291   0.260   5.065  1.00  0.00     0.031 A 
ATOM     14  C   UNL     1       5.939  -0.968   5.639  1.00  0.00     0.074 A 
ATOM     15  C   UNL     1       5.402   1.448   5.692  1.00  0.00     0.049 A 
ATOM     16  N   UNL     1       6.631  -1.095   6.742  1.00  0.00    -0.248 NA
ATOM     17  C   UNL     1       5.780  -2.219   4.883  1.00  0.00     0.031 C 
ATOM     18  C   UNL     1       4.805   2.702   5.223  1.00  0.00     0.029 A 
ATOM     19  N   UNL     1       6.061   1.804   6.839  1.00  0.00    -0.354 N 
ATOM     20  C   UNL     1       6.978  -2.439   6.826  1.00  0.00     0.074 A 
ATOM     21  C   UNL     1       6.392  -3.091   5.672  1.00  0.00     0.031 C 
ATOM     22  C   UNL     1       5.158   3.694   6.052  1.00  0.00     0.029 A 
ATOM     23  C   UNL     1       5.944   3.139   7.146  1.00  0.00     0.049 A 
ATOM     24  H   UNL     1       6.569   1.165   7.390  1.00  0.00     0.167 HD
ATOM     25  C   UNL     1       7.718  -3.063   7.776  1.00  0.00     0.034 A 
ATOM     26  C   UNL     1       6.396   3.838   8.204  1.00  0.00     0.034 A 
ATOM     27  C   UNL     1       8.295  -2.388   8.916  1.00  0.00     0.049 A 
ATOM     28  C   UNL     1       7.190   3.116   9.257  1.00  0.00     0.074 A 
ATOM     29  C   UNL     1       9.095  -2.914   9.917  1.00  0.00     0.029 A 
ATOM     30  N   UNL     1       8.127  -1.040   9.216  1.00  0.00    -0.354 N 
ATOM     31  N   UNL     1       7.524   1.847   9.312  1.00  0.00    -0.248 NA
ATOM     32  C   UNL     1       7.669   3.918  10.387  1.00  0.00     0.031 C 
ATOM     33  C   UNL     1       9.351  -1.906  10.853  1.00  0.00     0.029 A 
ATOM     34  C   UNL     1       8.777  -0.728  10.401  1.00  0.00     0.049 A 
ATOM     35  H   UNL     1       7.619  -0.400   8.666  1.00  0.00     0.167 HD
ATOM     36  C   UNL     1       8.266   1.702  10.478  1.00  0.00     0.074 A 
ATOM     37  C   UNL     1       8.350   3.018  11.082  1.00  0.00     0.031 C 
ATOM     38  C   UNL     1       8.829   0.584  11.003  1.00  0.00     0.034 A 
BRANCH  25  39
ATOM     39  C   UNL     1       7.902  -4.558   7.650  1.00  0.00     0.023 A 
ATOM     40  C   UNL     1       8.609  -5.135   6.581  1.00  0.00     0.031 A 
ATOM     41  C   UNL     1       7.351  -5.421   8.615  1.00  0.00     0.131 A 
ATOM     42  C   UNL     1       8.692  -6.532   6.468  1.00  0.00     0.055 A 
ATOM     43  C   UNL     1       7.500  -6.807   8.537  1.00  0.00     0.041 A 
ATOM     44  F   UNL     1       6.649  -4.931   9.649  1.00  0.00    -0.206 F 
ATOM     45  C   UNL     1       8.163  -7.371   7.451  1.00  0.00     0.022 A 
BRANCH  42  46
ATOM     46  S   UNL     1       9.389  -7.242   4.951  1.00  0.00     0.124 S 
ATOM     47  O   UNL     1       8.514  -6.673   3.928  1.00  0.00    -0.237 OA
ATOM     48  O   UNL     1      10.759  -6.743   4.970  1.00  0.00    -0.237 OA
ATOM     49  O   UNL     1       9.247  -8.683   5.149  1.00  0.00    -0.744 OA
ENDBRANCH  42  46
ENDBRANCH  25  39
BRANCH  26  50
ATOM     50  C   UNL     1       6.074   5.286   8.333  1.00  0.00     0.023 A 
ATOM     51  C   UNL     1       7.080   6.262   8.287  1.00  0.00     0.031 A 
ATOM     52  C   UNL     1       4.745   5.712   8.512  1.00  0.00     0.131 A 
ATOM     53  C   UNL     1       6.745   7.615   8.451  1.00  0.00     0.055 A 
ATOM     54  C   UNL     1       4.412   7.062   8.622  1.00  0.00     0.041 A 
ATOM     55  F   UNL     1       3.745   4.817   8.555  1.00  0.00    -0.206 F 
ATOM     56  C   UNL     1       5.418   8.023   8.603  1.00  0.00     0.022 A 
BRANCH  53  57
ATOM     57  S   UNL     1       8.083   8.836   8.530  1.00  0.00     0.124 S 
ATOM     58  O   UNL     1       8.869   8.346   9.656  1.00  0.00    -0.237 OA
ATOM     59  O   UNL     1       8.695   8.700   7.212  1.00  0.00    -0.237 OA
ATOM     60  O   UNL     1       7.380  10.097   8.760  1.00  0.00    -0.744 OA
ENDBRANCH  53  57
ENDBRANCH  26  50
BRANCH  38  61
ATOM     61  C   UNL     1       9.608   0.758  12.283  1.00  0.00     0.023 A 
ATOM     62  C   UNL     1       8.975   1.101  13.490  1.00  0.00     0.031 A 
ATOM     63  C   UNL     1      11.006   0.607  12.287  1.00  0.00     0.131 A 
ATOM     64  C   UNL     1       9.744   1.341  14.638  1.00  0.00     0.055 A 
ATOM     65  C   UNL     1      11.760   0.789  13.446  1.00  0.00     0.041 A 
ATOM     66  F   UNL     1      11.661   0.284  11.160  1.00  0.00    -0.206 F 
ATOM     67  C   UNL     1      11.131   1.172  14.628  1.00  0.00     0.022 A 
BRANCH  64  68
ATOM     68  S   UNL     1       8.918   1.973  16.124  1.00  0.00     0.124 S 
ATOM     69  O   UNL     1       8.324   3.214  15.636  1.00  0.00    -0.237 OA
ATOM     70  O   UNL     1       7.982   0.900  16.442  1.00  0.00    -0.237 OA
ATOM     71  O   UNL     1      10.012   2.144  17.079  1.00  0.00    -0.744 OA
ENDBRANCH  64  68
ENDBRANCH  38  61
ENDBRANCH  12  13
ENDBRANCH   5   7
ENDBRANCH   2   3
ENDBRANCH   1   2
BRANCH   1  72
ATOM     72  C   UNL     1       4.222  -1.645  -3.447  1.00  0.00     0.023 C 
BRANCH  72  73
ATOM     73  C   UNL     1       4.907  -0.535  -4.240  1.00  0.00     0.116 C 
BRANCH  73  74
ATOM     74  N   UNL     1       6.336  -0.773  -4.346  1.00  0.00    -0.354 N 
ATOM     75  C   UNL     1       7.132  -0.899  -5.447  1.00  0.00     0.244 C 
ATOM     76  H   UNL     1       6.806  -0.858  -3.485  1.00  0.00     0.163 HD
ATOM     77  O   UNL     1       8.247  -1.402  -5.296  1.00  0.00    -0.273 OA
BRANCH  75  78
ATOM     78  C   UNL     1       6.608  -0.464  -6.823  1.00  0.00     0.193 C 
ATOM     79  C   UNL     1       6.744  -1.803  -7.604  1.00  0.00     0.155 C 
ATOM     80  N   UNL     1       7.174   0.657  -7.666  1.00  0.00    -0.327 N 
ATOM     81  N   UNL     1       6.107  -1.693  -8.906  1.00  0.00    -0.336 N 
ATOM     82  C   UNL     1       6.572   0.681  -9.028  1.00  0.00     0.142 C 
ATOM     83  C   UNL     1       6.623  -0.664  -9.782  1.00  0.00     0.141 C 
BRANCH  80  84
ATOM     84  C   UNL     1       7.681   1.887  -7.257  1.00  0.00     0.226 C 
ATOM     85  O   UNL     1       7.587   2.876  -8.002  1.00  0.00    -0.275 OA
BRANCH  84  86
ATOM     86  C   UNL     1       8.414   2.115  -5.935  1.00  0.00     0.083 C 
ATOM     87  C   UNL     1       9.590   1.167  -5.704  1.00  0.00     0.042 C 
ATOM     88  C   UNL     1       7.439   2.347  -4.785  1.00  0.00     0.042 C 
ATOM     89  C   UNL     1       9.920   0.913  -4.236  1.00  0.00     0.161 C 
ATOM     90  C   UNL     1       8.082   2.141  -3.428  1.00  0.00     0.161 C 
ATOM     91  O   UNL     1       8.762   0.896  -3.403  1.00  0.00    -0.381 OA
ENDBRANCH  84  86
ENDBRANCH  80  84
BRANCH  81  92
ATOM     92  C   UNL     1       5.312  -2.714  -9.331  1.00  0.00     0.225 A 
ATOM     93  N   UNL     1       5.379  -3.124 -10.605  1.00  0.00    -0.221 NA
ATOM     94  N   UNL     1       4.476  -3.255  -8.427  1.00  0.00    -0.221 NA
ATOM     95  C   UNL     1       4.601  -4.169 -10.950  1.00  0.00     0.117 A 
ATOM     96  C   UNL     1       3.684  -4.261  -8.829  1.00  0.00     0.117 A 
ATOM     97  C   UNL     1       3.716  -4.779 -10.096  1.00  0.00     0.040 A 
ENDBRANCH  81  92
ENDBRANCH  75  78
ENDBRANCH  73  74
ENDBRANCH  72  73
ENDBRANCH   1  72
TORSDOF 17
