REMARK SMILES O=C(NCCCCNC(=O)[C@@H]1[C@@H](C(=O)Nc2cccc([N+](=O)[O-])c2)[C@@H]2C=C[C@H]1O2)c1ccc(-c2c3nc(c(-c4cc(S(=O)(=O)[O-])ccc4F)c4ccc([nH]4)c(-c4cc(S(=O)(=O)[O-])ccc4F)c4nc(c(-c5cc(S(=O)(=O)[O-])ccc5F)c5ccc2[nH]5)C=C4)C=C3)cc1
REMARK SMILES IDX 5 1 4 2 3 3 1 4 2 5 30 7 31 8 92 9 32 10 91 11 33 12 34 13
REMARK SMILES IDX 35 14 85 15 36 16 90 17 84 18 86 19 37 20 89 21 83 22 82 23
REMARK SMILES IDX 38 25 70 26 50 27 69 28 51 29 54 30 68 31 87 32 52 33 53 34
REMARK SMILES IDX 67 36 88 37 55 38 39 39 40 40 48 41 41 42 47 43 49 44 46 45
REMARK SMILES IDX 42 46 43 47 44 48 45 49 71 50 72 51 80 52 73 53 79 54 81 55
REMARK SMILES IDX 78 56 74 57 75 58 76 59 77 60 56 61 57 62 65 63 58 64 64 65
REMARK SMILES IDX 66 66 63 67 59 68 60 69 61 70 62 71 6 72 7 73 8 74 9 75
REMARK SMILES IDX 10 77 11 78 12 79 28 80 25 81 27 82 29 83 26 84 13 85 14 86
REMARK SMILES IDX 15 87 16 89 17 90 24 91 18 92 20 93 19 94 21 95 22 96 23 97
REMARK H PARENT 3 6 86 24 54 35 8 76 15 88
REMARK Flexibility Score: inf
ROOT
ATOM      1  C   UNL     1       5.126   0.799   2.187  1.00  0.00     0.023 C 
ENDROOT
BRANCH   1   2
ATOM      2  C   UNL     1       4.680   0.070   0.931  1.00  0.00     0.116 C 
BRANCH   2   3
ATOM      3  N   UNL     1       3.247  -0.198   0.893  1.00  0.00    -0.352 N 
ATOM      4  O   UNL     1       1.181  -0.225  -0.032  1.00  0.00    -0.269 OA
ATOM      5  C   UNL     1       2.385  -0.043  -0.166  1.00  0.00     0.251 C 
ATOM      6  H   UNL     1       2.848  -0.531   1.729  1.00  0.00     0.163 HD
BRANCH   5   7
ATOM      7  C   UNL     1       2.952   0.381  -1.458  1.00  0.00     0.039 A 
ATOM      8  C   UNL     1       4.045  -0.310  -1.987  1.00  0.00     0.014 A 
ATOM      9  C   UNL     1       2.460   1.533  -2.071  1.00  0.00     0.014 A 
ATOM     10  C   UNL     1       4.745   0.241  -3.047  1.00  0.00     0.010 A 
ATOM     11  C   UNL     1       3.111   2.032  -3.198  1.00  0.00     0.010 A 
ATOM     12  C   UNL     1       4.276   1.407  -3.673  1.00  0.00    -0.014 A 
BRANCH  12  13
ATOM     13  C   UNL     1       4.982   1.920  -4.869  1.00  0.00     0.031 A 
ATOM     14  C   UNL     1       5.648   3.265  -4.859  1.00  0.00     0.074 A 
ATOM     15  C   UNL     1       5.003   1.146  -5.970  1.00  0.00     0.049 A 
ATOM     16  N   UNL     1       6.243   3.896  -5.838  1.00  0.00    -0.248 NA
ATOM     17  C   UNL     1       5.630   4.003  -3.589  1.00  0.00     0.031 C 
ATOM     18  C   UNL     1       4.376  -0.176  -6.077  1.00  0.00     0.029 A 
ATOM     19  N   UNL     1       5.562   1.349  -7.201  1.00  0.00    -0.354 N 
ATOM     20  C   UNL     1       6.648   5.119  -5.314  1.00  0.00     0.074 A 
ATOM     21  C   UNL     1       6.206   5.146  -3.934  1.00  0.00     0.031 C 
ATOM     22  C   UNL     1       4.604  -0.672  -7.299  1.00  0.00     0.029 A 
ATOM     23  C   UNL     1       5.318   0.325  -8.084  1.00  0.00     0.049 A 
ATOM     24  H   UNL     1       6.087   2.150  -7.432  1.00  0.00     0.167 HD
ATOM     25  C   UNL     1       7.325   6.118  -5.934  1.00  0.00     0.034 A 
ATOM     26  C   UNL     1       5.593   0.217  -9.396  1.00  0.00     0.034 A 
ATOM     27  C   UNL     1       7.754   6.053  -7.313  1.00  0.00     0.049 A 
ATOM     28  C   UNL     1       6.313   1.347 -10.070  1.00  0.00     0.074 A 
ATOM     29  C   UNL     1       8.488   6.978  -8.035  1.00  0.00     0.029 A 
ATOM     30  N   UNL     1       7.473   5.006  -8.185  1.00  0.00    -0.354 N 
ATOM     31  N   UNL     1       6.706   2.491  -9.560  1.00  0.00    -0.248 NA
ATOM     32  C   UNL     1       6.629   1.173 -11.491  1.00  0.00     0.031 C 
ATOM     33  C   UNL     1       8.593   6.522  -9.355  1.00  0.00     0.029 A 
ATOM     34  C   UNL     1       7.986   5.279  -9.444  1.00  0.00     0.049 A 
ATOM     35  H   UNL     1       6.980   4.189  -7.943  1.00  0.00     0.167 HD
ATOM     36  C   UNL     1       7.323   3.175 -10.599  1.00  0.00     0.074 A 
ATOM     37  C   UNL     1       7.264   2.305 -11.759  1.00  0.00     0.031 C 
ATOM     38  C   UNL     1       7.890   4.409 -10.594  1.00  0.00     0.034 A 
BRANCH  25  39
ATOM     39  C   UNL     1       7.584   7.379  -5.142  1.00  0.00     0.023 A 
ATOM     40  C   UNL     1       8.381   7.381  -3.983  1.00  0.00     0.031 A 
ATOM     41  C   UNL     1       6.989   8.594  -5.529  1.00  0.00     0.131 A 
ATOM     42  C   UNL     1       8.493   8.548  -3.210  1.00  0.00     0.055 A 
ATOM     43  C   UNL     1       7.171   9.771  -4.800  1.00  0.00     0.041 A 
ATOM     44  F   UNL     1       6.202   8.654  -6.615  1.00  0.00    -0.206 F 
ATOM     45  C   UNL     1       7.912   9.749  -3.622  1.00  0.00     0.022 A 
BRANCH  42  46
ATOM     46  S   UNL     1       9.273   8.432  -1.575  1.00  0.00     0.124 S 
ATOM     47  O   UNL     1       8.493   7.367  -0.948  1.00  0.00    -0.237 OA
ATOM     48  O   UNL     1      10.653   8.102  -1.908  1.00  0.00    -0.237 OA
ATOM     49  O   UNL     1       9.068   9.761  -1.003  1.00  0.00    -0.744 OA
ENDBRANCH  42  46
ENDBRANCH  25  39
BRANCH  26  50
ATOM     50  C   UNL     1       5.122  -0.979 -10.141  1.00  0.00     0.023 A 
ATOM     51  C   UNL     1       6.021  -1.939 -10.624  1.00  0.00     0.031 A 
ATOM     52  C   UNL     1       3.744  -1.200 -10.331  1.00  0.00     0.131 A 
ATOM     53  C   UNL     1       5.531  -3.077 -11.284  1.00  0.00     0.055 A 
ATOM     54  C   UNL     1       3.262  -2.352 -10.950  1.00  0.00     0.041 A 
ATOM     55  F   UNL     1       2.846  -0.316  -9.869  1.00  0.00    -0.206 F 
ATOM     56  C   UNL     1       4.159  -3.297 -11.437  1.00  0.00     0.022 A 
BRANCH  53  57
ATOM     57  S   UNL     1       6.720  -4.262 -11.968  1.00  0.00     0.124 S 
ATOM     58  O   UNL     1       7.459  -3.433 -12.913  1.00  0.00    -0.237 OA
ATOM     59  O   UNL     1       7.449  -4.682 -10.776  1.00  0.00    -0.237 OA
ATOM     60  O   UNL     1       5.870  -5.289 -12.569  1.00  0.00    -0.744 OA
ENDBRANCH  53  57
ENDBRANCH  26  50
BRANCH  38  61
ATOM     61  C   UNL     1       8.511   4.866 -11.886  1.00  0.00     0.023 A 
ATOM     62  C   UNL     1       7.724   5.204 -13.000  1.00  0.00     0.031 A 
ATOM     63  C   UNL     1       9.909   4.948 -12.007  1.00  0.00     0.131 A 
ATOM     64  C   UNL     1       8.343   5.567 -14.205  1.00  0.00     0.055 A 
ATOM     65  C   UNL     1      10.518   5.359 -13.193  1.00  0.00     0.041 A 
ATOM     66  F   UNL     1      10.703   4.631 -10.972  1.00  0.00    -0.206 F 
ATOM     67  C   UNL     1       9.735   5.662 -14.303  1.00  0.00     0.022 A 
BRANCH  64  68
ATOM     68  S   UNL     1       7.309   5.850 -15.667  1.00  0.00     0.124 S 
ATOM     69  O   UNL     1       6.693   4.541 -15.859  1.00  0.00    -0.237 OA
ATOM     70  O   UNL     1       6.417   6.915 -15.219  1.00  0.00    -0.237 OA
ATOM     71  O   UNL     1       8.270   6.241 -16.697  1.00  0.00    -0.744 OA
ENDBRANCH  64  68
ENDBRANCH  38  61
ENDBRANCH  12  13
ENDBRANCH   5   7
ENDBRANCH   2   3
ENDBRANCH   1   2
BRANCH   1  72
ATOM     72  C   UNL     1       4.638   0.184   3.490  1.00  0.00     0.023 C 
BRANCH  72  73
ATOM     73  C   UNL     1       4.935  -1.303   3.656  1.00  0.00     0.116 C 
BRANCH  73  74
ATOM     74  N   UNL     1       6.324  -1.553   3.976  1.00  0.00    -0.356 N 
ATOM     75  C   UNL     1       6.964  -2.000   5.077  1.00  0.00     0.227 C 
ATOM     76  H   UNL     1       6.934  -1.355   3.228  1.00  0.00     0.163 HD
ATOM     77  O   UNL     1       8.198  -2.072   4.983  1.00  0.00    -0.275 OA
BRANCH  75  78
ATOM     78  C   UNL     1       6.334  -2.376   6.406  1.00  0.00     0.127 C 
ATOM     79  C   UNL     1       5.020  -3.171   6.492  1.00  0.00     0.127 C 
ATOM     80  C   UNL     1       6.046  -1.174   7.324  1.00  0.00     0.155 C 
ATOM     81  C   UNL     1       4.187  -2.308   7.457  1.00  0.00     0.155 C 
ATOM     82  C   UNL     1       4.972  -0.272   6.815  1.00  0.00     0.004 C 
ATOM     83  O   UNL     1       5.243  -1.844   8.342  1.00  0.00    -0.365 OA
ATOM     84  C   UNL     1       3.831  -0.975   6.867  1.00  0.00     0.004 C 
BRANCH  79  85
ATOM     85  C   UNL     1       4.958  -4.624   6.963  1.00  0.00     0.231 C 
ATOM     86  O   UNL     1       3.903  -5.242   6.739  1.00  0.00    -0.274 OA
ATOM     87  N   UNL     1       5.956  -5.372   7.496  1.00  0.00    -0.325 N 
ATOM     88  H   UNL     1       5.812  -6.337   7.366  1.00  0.00     0.169 HD
BRANCH  87  89
ATOM     89  C   UNL     1       7.142  -5.097   8.186  1.00  0.00     0.048 A 
ATOM     90  C   UNL     1       8.198  -6.001   8.028  1.00  0.00     0.026 A 
ATOM     91  C   UNL     1       7.300  -4.020   9.053  1.00  0.00     0.111 A 
ATOM     92  C   UNL     1       9.440  -5.760   8.622  1.00  0.00     0.009 A 
ATOM     93  C   UNL     1       8.554  -3.754   9.618  1.00  0.00     0.271 A 
ATOM     94  C   UNL     1       9.632  -4.618   9.398  1.00  0.00     0.086 A 
BRANCH  93  95
ATOM     95  N   UNL     1       8.746  -2.548  10.433  1.00  0.00     0.062 N 
ATOM     96  O   UNL     1       9.899  -2.281  10.803  1.00  0.00    -0.258 OA
ATOM     97  O   UNL     1       7.748  -1.868  10.707  1.00  0.00    -0.258 OA
ENDBRANCH  93  95
ENDBRANCH  87  89
ENDBRANCH  79  85
ENDBRANCH  75  78
ENDBRANCH  73  74
ENDBRANCH  72  73
ENDBRANCH   1  72
TORSDOF 17
