REMARK SMILES Cc1ccc2c(c1)OCCN2c1sc(C(=O)NCCCCNC(=O)c2ccc(-c3c4nc(c(-c5cc(S(=O)(=O)[O-])ccc5F)c5ccc([nH]5)c(-c5cc(S(=O)(=O)[O-])ccc5F)c5nc(c(-c6cc(S(=O)(=O)[O-])ccc6F)c6ccc3[nH]6)C=C5)C=C4)cc2)cc1C
REMARK SMILES IDX 20 1 19 2 18 3 17 4 15 5 16 6 14 8 12 9 13 10 89 11 88 12
REMARK SMILES IDX 90 13 11 14 1 15 2 16 3 17 7 18 4 19 6 20 5 21 8 22 9 23
REMARK SMILES IDX 10 24 21 25 22 26 23 27 24 29 25 30 26 31 87 32 27 33 86 34
REMARK SMILES IDX 28 35 29 36 30 37 80 38 31 39 85 40 79 41 81 42 32 43 84 44
REMARK SMILES IDX 78 45 77 46 33 48 65 49 45 50 64 51 46 52 49 53 63 54 82 55
REMARK SMILES IDX 47 56 48 57 62 59 83 60 50 61 34 62 35 63 43 64 36 65 42 66
REMARK SMILES IDX 44 67 41 68 37 69 38 70 39 71 40 72 66 73 67 74 75 75 68 76
REMARK SMILES IDX 74 77 76 78 73 79 69 80 70 81 71 82 72 83 51 84 52 85 60 86
REMARK SMILES IDX 53 87 59 88 61 89 58 90 54 91 55 92 56 93 57 94
REMARK H PARENT 17 7 22 28 81 47 49 58
REMARK Flexibility Score: inf
ROOT
ATOM      1  C   UNL     1       2.951  -7.008   7.398  1.00  0.00     0.023 C 
ENDROOT
BRANCH   1   2
ATOM      2  C   UNL     1       2.309  -5.782   6.740  1.00  0.00     0.023 C 
BRANCH   2   3
ATOM      3  C   UNL     1       1.129  -6.110   5.825  1.00  0.00     0.116 C 
BRANCH   3   4
ATOM      4  N   UNL     1      -0.041  -6.487   6.593  1.00  0.00    -0.351 N 
ATOM      5  C   UNL     1      -1.150  -5.787   7.003  1.00  0.00     0.261 C 
ATOM      6  O   UNL     1      -1.996  -6.459   7.603  1.00  0.00    -0.268 OA
ATOM      7  H   UNL     1      -0.042  -7.430   6.876  1.00  0.00     0.163 HD
BRANCH   5   8
ATOM      8  C   UNL     1      -1.381  -4.378   6.711  1.00  0.00     0.094 A 
ATOM      9  C   UNL     1      -1.325  -2.005   5.970  1.00  0.00     0.099 A 
ATOM     10  S   UNL     1      -0.181  -3.212   6.393  1.00  0.00    -0.112 S 
ATOM     11  C   UNL     1      -2.605  -2.394   6.333  1.00  0.00    -0.015 A 
ATOM     12  C   UNL     1      -2.621  -3.764   6.754  1.00  0.00     0.031 A 
ATOM     13  C   UNL     1      -3.837  -1.557   6.250  1.00  0.00     0.047 C 
BRANCH   9  14
ATOM     14  N   UNL     1      -0.962  -0.815   5.413  1.00  0.00    -0.327 N 
ATOM     15  C   UNL     1       1.087   0.020   0.090  1.00  0.00     0.044 C 
ATOM     16  C   UNL     1       0.519  -0.197   1.460  1.00  0.00    -0.047 A 
ATOM     17  C   UNL     1       0.230  -1.485   1.914  1.00  0.00     0.006 A 
ATOM     18  C   UNL     1       0.316   0.882   2.326  1.00  0.00     0.052 A 
ATOM     19  C   UNL     1      -0.274  -1.691   3.205  1.00  0.00     0.030 A 
ATOM     20  C   UNL     1      -0.188   0.673   3.615  1.00  0.00     0.143 A 
ATOM     21  C   UNL     1      -0.472  -0.624   4.095  1.00  0.00     0.085 A 
ATOM     22  O   UNL     1      -0.374   1.818   4.361  1.00  0.00    -0.490 OA
ATOM     23  C   UNL     1      -1.240   1.598   5.479  1.00  0.00     0.251 C 
ATOM     24  C   UNL     1      -0.829   0.362   6.269  1.00  0.00     0.165 C 
ENDBRANCH   9  14
ENDBRANCH   5   8
ENDBRANCH   3   4
ENDBRANCH   2   3
ENDBRANCH   1   2
BRANCH   1  25
ATOM     25  C   UNL     1       3.523  -8.041   6.432  1.00  0.00     0.116 C 
BRANCH  25  26
ATOM     26  N   UNL     1       4.520  -7.500   5.519  1.00  0.00    -0.352 N 
ATOM     27  C   UNL     1       5.621  -8.132   4.986  1.00  0.00     0.251 C 
ATOM     28  H   UNL     1       4.389  -6.563   5.247  1.00  0.00     0.163 HD
ATOM     29  O   UNL     1       6.421  -7.504   4.299  1.00  0.00    -0.269 OA
BRANCH  27  30
ATOM     30  C   UNL     1       5.852  -9.558   5.300  1.00  0.00     0.039 A 
ATOM     31  C   UNL     1       4.814 -10.483   5.185  1.00  0.00     0.014 A 
ATOM     32  C   UNL     1       7.102  -9.954   5.783  1.00  0.00     0.014 A 
ATOM     33  C   UNL     1       4.971 -11.756   5.720  1.00  0.00     0.010 A 
ATOM     34  C   UNL     1       7.281 -11.261   6.245  1.00  0.00     0.010 A 
ATOM     35  C   UNL     1       6.200 -12.155   6.272  1.00  0.00    -0.014 A 
BRANCH  35  36
ATOM     36  C   UNL     1       6.316 -13.508   6.876  1.00  0.00     0.031 A 
ATOM     37  C   UNL     1       6.543 -13.680   8.354  1.00  0.00     0.074 A 
ATOM     38  C   UNL     1       6.145 -14.588   6.091  1.00  0.00     0.049 A 
ATOM     39  N   UNL     1       6.567 -14.783   9.057  1.00  0.00    -0.248 NA
ATOM     40  C   UNL     1       6.777 -12.462   9.145  1.00  0.00     0.031 C 
ATOM     41  C   UNL     1       5.927 -14.537   4.646  1.00  0.00     0.029 A 
ATOM     42  N   UNL     1       6.091 -15.925   6.392  1.00  0.00    -0.354 N 
ATOM     43  C   UNL     1       6.835 -14.397  10.366  1.00  0.00     0.074 A 
ATOM     44  C   UNL     1       7.002 -12.961  10.353  1.00  0.00     0.031 C 
ATOM     45  C   UNL     1       5.698 -15.777   4.195  1.00  0.00     0.029 A 
ATOM     46  C   UNL     1       5.813 -16.721   5.305  1.00  0.00     0.049 A 
ATOM     47  H   UNL     1       6.238 -16.282   7.298  1.00  0.00     0.167 HD
ATOM     48  C   UNL     1       6.918 -15.170  11.476  1.00  0.00     0.034 A 
ATOM     49  C   UNL     1       5.664 -18.058   5.206  1.00  0.00     0.034 A 
ATOM     50  C   UNL     1       6.724 -16.598  11.476  1.00  0.00     0.049 A 
ATOM     51  C   UNL     1       5.769 -18.897   6.451  1.00  0.00     0.074 A 
ATOM     52  C   UNL     1       6.733 -17.459  12.559  1.00  0.00     0.029 A 
ATOM     53  N   UNL     1       6.490 -17.375  10.350  1.00  0.00    -0.354 N 
ATOM     54  N   UNL     1       5.956 -18.508   7.691  1.00  0.00    -0.248 NA
ATOM     55  C   UNL     1       5.644 -20.351   6.291  1.00  0.00     0.031 C 
ATOM     56  C   UNL     1       6.564 -18.761  12.082  1.00  0.00     0.029 A 
ATOM     57  C   UNL     1       6.386 -18.709  10.709  1.00  0.00     0.049 A 
ATOM     58  H   UNL     1       6.410 -17.029   9.432  1.00  0.00     0.167 HD
ATOM     59  C   UNL     1       5.964 -19.668   8.459  1.00  0.00     0.074 A 
ATOM     60  C   UNL     1       5.732 -20.770   7.548  1.00  0.00     0.031 C 
ATOM     61  C   UNL     1       6.155 -19.804   9.796  1.00  0.00     0.034 A 
BRANCH  48  62
ATOM     62  C   UNL     1       7.219 -14.504  12.796  1.00  0.00     0.023 A 
ATOM     63  C   UNL     1       8.408 -14.812  13.484  1.00  0.00     0.031 A 
ATOM     64  C   UNL     1       6.288 -13.658  13.423  1.00  0.00     0.131 A 
ATOM     65  C   UNL     1       8.625 -14.293  14.767  1.00  0.00     0.055 A 
ATOM     66  C   UNL     1       6.523 -13.117  14.688  1.00  0.00     0.041 A 
ATOM     67  F   UNL     1       5.138 -13.335  12.809  1.00  0.00    -0.206 F 
ATOM     68  C   UNL     1       7.692 -13.443  15.370  1.00  0.00     0.022 A 
BRANCH  65  69
ATOM     69  S   UNL     1      10.093 -14.748  15.730  1.00  0.00     0.124 S 
ATOM     70  O   UNL     1      10.755 -13.455  15.890  1.00  0.00    -0.237 OA
ATOM     71  O   UNL     1       9.504 -15.301  16.946  1.00  0.00    -0.237 OA
ATOM     72  O   UNL     1      10.791 -15.703  14.877  1.00  0.00    -0.744 OA
ENDBRANCH  65  69
ENDBRANCH  48  62
BRANCH  49  73
ATOM     73  C   UNL     1       5.335 -18.643   3.874  1.00  0.00     0.023 A 
ATOM     74  C   UNL     1       6.217 -18.500   2.787  1.00  0.00     0.031 A 
ATOM     75  C   UNL     1       4.075 -19.215   3.635  1.00  0.00     0.131 A 
ATOM     76  C   UNL     1       5.790 -18.837   1.496  1.00  0.00     0.055 A 
ATOM     77  C   UNL     1       3.683 -19.621   2.358  1.00  0.00     0.041 A 
ATOM     78  F   UNL     1       3.197 -19.361   4.639  1.00  0.00    -0.206 F 
ATOM     79  C   UNL     1       4.535 -19.411   1.277  1.00  0.00     0.022 A 
BRANCH  76  80
ATOM     80  S   UNL     1       6.786 -18.394   0.046  1.00  0.00     0.124 S 
ATOM     81  O   UNL     1       6.988 -19.690  -0.594  1.00  0.00    -0.237 OA
ATOM     82  O   UNL     1       5.893 -17.475  -0.657  1.00  0.00    -0.237 OA
ATOM     83  O   UNL     1       7.979 -17.782   0.620  1.00  0.00    -0.744 OA
ENDBRANCH  76  80
ENDBRANCH  49  73
BRANCH  61  84
ATOM     84  C   UNL     1       6.146 -21.194  10.386  1.00  0.00     0.023 A 
ATOM     85  C   UNL     1       5.161 -21.558  11.324  1.00  0.00     0.031 A 
ATOM     86  C   UNL     1       7.196 -22.095  10.138  1.00  0.00     0.131 A 
ATOM     87  C   UNL     1       5.270 -22.773  12.011  1.00  0.00     0.055 A 
ATOM     88  C   UNL     1       7.275 -23.325  10.793  1.00  0.00     0.041 A 
ATOM     89  F   UNL     1       8.163 -21.789   9.259  1.00  0.00    -0.206 F 
ATOM     90  C   UNL     1       6.317 -23.662  11.746  1.00  0.00     0.022 A 
BRANCH  87  91
ATOM     91  S   UNL     1       4.108 -23.208  13.335  1.00  0.00     0.124 S 
ATOM     92  O   UNL     1       3.503 -24.432  12.816  1.00  0.00    -0.237 OA
ATOM     93  O   UNL     1       4.998 -23.389  14.479  1.00  0.00    -0.237 OA
ATOM     94  O   UNL     1       3.215 -22.057  13.412  1.00  0.00    -0.744 OA
ENDBRANCH  87  91
ENDBRANCH  61  84
ENDBRANCH  35  36
ENDBRANCH  27  30
ENDBRANCH  25  26
ENDBRANCH   1  25
TORSDOF 15
