REMARK SMILES Nc1cnc(Cl)c(C(=O)NCCCCNC(=O)c2ccc(-c3c4nc(c(-c5cc(S(=O)(=O)[O-])ccc5F)c5ccc([nH]5)c(-c5cc(S(=O)(=O)[O-])ccc5F)c5nc(c(-c6cc(S(=O)(=O)[O-])ccc6F)c6ccc3[nH]6)C=C5)C=C4)cc2)c1
REMARK SMILES IDX 13 1 12 2 11 3 10 4 8 5 9 6 7 8 2 9 3 10 81 11 4 12 5 13
REMARK SMILES IDX 6 14 1 15 14 18 15 19 16 20 17 22 18 23 19 24 80 25 20 26
REMARK SMILES IDX 79 27 21 28 22 29 23 30 73 31 24 32 78 33 72 34 74 35 25 36
REMARK SMILES IDX 77 37 71 38 70 39 26 41 58 42 38 43 57 44 39 45 42 46 56 47
REMARK SMILES IDX 75 48 40 49 41 50 55 52 76 53 43 54 27 55 28 56 36 57 29 58
REMARK SMILES IDX 35 59 37 60 34 61 30 62 31 63 32 64 33 65 59 66 60 67 68 68
REMARK SMILES IDX 61 69 67 70 69 71 66 72 62 73 63 74 64 75 65 76 44 77 45 78
REMARK SMILES IDX 53 79 46 80 52 81 54 82 51 83 47 84 48 85 49 86 50 87
REMARK H PARENT 10 7 1 16 1 17 15 21 74 40 42 51
REMARK Flexibility Score: inf
ROOT
ATOM      1  C   UNL     1       2.451   5.142   3.227  1.00  0.00     0.023 C 
ENDROOT
BRANCH   1   2
ATOM      2  C   UNL     1       2.193   3.768   2.598  1.00  0.00     0.023 C 
BRANCH   2   3
ATOM      3  C   UNL     1       2.318   2.584   3.565  1.00  0.00     0.116 C 
BRANCH   3   4
ATOM      4  N   UNL     1       1.162   2.516   4.440  1.00  0.00    -0.352 N 
ATOM      5  C   UNL     1      -0.024   1.824   4.388  1.00  0.00     0.254 C 
ATOM      6  O   UNL     1      -0.849   2.091   5.259  1.00  0.00    -0.269 OA
ATOM      7  H   UNL     1       1.246   3.085   5.239  1.00  0.00     0.163 HD
BRANCH   5   8
ATOM      8  C   UNL     1      -0.345   0.805   3.354  1.00  0.00     0.079 A 
ATOM      9  C   UNL     1      -0.180  -0.087   1.086  1.00  0.00     0.051 A 
ATOM     10  C   UNL     1      -1.070  -1.078   1.478  1.00  0.00     0.138 A 
ATOM     11  C   UNL     1       0.118   0.894   2.034  1.00  0.00     0.044 A 
ATOM     12  N   UNL     1      -1.574  -1.199   2.723  1.00  0.00    -0.242 NA
ATOM     13  C   UNL     1      -1.195  -0.265   3.635  1.00  0.00     0.141 A 
ATOM     14  Cl  UNL     1      -1.864  -0.631   5.181  1.00  0.00    -0.061 Cl
BRANCH   9  15
ATOM     15  N   UNL     1       0.284   0.021  -0.214  1.00  0.00    -0.397 N 
ATOM     16  H   UNL     1       0.068  -0.677  -0.874  1.00  0.00     0.156 HD
ATOM     17  H   UNL     1       0.831   0.796  -0.479  1.00  0.00     0.156 HD
ENDBRANCH   9  15
ENDBRANCH   5   8
ENDBRANCH   3   4
ENDBRANCH   2   3
ENDBRANCH   1   2
BRANCH   1  18
ATOM     18  C   UNL     1       3.875   5.365   3.720  1.00  0.00     0.116 C 
BRANCH  18  19
ATOM     19  N   UNL     1       4.881   5.241   2.675  1.00  0.00    -0.352 N 
ATOM     20  C   UNL     1       6.145   5.792   2.637  1.00  0.00     0.251 C 
ATOM     21  H   UNL     1       4.626   4.696   1.896  1.00  0.00     0.163 HD
ATOM     22  O   UNL     1       6.834   5.673   1.633  1.00  0.00    -0.269 OA
BRANCH  20  23
ATOM     23  C   UNL     1       6.625   6.576   3.798  1.00  0.00     0.039 A 
ATOM     24  C   UNL     1       6.465   6.094   5.097  1.00  0.00     0.014 A 
ATOM     25  C   UNL     1       7.188   7.837   3.582  1.00  0.00     0.014 A 
ATOM     26  C   UNL     1       6.693   6.939   6.176  1.00  0.00     0.010 A 
ATOM     27  C   UNL     1       7.501   8.654   4.674  1.00  0.00     0.010 A 
ATOM     28  C   UNL     1       7.201   8.235   5.978  1.00  0.00    -0.014 A 
BRANCH  28  29
ATOM     29  C   UNL     1       7.392   9.119   7.159  1.00  0.00     0.031 A 
ATOM     30  C   UNL     1       6.563  10.363   7.335  1.00  0.00     0.074 A 
ATOM     31  C   UNL     1       8.253   8.739   8.124  1.00  0.00     0.049 A 
ATOM     32  N   UNL     1       6.516  11.180   8.356  1.00  0.00    -0.248 NA
ATOM     33  C   UNL     1       5.671  10.743   6.227  1.00  0.00     0.031 C 
ATOM     34  C   UNL     1       9.104   7.550   8.057  1.00  0.00     0.029 A 
ATOM     35  N   UNL     1       8.523   9.272   9.360  1.00  0.00    -0.354 N 
ATOM     36  C   UNL     1       5.601  12.170   8.015  1.00  0.00     0.074 A 
ATOM     37  C   UNL     1       5.146  11.876   6.674  1.00  0.00     0.031 C 
ATOM     38  C   UNL     1       9.737   7.398   9.228  1.00  0.00     0.029 A 
ATOM     39  C   UNL     1       9.391   8.511  10.109  1.00  0.00     0.049 A 
ATOM     40  H   UNL     1       8.134  10.118   9.679  1.00  0.00     0.167 HD
ATOM     41  C   UNL     1       5.167  13.216   8.759  1.00  0.00     0.034 A 
ATOM     42  C   UNL     1       9.851   8.679  11.366  1.00  0.00     0.034 A 
ATOM     43  C   UNL     1       5.618  13.489  10.100  1.00  0.00     0.049 A 
ATOM     44  C   UNL     1       9.364   9.860  12.165  1.00  0.00     0.074 A 
ATOM     45  C   UNL     1       5.240  14.526  10.934  1.00  0.00     0.029 A 
ATOM     46  N   UNL     1       6.530  12.720  10.809  1.00  0.00    -0.354 N 
ATOM     47  N   UNL     1       8.476  10.768  11.834  1.00  0.00    -0.248 NA
ATOM     48  C   UNL     1       9.936  10.043  13.506  1.00  0.00     0.031 C 
ATOM     49  C   UNL     1       5.956  14.413  12.126  1.00  0.00     0.029 A 
ATOM     50  C   UNL     1       6.736  13.269  12.063  1.00  0.00     0.049 A 
ATOM     51  H   UNL     1       6.966  11.905  10.470  1.00  0.00     0.167 HD
ATOM     52  C   UNL     1       8.370  11.617  12.932  1.00  0.00     0.074 A 
ATOM     53  C   UNL     1       9.262  11.097  13.947  1.00  0.00     0.031 C 
ATOM     54  C   UNL     1       7.610  12.731  13.079  1.00  0.00     0.034 A 
BRANCH  41  55
ATOM     55  C   UNL     1       4.138  14.148   8.167  1.00  0.00     0.023 A 
ATOM     56  C   UNL     1       4.456  15.499   7.936  1.00  0.00     0.031 A 
ATOM     57  C   UNL     1       2.811  13.731   7.959  1.00  0.00     0.131 A 
ATOM     58  C   UNL     1       3.451  16.393   7.545  1.00  0.00     0.055 A 
ATOM     59  C   UNL     1       1.822  14.618   7.533  1.00  0.00     0.041 A 
ATOM     60  F   UNL     1       2.459  12.451   8.163  1.00  0.00    -0.206 F 
ATOM     61  C   UNL     1       2.138  15.959   7.337  1.00  0.00     0.022 A 
BRANCH  58  62
ATOM     62  S   UNL     1       3.793  18.164   7.347  1.00  0.00     0.124 S 
ATOM     63  O   UNL     1       3.416  18.388   5.953  1.00  0.00    -0.237 OA
ATOM     64  O   UNL     1       2.901  18.760   8.338  1.00  0.00    -0.237 OA
ATOM     65  O   UNL     1       5.219  18.279   7.630  1.00  0.00    -0.744 OA
ENDBRANCH  58  62
ENDBRANCH  41  55
BRANCH  42  66
ATOM     66  C   UNL     1      10.768   7.656  11.950  1.00  0.00     0.023 A 
ATOM     67  C   UNL     1      12.015   7.379  11.362  1.00  0.00     0.031 A 
ATOM     68  C   UNL     1      10.362   6.866  13.039  1.00  0.00     0.131 A 
ATOM     69  C   UNL     1      12.775   6.293  11.815  1.00  0.00     0.055 A 
ATOM     70  C   UNL     1      11.157   5.831  13.536  1.00  0.00     0.041 A 
ATOM     71  F   UNL     1       9.175   7.082  13.626  1.00  0.00    -0.206 F 
ATOM     72  C   UNL     1      12.362   5.528  12.909  1.00  0.00     0.022 A 
BRANCH  69  73
ATOM     73  S   UNL     1      14.245   5.745  10.902  1.00  0.00     0.124 S 
ATOM     74  O   UNL     1      15.308   5.968  11.877  1.00  0.00    -0.237 OA
ATOM     75  O   UNL     1      13.923   4.347  10.626  1.00  0.00    -0.237 OA
ATOM     76  O   UNL     1      14.266   6.616   9.732  1.00  0.00    -0.744 OA
ENDBRANCH  69  73
ENDBRANCH  42  66
BRANCH  54  77
ATOM     77  C   UNL     1       7.682  13.487  14.383  1.00  0.00     0.023 A 
ATOM     78  C   UNL     1       6.536  13.602  15.193  1.00  0.00     0.031 A 
ATOM     79  C   UNL     1       8.828  14.218  14.741  1.00  0.00     0.131 A 
ATOM     80  C   UNL     1       6.550  14.459  16.301  1.00  0.00     0.055 A 
ATOM     81  C   UNL     1       8.850  15.037  15.871  1.00  0.00     0.041 A 
ATOM     82  F   UNL     1       9.940  14.150  13.992  1.00  0.00    -0.206 F 
ATOM     83  C   UNL     1       7.703  15.171  16.648  1.00  0.00     0.022 A 
BRANCH  80  84
ATOM     84  S   UNL     1       5.050  14.750  17.279  1.00  0.00     0.124 S 
ATOM     85  O   UNL     1       5.455  14.275  18.600  1.00  0.00    -0.237 OA
ATOM     86  O   UNL     1       4.882  16.196  17.162  1.00  0.00    -0.237 OA
ATOM     87  O   UNL     1       4.032  13.944  16.613  1.00  0.00    -0.744 OA
ENDBRANCH  80  84
ENDBRANCH  54  77
ENDBRANCH  28  29
ENDBRANCH  20  23
ENDBRANCH  18  19
ENDBRANCH   1  18
TORSDOF 15
