REMARK SMILES O=C(CCC(=O)c1ccc(Br)s1)NCCCCNC(=O)c1ccc(-c2c3nc(c(-c4cc(S(=O)(=O)[O-])ccc4F)c4ccc([nH]4)c(-c4cc(S(=O)(=O)[O-])ccc4F)c4nc(c(-c5cc(S(=O)(=O)[O-])ccc5F)c5ccc2[nH]5)C=C4)C=C3)cc1
REMARK SMILES IDX 15 1 14 2 13 3 1 4 2 5 3 7 4 8 5 9 6 10 7 11 8 12 12 13 9 14
REMARK SMILES IDX 10 15 11 16 16 17 17 18 18 19 19 20 20 22 21 23 22 24 83 25
REMARK SMILES IDX 23 26 82 27 24 28 25 29 26 30 76 31 27 32 81 33 75 34 77 35
REMARK SMILES IDX 28 36 80 37 74 38 73 39 29 41 61 42 41 43 60 44 42 45 45 46
REMARK SMILES IDX 59 47 78 48 43 49 44 50 58 52 79 53 46 54 30 55 31 56 39 57
REMARK SMILES IDX 32 58 38 59 40 60 37 61 33 62 34 63 35 64 36 65 62 66 63 67
REMARK SMILES IDX 71 68 64 69 70 70 72 71 69 72 65 73 66 74 67 75 68 76 47 77
REMARK SMILES IDX 48 78 56 79 49 80 55 81 57 82 54 83 50 84 51 85 52 86 53 87
REMARK H PARENT 13 6 18 21 77 40 45 51
REMARK Flexibility Score: inf
ROOT
ATOM      1  C   UNL     1       2.597   0.734   3.777  1.00  0.00     0.023 C 
ENDROOT
BRANCH   1   2
ATOM      2  C   UNL     1       2.129   0.841   2.328  1.00  0.00     0.116 C 
BRANCH   2   3
ATOM      3  N   UNL     1       2.873   0.013   1.398  1.00  0.00    -0.356 N 
ATOM      4  O   UNL     1       1.193  -0.090  -0.168  1.00  0.00    -0.275 OA
ATOM      5  C   UNL     1       2.341  -0.347   0.179  1.00  0.00     0.220 C 
ATOM      6  H   UNL     1       3.774  -0.298   1.642  1.00  0.00     0.163 HD
BRANCH   5   7
ATOM      7  C   UNL     1       3.333  -0.976  -0.773  1.00  0.00     0.108 C 
BRANCH   7   8
ATOM      8  C   UNL     1       3.792   0.066  -1.788  1.00  0.00     0.092 C 
BRANCH   8   9
ATOM      9  C   UNL     1       4.843   0.982  -1.183  1.00  0.00     0.173 C 
ATOM     10  O   UNL     1       5.986   0.541  -1.044  1.00  0.00    -0.293 OA
BRANCH   9  11
ATOM     11  C   UNL     1       4.431   2.309  -0.734  1.00  0.00     0.071 A 
ATOM     12  C   UNL     1       3.165   2.851  -0.578  1.00  0.00     0.025 A 
ATOM     13  S   UNL     1       5.639   3.449  -0.278  1.00  0.00    -0.125 S 
ATOM     14  C   UNL     1       3.192   4.168  -0.027  1.00  0.00     0.028 A 
ATOM     15  C   UNL     1       4.479   4.603   0.151  1.00  0.00     0.071 A 
ATOM     16  Br  UNL     1       4.905   6.302   0.813  1.00  0.00    -0.039 Br
ENDBRANCH   9  11
ENDBRANCH   8   9
ENDBRANCH   7   8
ENDBRANCH   5   7
ENDBRANCH   2   3
ENDBRANCH   1   2
BRANCH   1  17
ATOM     17  C   UNL     1       4.080   1.018   4.038  1.00  0.00     0.023 C 
BRANCH  17  18
ATOM     18  C   UNL     1       4.590   2.401   3.640  1.00  0.00     0.116 C 
BRANCH  18  19
ATOM     19  N   UNL     1       4.005   3.477   4.420  1.00  0.00    -0.352 N 
ATOM     20  C   UNL     1       4.606   4.510   5.108  1.00  0.00     0.251 C 
ATOM     21  H   UNL     1       3.022   3.468   4.465  1.00  0.00     0.163 HD
ATOM     22  O   UNL     1       3.906   5.247   5.793  1.00  0.00    -0.269 OA
BRANCH  20  23
ATOM     23  C   UNL     1       6.077   4.717   5.066  1.00  0.00     0.039 A 
ATOM     24  C   UNL     1       6.740   5.043   6.255  1.00  0.00     0.014 A 
ATOM     25  C   UNL     1       6.808   4.622   3.879  1.00  0.00     0.014 A 
ATOM     26  C   UNL     1       8.133   5.187   6.268  1.00  0.00     0.010 A 
ATOM     27  C   UNL     1       8.201   4.721   3.899  1.00  0.00     0.010 A 
ATOM     28  C   UNL     1       8.880   4.986   5.097  1.00  0.00    -0.014 A 
BRANCH  28  29
ATOM     29  C   UNL     1      10.368   4.984   5.123  1.00  0.00     0.031 A 
ATOM     30  C   UNL     1      11.155   6.060   4.429  1.00  0.00     0.074 A 
ATOM     31  C   UNL     1      11.010   3.958   5.717  1.00  0.00     0.049 A 
ATOM     32  N   UNL     1      12.452   6.189   4.309  1.00  0.00    -0.248 NA
ATOM     33  C   UNL     1      10.381   7.118   3.765  1.00  0.00     0.031 C 
ATOM     34  C   UNL     1      10.356   2.832   6.389  1.00  0.00     0.029 A 
ATOM     35  N   UNL     1      12.349   3.683   5.843  1.00  0.00    -0.354 N 
ATOM     36  C   UNL     1      12.654   7.341   3.556  1.00  0.00     0.074 A 
ATOM     37  C   UNL     1      11.341   7.842   3.206  1.00  0.00     0.031 C 
ATOM     38  C   UNL     1      11.294   1.998   6.865  1.00  0.00     0.029 A 
ATOM     39  C   UNL     1      12.614   2.504   6.501  1.00  0.00     0.049 A 
ATOM     40  H   UNL     1      13.055   4.274   5.494  1.00  0.00     0.167 HD
ATOM     41  C   UNL     1      13.825   7.930   3.203  1.00  0.00     0.034 A 
ATOM     42  C   UNL     1      13.783   1.891   6.772  1.00  0.00     0.034 A 
ATOM     43  C   UNL     1      15.128   7.410   3.553  1.00  0.00     0.049 A 
ATOM     44  C   UNL     1      15.069   2.546   6.335  1.00  0.00     0.074 A 
ATOM     45  C   UNL     1      16.372   7.962   3.300  1.00  0.00     0.029 A 
ATOM     46  N   UNL     1      15.358   6.210   4.214  1.00  0.00    -0.354 N 
ATOM     47  N   UNL     1      15.244   3.673   5.685  1.00  0.00    -0.248 NA
ATOM     48  C   UNL     1      16.316   1.851   6.681  1.00  0.00     0.031 C 
ATOM     49  C   UNL     1      17.352   7.063   3.737  1.00  0.00     0.029 A 
ATOM     50  C   UNL     1      16.722   5.987   4.340  1.00  0.00     0.049 A 
ATOM     51  H   UNL     1      14.655   5.605   4.545  1.00  0.00     0.167 HD
ATOM     52  C   UNL     1      16.622   3.839   5.577  1.00  0.00     0.074 A 
ATOM     53  C   UNL     1      17.230   2.703   6.240  1.00  0.00     0.031 C 
ATOM     54  C   UNL     1      17.321   4.844   4.990  1.00  0.00     0.034 A 
BRANCH  41  55
ATOM     55  C   UNL     1      13.750   9.189   2.370  1.00  0.00     0.023 A 
ATOM     56  C   UNL     1      13.150  10.364   2.857  1.00  0.00     0.031 A 
ATOM     57  C   UNL     1      14.280   9.215   1.068  1.00  0.00     0.131 A 
ATOM     58  C   UNL     1      13.033  11.489   2.026  1.00  0.00     0.055 A 
ATOM     59  C   UNL     1      14.231  10.363   0.273  1.00  0.00     0.041 A 
ATOM     60  F   UNL     1      14.851   8.120   0.539  1.00  0.00    -0.206 F 
ATOM     61  C   UNL     1      13.591  11.505   0.746  1.00  0.00     0.022 A 
BRANCH  58  62
ATOM     62  S   UNL     1      12.022  12.884   2.593  1.00  0.00     0.124 S 
ATOM     63  O   UNL     1      10.728  12.243   2.811  1.00  0.00    -0.237 OA
ATOM     64  O   UNL     1      12.729  13.320   3.791  1.00  0.00    -0.237 OA
ATOM     65  O   UNL     1      12.065  13.818   1.469  1.00  0.00    -0.744 OA
ENDBRANCH  58  62
ENDBRANCH  41  55
BRANCH  42  66
ATOM     66  C   UNL     1      13.803   0.582   7.487  1.00  0.00     0.023 A 
ATOM     67  C   UNL     1      14.388   0.463   8.757  1.00  0.00     0.031 A 
ATOM     68  C   UNL     1      13.277  -0.578   6.891  1.00  0.00     0.131 A 
ATOM     69  C   UNL     1      14.479  -0.796   9.370  1.00  0.00     0.055 A 
ATOM     70  C   UNL     1      13.320  -1.819   7.529  1.00  0.00     0.041 A 
ATOM     71  F   UNL     1      12.702  -0.520   5.679  1.00  0.00    -0.206 F 
ATOM     72  C   UNL     1      13.937  -1.935   8.771  1.00  0.00     0.022 A 
BRANCH  69  73
ATOM     73  S   UNL     1      15.396  -0.938  10.929  1.00  0.00     0.124 S 
ATOM     74  O   UNL     1      16.710  -0.434  10.547  1.00  0.00    -0.237 OA
ATOM     75  O   UNL     1      14.615  -0.085  11.818  1.00  0.00    -0.237 OA
ATOM     76  O   UNL     1      15.337  -2.367  11.229  1.00  0.00    -0.744 OA
ENDBRANCH  69  73
ENDBRANCH  42  66
BRANCH  54  77
ATOM     77  C   UNL     1      18.828   4.778   5.085  1.00  0.00     0.023 A 
ATOM     78  C   UNL     1      19.570   3.771   4.442  1.00  0.00     0.031 A 
ATOM     79  C   UNL     1      19.529   5.730   5.848  1.00  0.00     0.131 A 
ATOM     80  C   UNL     1      20.961   3.705   4.621  1.00  0.00     0.055 A 
ATOM     81  C   UNL     1      20.918   5.696   5.970  1.00  0.00     0.041 A 
ATOM     82  F   UNL     1      18.872   6.711   6.487  1.00  0.00    -0.206 F 
ATOM     83  C   UNL     1      21.641   4.671   5.367  1.00  0.00     0.022 A 
BRANCH  80  84
ATOM     84  S   UNL     1      21.861   2.283   3.945  1.00  0.00     0.124 S 
ATOM     85  O   UNL     1      21.200   1.162   4.606  1.00  0.00    -0.237 OA
ATOM     86  O   UNL     1      21.617   2.411   2.512  1.00  0.00    -0.237 OA
ATOM     87  O   UNL     1      23.242   2.521   4.361  1.00  0.00    -0.744 OA
ENDBRANCH  80  84
ENDBRANCH  54  77
ENDBRANCH  28  29
ENDBRANCH  20  23
ENDBRANCH  18  19
ENDBRANCH  17  18
ENDBRANCH   1  17
TORSDOF 17
