REMARK SMILES O=C(NCCCCNC(=O)[C@@H]1[C@H](C(=O)NCc2ccncc2)[C@H]2C=C[C@@H]1O2)c1ccc(-c2c3nc(c(-c4cc(S(=O)(=O)[O-])ccc4F)c4ccc([nH]4)c(-c4cc(S(=O)(=O)[O-])ccc4F)c4nc(c(-c5cc(S(=O)(=O)[O-])ccc5F)c5ccc2[nH]5)C=C4)C=C3)cc1
REMARK SMILES IDX 5 1 4 2 3 3 1 4 2 5 28 7 29 8 90 9 30 10 89 11 31 12 32 13
REMARK SMILES IDX 33 14 83 15 34 16 88 17 82 18 84 19 35 20 87 21 81 22 80 23
REMARK SMILES IDX 36 25 68 26 48 27 67 28 49 29 52 30 66 31 85 32 50 33 51 34
REMARK SMILES IDX 65 36 86 37 53 38 37 39 38 40 46 41 39 42 45 43 47 44 44 45
REMARK SMILES IDX 40 46 41 47 42 48 43 49 69 50 70 51 78 52 71 53 77 54 79 55
REMARK SMILES IDX 76 56 72 57 73 58 74 59 75 60 54 61 55 62 63 63 56 64 62 65
REMARK SMILES IDX 64 66 61 67 57 68 58 69 59 70 60 71 6 72 7 73 8 74 9 75
REMARK SMILES IDX 10 77 11 78 12 79 26 80 23 81 25 82 27 83 24 84 13 85 14 86
REMARK SMILES IDX 15 87 16 89 17 90 18 91 22 92 19 93 21 94 20 95
REMARK H PARENT 3 6 84 24 52 35 8 76 15 88
REMARK Flexibility Score: inf
ROOT
ATOM      1  C   UNL     1       5.102  -0.748   2.375  1.00  0.00     0.023 C 
ENDROOT
BRANCH   1   2
ATOM      2  C   UNL     1       4.715  -0.848   0.903  1.00  0.00     0.116 C 
BRANCH   2   3
ATOM      3  N   UNL     1       3.278  -0.852   0.685  1.00  0.00    -0.352 N 
ATOM      4  O   UNL     1       1.262  -0.133   0.001  1.00  0.00    -0.269 OA
ATOM      5  C   UNL     1       2.489  -0.001  -0.047  1.00  0.00     0.251 C 
ATOM      6  H   UNL     1       2.793  -1.581   1.136  1.00  0.00     0.163 HD
BRANCH   5   7
ATOM      7  C   UNL     1       3.078   1.083  -0.865  1.00  0.00     0.039 A 
ATOM      8  C   UNL     1       4.186   0.863  -1.689  1.00  0.00     0.014 A 
ATOM      9  C   UNL     1       2.479   2.346  -0.831  1.00  0.00     0.014 A 
ATOM     10  C   UNL     1       4.770   1.930  -2.373  1.00  0.00     0.010 A 
ATOM     11  C   UNL     1       3.026   3.400  -1.567  1.00  0.00     0.010 A 
ATOM     12  C   UNL     1       4.196   3.209  -2.319  1.00  0.00    -0.014 A 
BRANCH  12  13
ATOM     13  C   UNL     1       4.809   4.345  -3.056  1.00  0.00     0.031 A 
ATOM     14  C   UNL     1       5.404   5.505  -2.307  1.00  0.00     0.074 A 
ATOM     15  C   UNL     1       4.803   4.345  -4.402  1.00  0.00     0.049 A 
ATOM     16  N   UNL     1       5.897   6.626  -2.769  1.00  0.00    -0.248 NA
ATOM     17  C   UNL     1       5.432   5.393  -0.842  1.00  0.00     0.031 C 
ATOM     18  C   UNL     1       4.256   3.277  -5.241  1.00  0.00     0.029 A 
ATOM     19  N   UNL     1       5.256   5.277  -5.301  1.00  0.00    -0.354 N 
ATOM     20  C   UNL     1       6.280   7.363  -1.653  1.00  0.00     0.074 A 
ATOM     21  C   UNL     1       5.924   6.572  -0.492  1.00  0.00     0.031 C 
ATOM     22  C   UNL     1       4.405   3.614  -6.531  1.00  0.00     0.029 A 
ATOM     23  C   UNL     1       5.005   4.942  -6.610  1.00  0.00     0.049 A 
ATOM     24  H   UNL     1       5.717   6.105  -5.034  1.00  0.00     0.167 HD
ATOM     25  C   UNL     1       6.878   8.581  -1.603  1.00  0.00     0.034 A 
ATOM     26  C   UNL     1       5.199   5.638  -7.747  1.00  0.00     0.034 A 
ATOM     27  C   UNL     1       7.222   9.357  -2.772  1.00  0.00     0.049 A 
ATOM     28  C   UNL     1       5.816   7.008  -7.672  1.00  0.00     0.074 A 
ATOM     29  C   UNL     1       7.861  10.583  -2.839  1.00  0.00     0.029 A 
ATOM     30  N   UNL     1       6.941   8.988  -4.082  1.00  0.00    -0.354 N 
ATOM     31  N   UNL     1       6.186   7.687  -6.612  1.00  0.00    -0.248 NA
ATOM     32  C   UNL     1       6.046   7.702  -8.945  1.00  0.00     0.031 C 
ATOM     33  C   UNL     1       7.909  10.984  -4.179  1.00  0.00     0.029 A 
ATOM     34  C   UNL     1       7.364   9.976  -4.959  1.00  0.00     0.049 A 
ATOM     35  H   UNL     1       6.504   8.147  -4.349  1.00  0.00     0.167 HD
ATOM     36  C   UNL     1       6.716   8.880  -7.091  1.00  0.00     0.074 A 
ATOM     37  C   UNL     1       6.617   8.827  -8.537  1.00  0.00     0.031 C 
ATOM     38  C   UNL     1       7.247   9.918  -6.398  1.00  0.00     0.034 A 
BRANCH  25  39
ATOM     39  C   UNL     1       7.148   9.161  -0.233  1.00  0.00     0.023 A 
ATOM     40  C   UNL     1       8.017   8.536   0.678  1.00  0.00     0.031 A 
ATOM     41  C   UNL     1       6.486  10.329   0.187  1.00  0.00     0.131 A 
ATOM     42  C   UNL     1       8.133   9.028   1.988  1.00  0.00     0.055 A 
ATOM     43  C   UNL     1       6.670  10.862   1.464  1.00  0.00     0.041 A 
ATOM     44  F   UNL     1       5.630  10.961  -0.631  1.00  0.00    -0.206 F 
ATOM     45  C   UNL     1       7.482  10.200   2.381  1.00  0.00     0.022 A 
BRANCH  42  46
ATOM     46  S   UNL     1       9.005   8.018   3.218  1.00  0.00     0.124 S 
ATOM     47  O   UNL     1       8.303   6.741   3.108  1.00  0.00    -0.237 OA
ATOM     48  O   UNL     1      10.377   8.037   2.725  1.00  0.00    -0.237 OA
ATOM     49  O   UNL     1       8.781   8.735   4.472  1.00  0.00    -0.744 OA
ENDBRANCH  42  46
ENDBRANCH  25  39
BRANCH  26  50
ATOM     50  C   UNL     1       4.758   5.059  -9.045  1.00  0.00     0.023 A 
ATOM     51  C   UNL     1       5.685   4.639 -10.009  1.00  0.00     0.031 A 
ATOM     52  C   UNL     1       3.388   4.901  -9.325  1.00  0.00     0.131 A 
ATOM     53  C   UNL     1       5.229   4.096 -11.221  1.00  0.00     0.055 A 
ATOM     54  C   UNL     1       2.942   4.324 -10.514  1.00  0.00     0.041 A 
ATOM     55  F   UNL     1       2.464   5.279  -8.427  1.00  0.00    -0.206 F 
ATOM     56  C   UNL     1       3.866   3.922 -11.473  1.00  0.00     0.022 A 
BRANCH  53  57
ATOM     57  S   UNL     1       6.449   3.642 -12.484  1.00  0.00     0.124 S 
ATOM     58  O   UNL     1       7.067   4.930 -12.777  1.00  0.00    -0.237 OA
ATOM     59  O   UNL     1       7.281   2.678 -11.771  1.00  0.00    -0.237 OA
ATOM     60  O   UNL     1       5.633   3.080 -13.558  1.00  0.00    -0.744 OA
ENDBRANCH  53  57
ENDBRANCH  26  50
BRANCH  38  61
ATOM     61  C   UNL     1       7.813  11.061  -7.202  1.00  0.00     0.023 A 
ATOM     62  C   UNL     1       6.988  11.959  -7.900  1.00  0.00     0.031 A 
ATOM     63  C   UNL     1       9.205  11.254  -7.259  1.00  0.00     0.131 A 
ATOM     64  C   UNL     1       7.566  12.991  -8.656  1.00  0.00     0.055 A 
ATOM     65  C   UNL     1       9.772  12.308  -7.975  1.00  0.00     0.041 A 
ATOM     66  F   UNL     1      10.036  10.421  -6.611  1.00  0.00    -0.206 F 
ATOM     67  C   UNL     1       8.951  13.180  -8.686  1.00  0.00     0.022 A 
BRANCH  64  68
ATOM     68  S   UNL     1       6.487  14.061  -9.648  1.00  0.00     0.124 S 
ATOM     69  O   UNL     1       5.893  13.109 -10.581  1.00  0.00    -0.237 OA
ATOM     70  O   UNL     1       5.587  14.617  -8.643  1.00  0.00    -0.237 OA
ATOM     71  O   UNL     1       7.412  15.021 -10.247  1.00  0.00    -0.744 OA
ENDBRANCH  64  68
ENDBRANCH  38  61
ENDBRANCH  12  13
ENDBRANCH   5   7
ENDBRANCH   2   3
ENDBRANCH   1   2
BRANCH   1  72
ATOM     72  C   UNL     1       4.558  -1.841   3.292  1.00  0.00     0.023 C 
BRANCH  72  73
ATOM     73  C   UNL     1       4.770  -3.282   2.841  1.00  0.00     0.116 C 
BRANCH  73  74
ATOM     74  N   UNL     1       6.152  -3.640   2.566  1.00  0.00    -0.356 N 
ATOM     75  C   UNL     1       6.779  -4.819   2.860  1.00  0.00     0.227 C 
ATOM     76  H   UNL     1       6.698  -2.955   2.117  1.00  0.00     0.163 HD
ATOM     77  O   UNL     1       7.726  -5.183   2.166  1.00  0.00    -0.275 OA
BRANCH  75  78
ATOM     78  C   UNL     1       6.239  -5.670   3.979  1.00  0.00     0.127 C 
ATOM     79  C   UNL     1       6.372  -5.101   5.411  1.00  0.00     0.127 C 
ATOM     80  C   UNL     1       6.977  -7.017   4.122  1.00  0.00     0.155 C 
ATOM     81  C   UNL     1       7.125  -6.218   6.141  1.00  0.00     0.155 C 
ATOM     82  C   UNL     1       6.153  -7.929   4.992  1.00  0.00     0.004 C 
ATOM     83  O   UNL     1       8.004  -6.694   5.094  1.00  0.00    -0.365 OA
ATOM     84  C   UNL     1       6.241  -7.434   6.236  1.00  0.00     0.004 C 
BRANCH  79  85
ATOM     85  C   UNL     1       6.937  -3.713   5.668  1.00  0.00     0.227 C 
ATOM     86  O   UNL     1       6.186  -2.883   6.201  1.00  0.00    -0.275 OA
ATOM     87  N   UNL     1       8.186  -3.275   5.415  1.00  0.00    -0.352 N 
ATOM     88  H   UNL     1       8.308  -2.327   5.652  1.00  0.00     0.163 HD
BRANCH  87  89
ATOM     89  C   UNL     1       9.392  -3.874   4.875  1.00  0.00     0.151 C 
BRANCH  89  90
ATOM     90  C   UNL     1       9.827  -3.279   3.560  1.00  0.00    -0.026 A 
ATOM     91  C   UNL     1      10.457  -4.101   2.616  1.00  0.00     0.025 A 
ATOM     92  C   UNL     1       9.666  -1.927   3.242  1.00  0.00     0.025 A 
ATOM     93  C   UNL     1      10.831  -3.563   1.395  1.00  0.00     0.111 A 
ATOM     94  C   UNL     1      10.089  -1.477   1.998  1.00  0.00     0.111 A 
ATOM     95  N   UNL     1      10.662  -2.267   1.066  1.00  0.00    -0.265 NA
ENDBRANCH  89  90
ENDBRANCH  87  89
ENDBRANCH  79  85
ENDBRANCH  75  78
ENDBRANCH  73  74
ENDBRANCH  72  73
ENDBRANCH   1  72
TORSDOF 17
