REMARK SMILES C[C@@H]1[C@@H](C(=O)NCCCCNC(=O)c2ccc(-c3c4nc(c(-c5cc(S(=O)(=O)[O-])ccc5F)c5ccc([nH]5)c(-c5cc(S(=O)(=O)[O-])ccc5F)c5nc(c(-c6cc(S(=O)(=O)[O-])ccc6F)c6ccc3[nH]6)C=C5)C=C4)cc2)CCN1C(=O)[C@]1([NH3+])CCOC1
REMARK SMILES IDX 8 1 7 2 6 3 4 4 5 5 3 7 1 8 2 9 79 10 77 11 78 12 80 13
REMARK SMILES IDX 81 14 82 15 84 16 87 17 85 18 86 19 83 20 9 24 10 25 11 26
REMARK SMILES IDX 12 27 13 29 14 30 15 31 76 32 16 33 75 34 17 35 18 36 19 37
REMARK SMILES IDX 69 38 20 39 74 40 68 41 70 42 21 43 73 44 67 45 66 46 22 48
REMARK SMILES IDX 54 49 34 50 53 51 35 52 38 53 52 54 71 55 36 56 37 57 51 59
REMARK SMILES IDX 72 60 39 61 23 62 24 63 32 64 25 65 31 66 33 67 30 68 26 69
REMARK SMILES IDX 27 70 28 71 29 72 55 73 56 74 64 75 57 76 63 77 65 78 62 79
REMARK SMILES IDX 58 80 59 81 60 82 61 83 40 84 41 85 49 86 42 87 48 88 50 89
REMARK SMILES IDX 47 90 43 91 44 92 45 93 46 94
REMARK H PARENT 6 6 83 21 83 22 83 23 11 28 70 47 38 58
REMARK Flexibility Score: inf
ROOT
ATOM      1  C   UNL     1       6.797  -9.890  -1.313  1.00  0.00     0.023 C 
ENDROOT
BRANCH   1   2
ATOM      2  C   UNL     1       5.515  -9.081  -1.466  1.00  0.00     0.116 C 
BRANCH   2   3
ATOM      3  N   UNL     1       5.418  -7.951  -0.559  1.00  0.00    -0.356 N 
ATOM      4  C   UNL     1       4.814  -6.740  -0.768  1.00  0.00     0.225 C 
ATOM      5  O   UNL     1       4.762  -5.940   0.164  1.00  0.00    -0.275 OA
ATOM      6  H   UNL     1       5.840  -8.073   0.322  1.00  0.00     0.163 HD
BRANCH   4   7
ATOM      7  C   UNL     1       4.295  -6.413  -2.162  1.00  0.00     0.102 C 
ATOM      8  C   UNL     1       3.879  -4.497  -3.710  1.00  0.00     0.032 C 
ATOM      9  C   UNL     1       3.683  -4.994  -2.269  1.00  0.00     0.094 C 
ATOM     10  N   UNL     1       2.257  -5.186  -1.954  1.00  0.00    -0.334 N 
ATOM     11  C   UNL     1       3.125  -7.303  -2.590  1.00  0.00     0.037 C 
ATOM     12  C   UNL     1       1.914  -6.599  -2.017  1.00  0.00     0.121 C 
BRANCH  10  13
ATOM     13  C   UNL     1       1.294  -4.339  -1.450  1.00  0.00     0.286 C 
ATOM     14  O   UNL     1       0.153  -4.799  -1.258  1.00  0.00    -0.267 OA
BRANCH  13  15
ATOM     15  C   UNL     1       1.528  -2.831  -1.082  1.00  0.00     0.199 C 
ATOM     16  C   UNL     1       1.897  -1.927  -2.240  1.00  0.00     0.110 C 
ATOM     17  C   UNL     1       2.630  -2.613  -0.046  1.00  0.00     0.239 C 
ATOM     18  C   UNL     1       3.328  -1.514  -1.984  1.00  0.00     0.167 C 
ATOM     19  O   UNL     1       3.632  -1.753  -0.614  1.00  0.00    -0.374 OA
BRANCH  15  20
ATOM     20  N   UNL     1       0.216  -2.322  -0.544  1.00  0.00    -0.343 N 
ATOM     21  H   UNL     1       0.312  -1.339  -0.288  1.00  0.00     0.345 HD
ATOM     22  H   UNL     1      -0.048  -2.864   0.278  1.00  0.00     0.345 HD
ATOM     23  H   UNL     1      -0.505  -2.417  -1.260  1.00  0.00     0.345 HD
ENDBRANCH  15  20
ENDBRANCH  13  15
ENDBRANCH  10  13
ENDBRANCH   4   7
ENDBRANCH   2   3
ENDBRANCH   1   2
BRANCH   1  24
ATOM     24  C   UNL     1       7.013 -10.530   0.057  1.00  0.00     0.023 C 
BRANCH  24  25
ATOM     25  C   UNL     1       5.837 -11.330   0.606  1.00  0.00     0.116 C 
BRANCH  25  26
ATOM     26  N   UNL     1       5.450 -12.439  -0.251  1.00  0.00    -0.352 N 
ATOM     27  C   UNL     1       5.415 -13.791   0.016  1.00  0.00     0.251 C 
ATOM     28  H   UNL     1       5.171 -12.186  -1.161  1.00  0.00     0.163 HD
ATOM     29  O   UNL     1       5.199 -14.580  -0.892  1.00  0.00    -0.269 OA
BRANCH  27  30
ATOM     30  C   UNL     1       5.676 -14.277   1.391  1.00  0.00     0.039 A 
ATOM     31  C   UNL     1       6.540 -15.360   1.573  1.00  0.00     0.014 A 
ATOM     32  C   UNL     1       5.088 -13.659   2.496  1.00  0.00     0.014 A 
ATOM     33  C   UNL     1       6.876 -15.768   2.868  1.00  0.00     0.010 A 
ATOM     34  C   UNL     1       5.494 -14.005   3.781  1.00  0.00     0.010 A 
ATOM     35  C   UNL     1       6.391 -15.066   3.983  1.00  0.00    -0.014 A 
BRANCH  35  36
ATOM     36  C   UNL     1       6.790 -15.435   5.369  1.00  0.00     0.031 A 
ATOM     37  C   UNL     1       5.746 -15.881   6.357  1.00  0.00     0.074 A 
ATOM     38  C   UNL     1       8.075 -15.306   5.757  1.00  0.00     0.049 A 
ATOM     39  N   UNL     1       5.871 -16.155   7.630  1.00  0.00    -0.248 NA
ATOM     40  C   UNL     1       4.370 -15.999   5.850  1.00  0.00     0.031 C 
ATOM     41  C   UNL     1       9.175 -14.847   4.905  1.00  0.00     0.029 A 
ATOM     42  N   UNL     1       8.675 -15.540   6.970  1.00  0.00    -0.354 N 
ATOM     43  C   UNL     1       4.590 -16.462   8.080  1.00  0.00     0.074 A 
ATOM     44  C   UNL     1       3.697 -16.267   6.958  1.00  0.00     0.031 C 
ATOM     45  C   UNL     1      10.316 -14.862   5.613  1.00  0.00     0.029 A 
ATOM     46  C   UNL     1      10.026 -15.282   6.980  1.00  0.00     0.049 A 
ATOM     47  H   UNL     1       8.183 -15.864   7.759  1.00  0.00     0.167 HD
ATOM     48  C   UNL     1       4.198 -16.893   9.305  1.00  0.00     0.034 A 
ATOM     49  C   UNL     1      10.928 -15.362   7.980  1.00  0.00     0.034 A 
ATOM     50  C   UNL     1       5.104 -17.093  10.410  1.00  0.00     0.049 A 
ATOM     51  C   UNL     1      10.466 -15.817   9.342  1.00  0.00     0.074 A 
ATOM     52  C   UNL     1       4.824 -17.568  11.680  1.00  0.00     0.029 A 
ATOM     53  N   UNL     1       6.467 -16.824  10.381  1.00  0.00    -0.354 N 
ATOM     54  N   UNL     1       9.258 -16.144   9.740  1.00  0.00    -0.248 NA
ATOM     55  C   UNL     1      11.493 -15.925  10.386  1.00  0.00     0.031 C 
ATOM     56  C   UNL     1       6.000 -17.519  12.437  1.00  0.00     0.029 A 
ATOM     57  C   UNL     1       7.034 -17.097  11.617  1.00  0.00     0.049 A 
ATOM     58  H   UNL     1       6.959 -16.489   9.597  1.00  0.00     0.167 HD
ATOM     59  C   UNL     1       9.390 -16.535  11.070  1.00  0.00     0.074 A 
ATOM     60  C   UNL     1      10.795 -16.412  11.401  1.00  0.00     0.031 C 
ATOM     61  C   UNL     1       8.437 -16.966  11.937  1.00  0.00     0.034 A 
BRANCH  48  62
ATOM     62  C   UNL     1       2.722 -17.149   9.509  1.00  0.00     0.023 A 
ATOM     63  C   UNL     1       2.029 -18.113   8.755  1.00  0.00     0.031 A 
ATOM     64  C   UNL     1       1.987 -16.393  10.440  1.00  0.00     0.131 A 
ATOM     65  C   UNL     1       0.636 -18.232   8.877  1.00  0.00     0.055 A 
ATOM     66  C   UNL     1       0.615 -16.582  10.623  1.00  0.00     0.041 A 
ATOM     67  F   UNL     1       2.586 -15.443  11.175  1.00  0.00    -0.206 F 
ATOM     68  C   UNL     1      -0.072 -17.492   9.826  1.00  0.00     0.022 A 
BRANCH  65  69
ATOM     69  S   UNL     1      -0.254 -19.243   7.662  1.00  0.00     0.124 S 
ATOM     70  O   UNL     1       0.126 -18.597   6.407  1.00  0.00    -0.237 OA
ATOM     71  O   UNL     1       0.301 -20.572   7.889  1.00  0.00    -0.237 OA
ATOM     72  O   UNL     1      -1.656 -19.077   8.039  1.00  0.00    -0.744 OA
ENDBRANCH  65  69
ENDBRANCH  48  62
BRANCH  49  73
ATOM     73  C   UNL     1      12.357 -15.006   7.741  1.00  0.00     0.023 A 
ATOM     74  C   UNL     1      13.371 -15.971   7.854  1.00  0.00     0.031 A 
ATOM     75  C   UNL     1      12.736 -13.686   7.437  1.00  0.00     0.131 A 
ATOM     76  C   UNL     1      14.716 -15.594   7.715  1.00  0.00     0.055 A 
ATOM     77  C   UNL     1      14.071 -13.327   7.244  1.00  0.00     0.041 A 
ATOM     78  F   UNL     1      11.807 -12.725   7.312  1.00  0.00    -0.206 F 
ATOM     79  C   UNL     1      15.072 -14.281   7.397  1.00  0.00     0.022 A 
BRANCH  76  80
ATOM     80  S   UNL     1      16.003 -16.830   8.041  1.00  0.00     0.124 S 
ATOM     81  O   UNL     1      15.707 -17.209   9.418  1.00  0.00    -0.237 OA
ATOM     82  O   UNL     1      15.722 -17.836   7.023  1.00  0.00    -0.237 OA
ATOM     83  O   UNL     1      17.246 -16.084   7.851  1.00  0.00    -0.744 OA
ENDBRANCH  76  80
ENDBRANCH  49  73
BRANCH  61  84
ATOM     84  C   UNL     1       8.898 -17.395  13.310  1.00  0.00     0.023 A 
ATOM     85  C   UNL     1       9.450 -16.488  14.230  1.00  0.00     0.031 A 
ATOM     86  C   UNL     1       8.790 -18.744  13.696  1.00  0.00     0.131 A 
ATOM     87  C   UNL     1       9.928 -16.949  15.466  1.00  0.00     0.055 A 
ATOM     88  C   UNL     1       9.207 -19.185  14.953  1.00  0.00     0.041 A 
ATOM     89  F   UNL     1       8.275 -19.657  12.857  1.00  0.00    -0.206 F 
ATOM     90  C   UNL     1       9.793 -18.289  15.841  1.00  0.00     0.022 A 
BRANCH  87  91
ATOM     91  S   UNL     1      10.825 -15.795  16.540  1.00  0.00     0.124 S 
ATOM     92  O   UNL     1      11.911 -15.353  15.672  1.00  0.00    -0.237 OA
ATOM     93  O   UNL     1       9.806 -14.796  16.844  1.00  0.00    -0.237 OA
ATOM     94  O   UNL     1      11.235 -16.626  17.671  1.00  0.00    -0.744 OA
ENDBRANCH  87  91
ENDBRANCH  61  84
ENDBRANCH  35  36
ENDBRANCH  27  30
ENDBRANCH  25  26
ENDBRANCH  24  25
ENDBRANCH   1  24
TORSDOF 17
