REMARK SMILES CC(C)(C[NH2+]Cc1ccc2c(c1)OCO2)C(=O)NCCCCNC(=O)c1ccc(-c2c3nc(c(-c4cc(S(=O)(=O)[O-])ccc4F)c4ccc([nH]4)c(-c4cc(S(=O)(=O)[O-])ccc4F)c4nc(c(-c5cc(S(=O)(=O)[O-])ccc5F)c5ccc2[nH]5)C=C4)C=C3)cc1
REMARK SMILES IDX 20 1 19 2 18 3 16 4 17 5 2 7 1 8 3 9 4 10 5 11 6 14 7 15
REMARK SMILES IDX 8 16 12 17 9 18 11 19 10 20 13 21 15 22 14 23 21 24 22 25
REMARK SMILES IDX 23 26 24 27 25 29 26 30 27 31 88 32 28 33 87 34 29 35 30 36
REMARK SMILES IDX 31 37 81 38 32 39 86 40 80 41 82 42 33 43 85 44 79 45 78 46
REMARK SMILES IDX 34 48 66 49 46 50 65 51 47 52 50 53 64 54 83 55 48 56 49 57
REMARK SMILES IDX 63 59 84 60 51 61 35 62 36 63 44 64 37 65 43 66 45 67 42 68
REMARK SMILES IDX 38 69 39 70 40 71 41 72 67 73 68 74 76 75 69 76 75 77 77 78
REMARK SMILES IDX 74 79 70 80 71 81 72 82 73 83 52 84 53 85 61 86 54 87 60 88
REMARK SMILES IDX 62 89 59 90 55 91 56 92 57 93 58 94
REMARK H PARENT 18 6 5 12 5 13 23 28 82 47 50 58
REMARK Flexibility Score: inf
ROOT
ATOM      1  C   UNL     1      -1.414   2.899   3.744  1.00  0.00     0.023 C 
ENDROOT
BRANCH   1   2
ATOM      2  C   UNL     1      -0.115   3.106   2.970  1.00  0.00     0.116 C 
BRANCH   2   3
ATOM      3  N   UNL     1       0.765   1.957   3.059  1.00  0.00    -0.355 N 
ATOM      4  C   UNL     1       1.135   1.003   2.162  1.00  0.00     0.231 C 
ATOM      5  O   UNL     1       1.929   0.153   2.582  1.00  0.00    -0.274 OA
ATOM      6  H   UNL     1       1.176   1.844   3.946  1.00  0.00     0.163 HD
BRANCH   4   7
ATOM      7  C   UNL     1       0.673   0.999   0.691  1.00  0.00     0.092 C 
ATOM      8  C   UNL     1       1.279  -0.240  -0.017  1.00  0.00     0.027 C 
ATOM      9  C   UNL     1       1.250   2.231  -0.036  1.00  0.00     0.027 C 
BRANCH   7  10
ATOM     10  C   UNL     1      -0.867   0.959   0.535  1.00  0.00     0.277 C 
BRANCH  10  11
ATOM     11  N   UNL     1      -1.518  -0.207   1.146  1.00  0.00    -0.342 N 
ATOM     12  H   UNL     1      -1.177  -0.304   2.102  1.00  0.00     0.346 HD
ATOM     13  H   UNL     1      -1.288  -1.016   0.570  1.00  0.00     0.346 HD
BRANCH  11  14
ATOM     14  C   UNL     1      -2.981  -0.104   1.183  1.00  0.00     0.297 C 
BRANCH  14  15
ATOM     15  C   UNL     1      -3.607   0.033  -0.186  1.00  0.00     0.010 A 
ATOM     16  C   UNL     1      -3.894   1.321  -0.703  1.00  0.00     0.013 A 
ATOM     17  C   UNL     1      -3.829  -1.100  -0.984  1.00  0.00     0.060 A 
ATOM     18  C   UNL     1      -4.364   1.486  -2.007  1.00  0.00     0.051 A 
ATOM     19  C   UNL     1      -4.306  -0.905  -2.263  1.00  0.00     0.166 A 
ATOM     20  C   UNL     1      -4.556   0.352  -2.762  1.00  0.00     0.165 A 
ATOM     21  O   UNL     1      -4.561  -1.883  -3.172  1.00  0.00    -0.454 OA
ATOM     22  O   UNL     1      -4.991   0.323  -4.050  1.00  0.00    -0.454 OA
ATOM     23  C   UNL     1      -5.004  -1.097  -4.298  1.00  0.00     0.468 C 
ENDBRANCH  14  15
ENDBRANCH  11  14
ENDBRANCH  10  11
ENDBRANCH   7  10
ENDBRANCH   4   7
ENDBRANCH   2   3
ENDBRANCH   1   2
BRANCH   1  24
ATOM     24  C   UNL     1      -1.256   2.859   5.266  1.00  0.00     0.023 C 
BRANCH  24  25
ATOM     25  C   UNL     1      -0.541   4.057   5.883  1.00  0.00     0.116 C 
BRANCH  25  26
ATOM     26  N   UNL     1      -1.160   5.330   5.548  1.00  0.00    -0.352 N 
ATOM     27  C   UNL     1      -1.372   6.425   6.352  1.00  0.00     0.251 C 
ATOM     28  H   UNL     1      -1.468   5.421   4.617  1.00  0.00     0.163 HD
ATOM     29  O   UNL     1      -2.019   7.377   5.925  1.00  0.00    -0.269 OA
BRANCH  27  30
ATOM     30  C   UNL     1      -0.856   6.427   7.738  1.00  0.00     0.039 A 
ATOM     31  C   UNL     1      -1.709   6.816   8.774  1.00  0.00     0.014 A 
ATOM     32  C   UNL     1       0.451   6.020   8.019  1.00  0.00     0.014 A 
ATOM     33  C   UNL     1      -1.274   6.725  10.098  1.00  0.00     0.010 A 
ATOM     34  C   UNL     1       0.857   5.862   9.341  1.00  0.00     0.010 A 
ATOM     35  C   UNL     1      -0.002   6.210  10.396  1.00  0.00    -0.014 A 
BRANCH  35  36
ATOM     36  C   UNL     1       0.446   6.024  11.801  1.00  0.00     0.031 A 
ATOM     37  C   UNL     1       1.621   6.802  12.327  1.00  0.00     0.074 A 
ATOM     38  C   UNL     1      -0.165   5.110  12.581  1.00  0.00     0.049 A 
ATOM     39  N   UNL     1       2.208   6.729  13.495  1.00  0.00    -0.248 NA
ATOM     40  C   UNL     1       2.237   7.767  11.404  1.00  0.00     0.031 C 
ATOM     41  C   UNL     1      -1.286   4.261  12.168  1.00  0.00     0.029 A 
ATOM     42  N   UNL     1       0.074   4.732  13.878  1.00  0.00    -0.354 N 
ATOM     43  C   UNL     1       3.269   7.626  13.443  1.00  0.00     0.074 A 
ATOM     44  C   UNL     1       3.280   8.183  12.106  1.00  0.00     0.031 C 
ATOM     45  C   UNL     1      -1.650   3.481  13.199  1.00  0.00     0.029 A 
ATOM     46  C   UNL     1      -0.765   3.739  14.330  1.00  0.00     0.049 A 
ATOM     47  H   UNL     1       0.780   5.134  14.434  1.00  0.00     0.167 HD
ATOM     48  C   UNL     1       4.138   7.971  14.426  1.00  0.00     0.034 A 
ATOM     49  C   UNL     1      -0.810   3.101  15.517  1.00  0.00     0.034 A 
ATOM     50  C   UNL     1       4.104   7.415  15.757  1.00  0.00     0.049 A 
ATOM     51  C   UNL     1       0.175   3.491  16.590  1.00  0.00     0.074 A 
ATOM     52  C   UNL     1       4.898   7.734  16.845  1.00  0.00     0.029 A 
ATOM     53  N   UNL     1       3.234   6.418  16.181  1.00  0.00    -0.354 N 
ATOM     54  N   UNL     1       1.139   4.382  16.543  1.00  0.00    -0.248 NA
ATOM     55  C   UNL     1       0.058   2.798  17.879  1.00  0.00     0.031 C 
ATOM     56  C   UNL     1       4.554   6.886  17.904  1.00  0.00     0.029 A 
ATOM     57  C   UNL     1       3.493   6.090  17.504  1.00  0.00     0.049 A 
ATOM     58  H   UNL     1       2.536   6.004  15.624  1.00  0.00     0.167 HD
ATOM     59  C   UNL     1       1.721   4.377  17.807  1.00  0.00     0.074 A 
ATOM     60  C   UNL     1       0.990   3.407  18.596  1.00  0.00     0.031 C 
ATOM     61  C   UNL     1       2.763   5.111  18.276  1.00  0.00     0.034 A 
BRANCH  48  62
ATOM     62  C   UNL     1       5.210   8.979  14.082  1.00  0.00     0.023 A 
ATOM     63  C   UNL     1       4.891  10.293  13.694  1.00  0.00     0.031 A 
ATOM     64  C   UNL     1       6.568   8.615  14.112  1.00  0.00     0.131 A 
ATOM     65  C   UNL     1       5.906  11.167  13.276  1.00  0.00     0.055 A 
ATOM     66  C   UNL     1       7.580   9.517  13.776  1.00  0.00     0.041 A 
ATOM     67  F   UNL     1       6.935   7.370  14.454  1.00  0.00    -0.206 F 
ATOM     68  C   UNL     1       7.251  10.796  13.339  1.00  0.00     0.022 A 
BRANCH  65  69
ATOM     69  S   UNL     1       5.431  12.740  12.508  1.00  0.00     0.124 S 
ATOM     70  O   UNL     1       4.632  12.284  11.373  1.00  0.00    -0.237 OA
ATOM     71  O   UNL     1       4.699  13.406  13.578  1.00  0.00    -0.237 OA
ATOM     72  O   UNL     1       6.711  13.349  12.153  1.00  0.00    -0.744 OA
ENDBRANCH  65  69
ENDBRANCH  48  62
BRANCH  49  73
ATOM     73  C   UNL     1      -1.812   2.023  15.759  1.00  0.00     0.023 A 
ATOM     74  C   UNL     1      -2.819   2.176  16.725  1.00  0.00     0.031 A 
ATOM     75  C   UNL     1      -1.751   0.806  15.057  1.00  0.00     0.131 A 
ATOM     76  C   UNL     1      -3.694   1.113  16.998  1.00  0.00     0.055 A 
ATOM     77  C   UNL     1      -2.657  -0.229  15.294  1.00  0.00     0.041 A 
ATOM     78  F   UNL     1      -0.811   0.610  14.118  1.00  0.00    -0.206 F 
ATOM     79  C   UNL     1      -3.628  -0.083  16.280  1.00  0.00     0.022 A 
BRANCH  76  80
ATOM     80  S   UNL     1      -4.871   1.287  18.367  1.00  0.00     0.124 S 
ATOM     81  O   UNL     1      -3.981   1.545  19.493  1.00  0.00    -0.237 OA
ATOM     82  O   UNL     1      -5.688   2.412  17.923  1.00  0.00    -0.237 OA
ATOM     83  O   UNL     1      -5.555  -0.004  18.394  1.00  0.00    -0.744 OA
ENDBRANCH  76  80
ENDBRANCH  49  73
BRANCH  61  84
ATOM     84  C   UNL     1       3.137   4.920  19.726  1.00  0.00     0.023 A 
ATOM     85  C   UNL     1       3.674   3.710  20.200  1.00  0.00     0.031 A 
ATOM     86  C   UNL     1       2.938   5.962  20.649  1.00  0.00     0.131 A 
ATOM     87  C   UNL     1       3.938   3.552  21.569  1.00  0.00     0.055 A 
ATOM     88  C   UNL     1       3.262   5.820  21.999  1.00  0.00     0.041 A 
ATOM     89  F   UNL     1       2.427   7.139  20.252  1.00  0.00    -0.206 F 
ATOM     90  C   UNL     1       3.752   4.605  22.468  1.00  0.00     0.022 A 
BRANCH  87  91
ATOM     91  S   UNL     1       4.442   1.919  22.176  1.00  0.00     0.124 S 
ATOM     92  O   UNL     1       3.322   1.081  21.759  1.00  0.00    -0.237 OA
ATOM     93  O   UNL     1       5.700   1.698  21.471  1.00  0.00    -0.237 OA
ATOM     94  O   UNL     1       4.567   2.113  23.620  1.00  0.00    -0.744 OA
ENDBRANCH  87  91
ENDBRANCH  61  84
ENDBRANCH  35  36
ENDBRANCH  27  30
ENDBRANCH  25  26
ENDBRANCH  24  25
ENDBRANCH   1  24
TORSDOF 18
