REMARK SMILES C[C@@]1(C(=O)N[C@@H](CO)C(=O)NCCCCNC(=O)c2ccc(-c3c4nc(c(-c5cc(S(=O)(=O)[O-])ccc5F)c5ccc([nH]5)c(-c5cc(S(=O)(=O)[O-])ccc5F)c5nc(c(-c6cc(S(=O)(=O)[O-])ccc6F)c6ccc3[nH]6)C=C5)C=C4)cc2)CCCO1
REMARK SMILES IDX 14 1 13 2 12 3 11 4 9 5 10 6 6 8 5 9 3 10 4 11 2 13 1 14
REMARK SMILES IDX 82 15 85 16 83 17 84 18 7 19 8 20 15 22 16 23 17 24 18 26
REMARK SMILES IDX 19 27 20 28 81 29 21 30 80 31 22 32 23 33 24 34 74 35 25 36
REMARK SMILES IDX 79 37 73 38 75 39 26 40 78 41 72 42 71 43 27 45 59 46 39 47
REMARK SMILES IDX 58 48 40 49 43 50 57 51 76 52 41 53 42 54 56 56 77 57 44 58
REMARK SMILES IDX 28 59 29 60 37 61 30 62 36 63 38 64 35 65 31 66 32 67 33 68
REMARK SMILES IDX 34 69 60 70 61 71 69 72 62 73 68 74 70 75 67 76 63 77 64 78
REMARK SMILES IDX 65 79 66 80 45 81 46 82 54 83 47 84 53 85 55 86 52 87 48 88
REMARK SMILES IDX 49 89 50 90 51 91
REMARK H PARENT 11 7 5 12 8 21 16 25 75 44 43 55
REMARK Flexibility Score: inf
ROOT
ATOM      1  C   UNL     1       0.359  -5.102  -6.685  1.00  0.00     0.023 C 
ENDROOT
BRANCH   1   2
ATOM      2  C   UNL     1      -0.322  -4.031  -5.836  1.00  0.00     0.023 C 
BRANCH   2   3
ATOM      3  C   UNL     1      -1.105  -4.560  -4.641  1.00  0.00     0.116 C 
BRANCH   3   4
ATOM      4  N   UNL     1      -0.250  -5.180  -3.651  1.00  0.00    -0.354 N 
ATOM      5  C   UNL     1      -0.186  -4.996  -2.305  1.00  0.00     0.244 C 
ATOM      6  O   UNL     1       0.509  -5.783  -1.653  1.00  0.00    -0.273 OA
ATOM      7  H   UNL     1       0.387  -5.841  -4.009  1.00  0.00     0.163 HD
BRANCH   5   8
ATOM      8  C   UNL     1      -0.971  -3.887  -1.582  1.00  0.00     0.197 C 
BRANCH   8   9
ATOM      9  N   UNL     1      -0.656  -2.561  -2.111  1.00  0.00    -0.340 N 
ATOM     10  C   UNL     1       0.105  -1.568  -1.568  1.00  0.00     0.252 C 
ATOM     11  O   UNL     1       0.413  -0.639  -2.322  1.00  0.00    -0.272 OA
ATOM     12  H   UNL     1      -1.053  -2.354  -2.988  1.00  0.00     0.164 HD
BRANCH  10  13
ATOM     13  C   UNL     1       0.558  -1.607  -0.082  1.00  0.00     0.143 C 
ATOM     14  C   UNL     1       1.022  -0.201   0.330  1.00  0.00     0.053 C 
ATOM     15  C   UNL     1       1.677  -2.621   0.178  1.00  0.00     0.048 C 
ATOM     16  O   UNL     1      -0.544  -1.963   0.773  1.00  0.00    -0.365 OA
ATOM     17  C   UNL     1       1.176  -3.500   1.304  1.00  0.00     0.032 C 
ATOM     18  C   UNL     1      -0.054  -2.796   1.827  1.00  0.00     0.162 C 
ENDBRANCH  10  13
ENDBRANCH   8   9
BRANCH   8  19
ATOM     19  C   UNL     1      -2.468  -4.186  -1.438  1.00  0.00     0.191 C 
BRANCH  19  20
ATOM     20  O   UNL     1      -3.247  -3.828  -2.574  1.00  0.00    -0.394 OA
ATOM     21  H   UNL     1      -3.192  -2.870  -2.715  1.00  0.00     0.210 HD
ENDBRANCH  19  20
ENDBRANCH   8  19
ENDBRANCH   5   8
ENDBRANCH   3   4
ENDBRANCH   2   3
ENDBRANCH   1   2
BRANCH   1  22
ATOM     22  C   UNL     1      -0.531  -6.271  -7.095  1.00  0.00     0.116 C 
BRANCH  22  23
ATOM     23  N   UNL     1      -1.763  -5.853  -7.750  1.00  0.00    -0.352 N 
ATOM     24  C   UNL     1      -2.305  -6.285  -8.936  1.00  0.00     0.251 C 
ATOM     25  H   UNL     1      -2.281  -5.163  -7.275  1.00  0.00     0.163 HD
ATOM     26  O   UNL     1      -3.303  -5.737  -9.394  1.00  0.00    -0.269 OA
BRANCH  24  27
ATOM     27  C   UNL     1      -1.645  -7.382  -9.670  1.00  0.00     0.039 A 
ATOM     28  C   UNL     1      -1.312  -7.189 -11.012  1.00  0.00     0.014 A 
ATOM     29  C   UNL     1      -1.290  -8.562  -9.011  1.00  0.00     0.014 A 
ATOM     30  C   UNL     1      -0.535  -8.143 -11.668  1.00  0.00     0.010 A 
ATOM     31  C   UNL     1      -0.455  -9.475  -9.644  1.00  0.00     0.010 A 
ATOM     32  C   UNL     1      -0.054  -9.265 -10.973  1.00  0.00    -0.014 A 
BRANCH  32  33
ATOM     33  C   UNL     1       0.904 -10.209 -11.604  1.00  0.00     0.031 A 
ATOM     34  C   UNL     1       0.515 -11.643 -11.825  1.00  0.00     0.074 A 
ATOM     35  C   UNL     1       2.149  -9.786 -11.900  1.00  0.00     0.049 A 
ATOM     36  N   UNL     1       1.238 -12.635 -12.276  1.00  0.00    -0.248 NA
ATOM     37  C   UNL     1      -0.860 -12.015 -11.461  1.00  0.00     0.031 C 
ATOM     38  C   UNL     1       2.655  -8.428 -11.686  1.00  0.00     0.029 A 
ATOM     39  N   UNL     1       3.222 -10.456 -12.433  1.00  0.00    -0.354 N 
ATOM     40  C   UNL     1       0.411 -13.752 -12.242  1.00  0.00     0.074 A 
ATOM     41  C   UNL     1      -0.847 -13.323 -11.668  1.00  0.00     0.031 C 
ATOM     42  C   UNL     1       3.929  -8.360 -12.103  1.00  0.00     0.029 A 
ATOM     43  C   UNL     1       4.349  -9.677 -12.569  1.00  0.00     0.049 A 
ATOM     44  H   UNL     1       3.189 -11.405 -12.694  1.00  0.00     0.167 HD
ATOM     45  C   UNL     1       0.671 -15.012 -12.671  1.00  0.00     0.034 A 
ATOM     46  C   UNL     1       5.585  -9.992 -13.004  1.00  0.00     0.034 A 
ATOM     47  C   UNL     1       1.930 -15.418 -13.248  1.00  0.00     0.049 A 
ATOM     48  C   UNL     1       5.859 -11.407 -13.444  1.00  0.00     0.074 A 
ATOM     49  C   UNL     1       2.280 -16.648 -13.775  1.00  0.00     0.029 A 
ATOM     50  N   UNL     1       3.051 -14.605 -13.362  1.00  0.00    -0.354 N 
ATOM     51  N   UNL     1       5.048 -12.439 -13.460  1.00  0.00    -0.248 NA
ATOM     52  C   UNL     1       7.215 -11.698 -13.928  1.00  0.00     0.031 C 
ATOM     53  C   UNL     1       3.629 -16.601 -14.145  1.00  0.00     0.029 A 
ATOM     54  C   UNL     1       4.104 -15.319 -13.916  1.00  0.00     0.049 A 
ATOM     55  H   UNL     1       3.093 -13.660 -13.089  1.00  0.00     0.167 HD
ATOM     56  C   UNL     1       5.790 -13.497 -13.977  1.00  0.00     0.074 A 
ATOM     57  C   UNL     1       7.106 -12.971 -14.278  1.00  0.00     0.031 C 
ATOM     58  C   UNL     1       5.418 -14.785 -14.188  1.00  0.00     0.034 A 
BRANCH  45  59
ATOM     59  C   UNL     1      -0.423 -16.039 -12.507  1.00  0.00     0.023 A 
ATOM     60  C   UNL     1      -1.657 -15.914 -13.169  1.00  0.00     0.031 A 
ATOM     61  C   UNL     1      -0.243 -17.144 -11.656  1.00  0.00     0.131 A 
ATOM     62  C   UNL     1      -2.688 -16.831 -12.911  1.00  0.00     0.055 A 
ATOM     63  C   UNL     1      -1.244 -18.099 -11.467  1.00  0.00     0.041 A 
ATOM     64  F   UNL     1       0.906 -17.307 -10.981  1.00  0.00    -0.206 F 
ATOM     65  C   UNL     1      -2.481 -17.937 -12.084  1.00  0.00     0.022 A 
BRANCH  62  66
ATOM     66  S   UNL     1      -4.343 -16.477 -13.561  1.00  0.00     0.124 S 
ATOM     67  O   UNL     1      -4.630 -15.182 -12.948  1.00  0.00    -0.237 OA
ATOM     68  O   UNL     1      -4.121 -16.466 -15.002  1.00  0.00    -0.237 OA
ATOM     69  O   UNL     1      -5.152 -17.587 -13.062  1.00  0.00    -0.744 OA
ENDBRANCH  62  66
ENDBRANCH  45  59
BRANCH  46  70
ATOM     70  C   UNL     1       6.663  -8.963 -13.030  1.00  0.00     0.023 A 
ATOM     71  C   UNL     1       7.227  -8.539 -14.244  1.00  0.00     0.031 A 
ATOM     72  C   UNL     1       7.173  -8.417 -11.839  1.00  0.00     0.131 A 
ATOM     73  C   UNL     1       8.296  -7.631 -14.239  1.00  0.00     0.055 A 
ATOM     74  C   UNL     1       8.204  -7.476 -11.842  1.00  0.00     0.041 A 
ATOM     75  F   UNL     1       6.666  -8.784 -10.651  1.00  0.00    -0.206 F 
ATOM     76  C   UNL     1       8.780  -7.087 -13.047  1.00  0.00     0.022 A 
BRANCH  73  77
ATOM     77  S   UNL     1       9.102  -7.230 -15.813  1.00  0.00     0.124 S 
ATOM     78  O   UNL     1       9.529  -8.547 -16.273  1.00  0.00    -0.237 OA
ATOM     79  O   UNL     1       8.013  -6.611 -16.561  1.00  0.00    -0.237 OA
ATOM     80  O   UNL     1      10.181  -6.324 -15.423  1.00  0.00    -0.744 OA
ENDBRANCH  73  77
ENDBRANCH  46  70
BRANCH  58  81
ATOM     81  C   UNL     1       6.450 -15.701 -14.797  1.00  0.00     0.023 A 
ATOM     82  C   UNL     1       7.608 -16.076 -14.094  1.00  0.00     0.031 A 
ATOM     83  C   UNL     1       6.280 -16.191 -16.104  1.00  0.00     0.131 A 
ATOM     84  C   UNL     1       8.578 -16.873 -14.720  1.00  0.00     0.055 A 
ATOM     85  C   UNL     1       7.220 -17.031 -16.701  1.00  0.00     0.041 A 
ATOM     86  F   UNL     1       5.194 -15.861 -16.822  1.00  0.00    -0.206 F 
ATOM     87  C   UNL     1       8.383 -17.367 -16.013  1.00  0.00     0.022 A 
BRANCH  84  88
ATOM     88  S   UNL     1      10.139 -17.189 -13.852  1.00  0.00     0.124 S 
ATOM     89  O   UNL     1      10.659 -15.838 -13.664  1.00  0.00    -0.237 OA
ATOM     90  O   UNL     1       9.693 -17.874 -12.644  1.00  0.00    -0.237 OA
ATOM     91  O   UNL     1      10.892 -18.017 -14.792  1.00  0.00    -0.744 OA
ENDBRANCH  84  88
ENDBRANCH  58  81
ENDBRANCH  32  33
ENDBRANCH  24  27
ENDBRANCH  22  23
ENDBRANCH   1  22
TORSDOF 18
