REMARK SMILES Cc1oc2c(C)c3oc(=O)c(CCC(=O)N[C@H](Cc4ccc(Cl)cc4)C(=O)NCCCCNC(=O)c4ccc(-c5c6nc(c(-c7cc(S(=O)(=O)[O-])ccc7F)c7ccc([nH]7)c(-c7cc(S(=O)(=O)[O-])ccc7F)c7nc(c(-c8cc(S(=O)(=O)[O-])ccc8F)c8ccc5[nH]8)C=C7)C=C6)cc4)c(C)c3cc2c1C
REMARK SMILES IDX 30 1 29 2 28 3 26 4 27 5 17 7 16 8 14 9 15 10 13 12 12 13
REMARK SMILES IDX 11 14 1 15 2 16 3 17 104 18 4 19 103 20 105 21 5 22 102 23
REMARK SMILES IDX 6 24 7 25 101 26 8 27 99 28 9 29 100 30 10 31 18 32 19 33
REMARK SMILES IDX 20 34 25 35 21 36 24 37 22 38 23 39 31 40 32 41 33 42 34 43
REMARK SMILES IDX 35 45 36 46 37 47 98 48 38 49 97 50 39 51 40 52 41 53 91 54
REMARK SMILES IDX 42 55 96 56 90 57 92 58 43 59 95 60 89 61 88 62 44 64 76 65
REMARK SMILES IDX 56 66 75 67 57 68 60 69 74 70 93 71 58 72 59 73 73 75 94 76
REMARK SMILES IDX 61 77 45 78 46 79 54 80 47 81 53 82 55 83 52 84 48 85 49 86
REMARK SMILES IDX 50 87 51 88 77 89 78 90 86 91 79 92 85 93 87 94 84 95 80 96
REMARK SMILES IDX 81 97 82 98 83 99 62 100 63 101 71 102 64 103 70 104 72 105
REMARK SMILES IDX 69 106 65 107 66 108 67 109 68 110
REMARK H PARENT 28 6 16 11 33 44 92 63 60 74
REMARK Flexibility Score: inf
ROOT
ATOM      1  C   UNL     1      -0.264   2.889   3.300  1.00  0.00     0.023 C 
ENDROOT
BRANCH   1   2
ATOM      2  C   UNL     1      -1.213   3.518   2.302  1.00  0.00     0.116 C 
BRANCH   2   3
ATOM      3  N   UNL     1      -1.978   4.751   2.615  1.00  0.00    -0.354 N 
ATOM      4  C   UNL     1      -2.178   6.107   2.116  1.00  0.00     0.242 C 
ATOM      5  O   UNL     1      -3.435   6.135   2.346  1.00  0.00    -0.273 OA
ATOM      6  H   UNL     1      -2.529   4.606   3.418  1.00  0.00     0.163 HD
BRANCH   4   7
ATOM      7  C   UNL     1      -0.912   7.724   1.335  1.00  0.00     0.175 C 
BRANCH   7   8
ATOM      8  N   UNL     1      -0.042   7.778  -0.168  1.00  0.00    -0.344 N 
ATOM      9  C   UNL     1      -0.335   7.763  -1.500  1.00  0.00     0.220 C 
ATOM     10  O   UNL     1       0.602   7.723  -2.299  1.00  0.00    -0.275 OA
ATOM     11  H   UNL     1       0.929   7.835  -0.017  1.00  0.00     0.164 HD
BRANCH   9  12
ATOM     12  C   UNL     1      -1.770   7.700  -1.968  1.00  0.00     0.105 C 
BRANCH  12  13
ATOM     13  C   UNL     1      -2.558   6.559  -1.332  1.00  0.00     0.053 C 
BRANCH  13  14
ATOM     14  C   UNL     1      -2.107   6.456   0.084  1.00  0.00     0.042 A 
ATOM     15  C   UNL     1       1.468   4.655   8.042  1.00  0.00     0.088 C 
ATOM     16  C   UNL     1       1.229   5.216   6.692  1.00  0.00     0.105 A 
ATOM     17  O   UNL     1       0.142   6.006   6.566  1.00  0.00    -0.461 OA
ATOM     18  C   UNL     1       1.845   5.042   5.467  1.00  0.00    -0.002 A 
ATOM     19  C   UNL     1      -0.027   6.296   5.244  1.00  0.00     0.141 A 
ATOM     20  C   UNL     1       0.999   5.676   4.475  1.00  0.00     0.025 A 
ATOM     21  C   UNL     1       3.050   4.218   5.216  1.00  0.00     0.049 C 
ATOM     22  C   UNL     1      -1.103   7.092   4.827  1.00  0.00     0.036 A 
ATOM     23  C   UNL     1       1.029   5.615   3.003  1.00  0.00     0.024 A 
ATOM     24  C   UNL     1      -2.189   7.663   5.664  1.00  0.00     0.052 C 
ATOM     25  C   UNL     1      -1.024   7.111   3.456  1.00  0.00     0.145 A 
ATOM     26  C   UNL     1      -0.071   6.125   2.362  1.00  0.00     0.022 A 
ATOM     27  O   UNL     1      -2.389   7.993   2.668  1.00  0.00    -0.422 OA
ATOM     28  C   UNL     1      -0.789   5.733   0.609  1.00  0.00    -0.030 A 
ATOM     29  C   UNL     1      -3.090   7.778   1.057  1.00  0.00     0.339 A 
ATOM     30  C   UNL     1      -0.062   4.810  -0.352  1.00  0.00     0.046 C 
ATOM     31  O   UNL     1      -3.907   8.563   0.602  1.00  0.00    -0.246 OA
ENDBRANCH  13  14
ENDBRANCH  12  13
ENDBRANCH   9  12
ENDBRANCH   7   8
BRANCH   7  32
ATOM     32  C   UNL     1       0.449   8.653   2.036  1.00  0.00     0.070 C 
BRANCH  32  33
ATOM     33  C   UNL     1       0.570   9.329   3.378  1.00  0.00    -0.045 A 
ATOM     34  C   UNL     1      -0.368  10.268   3.806  1.00  0.00     0.005 A 
ATOM     35  C   UNL     1       1.606   8.941   4.253  1.00  0.00     0.005 A 
ATOM     36  C   UNL     1      -0.371  10.680   5.140  1.00  0.00     0.021 A 
ATOM     37  C   UNL     1       1.578   9.322   5.594  1.00  0.00     0.021 A 
ATOM     38  C   UNL     1       0.566  10.163   6.038  1.00  0.00     0.041 A 
ATOM     39  Cl  UNL     1       0.415  10.500   7.718  1.00  0.00    -0.084 Cl
ENDBRANCH  32  33
ENDBRANCH   7  32
ENDBRANCH   4   7
ENDBRANCH   2   3
ENDBRANCH   1   2
BRANCH   1  40
ATOM     40  C   UNL     1      -0.825   2.500   4.649  1.00  0.00     0.023 C 
BRANCH  40  41
ATOM     41  C   UNL     1      -0.696   0.995   4.755  1.00  0.00     0.116 C 
BRANCH  41  42
ATOM     42  N   UNL     1       0.730   0.661   4.754  1.00  0.00    -0.352 N 
ATOM     43  C   UNL     1       1.373  -0.243   5.540  1.00  0.00     0.251 C 
ATOM     44  H   UNL     1       1.289   1.149   4.107  1.00  0.00     0.163 HD
ATOM     45  O   UNL     1       2.556  -0.080   5.818  1.00  0.00    -0.269 OA
BRANCH  43  46
ATOM     46  C   UNL     1       0.626  -1.420   5.994  1.00  0.00     0.039 A 
ATOM     47  C   UNL     1       0.956  -1.986   7.223  1.00  0.00     0.014 A 
ATOM     48  C   UNL     1      -0.341  -1.996   5.160  1.00  0.00     0.014 A 
ATOM     49  C   UNL     1       0.278  -3.119   7.639  1.00  0.00     0.010 A 
ATOM     50  C   UNL     1      -1.030  -3.111   5.582  1.00  0.00     0.010 A 
ATOM     51  C   UNL     1      -0.732  -3.658   6.831  1.00  0.00    -0.014 A 
BRANCH  51  52
ATOM     52  C   UNL     1      -1.526  -4.750   7.394  1.00  0.00     0.031 A 
ATOM     53  C   UNL     1      -3.013  -4.515   7.247  1.00  0.00     0.074 A 
ATOM     54  C   UNL     1      -1.037  -5.995   7.240  1.00  0.00     0.049 A 
ATOM     55  N   UNL     1      -3.710  -4.675   6.160  1.00  0.00    -0.248 NA
ATOM     56  C   UNL     1      -3.733  -3.772   8.286  1.00  0.00     0.031 C 
ATOM     57  C   UNL     1      -0.484  -6.588   6.023  1.00  0.00     0.029 A 
ATOM     58  N   UNL     1      -1.020  -7.007   8.173  1.00  0.00    -0.354 N 
ATOM     59  C   UNL     1      -4.961  -4.101   6.370  1.00  0.00     0.074 A 
ATOM     60  C   UNL     1      -4.908  -3.517   7.690  1.00  0.00     0.031 C 
ATOM     61  C   UNL     1      -0.350  -7.915   6.218  1.00  0.00     0.029 A 
ATOM     62  C   UNL     1      -0.738  -8.250   7.588  1.00  0.00     0.049 A 
ATOM     63  H   UNL     1      -1.187  -6.874   9.135  1.00  0.00     0.167 HD
ATOM     64  C   UNL     1      -5.980  -4.183   5.468  1.00  0.00     0.034 A 
ATOM     65  C   UNL     1      -1.458  -9.348   7.968  1.00  0.00     0.034 A 
ATOM     66  C   UNL     1      -5.685  -4.979   4.314  1.00  0.00     0.049 A 
ATOM     67  C   UNL     1      -2.721  -9.153   7.154  1.00  0.00     0.074 A 
ATOM     68  C   UNL     1      -5.396  -4.808   2.980  1.00  0.00     0.029 A 
ATOM     69  N   UNL     1      -5.678  -6.342   4.492  1.00  0.00    -0.354 N 
ATOM     70  N   UNL     1      -2.830  -9.335   5.861  1.00  0.00    -0.248 NA
ATOM     71  C   UNL     1      -3.773  -8.313   7.729  1.00  0.00     0.031 C 
ATOM     72  C   UNL     1      -4.759  -6.027   2.579  1.00  0.00     0.029 A 
ATOM     73  C   UNL     1      -4.686  -6.853   3.702  1.00  0.00     0.049 A 
ATOM     74  H   UNL     1      -6.277  -6.856   5.080  1.00  0.00     0.167 HD
ATOM     75  C   UNL     1      -3.768  -8.398   5.419  1.00  0.00     0.074 A 
ATOM     76  C   UNL     1      -4.335  -7.828   6.627  1.00  0.00     0.031 C 
ATOM     77  C   UNL     1      -3.893  -7.993   4.116  1.00  0.00     0.034 A 
BRANCH  64  78
ATOM     78  C   UNL     1      -7.389  -3.770   5.692  1.00  0.00     0.023 A 
ATOM     79  C   UNL     1      -8.328  -4.800   5.871  1.00  0.00     0.031 A 
ATOM     80  C   UNL     1      -7.872  -2.470   5.502  1.00  0.00     0.131 A 
ATOM     81  C   UNL     1      -9.700  -4.541   5.802  1.00  0.00     0.055 A 
ATOM     82  C   UNL     1      -9.251  -2.207   5.459  1.00  0.00     0.041 A 
ATOM     83  F   UNL     1      -7.027  -1.447   5.297  1.00  0.00    -0.206 F 
ATOM     84  C   UNL     1     -10.173  -3.248   5.593  1.00  0.00     0.022 A 
BRANCH  81  85
ATOM     85  S   UNL     1     -10.830  -5.952   5.914  1.00  0.00     0.124 S 
ATOM     86  O   UNL     1     -10.405  -6.771   4.784  1.00  0.00    -0.237 OA
ATOM     87  O   UNL     1     -10.515  -6.476   7.239  1.00  0.00    -0.237 OA
ATOM     88  O   UNL     1     -12.150  -5.340   5.782  1.00  0.00    -0.744 OA
ENDBRANCH  81  85
ENDBRANCH  64  78
BRANCH  65  89
ATOM     89  C   UNL     1      -1.398  -9.583   9.454  1.00  0.00     0.023 A 
ATOM     90  C   UNL     1      -0.118  -9.516  10.050  1.00  0.00     0.031 A 
ATOM     91  C   UNL     1      -2.482  -9.745  10.326  1.00  0.00     0.131 A 
ATOM     92  C   UNL     1       0.035  -9.412  11.438  1.00  0.00     0.055 A 
ATOM     93  C   UNL     1      -2.329  -9.659  11.719  1.00  0.00     0.041 A 
ATOM     94  F   UNL     1      -3.725  -9.948   9.868  1.00  0.00    -0.206 F 
ATOM     95  C   UNL     1      -1.070  -9.456  12.281  1.00  0.00     0.022 A 
BRANCH  92  96
ATOM     96  S   UNL     1       1.690  -9.057  12.085  1.00  0.00     0.124 S 
ATOM     97  O   UNL     1       2.421 -10.274  11.750  1.00  0.00    -0.237 OA
ATOM     98  O   UNL     1       2.053  -7.861  11.329  1.00  0.00    -0.237 OA
ATOM     99  O   UNL     1       1.460  -8.837  13.511  1.00  0.00    -0.744 OA
ENDBRANCH  92  96
ENDBRANCH  65  89
BRANCH  77 100
ATOM    100  C   UNL     1      -3.006  -8.666   3.114  1.00  0.00     0.023 A 
ATOM    101  C   UNL     1      -3.102 -10.048   2.901  1.00  0.00     0.031 A 
ATOM    102  C   UNL     1      -2.099  -7.938   2.319  1.00  0.00     0.131 A 
ATOM    103  C   UNL     1      -2.332 -10.660   1.905  1.00  0.00     0.055 A 
ATOM    104  C   UNL     1      -1.365  -8.543   1.298  1.00  0.00     0.041 A 
ATOM    105  F   UNL     1      -1.912  -6.620   2.504  1.00  0.00    -0.206 F 
ATOM    106  C   UNL     1      -1.484  -9.912   1.083  1.00  0.00     0.022 A 
BRANCH 103 107
ATOM    107  S   UNL     1      -2.472 -12.450   1.678  1.00  0.00     0.124 S 
ATOM    108  O   UNL     1      -1.911 -12.973   2.919  1.00  0.00    -0.237 OA
ATOM    109  O   UNL     1      -3.908 -12.636   1.494  1.00  0.00    -0.237 OA
ATOM    110  O   UNL     1      -1.665 -12.704   0.484  1.00  0.00    -0.744 OA
ENDBRANCH 103 107
ENDBRANCH  77 100
ENDBRANCH  51  52
ENDBRANCH  43  46
ENDBRANCH  41  42
ENDBRANCH  40  41
ENDBRANCH   1  40
TORSDOF 20
