REMARK SMILES O=C(NCCCCNC(=O)c1ccc2nc(C3CCCCC3)[nH]c2c1)c1ccc(-c2c3nc(c(-c4cc(S(=O)(=O)[O-])ccc4F)c4ccc([nH]4)c(-c4cc(S(=O)(=O)[O-])ccc4F)c4nc(c(-c5cc(S(=O)(=O)[O-])ccc5F)c5ccc2[nH]5)C=C4)C=C3)cc1
REMARK SMILES IDX 4 1 3 2 1 3 2 4 26 6 27 7 88 8 28 9 87 10 29 11 30 12 31 13
REMARK SMILES IDX 81 14 32 15 86 16 80 17 82 18 33 19 85 20 79 21 78 22 34 24
REMARK SMILES IDX 66 25 46 26 65 27 47 28 50 29 64 30 83 31 48 32 49 33 63 35
REMARK SMILES IDX 84 36 51 37 35 38 36 39 44 40 37 41 43 42 45 43 42 44 38 45
REMARK SMILES IDX 39 46 40 47 41 48 67 49 68 50 76 51 69 52 75 53 77 54 74 55
REMARK SMILES IDX 70 56 71 57 72 58 73 59 52 60 53 61 61 62 54 63 60 64 62 65
REMARK SMILES IDX 59 66 55 67 56 68 57 69 58 70 5 71 6 72 7 73 8 74 9 75 10 77
REMARK SMILES IDX 11 78 12 79 25 80 13 81 24 82 14 83 23 84 15 85 16 86 17 88
REMARK SMILES IDX 18 89 22 90 19 91 21 92 20 93
REMARK H PARENT 3 5 82 23 50 34 8 76 23 87
REMARK Flexibility Score: inf
ROOT
ATOM      1  C   UNL     1       4.571  -0.581  -1.181  1.00  0.00     0.116 C 
ENDROOT
BRANCH   1   2
ATOM      2  N   UNL     1       3.141  -0.333  -1.072  1.00  0.00    -0.352 N 
ATOM      3  O   UNL     1       1.165  -0.024  -0.029  1.00  0.00    -0.269 OA
ATOM      4  C   UNL     1       2.388  -0.090   0.054  1.00  0.00     0.251 C 
ATOM      5  H   UNL     1       2.644  -0.339  -1.921  1.00  0.00     0.163 HD
BRANCH   4   6
ATOM      6  C   UNL     1       3.056   0.060   1.365  1.00  0.00     0.039 A 
ATOM      7  C   UNL     1       4.190   0.865   1.496  1.00  0.00     0.014 A 
ATOM      8  C   UNL     1       2.551  -0.627   2.472  1.00  0.00     0.014 A 
ATOM      9  C   UNL     1       4.902   0.863   2.689  1.00  0.00     0.010 A 
ATOM     10  C   UNL     1       3.222  -0.558   3.697  1.00  0.00     0.010 A 
ATOM     11  C   UNL     1       4.422   0.161   3.807  1.00  0.00    -0.014 A 
BRANCH  11  12
ATOM     12  C   UNL     1       5.167   0.241   5.090  1.00  0.00     0.031 A 
ATOM     13  C   UNL     1       5.815  -0.975   5.692  1.00  0.00     0.074 A 
ATOM     14  C   UNL     1       5.278   1.440   5.695  1.00  0.00     0.049 A 
ATOM     15  N   UNL     1       6.508  -1.077   6.798  1.00  0.00    -0.248 NA
ATOM     16  C   UNL     1       5.654  -2.243   4.966  1.00  0.00     0.031 C 
ATOM     17  C   UNL     1       4.681   2.686   5.204  1.00  0.00     0.029 A 
ATOM     18  N   UNL     1       5.938   1.817   6.836  1.00  0.00    -0.354 N 
ATOM     19  C   UNL     1       6.852  -2.420   6.913  1.00  0.00     0.074 A 
ATOM     20  C   UNL     1       6.264  -3.098   5.776  1.00  0.00     0.031 C 
ATOM     21  C   UNL     1       5.036   3.693   6.015  1.00  0.00     0.029 A 
ATOM     22  C   UNL     1       5.827   3.158   7.116  1.00  0.00     0.049 A 
ATOM     23  H   UNL     1       6.442   1.187   7.400  1.00  0.00     0.167 HD
ATOM     24  C   UNL     1       7.593  -3.025   7.876  1.00  0.00     0.034 A 
ATOM     25  C   UNL     1       6.289   3.878   8.156  1.00  0.00     0.034 A 
ATOM     26  C   UNL     1       8.178  -2.328   8.999  1.00  0.00     0.049 A 
ATOM     27  C   UNL     1       7.089   3.180   9.220  1.00  0.00     0.074 A 
ATOM     28  C   UNL     1       8.979  -2.836  10.007  1.00  0.00     0.029 A 
ATOM     29  N   UNL     1       8.016  -0.974   9.269  1.00  0.00    -0.354 N 
ATOM     30  N   UNL     1       7.420   1.912   9.302  1.00  0.00    -0.248 NA
ATOM     31  C   UNL     1       7.580   4.009  10.326  1.00  0.00     0.031 C 
ATOM     32  C   UNL     1       9.247  -1.807  10.918  1.00  0.00     0.029 A 
ATOM     33  C   UNL     1       8.675  -0.638  10.444  1.00  0.00     0.049 A 
ATOM     34  H   UNL     1       7.508  -0.344   8.709  1.00  0.00     0.167 HD
ATOM     35  C   UNL     1       8.170   1.794  10.467  1.00  0.00     0.074 A 
ATOM     36  C   UNL     1       8.262   3.123  11.038  1.00  0.00     0.031 C 
ATOM     37  C   UNL     1       8.733   0.687  11.015  1.00  0.00     0.034 A 
BRANCH  24  38
ATOM     38  C   UNL     1       7.772  -4.522   7.783  1.00  0.00     0.023 A 
ATOM     39  C   UNL     1       8.484  -5.124   6.730  1.00  0.00     0.031 A 
ATOM     40  C   UNL     1       7.212  -5.363   8.763  1.00  0.00     0.131 A 
ATOM     41  C   UNL     1       8.564  -6.524   6.649  1.00  0.00     0.055 A 
ATOM     42  C   UNL     1       7.357  -6.751   8.715  1.00  0.00     0.041 A 
ATOM     43  F   UNL     1       6.506  -4.848   9.781  1.00  0.00    -0.206 F 
ATOM     44  C   UNL     1       8.025  -7.340   7.646  1.00  0.00     0.022 A 
BRANCH  41  45
ATOM     45  S   UNL     1       9.275  -7.269   5.154  1.00  0.00     0.124 S 
ATOM     46  O   UNL     1       8.411  -6.722   4.111  1.00  0.00    -0.237 OA
ATOM     47  O   UNL     1      10.645  -6.771   5.175  1.00  0.00    -0.237 OA
ATOM     48  O   UNL     1       9.129  -8.705   5.384  1.00  0.00    -0.744 OA
ENDBRANCH  41  45
ENDBRANCH  24  38
BRANCH  25  49
ATOM     49  C   UNL     1       5.971   5.329   8.255  1.00  0.00     0.023 A 
ATOM     50  C   UNL     1       6.976   6.303   8.168  1.00  0.00     0.031 A 
ATOM     51  C   UNL     1       4.645   5.761   8.445  1.00  0.00     0.131 A 
ATOM     52  C   UNL     1       6.645   7.660   8.301  1.00  0.00     0.055 A 
ATOM     53  C   UNL     1       4.315   7.113   8.528  1.00  0.00     0.041 A 
ATOM     54  F   UNL     1       3.646   4.868   8.528  1.00  0.00    -0.206 F 
ATOM     55  C   UNL     1       5.320   8.072   8.466  1.00  0.00     0.022 A 
BRANCH  52  56
ATOM     56  S   UNL     1       7.984   8.883   8.318  1.00  0.00     0.124 S 
ATOM     57  O   UNL     1       8.790   8.428   9.445  1.00  0.00    -0.237 OA
ATOM     58  O   UNL     1       8.573   8.706   6.995  1.00  0.00    -0.237 OA
ATOM     59  O   UNL     1       7.284  10.150   8.522  1.00  0.00    -0.744 OA
ENDBRANCH  52  56
ENDBRANCH  25  49
BRANCH  37  60
ATOM     60  C   UNL     1       9.517   0.888  12.287  1.00  0.00     0.023 A 
ATOM     61  C   UNL     1       8.887   1.251  13.491  1.00  0.00     0.031 A 
ATOM     62  C   UNL     1      10.916   0.745  12.287  1.00  0.00     0.131 A 
ATOM     63  C   UNL     1       9.660   1.516  14.631  1.00  0.00     0.055 A 
ATOM     64  C   UNL     1      11.674   0.955  13.440  1.00  0.00     0.041 A 
ATOM     65  F   UNL     1      11.568   0.404  11.164  1.00  0.00    -0.206 F 
ATOM     66  C   UNL     1      11.048   1.355  14.617  1.00  0.00     0.022 A 
BRANCH  63  67
ATOM     67  S   UNL     1       8.836   2.164  16.111  1.00  0.00     0.124 S 
ATOM     68  O   UNL     1       8.230   3.392  15.607  1.00  0.00    -0.237 OA
ATOM     69  O   UNL     1       7.910   1.088  16.449  1.00  0.00    -0.237 OA
ATOM     70  O   UNL     1       9.932   2.357  17.058  1.00  0.00    -0.744 OA
ENDBRANCH  63  67
ENDBRANCH  37  60
ENDBRANCH  11  12
ENDBRANCH   4   6
ENDBRANCH   1   2
BRANCH   1  71
ATOM     71  C   UNL     1       4.902  -1.845  -1.962  1.00  0.00     0.023 C 
BRANCH  71  72
ATOM     72  C   UNL     1       4.412  -1.868  -3.409  1.00  0.00     0.023 C 
BRANCH  72  73
ATOM     73  C   UNL     1       4.789  -0.649  -4.244  1.00  0.00     0.116 C 
BRANCH  73  74
ATOM     74  N   UNL     1       6.228  -0.465  -4.352  1.00  0.00    -0.352 N 
ATOM     75  C   UNL     1       7.007  -0.423  -5.480  1.00  0.00     0.251 C 
ATOM     76  H   UNL     1       6.707  -0.355  -3.500  1.00  0.00     0.163 HD
ATOM     77  O   UNL     1       8.231  -0.386  -5.404  1.00  0.00    -0.269 OA
BRANCH  75  78
ATOM     78  C   UNL     1       6.362  -0.459  -6.806  1.00  0.00     0.042 A 
ATOM     79  C   UNL     1       5.419   0.515  -7.162  1.00  0.00     0.016 A 
ATOM     80  C   UNL     1       6.727  -1.492  -7.679  1.00  0.00     0.042 A 
ATOM     81  C   UNL     1       4.753   0.439  -8.391  1.00  0.00     0.031 A 
ATOM     82  C   UNL     1       6.048  -1.533  -8.896  1.00  0.00     0.066 A 
ATOM     83  C   UNL     1       5.073  -0.612  -9.262  1.00  0.00     0.089 A 
ATOM     84  N   UNL     1       6.127  -2.385  -9.965  1.00  0.00    -0.342 N 
ATOM     85  N   UNL     1       4.565  -0.906 -10.502  1.00  0.00    -0.233 NA
ATOM     86  C   UNL     1       5.219  -1.974 -10.913  1.00  0.00     0.110 A 
ATOM     87  H   UNL     1       6.729  -3.160 -10.043  1.00  0.00     0.168 HD
BRANCH  86  88
ATOM     88  C   UNL     1       5.062  -2.638 -12.245  1.00  0.00     0.055 C 
ATOM     89  C   UNL     1       6.289  -2.372 -13.129  1.00  0.00     0.011 C 
ATOM     90  C   UNL     1       4.782  -4.142 -12.118  1.00  0.00     0.011 C 
ATOM     91  C   UNL     1       6.146  -3.034 -14.496  1.00  0.00     0.001 C 
ATOM     92  C   UNL     1       4.646  -4.800 -13.490  1.00  0.00     0.001 C 
ATOM     93  C   UNL     1       5.864  -4.528 -14.368  1.00  0.00     0.000 C 
ENDBRANCH  86  88
ENDBRANCH  75  78
ENDBRANCH  73  74
ENDBRANCH  72  73
ENDBRANCH  71  72
ENDBRANCH   1  71
TORSDOF 15
