REMARK SMILES O=C(NCCCCNC(=O)c1cc(=O)[nH]c2c(Br)cccc12)c1ccc(-c2c3nc(c(-c4cc(S(=O)(=O)[O-])ccc4F)c4ccc([nH]4)c(-c4cc(S(=O)(=O)[O-])ccc4F)c4nc(c(-c5cc(S(=O)(=O)[O-])ccc5F)c5ccc2[nH]5)C=C4)C=C3)cc1
REMARK SMILES IDX 4 1 3 2 1 3 2 4 23 6 24 7 85 8 25 9 84 10 26 11 27 12 28 13
REMARK SMILES IDX 78 14 29 15 83 16 77 17 79 18 30 19 82 20 76 21 75 22 31 24
REMARK SMILES IDX 63 25 43 26 62 27 44 28 47 29 61 30 80 31 45 32 46 33 60 35
REMARK SMILES IDX 81 36 48 37 32 38 33 39 41 40 34 41 40 42 42 43 39 44 35 45
REMARK SMILES IDX 36 46 37 47 38 48 64 49 65 50 73 51 66 52 72 53 74 54 71 55
REMARK SMILES IDX 67 56 68 57 69 58 70 59 49 60 50 61 58 62 51 63 57 64 59 65
REMARK SMILES IDX 56 66 52 67 53 68 54 69 55 70 5 71 6 72 7 73 8 74 9 75 10 77
REMARK SMILES IDX 11 78 12 79 22 80 13 81 16 82 21 83 14 84 15 85 17 86 20 87
REMARK SMILES IDX 18 89 19 90
REMARK H PARENT 3 5 79 23 47 34 8 76 15 88
REMARK Flexibility Score: inf
ROOT
ATOM      1  C   UNL     1       4.598  -1.089  -0.805  1.00  0.00     0.116 C 
ENDROOT
BRANCH   1   2
ATOM      2  N   UNL     1       3.168  -0.838  -0.873  1.00  0.00    -0.352 N 
ATOM      3  O   UNL     1       1.149  -0.129  -0.195  1.00  0.00    -0.269 OA
ATOM      4  C   UNL     1       2.368  -0.079  -0.053  1.00  0.00     0.251 C 
ATOM      5  H   UNL     1       2.702  -1.279  -1.619  1.00  0.00     0.163 HD
BRANCH   4   6
ATOM      6  C   UNL     1       2.960   0.781   0.997  1.00  0.00     0.039 A 
ATOM      7  C   UNL     1       2.301   0.897   2.224  1.00  0.00     0.014 A 
ATOM      8  C   UNL     1       4.131   1.508   0.769  1.00  0.00     0.014 A 
ATOM      9  C   UNL     1       2.826   1.726   3.219  1.00  0.00     0.010 A 
ATOM     10  C   UNL     1       4.713   2.239   1.800  1.00  0.00     0.010 A 
ATOM     11  C   UNL     1       4.042   2.401   3.018  1.00  0.00    -0.014 A 
BRANCH  11  12
ATOM     12  C   UNL     1       4.565   3.361   4.026  1.00  0.00     0.031 A 
ATOM     13  C   UNL     1       4.705   4.818   3.662  1.00  0.00     0.074 A 
ATOM     14  C   UNL     1       4.916   2.934   5.256  1.00  0.00     0.049 A 
ATOM     15  N   UNL     1       5.123   5.815   4.398  1.00  0.00    -0.248 NA
ATOM     16  C   UNL     1       4.356   5.207   2.284  1.00  0.00     0.031 C 
ATOM     17  C   UNL     1       4.862   1.544   5.710  1.00  0.00     0.029 A 
ATOM     18  N   UNL     1       5.374   3.624   6.352  1.00  0.00    -0.354 N 
ATOM     19  C   UNL     1       5.101   6.933   3.571  1.00  0.00     0.074 A 
ATOM     20  C   UNL     1       4.704   6.484   2.259  1.00  0.00     0.031 C 
ATOM     21  C   UNL     1       5.218   1.492   7.003  1.00  0.00     0.029 A 
ATOM     22  C   UNL     1       5.567   2.835   7.463  1.00  0.00     0.049 A 
ATOM     23  H   UNL     1       5.549   4.593   6.343  1.00  0.00     0.167 HD
ATOM     24  C   UNL     1       5.349   8.225   3.887  1.00  0.00     0.034 A 
ATOM     25  C   UNL     1       5.961   3.158   8.713  1.00  0.00     0.034 A 
ATOM     26  C   UNL     1       5.690   8.667   5.212  1.00  0.00     0.049 A 
ATOM     27  C   UNL     1       6.218   4.610   9.043  1.00  0.00     0.074 A 
ATOM     28  C   UNL     1       5.900   9.962   5.649  1.00  0.00     0.029 A 
ATOM     29  N   UNL     1       5.857   7.840   6.312  1.00  0.00    -0.354 N 
ATOM     30  N   UNL     1       6.107   5.666   8.271  1.00  0.00    -0.248 NA
ATOM     31  C   UNL     1       6.631   4.923  10.419  1.00  0.00     0.031 C 
ATOM     32  C   UNL     1       6.269   9.912   6.992  1.00  0.00     0.029 A 
ATOM     33  C   UNL     1       6.189   8.597   7.422  1.00  0.00     0.049 A 
ATOM     34  H   UNL     1       5.754   6.860   6.306  1.00  0.00     0.167 HD
ATOM     35  C   UNL     1       6.381   6.766   9.080  1.00  0.00     0.074 A 
ATOM     36  C   UNL     1       6.652   6.249  10.403  1.00  0.00     0.031 C 
ATOM     37  C   UNL     1       6.405   8.083   8.753  1.00  0.00     0.034 A 
BRANCH  24  38
ATOM     38  C   UNL     1       5.231   9.277   2.812  1.00  0.00     0.023 A 
ATOM     39  C   UNL     1       6.348  10.069   2.488  1.00  0.00     0.031 A 
ATOM     40  C   UNL     1       3.993   9.604   2.230  1.00  0.00     0.131 A 
ATOM     41  C   UNL     1       6.193  11.183   1.655  1.00  0.00     0.055 A 
ATOM     42  C   UNL     1       3.856  10.681   1.354  1.00  0.00     0.041 A 
ATOM     43  F   UNL     1       2.896   8.880   2.505  1.00  0.00    -0.206 F 
ATOM     44  C   UNL     1       4.956  11.487   1.078  1.00  0.00     0.022 A 
BRANCH  41  45
ATOM     45  S   UNL     1       7.569  12.326   1.361  1.00  0.00     0.124 S 
ATOM     46  O   UNL     1       7.667  12.310  -0.098  1.00  0.00    -0.237 OA
ATOM     47  O   UNL     1       7.061  13.567   1.939  1.00  0.00    -0.237 OA
ATOM     48  O   UNL     1       8.691  11.713   2.063  1.00  0.00    -0.744 OA
ENDBRANCH  41  45
ENDBRANCH  24  38
BRANCH  25  49
ATOM     49  C   UNL     1       6.036   2.096   9.762  1.00  0.00     0.023 A 
ATOM     50  C   UNL     1       6.905   0.998   9.631  1.00  0.00     0.031 A 
ATOM     51  C   UNL     1       5.176   2.124  10.875  1.00  0.00     0.131 A 
ATOM     52  C   UNL     1       6.854  -0.049  10.563  1.00  0.00     0.055 A 
ATOM     53  C   UNL     1       5.183   1.117  11.842  1.00  0.00     0.041 A 
ATOM     54  F   UNL     1       4.314   3.139  11.038  1.00  0.00    -0.206 F 
ATOM     55  C   UNL     1       6.015   0.015  11.680  1.00  0.00     0.022 A 
BRANCH  52  56
ATOM     56  S   UNL     1       7.782  -1.583  10.290  1.00  0.00     0.124 S 
ATOM     57  O   UNL     1       8.643  -1.634  11.467  1.00  0.00    -0.237 OA
ATOM     58  O   UNL     1       6.711  -2.576  10.248  1.00  0.00    -0.237 OA
ATOM     59  O   UNL     1       8.462  -1.353   9.020  1.00  0.00    -0.744 OA
ENDBRANCH  52  56
ENDBRANCH  25  49
BRANCH  37  60
ATOM     60  C   UNL     1       6.672   9.107   9.832  1.00  0.00     0.023 A 
ATOM     61  C   UNL     1       5.708  10.103  10.093  1.00  0.00     0.031 A 
ATOM     62  C   UNL     1       7.921   9.214  10.466  1.00  0.00     0.131 A 
ATOM     63  C   UNL     1       6.025  11.185  10.922  1.00  0.00     0.055 A 
ATOM     64  C   UNL     1       8.211  10.262  11.341  1.00  0.00     0.041 A 
ATOM     65  F   UNL     1       8.883   8.306  10.236  1.00  0.00    -0.206 F 
ATOM     66  C   UNL     1       7.267  11.263  11.558  1.00  0.00     0.022 A 
BRANCH  63  67
ATOM     67  S   UNL     1       4.886  12.585  11.109  1.00  0.00     0.124 S 
ATOM     68  O   UNL     1       4.575  12.531  12.536  1.00  0.00    -0.237 OA
ATOM     69  O   UNL     1       5.715  13.713  10.694  1.00  0.00    -0.237 OA
ATOM     70  O   UNL     1       3.777  12.260  10.218  1.00  0.00    -0.744 OA
ENDBRANCH  63  67
ENDBRANCH  37  60
ENDBRANCH  11  12
ENDBRANCH   4   6
ENDBRANCH   1   2
BRANCH   1  71
ATOM     71  C   UNL     1       4.934  -2.568  -0.674  1.00  0.00     0.023 C 
BRANCH  71  72
ATOM     72  C   UNL     1       4.447  -3.449  -1.820  1.00  0.00     0.023 C 
BRANCH  72  73
ATOM     73  C   UNL     1       4.824  -2.963  -3.214  1.00  0.00     0.116 C 
BRANCH  73  74
ATOM     74  N   UNL     1       6.263  -2.878  -3.414  1.00  0.00    -0.352 N 
ATOM     75  C   UNL     1       7.037  -3.475  -4.369  1.00  0.00     0.252 C 
ATOM     76  H   UNL     1       6.747  -2.311  -2.771  1.00  0.00     0.163 HD
ATOM     77  O   UNL     1       8.256  -3.339  -4.366  1.00  0.00    -0.269 OA
BRANCH  75  78
ATOM     78  C   UNL     1       6.361  -4.324  -5.379  1.00  0.00     0.054 A 
ATOM     79  C   UNL     1       5.520  -3.695  -6.215  1.00  0.00     0.086 A 
ATOM     80  C   UNL     1       6.575  -5.776  -5.479  1.00  0.00     0.012 A 
ATOM     81  C   UNL     1       4.681  -4.459  -7.156  1.00  0.00     0.249 A 
ATOM     82  C   UNL     1       5.789  -6.502  -6.388  1.00  0.00     0.063 A 
ATOM     83  C   UNL     1       7.520  -6.460  -4.702  1.00  0.00     0.011 A 
ATOM     84  O   UNL     1       3.849  -3.891  -7.855  1.00  0.00    -0.270 OA
ATOM     85  N   UNL     1       4.854  -5.811  -7.179  1.00  0.00    -0.321 N 
ATOM     86  C   UNL     1       5.941  -7.890  -6.504  1.00  0.00     0.042 A 
ATOM     87  C   UNL     1       7.677  -7.842  -4.828  1.00  0.00     0.002 A 
ATOM     88  H   UNL     1       4.289  -6.338  -7.789  1.00  0.00     0.170 HD
ATOM     89  Br  UNL     1       4.888  -8.905  -7.714  1.00  0.00    -0.049 Br
ATOM     90  C   UNL     1       6.887  -8.559  -5.726  1.00  0.00     0.018 A 
ENDBRANCH  75  78
ENDBRANCH  73  74
ENDBRANCH  72  73
ENDBRANCH  71  72
ENDBRANCH   1  71
TORSDOF 14
