REMARK SMILES CC(C)C[N@H+](CC[NH+](C)C)[C@@H]1CCC[C@]([NH3+])(C(=O)NCCCCNC(=O)c2ccc(-c3c4nc(c(-c5cc(S(=O)(=O)[O-])ccc5F)c5ccc([nH]5)c(-c5cc(S(=O)(=O)[O-])ccc5F)c5nc(c(-c6cc(S(=O)(=O)[O-])ccc6F)c6ccc3[nH]6)C=C5)C=C4)cc2)C1
REMARK SMILES IDX 21 1 20 2 19 3 17 4 18 5 15 7 11 8 12 9 90 10 13 11 14 12
REMARK SMILES IDX 5 13 4 15 2 16 1 17 3 18 6 19 7 20 8 21 9 22 10 23 16 25
REMARK SMILES IDX 22 29 23 30 24 31 25 32 26 34 27 35 28 36 89 37 29 38 88 39
REMARK SMILES IDX 30 40 31 41 32 42 82 43 33 44 87 45 81 46 83 47 34 48 86 49
REMARK SMILES IDX 80 50 79 51 35 53 67 54 47 55 66 56 48 57 51 58 65 59 84 60
REMARK SMILES IDX 49 61 50 62 64 64 85 65 52 66 36 67 37 68 45 69 38 70 44 71
REMARK SMILES IDX 46 72 43 73 39 74 40 75 41 76 42 77 68 78 69 79 77 80 70 81
REMARK SMILES IDX 76 82 78 83 75 84 71 85 72 86 73 87 74 88 53 89 54 90 62 91
REMARK SMILES IDX 55 92 61 93 63 94 60 95 56 96 57 97 58 98 59 99
REMARK H PARENT 19 6 5 14 8 24 16 26 16 27 16 28 24 33 83 52 51 63
REMARK Flexibility Score: inf
ROOT
ATOM      1  C   UNL     1      -1.244  -7.491   1.608  1.00  0.00     0.023 C 
ENDROOT
BRANCH   1   2
ATOM      2  C   UNL     1      -0.419  -6.309   1.109  1.00  0.00     0.116 C 
BRANCH   2   3
ATOM      3  N   UNL     1      -1.271  -5.330   0.468  1.00  0.00    -0.351 N 
ATOM      4  C   UNL     1      -1.716  -4.123   0.911  1.00  0.00     0.281 C 
ATOM      5  O   UNL     1      -2.813  -3.764   0.475  1.00  0.00    -0.268 OA
ATOM      6  H   UNL     1      -1.578  -5.578  -0.434  1.00  0.00     0.163 HD
BRANCH   4   7
ATOM      7  C   UNL     1      -0.940  -3.319   1.999  1.00  0.00     0.179 C 
ATOM      8  C   UNL     1      -0.967  -0.878   0.958  1.00  0.00     0.191 C 
ATOM      9  C   UNL     1       0.553  -1.025   0.783  1.00  0.00     0.065 C 
ATOM     10  C   UNL     1      -1.476  -1.866   2.061  1.00  0.00     0.144 C 
ATOM     11  C   UNL     1       0.976  -2.466   0.569  1.00  0.00     0.013 C 
ATOM     12  C   UNL     1       0.587  -3.282   1.795  1.00  0.00     0.079 C 
BRANCH   8  13
ATOM     13  N   UNL     1      -1.764  -0.811  -0.273  1.00  0.00    -0.327 N 
ATOM     14  H   UNL     1      -1.647  -1.820  -0.364  1.00  0.00     0.348 HD
BRANCH  13  15
ATOM     15  C   UNL     1      -1.203  -0.545  -1.606  1.00  0.00     0.265 C 
BRANCH  15  16
ATOM     16  C   UNL     1      -1.358   0.821  -2.362  1.00  0.00     0.038 C 
ATOM     17  C   UNL     1      -0.447   1.966  -1.905  1.00  0.00     0.013 C 
ATOM     18  C   UNL     1      -1.037   0.598  -3.853  1.00  0.00     0.013 C 
ENDBRANCH  15  16
ENDBRANCH  13  15
BRANCH  13  19
ATOM     19  C   UNL     1      -3.185  -0.468  -0.123  1.00  0.00     0.324 C 
BRANCH  19  20
ATOM     20  C   UNL     1      -3.567   0.780   0.727  1.00  0.00     0.323 C 
BRANCH  20  21
ATOM     21  N   UNL     1      -2.873   2.012   0.342  1.00  0.00    -0.335 N 
ATOM     22  C   UNL     1      -3.716   3.122  -0.058  1.00  0.00     0.332 C 
ATOM     23  C   UNL     1      -1.784   2.416   1.224  1.00  0.00     0.332 C 
ATOM     24  H   UNL     1      -2.421   1.718  -0.524  1.00  0.00     0.347 HD
ENDBRANCH  20  21
ENDBRANCH  19  20
ENDBRANCH  13  19
ENDBRANCH   8  13
BRANCH   7  25
ATOM     25  N   UNL     1      -1.248  -3.935   3.326  1.00  0.00    -0.345 N 
ATOM     26  H   UNL     1      -0.752  -3.428   4.059  1.00  0.00     0.345 HD
ATOM     27  H   UNL     1      -0.948  -4.910   3.325  1.00  0.00     0.345 HD
ATOM     28  H   UNL     1      -2.252  -3.887   3.498  1.00  0.00     0.345 HD
ENDBRANCH   7  25
ENDBRANCH   4   7
ENDBRANCH   2   3
ENDBRANCH   1   2
BRANCH   1  29
ATOM     29  C   UNL     1      -1.947  -8.272   0.499  1.00  0.00     0.023 C 
BRANCH  29  30
ATOM     30  C   UNL     1      -1.050  -8.641  -0.674  1.00  0.00     0.116 C 
BRANCH  30  31
ATOM     31  N   UNL     1       0.160  -9.329  -0.247  1.00  0.00    -0.352 N 
ATOM     32  C   UNL     1       0.698 -10.495  -0.718  1.00  0.00     0.251 C 
ATOM     33  H   UNL     1       0.660  -8.894   0.482  1.00  0.00     0.163 HD
ATOM     34  O   UNL     1       1.628 -11.028  -0.111  1.00  0.00    -0.269 OA
BRANCH  32  35
ATOM     35  C   UNL     1       0.133 -11.113  -1.930  1.00  0.00     0.039 A 
ATOM     36  C   UNL     1      -0.105 -12.487  -1.936  1.00  0.00     0.014 A 
ATOM     37  C   UNL     1      -0.184 -10.331  -3.045  1.00  0.00     0.014 A 
ATOM     38  C   UNL     1      -0.699 -13.070  -3.053  1.00  0.00     0.010 A 
ATOM     39  C   UNL     1      -0.868 -10.898  -4.113  1.00  0.00     0.010 A 
ATOM     40  C   UNL     1      -1.109 -12.278  -4.140  1.00  0.00    -0.014 A 
BRANCH  40  41
ATOM     41  C   UNL     1      -1.746 -12.900  -5.327  1.00  0.00     0.031 A 
ATOM     42  C   UNL     1      -1.065 -12.827  -6.668  1.00  0.00     0.074 A 
ATOM     43  C   UNL     1      -2.934 -13.521  -5.194  1.00  0.00     0.049 A 
ATOM     44  N   UNL     1      -1.444 -13.329  -7.815  1.00  0.00    -0.248 NA
ATOM     45  C   UNL     1       0.192 -12.065  -6.736  1.00  0.00     0.031 C 
ATOM     46  C   UNL     1      -3.709 -13.606  -3.953  1.00  0.00     0.029 A 
ATOM     47  N   UNL     1      -3.694 -14.209  -6.105  1.00  0.00    -0.354 N 
ATOM     48  C   UNL     1      -0.477 -12.940  -8.736  1.00  0.00     0.074 A 
ATOM     49  C   UNL     1       0.459 -12.094  -8.031  1.00  0.00     0.031 C 
ATOM     50  C   UNL     1      -4.807 -14.348  -4.170  1.00  0.00     0.029 A 
ATOM     51  C   UNL     1      -4.840 -14.752  -5.572  1.00  0.00     0.049 A 
ATOM     52  H   UNL     1      -3.442 -14.305  -7.052  1.00  0.00     0.167 HD
ATOM     53  C   UNL     1      -0.362 -13.286 -10.042  1.00  0.00     0.034 A 
ATOM     54  C   UNL     1      -5.806 -15.492  -6.150  1.00  0.00     0.034 A 
ATOM     55  C   UNL     1      -1.303 -14.139 -10.724  1.00  0.00     0.049 A 
ATOM     56  C   UNL     1      -5.664 -15.848  -7.609  1.00  0.00     0.074 A 
ATOM     57  C   UNL     1      -1.264 -14.594 -12.030  1.00  0.00     0.029 A 
ATOM     58  N   UNL     1      -2.460 -14.660 -10.158  1.00  0.00    -0.354 N 
ATOM     59  N   UNL     1      -4.707 -15.527  -8.451  1.00  0.00    -0.248 NA
ATOM     60  C   UNL     1      -6.722 -16.683  -8.187  1.00  0.00     0.031 C 
ATOM     61  C   UNL     1      -2.434 -15.321 -12.276  1.00  0.00     0.029 A 
ATOM     62  C   UNL     1      -3.159 -15.402 -11.098  1.00  0.00     0.049 A 
ATOM     63  H   UNL     1      -2.743 -14.523  -9.225  1.00  0.00     0.167 HD
ATOM     64  C   UNL     1      -5.036 -16.150  -9.652  1.00  0.00     0.074 A 
ATOM     65  C   UNL     1      -6.260 -16.888  -9.411  1.00  0.00     0.031 C 
ATOM     66  C   UNL     1      -4.389 -16.117 -10.847  1.00  0.00     0.034 A 
BRANCH  53  67
ATOM     67  C   UNL     1       0.807 -12.717 -10.812  1.00  0.00     0.023 A 
ATOM     68  C   UNL     1       2.139 -12.998 -10.454  1.00  0.00     0.031 A 
ATOM     69  C   UNL     1       0.591 -11.859 -11.905  1.00  0.00     0.131 A 
ATOM     70  C   UNL     1       3.196 -12.369 -11.130  1.00  0.00     0.055 A 
ATOM     71  C   UNL     1       1.648 -11.306 -12.630  1.00  0.00     0.041 A 
ATOM     72  F   UNL     1      -0.656 -11.531 -12.280  1.00  0.00    -0.206 F 
ATOM     73  C   UNL     1       2.961 -11.548 -12.234  1.00  0.00     0.022 A 
BRANCH  70  74
ATOM     74  S   UNL     1       4.871 -12.518 -10.449  1.00  0.00     0.124 S 
ATOM     75  O   UNL     1       4.695 -11.961  -9.110  1.00  0.00    -0.237 OA
ATOM     76  O   UNL     1       5.113 -13.954 -10.518  1.00  0.00    -0.237 OA
ATOM     77  O   UNL     1       5.681 -11.704 -11.353  1.00  0.00    -0.744 OA
ENDBRANCH  70  74
ENDBRANCH  53  67
BRANCH  54  78
ATOM     78  C   UNL     1      -6.990 -15.947  -5.363  1.00  0.00     0.023 A 
ATOM     79  C   UNL     1      -7.257 -17.313  -5.173  1.00  0.00     0.031 A 
ATOM     80  C   UNL     1      -7.907 -15.019  -4.836  1.00  0.00     0.131 A 
ATOM     81  C   UNL     1      -8.439 -17.713  -4.530  1.00  0.00     0.055 A 
ATOM     82  C   UNL     1      -9.049 -15.421  -4.141  1.00  0.00     0.041 A 
ATOM     83  F   UNL     1      -7.701 -13.701  -4.984  1.00  0.00    -0.206 F 
ATOM     84  C   UNL     1      -9.329 -16.777  -4.000  1.00  0.00     0.022 A 
BRANCH  81  85
ATOM     85  S   UNL     1      -8.852 -19.479  -4.492  1.00  0.00     0.124 S 
ATOM     86  O   UNL     1      -8.859 -19.813  -5.911  1.00  0.00    -0.237 OA
ATOM     87  O   UNL     1      -7.752 -20.030  -3.708  1.00  0.00    -0.237 OA
ATOM     88  O   UNL     1     -10.158 -19.509  -3.836  1.00  0.00    -0.744 OA
ENDBRANCH  81  85
ENDBRANCH  54  78
BRANCH  66  89
ATOM     89  C   UNL     1      -4.985 -16.940 -11.966  1.00  0.00     0.023 A 
ATOM     90  C   UNL     1      -6.268 -16.675 -12.477  1.00  0.00     0.031 A 
ATOM     91  C   UNL     1      -4.277 -18.033 -12.498  1.00  0.00     0.131 A 
ATOM     92  C   UNL     1      -6.839 -17.544 -13.418  1.00  0.00     0.055 A 
ATOM     93  C   UNL     1      -4.818 -18.844 -13.497  1.00  0.00     0.041 A 
ATOM     94  F   UNL     1      -3.049 -18.337 -12.050  1.00  0.00    -0.206 F 
ATOM     95  C   UNL     1      -6.115 -18.615 -13.946  1.00  0.00     0.022 A 
BRANCH  92  96
ATOM     96  S   UNL     1      -8.594 -17.343 -13.828  1.00  0.00     0.124 S 
ATOM     97  O   UNL     1      -9.222 -17.417 -12.512  1.00  0.00    -0.237 OA
ATOM     98  O   UNL     1      -8.616 -16.034 -14.472  1.00  0.00    -0.237 OA
ATOM     99  O   UNL     1      -8.871 -18.475 -14.711  1.00  0.00    -0.744 OA
ENDBRANCH  92  96
ENDBRANCH  66  89
ENDBRANCH  40  41
ENDBRANCH  32  35
ENDBRANCH  30  31
ENDBRANCH  29  30
ENDBRANCH   1  29
TORSDOF 21
