REMARK SMILES CCC(CC)(NC(=O)c1ccc(NC(C)=O)cc1)C(=O)NCCCCNC(=O)c1ccc(-c2c3nc(c(-c4cc(S(=O)(=O)[O-])ccc4F)c4ccc([nH]4)c(-c4cc(S(=O)(=O)[O-])ccc4F)c4nc(c(-c5cc(S(=O)(=O)[O-])ccc5F)c5ccc2[nH]5)C=C4)C=C3)cc1
REMARK SMILES IDX 23 1 22 2 21 3 19 4 20 5 3 7 2 8 1 9 4 10 5 11 6 12 7 13
REMARK SMILES IDX 8 15 9 16 10 17 18 18 11 19 17 20 12 21 13 22 14 23 15 25
REMARK SMILES IDX 16 26 24 27 25 28 26 29 27 30 28 32 29 33 30 34 91 35 31 36
REMARK SMILES IDX 90 37 32 38 33 39 34 40 84 41 35 42 89 43 83 44 85 45 36 46
REMARK SMILES IDX 88 47 82 48 81 49 37 51 69 52 49 53 68 54 50 55 53 56 67 57
REMARK SMILES IDX 86 58 51 59 52 60 66 62 87 63 54 64 38 65 39 66 47 67 40 68
REMARK SMILES IDX 46 69 48 70 45 71 41 72 42 73 43 74 44 75 70 76 71 77 79 78
REMARK SMILES IDX 72 79 78 80 80 81 77 82 73 83 74 84 75 85 76 86 55 87 56 88
REMARK SMILES IDX 64 89 57 90 63 91 65 92 62 93 58 94 59 95 60 96 61 97
REMARK H PARENT 21 6 6 14 13 24 26 31 85 50 53 61
REMARK Flexibility Score: inf
ROOT
ATOM      1  C   UNL     1       2.278   0.319  -6.231  1.00  0.00     0.023 C 
ENDROOT
BRANCH   1   2
ATOM      2  C   UNL     1       1.852  -0.895  -5.407  1.00  0.00     0.116 C 
BRANCH   2   3
ATOM      3  N   UNL     1       2.437  -1.075  -4.087  1.00  0.00    -0.354 N 
ATOM      4  C   UNL     1       2.052  -0.702  -2.825  1.00  0.00     0.245 C 
ATOM      5  O   UNL     1       2.622  -1.293  -1.901  1.00  0.00    -0.272 OA
ATOM      6  H   UNL     1       3.289  -1.568  -4.103  1.00  0.00     0.163 HD
BRANCH   4   7
ATOM      7  C   UNL     1       0.910   0.329  -2.546  1.00  0.00     0.118 C 
BRANCH   7   8
ATOM      8  C   UNL     1       0.937   0.948  -1.114  1.00  0.00     0.035 C 
ATOM      9  C   UNL     1       0.897   0.020   0.092  1.00  0.00     0.007 C 
ENDBRANCH   7   8
BRANCH   7  10
ATOM     10  C   UNL     1      -0.364  -0.567  -2.735  1.00  0.00     0.035 C 
ATOM     11  C   UNL     1      -1.726   0.063  -2.502  1.00  0.00     0.007 C 
ENDBRANCH   7  10
BRANCH   7  12
ATOM     12  N   UNL     1       0.903   1.494  -3.488  1.00  0.00    -0.338 N 
ATOM     13  C   UNL     1       1.684   2.643  -3.600  1.00  0.00     0.252 C 
ATOM     14  H   UNL     1       0.197   1.436  -4.171  1.00  0.00     0.164 HD
ATOM     15  O   UNL     1       1.102   3.635  -4.051  1.00  0.00    -0.269 OA
BRANCH  13  16
ATOM     16  C   UNL     1       3.164   2.761  -3.333  1.00  0.00     0.039 A 
ATOM     17  C   UNL     1       3.822   3.995  -3.503  1.00  0.00     0.016 A 
ATOM     18  C   UNL     1       3.983   1.678  -3.075  1.00  0.00     0.016 A 
ATOM     19  C   UNL     1       5.239   4.095  -3.473  1.00  0.00     0.027 A 
ATOM     20  C   UNL     1       5.372   1.753  -3.060  1.00  0.00     0.027 A 
ATOM     21  C   UNL     1       6.018   2.955  -3.284  1.00  0.00     0.041 A 
BRANCH  21  22
ATOM     22  N   UNL     1       7.417   2.861  -3.334  1.00  0.00    -0.326 N 
ATOM     23  C   UNL     1       8.351   3.847  -3.543  1.00  0.00     0.221 C 
ATOM     24  H   UNL     1       7.784   1.958  -3.199  1.00  0.00     0.169 HD
ATOM     25  C   UNL     1       9.758   3.291  -3.580  1.00  0.00     0.114 C 
ATOM     26  O   UNL     1       8.121   5.050  -3.662  1.00  0.00    -0.275 OA
ENDBRANCH  21  22
ENDBRANCH  13  16
ENDBRANCH   7  12
ENDBRANCH   4   7
ENDBRANCH   2   3
ENDBRANCH   1   2
BRANCH   1  27
ATOM     27  C   UNL     1       3.765   0.537  -6.493  1.00  0.00     0.023 C 
BRANCH  27  28
ATOM     28  C   UNL     1       4.563  -0.674  -6.941  1.00  0.00     0.116 C 
BRANCH  28  29
ATOM     29  N   UNL     1       4.070  -1.242  -8.182  1.00  0.00    -0.352 N 
ATOM     30  C   UNL     1       4.767  -1.602  -9.308  1.00  0.00     0.251 C 
ATOM     31  H   UNL     1       3.098  -1.390  -8.222  1.00  0.00     0.163 HD
ATOM     32  O   UNL     1       4.145  -1.921 -10.322  1.00  0.00    -0.269 OA
BRANCH  30  33
ATOM     33  C   UNL     1       6.248  -1.580  -9.318  1.00  0.00     0.039 A 
ATOM     34  C   UNL     1       6.906  -1.080 -10.446  1.00  0.00     0.014 A 
ATOM     35  C   UNL     1       6.991  -2.064  -8.237  1.00  0.00     0.014 A 
ATOM     36  C   UNL     1       8.302  -1.024 -10.471  1.00  0.00     0.010 A 
ATOM     37  C   UNL     1       8.379  -1.940  -8.233  1.00  0.00     0.010 A 
ATOM     38  C   UNL     1       9.051  -1.430  -9.355  1.00  0.00    -0.014 A 
BRANCH  38  39
ATOM     39  C   UNL     1      10.536  -1.368  -9.358  1.00  0.00     0.031 A 
ATOM     40  C   UNL     1      11.338  -2.639  -9.271  1.00  0.00     0.074 A 
ATOM     41  C   UNL     1      11.161  -0.174  -9.384  1.00  0.00     0.049 A 
ATOM     42  N   UNL     1      12.633  -2.799  -9.169  1.00  0.00    -0.248 NA
ATOM     43  C   UNL     1      10.576  -3.897  -9.264  1.00  0.00     0.031 C 
ATOM     44  C   UNL     1      10.492   1.128  -9.432  1.00  0.00     0.029 A 
ATOM     45  N   UNL     1      12.496   0.140  -9.364  1.00  0.00    -0.354 N 
ATOM     46  C   UNL     1      12.840  -4.172  -9.073  1.00  0.00     0.074 A 
ATOM     47  C   UNL     1      11.531  -4.791  -9.060  1.00  0.00     0.031 C 
ATOM     48  C   UNL     1      11.421   2.098  -9.457  1.00  0.00     0.029 A 
ATOM     49  C   UNL     1      12.747   1.493  -9.385  1.00  0.00     0.049 A 
ATOM     50  H   UNL     1      13.209  -0.539  -9.336  1.00  0.00     0.167 HD
ATOM     51  C   UNL     1      14.011  -4.854  -9.025  1.00  0.00     0.034 A 
ATOM     52  C   UNL     1      13.913   2.168  -9.341  1.00  0.00     0.034 A 
ATOM     53  C   UNL     1      15.308  -4.222  -9.056  1.00  0.00     0.049 A 
ATOM     54  C   UNL     1      15.204   1.391  -9.279  1.00  0.00     0.074 A 
ATOM     55  C   UNL     1      16.558  -4.816  -9.054  1.00  0.00     0.029 A 
ATOM     56  N   UNL     1      15.522  -2.850  -9.095  1.00  0.00    -0.354 N 
ATOM     57  N   UNL     1      15.383   0.091  -9.221  1.00  0.00    -0.248 NA
ATOM     58  C   UNL     1      16.448   2.171  -9.291  1.00  0.00     0.031 C 
ATOM     59  C   UNL     1      17.526  -3.804  -9.032  1.00  0.00     0.029 A 
ATOM     60  C   UNL     1      16.882  -2.579  -9.094  1.00  0.00     0.049 A 
ATOM     61  H   UNL     1      14.812  -2.169  -9.120  1.00  0.00     0.167 HD
ATOM     62  C   UNL     1      16.761  -0.102  -9.218  1.00  0.00     0.074 A 
ATOM     63  C   UNL     1      17.364   1.214  -9.295  1.00  0.00     0.031 C 
ATOM     64  C   UNL     1      17.467  -1.260  -9.160  1.00  0.00     0.034 A 
BRANCH  51  65
ATOM     65  C   UNL     1      13.933  -6.359  -8.911  1.00  0.00     0.023 A 
ATOM     66  C   UNL     1      13.343  -7.144  -9.918  1.00  0.00     0.031 A 
ATOM     67  C   UNL     1      14.421  -7.016  -7.769  1.00  0.00     0.131 A 
ATOM     68  C   UNL     1      13.181  -8.524  -9.727  1.00  0.00     0.055 A 
ATOM     69  C   UNL     1      14.335  -8.403  -7.623  1.00  0.00     0.041 A 
ATOM     70  F   UNL     1      14.976  -6.320  -6.764  1.00  0.00    -0.206 F 
ATOM     71  C   UNL     1      13.697  -9.163  -8.598  1.00  0.00     0.022 A 
BRANCH  68  72
ATOM     72  S   UNL     1      12.154  -9.445 -10.904  1.00  0.00     0.124 S 
ATOM     73  O   UNL     1      10.871  -8.757 -10.774  1.00  0.00    -0.237 OA
ATOM     74  O   UNL     1      12.861  -9.246 -12.164  1.00  0.00    -0.237 OA
ATOM     75  O   UNL     1      12.176 -10.810 -10.383  1.00  0.00    -0.744 OA
ENDBRANCH  68  72
ENDBRANCH  51  65
BRANCH  52  76
ATOM     76  C   UNL     1      13.920   3.659  -9.344  1.00  0.00     0.023 A 
ATOM     77  C   UNL     1      14.469   4.378 -10.416  1.00  0.00     0.031 A 
ATOM     78  C   UNL     1      13.407   4.386  -8.254  1.00  0.00     0.131 A 
ATOM     79  C   UNL     1      14.535   5.779 -10.358  1.00  0.00     0.055 A 
ATOM     80  C   UNL     1      13.428   5.781  -8.224  1.00  0.00     0.041 A 
ATOM     81  F   UNL     1      12.865   3.746  -7.206  1.00  0.00    -0.206 F 
ATOM     82  C   UNL     1      14.006   6.486  -9.276  1.00  0.00     0.022 A 
BRANCH  79  83
ATOM     83  S   UNL     1      15.396   6.663 -11.688  1.00  0.00     0.124 S 
ATOM     84  O   UNL     1      16.725   6.065 -11.630  1.00  0.00    -0.237 OA
ATOM     85  O   UNL     1      14.587   6.318 -12.853  1.00  0.00    -0.237 OA
ATOM     86  O   UNL     1      15.321   8.062 -11.272  1.00  0.00    -0.744 OA
ENDBRANCH  79  83
ENDBRANCH  52  76
BRANCH  64  87
ATOM     87  C   UNL     1      18.970  -1.150  -9.220  1.00  0.00     0.023 A 
ATOM     88  C   UNL     1      19.712  -0.572  -8.176  1.00  0.00     0.031 A 
ATOM     89  C   UNL     1      19.668  -1.623 -10.346  1.00  0.00     0.131 A 
ATOM     90  C   UNL     1      21.102  -0.433  -8.301  1.00  0.00     0.055 A 
ATOM     91  C   UNL     1      21.057  -1.534 -10.440  1.00  0.00     0.041 A 
ATOM     92  F   UNL     1      19.008  -2.184 -11.372  1.00  0.00    -0.206 F 
ATOM     93  C   UNL     1      21.781  -0.924  -9.419  1.00  0.00     0.022 A 
BRANCH  90  94
ATOM     94  S   UNL     1      22.005   0.477  -7.017  1.00  0.00     0.124 S 
ATOM     95  O   UNL     1      21.355   1.782  -7.056  1.00  0.00    -0.237 OA
ATOM     96  O   UNL     1      21.750  -0.327  -5.827  1.00  0.00    -0.237 OA
ATOM     97  O   UNL     1      23.388   0.458  -7.492  1.00  0.00    -0.744 OA
ENDBRANCH  90  94
ENDBRANCH  64  87
ENDBRANCH  38  39
ENDBRANCH  30  33
ENDBRANCH  28  29
ENDBRANCH  27  28
ENDBRANCH   1  27
TORSDOF 19
