REMARK SMILES CCC([NH3+])(CC)C(=O)N1CCC[N@H+](CC(=O)NCCCCNC(=O)c2ccc(-c3c4nc(c(-c5cc(S(=O)(=O)[O-])ccc5F)c5ccc([nH]5)c(-c5cc(S(=O)(=O)[O-])ccc5F)c5nc(c(-c6cc(S(=O)(=O)[O-])ccc6F)c6ccc3[nH]6)C=C5)C=C4)cc2)CC1
REMARK SMILES IDX 15 1 16 2 17 3 14 5 13 6 12 8 11 9 10 10 9 11 7 12 8 13 3 14
REMARK SMILES IDX 2 15 1 16 4 17 5 21 6 22 89 23 88 25 18 27 19 28 20 29 21 30
REMARK SMILES IDX 22 31 23 32 24 34 25 35 26 36 87 37 27 38 86 39 28 40 29 41
REMARK SMILES IDX 30 42 80 43 31 44 85 45 79 46 81 47 32 48 84 49 78 50 77 51
REMARK SMILES IDX 33 53 65 54 45 55 64 56 46 57 49 58 63 59 82 60 47 61 48 62
REMARK SMILES IDX 62 64 83 65 50 66 34 67 35 68 43 69 36 70 42 71 44 72 41 73
REMARK SMILES IDX 37 74 38 75 39 76 40 77 66 78 67 79 75 80 68 81 74 82 76 83
REMARK SMILES IDX 73 84 69 85 70 86 71 87 72 88 51 89 52 90 60 91 53 92 59 93
REMARK SMILES IDX 61 94 58 95 54 96 55 97 56 98 57 99
REMARK H PARENT 17 4 13 7 4 18 4 19 4 20 22 33 81 52 49 63
REMARK Flexibility Score: 80.00
ROOT
ATOM      1  C   UNL     1       4.216  -2.859  -5.320  1.00  0.00     0.275 C 
ATOM      2  O   UNL     1       3.237  -2.872  -6.074  1.00  0.00    -0.269 OA
ATOM      3  N   UNL     1       4.055  -3.379  -4.067  1.00  0.00    -0.351 N 
ATOM      4  H   UNL     1       3.119  -3.455  -3.771  1.00  0.00     0.163 HD
ENDROOT
BRANCH   1   5
ATOM      5  C   UNL     1       5.553  -2.282  -5.777  1.00  0.00     0.363 C 
BRANCH   5   6
ATOM      6  N   UNL     1       5.650  -0.820  -5.755  1.00  0.00    -0.326 N 
ATOM      7  H   UNL     1       6.615  -0.875  -6.082  1.00  0.00     0.348 HD
BRANCH   6   8
ATOM      8  C   UNL     1       5.002  -0.055  -6.791  1.00  0.00     0.264 C 
BRANCH   8   9
ATOM      9  C   UNL     1       3.657   0.605  -6.505  1.00  0.00     0.083 C 
BRANCH   9  10
ATOM     10  C   UNL     1       2.842   0.185  -5.290  1.00  0.00     0.126 C 
BRANCH  10  11
ATOM     11  N   UNL     1       3.346   0.541  -3.970  1.00  0.00    -0.331 N 
BRANCH  11  12
ATOM     12  C   UNL     1       2.534   0.888  -2.864  1.00  0.00     0.284 C 
ATOM     13  O   UNL     1       3.081   1.365  -1.859  1.00  0.00    -0.268 OA
BRANCH  12  14
ATOM     14  C   UNL     1       0.974   0.559  -2.808  1.00  0.00     0.173 C 
BRANCH  14  15
ATOM     15  C   UNL     1       0.403   0.956  -1.397  1.00  0.00     0.075 C 
ATOM     16  C   UNL     1       0.856   0.137  -0.185  1.00  0.00     0.011 C 
ENDBRANCH  14  15
BRANCH  14  17
ATOM     17  N   UNL     1       0.763  -0.903  -2.983  1.00  0.00    -0.345 N 
ATOM     18  H   UNL     1      -0.236  -1.109  -2.946  1.00  0.00     0.345 HD
ATOM     19  H   UNL     1       1.242  -1.407  -2.237  1.00  0.00     0.345 HD
ATOM     20  H   UNL     1       1.137  -1.195  -3.886  1.00  0.00     0.345 HD
ENDBRANCH  14  17
BRANCH  14  21
ATOM     21  C   UNL     1       0.106   1.287  -3.862  1.00  0.00     0.075 C 
ATOM     22  C   UNL     1       0.472   2.751  -4.070  1.00  0.00     0.011 C 
ENDBRANCH  14  21
ENDBRANCH  12  14
ENDBRANCH  11  12
BRANCH  11  23
ATOM     23  C   UNL     1       4.668   0.076  -3.556  1.00  0.00     0.181 CG0
ATOM     24  G   UNL     1       5.847  -0.115  -4.510  1.00  0.00     0.000 G0
ENDBRANCH  11  23
ENDBRANCH  10  11
ENDBRANCH   9  10
ENDBRANCH   8   9
ENDBRANCH   6   8
BRANCH   6  25
ATOM     25  C   UNL     1       5.847  -0.115  -4.510  1.00  0.00     0.284 CG0
ATOM     26  G   UNL     1       4.668   0.076  -3.556  1.00  0.00     0.000 G0
ENDBRANCH   6  25
ENDBRANCH   5   6
ENDBRANCH   1   5
BRANCH   3  27
ATOM     27  C   UNL     1       5.038  -3.838  -3.098  1.00  0.00     0.116 C 
BRANCH  27  28
ATOM     28  C   UNL     1       5.214  -2.954  -1.859  1.00  0.00     0.023 C 
BRANCH  28  29
ATOM     29  C   UNL     1       3.916  -2.461  -1.208  1.00  0.00     0.023 C 
BRANCH  29  30
ATOM     30  C   UNL     1       3.214  -3.486  -0.334  1.00  0.00     0.116 C 
BRANCH  30  31
ATOM     31  N   UNL     1       3.955  -3.727   0.892  1.00  0.00    -0.352 N 
ATOM     32  C   UNL     1       3.561  -3.572   2.195  1.00  0.00     0.251 C 
ATOM     33  H   UNL     1       4.876  -4.050   0.768  1.00  0.00     0.163 HD
ATOM     34  O   UNL     1       4.426  -3.567   3.078  1.00  0.00    -0.269 OA
BRANCH  32  35
ATOM     35  C   UNL     1       2.134  -3.412   2.554  1.00  0.00     0.039 A 
ATOM     36  C   UNL     1       1.794  -2.620   3.656  1.00  0.00     0.014 A 
ATOM     37  C   UNL     1       1.129  -4.086   1.854  1.00  0.00     0.014 A 
ATOM     38  C   UNL     1       0.457  -2.493   4.040  1.00  0.00     0.010 A 
ATOM     39  C   UNL     1      -0.208  -3.879   2.174  1.00  0.00     0.010 A 
ATOM     40  C   UNL     1      -0.558  -3.111   3.293  1.00  0.00    -0.014 A 
BRANCH  40  41
ATOM     41  C   UNL     1      -1.985  -3.035   3.704  1.00  0.00     0.031 A 
ATOM     42  C   UNL     1      -2.722  -4.303   4.059  1.00  0.00     0.074 A 
ATOM     43  C   UNL     1      -2.626  -1.851   3.701  1.00  0.00     0.049 A 
ATOM     44  N   UNL     1      -3.989  -4.481   4.332  1.00  0.00    -0.248 NA
ATOM     45  C   UNL     1      -1.931  -5.544   4.062  1.00  0.00     0.031 C 
ATOM     46  C   UNL     1      -2.026  -0.566   3.335  1.00  0.00     0.029 A 
ATOM     47  N   UNL     1      -3.925  -1.534   4.007  1.00  0.00    -0.354 N 
ATOM     48  C   UNL     1      -4.151  -5.853   4.504  1.00  0.00     0.074 A 
ATOM     49  C   UNL     1      -2.868  -6.463   4.234  1.00  0.00     0.031 C 
ATOM     50  C   UNL     1      -2.946   0.403   3.467  1.00  0.00     0.029 A 
ATOM     51  C   UNL     1      -4.212  -0.194   3.880  1.00  0.00     0.049 A 
ATOM     52  H   UNL     1      -4.590  -2.202   4.290  1.00  0.00     0.167 HD
ATOM     53  C   UNL     1      -5.261  -6.537   4.879  1.00  0.00     0.034 A 
ATOM     54  C   UNL     1      -5.368   0.472   4.069  1.00  0.00     0.034 A 
ATOM     55  C   UNL     1      -6.519  -5.901   5.181  1.00  0.00     0.049 A 
ATOM     56  C   UNL     1      -6.586  -0.305   4.500  1.00  0.00     0.074 A 
ATOM     57  C   UNL     1      -7.694  -6.477   5.631  1.00  0.00     0.029 A 
ATOM     58  N   UNL     1      -6.764  -4.537   5.068  1.00  0.00    -0.354 N 
ATOM     59  N   UNL     1      -6.714  -1.598   4.699  1.00  0.00    -0.248 NA
ATOM     60  C   UNL     1      -7.810   0.466   4.746  1.00  0.00     0.031 C 
ATOM     61  C   UNL     1      -8.663  -5.473   5.733  1.00  0.00     0.029 A 
ATOM     62  C   UNL     1      -8.076  -4.257   5.417  1.00  0.00     0.049 A 
ATOM     63  H   UNL     1      -6.102  -3.867   4.780  1.00  0.00     0.167 HD
ATOM     64  C   UNL     1      -8.026  -1.789   5.122  1.00  0.00     0.074 A 
ATOM     65  C   UNL     1      -8.641  -0.477   5.165  1.00  0.00     0.031 C 
ATOM     66  C   UNL     1      -8.668  -2.940   5.447  1.00  0.00     0.034 A 
BRANCH  53  67
ATOM     67  C   UNL     1      -5.158  -8.044   4.959  1.00  0.00     0.023 A 
ATOM     68  C   UNL     1      -4.264  -8.681   5.839  1.00  0.00     0.031 A 
ATOM     69  C   UNL     1      -5.934  -8.859   4.115  1.00  0.00     0.131 A 
ATOM     70  C   UNL     1      -4.100 -10.073   5.790  1.00  0.00     0.055 A 
ATOM     71  C   UNL     1      -5.833 -10.252   4.137  1.00  0.00     0.041 A 
ATOM     72  F   UNL     1      -6.793  -8.315   3.239  1.00  0.00    -0.206 F 
ATOM     73  C   UNL     1      -4.898 -10.867   4.964  1.00  0.00     0.022 A 
BRANCH  70  74
ATOM     74  S   UNL     1      -2.719 -10.815   6.704  1.00  0.00     0.124 S 
ATOM     75  O   UNL     1      -1.572 -10.142   6.099  1.00  0.00    -0.237 OA
ATOM     76  O   UNL     1      -3.020 -10.449   8.083  1.00  0.00    -0.237 OA
ATOM     77  O   UNL     1      -2.830 -12.239   6.397  1.00  0.00    -0.744 OA
ENDBRANCH  70  74
ENDBRANCH  53  67
BRANCH  54  78
ATOM     78  C   UNL     1      -5.434   1.947   3.857  1.00  0.00     0.023 A 
ATOM     79  C   UNL     1      -5.698   2.819   4.925  1.00  0.00     0.031 A 
ATOM     80  C   UNL     1      -5.263   2.506   2.578  1.00  0.00     0.131 A 
ATOM     81  C   UNL     1      -5.830   4.197   4.690  1.00  0.00     0.055 A 
ATOM     82  C   UNL     1      -5.342   3.883   2.357  1.00  0.00     0.041 A 
ATOM     83  F   UNL     1      -5.002   1.719   1.522  1.00  0.00    -0.206 F 
ATOM     84  C   UNL     1      -5.640   4.736   3.416  1.00  0.00     0.022 A 
BRANCH  81  85
ATOM     85  S   UNL     1      -6.336   5.268   6.064  1.00  0.00     0.124 S 
ATOM     86  O   UNL     1      -7.601   4.662   6.463  1.00  0.00    -0.237 OA
ATOM     87  O   UNL     1      -5.225   5.109   6.996  1.00  0.00    -0.237 OA
ATOM     88  O   UNL     1      -6.444   6.587   5.444  1.00  0.00    -0.744 OA
ENDBRANCH  81  85
ENDBRANCH  54  78
BRANCH  66  89
ATOM     89  C   UNL     1     -10.094  -2.816   5.921  1.00  0.00     0.023 A 
ATOM     90  C   UNL     1     -11.125  -2.400   5.061  1.00  0.00     0.031 A 
ATOM     91  C   UNL     1     -10.421  -3.110   7.256  1.00  0.00     0.131 A 
ATOM     92  C   UNL     1     -12.425  -2.236   5.560  1.00  0.00     0.055 A 
ATOM     93  C   UNL     1     -11.728  -3.004   7.732  1.00  0.00     0.041 A 
ATOM     94  F   UNL     1      -9.475  -3.511   8.120  1.00  0.00    -0.206 F 
ATOM     95  C   UNL     1     -12.737  -2.551   6.886  1.00  0.00     0.022 A 
BRANCH  92  96
ATOM     96  S   UNL     1     -13.688  -1.515   4.476  1.00  0.00     0.124 S 
ATOM     97  O   UNL     1     -13.097  -0.223   4.140  1.00  0.00    -0.237 OA
ATOM     98  O   UNL     1     -13.758  -2.486   3.390  1.00  0.00    -0.237 OA
ATOM     99  O   UNL     1     -14.874  -1.451   5.328  1.00  0.00    -0.744 OA
ENDBRANCH  92  96
ENDBRANCH  66  89
ENDBRANCH  40  41
ENDBRANCH  32  35
ENDBRANCH  30  31
ENDBRANCH  29  30
ENDBRANCH  28  29
ENDBRANCH  27  28
ENDBRANCH   3  27
TORSDOF 20
