REMARK SMILES N#Cc1ccc(/C=C/C(=O)N[C@H]2C=C[C@H](C(=O)NCCCCNC(=O)c3ccc(-c4c5nc(c(-c6cc(S(=O)(=O)[O-])ccc6F)c6ccc([nH]6)c(-c6cc(S(=O)(=O)[O-])ccc6F)c6nc(c(-c7cc(S(=O)(=O)[O-])ccc7F)c7ccc4[nH]7)C=C6)C=C5)cc3)C2)cc1
REMARK SMILES IDX 20 1 19 2 18 3 16 4 17 5 15 7 12 8 13 9 89 10 14 11 11 12
REMARK SMILES IDX 9 13 10 14 8 16 7 17 6 18 3 19 4 20 91 21 5 22 90 23 2 24
REMARK SMILES IDX 1 25 21 26 22 27 23 28 24 29 25 31 26 32 27 33 88 34 28 35
REMARK SMILES IDX 87 36 29 37 30 38 31 39 81 40 32 41 86 42 80 43 82 44 33 45
REMARK SMILES IDX 85 46 79 47 78 48 34 50 66 51 46 52 65 53 47 54 50 55 64 56
REMARK SMILES IDX 83 57 48 58 49 59 63 61 84 62 51 63 35 64 36 65 44 66 37 67
REMARK SMILES IDX 43 68 45 69 42 70 38 71 39 72 40 73 41 74 67 75 68 76 76 77
REMARK SMILES IDX 69 78 75 79 77 80 74 81 70 82 71 83 72 84 73 85 52 86 53 87
REMARK SMILES IDX 61 88 54 89 60 90 62 91 59 92 55 93 56 94 57 95 58 96
REMARK H PARENT 18 6 11 15 23 30 82 49 50 60
REMARK Flexibility Score: inf
ROOT
ATOM      1  C   UNL     1       3.741  -6.438   3.864  1.00  0.00     0.023 C 
ENDROOT
BRANCH   1   2
ATOM      2  C   UNL     1       4.244  -6.028   2.484  1.00  0.00     0.116 C 
BRANCH   2   3
ATOM      3  N   UNL     1       3.533  -4.877   1.986  1.00  0.00    -0.356 N 
ATOM      4  C   UNL     1       3.982  -3.612   1.795  1.00  0.00     0.227 C 
ATOM      5  O   UNL     1       3.157  -2.781   1.413  1.00  0.00    -0.274 OA
ATOM      6  H   UNL     1       2.589  -5.031   1.751  1.00  0.00     0.163 HD
BRANCH   4   7
ATOM      7  C   UNL     1       5.443  -3.247   2.091  1.00  0.00     0.103 C 
ATOM      8  C   UNL     1       6.017  -1.551   0.478  1.00  0.00     0.106 C 
ATOM      9  C   UNL     1       6.872  -2.750   0.258  1.00  0.00    -0.006 C 
ATOM     10  C   UNL     1       5.628  -1.732   1.945  1.00  0.00     0.047 C 
ATOM     11  C   UNL     1       6.457  -3.732   1.077  1.00  0.00    -0.016 C 
BRANCH   8  12
ATOM     12  N   UNL     1       6.621  -0.276   0.234  1.00  0.00    -0.346 N 
ATOM     13  C   UNL     1       6.012   0.945   0.123  1.00  0.00     0.244 C 
ATOM     14  O   UNL     1       6.732   1.947   0.087  1.00  0.00    -0.270 OA
ATOM     15  H   UNL     1       7.600  -0.277   0.133  1.00  0.00     0.164 HD
BRANCH  13  16
ATOM     16  C   UNL     1       4.521   1.159   0.057  1.00  0.00     0.072 C 
ATOM     17  C   UNL     1       3.537   0.253  -0.041  1.00  0.00     0.014 C 
BRANCH  17  18
ATOM     18  C   UNL     1       2.071   0.365  -0.114  1.00  0.00    -0.025 A 
ATOM     19  C   UNL     1      -0.744   0.292  -0.103  1.00  0.00     0.052 A 
ATOM     20  C   UNL     1      -0.057   1.510  -0.000  1.00  0.00     0.020 A 
ATOM     21  C   UNL     1      -0.029  -0.891  -0.239  1.00  0.00     0.020 A 
ATOM     22  C   UNL     1       1.347   1.548  -0.000  1.00  0.00     0.009 A 
ATOM     23  C   UNL     1       1.361  -0.846  -0.259  1.00  0.00     0.009 A 
BRANCH  19  24
ATOM     24  C   UNL     1      -2.177   0.250  -0.059  1.00  0.00     0.099 C 
ATOM     25  N   UNL     1      -3.333   0.211  -0.024  1.00  0.00    -0.192 NA
ENDBRANCH  19  24
ENDBRANCH  17  18
ENDBRANCH  13  16
ENDBRANCH   8  12
ENDBRANCH   4   7
ENDBRANCH   2   3
ENDBRANCH   1   2
BRANCH   1  26
ATOM     26  C   UNL     1       2.267  -6.853   3.916  1.00  0.00     0.023 C 
BRANCH  26  27
ATOM     27  C   UNL     1       1.855  -7.930   2.917  1.00  0.00     0.116 C 
BRANCH  27  28
ATOM     28  N   UNL     1       2.632  -9.148   3.064  1.00  0.00    -0.352 N 
ATOM     29  C   UNL     1       2.210 -10.448   3.199  1.00  0.00     0.251 C 
ATOM     30  H   UNL     1       3.608  -9.024   3.067  1.00  0.00     0.163 HD
ATOM     31  O   UNL     1       3.031 -11.310   3.502  1.00  0.00    -0.269 OA
BRANCH  29  32
ATOM     32  C   UNL     1       0.784 -10.804   3.013  1.00  0.00     0.039 A 
ATOM     33  C   UNL     1       0.216 -11.748   3.869  1.00  0.00     0.014 A 
ATOM     34  C   UNL     1       0.011 -10.233   1.997  1.00  0.00     0.014 A 
ATOM     35  C   UNL     1      -1.135 -12.077   3.740  1.00  0.00     0.010 A 
ATOM     36  C   UNL     1      -1.357 -10.495   1.929  1.00  0.00     0.010 A 
ATOM     37  C   UNL     1      -1.947 -11.425   2.795  1.00  0.00    -0.014 A 
BRANCH  37  38
ATOM     38  C   UNL     1      -3.405 -11.721   2.720  1.00  0.00     0.031 A 
ATOM     39  C   UNL     1      -4.007 -12.308   1.470  1.00  0.00     0.074 A 
ATOM     40  C   UNL     1      -4.189 -11.461   3.786  1.00  0.00     0.049 A 
ATOM     41  N   UNL     1      -5.249 -12.649   1.234  1.00  0.00    -0.248 NA
ATOM     42  C   UNL     1      -3.103 -12.524   0.330  1.00  0.00     0.031 C 
ATOM     43  C   UNL     1      -3.733 -10.857   5.041  1.00  0.00     0.029 A 
ATOM     44  N   UNL     1      -5.528 -11.682   3.998  1.00  0.00    -0.354 N 
ATOM     45  C   UNL     1      -5.271 -13.135  -0.069  1.00  0.00     0.074 A 
ATOM     46  C   UNL     1      -3.936 -12.962  -0.601  1.00  0.00     0.031 C 
ATOM     47  C   UNL     1      -4.758 -10.808   5.906  1.00  0.00     0.029 A 
ATOM     48  C   UNL     1      -5.959 -11.318   5.254  1.00  0.00     0.049 A 
ATOM     49  H   UNL     1      -6.124 -12.065   3.314  1.00  0.00     0.167 HD
ATOM     50  C   UNL     1      -6.296 -13.709  -0.748  1.00  0.00     0.034 A 
ATOM     51  C   UNL     1      -7.183 -11.381   5.815  1.00  0.00     0.034 A 
ATOM     52  C   UNL     1      -7.626 -13.868  -0.213  1.00  0.00     0.049 A 
ATOM     53  C   UNL     1      -8.323 -11.953   5.006  1.00  0.00     0.074 A 
ATOM     54  C   UNL     1      -8.733 -14.442  -0.815  1.00  0.00     0.029 A 
ATOM     55  N   UNL     1      -8.035 -13.450   1.046  1.00  0.00    -0.354 N 
ATOM     56  N   UNL     1      -8.309 -12.450   3.790  1.00  0.00    -0.248 NA
ATOM     57  C   UNL     1      -9.640 -11.989   5.654  1.00  0.00     0.031 C 
ATOM     58  C   UNL     1      -9.825 -14.302   0.046  1.00  0.00     0.029 A 
ATOM     59  C   UNL     1      -9.382 -13.729   1.226  1.00  0.00     0.049 A 
ATOM     60  H   UNL     1      -7.454 -13.018   1.714  1.00  0.00     0.167 HD
ATOM     61  C   UNL     1      -9.607 -12.896   3.550  1.00  0.00     0.074 A 
ATOM     62  C   UNL     1     -10.364 -12.638   4.756  1.00  0.00     0.031 C 
ATOM     63  C   UNL     1     -10.129 -13.467   2.433  1.00  0.00     0.034 A 
BRANCH  50  64
ATOM     64  C   UNL     1      -6.015 -14.205  -2.146  1.00  0.00     0.023 A 
ATOM     65  C   UNL     1      -5.084 -15.232  -2.383  1.00  0.00     0.031 A 
ATOM     66  C   UNL     1      -6.683 -13.657  -3.255  1.00  0.00     0.131 A 
ATOM     67  C   UNL     1      -4.799 -15.633  -3.696  1.00  0.00     0.055 A 
ATOM     68  C   UNL     1      -6.459 -14.120  -4.553  1.00  0.00     0.041 A 
ATOM     69  F   UNL     1      -7.565 -12.657  -3.096  1.00  0.00    -0.206 F 
ATOM     70  C   UNL     1      -5.503 -15.106  -4.781  1.00  0.00     0.022 A 
BRANCH  67  71
ATOM     71  S   UNL     1      -3.398 -16.748  -3.974  1.00  0.00     0.124 S 
ATOM     72  O   UNL     1      -2.292 -15.977  -3.411  1.00  0.00    -0.237 OA
ATOM     73  O   UNL     1      -3.789 -17.940  -3.231  1.00  0.00    -0.237 OA
ATOM     74  O   UNL     1      -3.364 -16.901  -5.427  1.00  0.00    -0.744 OA
ENDBRANCH  67  71
ENDBRANCH  50  64
BRANCH  51  75
ATOM     75  C   UNL     1      -7.423 -10.880   7.203  1.00  0.00     0.023 A 
ATOM     76  C   UNL     1      -7.947 -11.724   8.196  1.00  0.00     0.031 A 
ATOM     77  C   UNL     1      -7.233  -9.525   7.530  1.00  0.00     0.131 A 
ATOM     78  C   UNL     1      -8.348 -11.189   9.430  1.00  0.00     0.055 A 
ATOM     79  C   UNL     1      -7.555  -9.015   8.789  1.00  0.00     0.041 A 
ATOM     80  F   UNL     1      -6.738  -8.668   6.622  1.00  0.00    -0.206 F 
ATOM     81  C   UNL     1      -8.140  -9.845   9.740  1.00  0.00     0.022 A 
BRANCH  78  82
ATOM     82  S   UNL     1      -9.301 -12.244  10.558  1.00  0.00     0.124 S 
ATOM     83  O   UNL     1     -10.408 -12.661   9.705  1.00  0.00    -0.237 OA
ATOM     84  O   UNL     1      -8.329 -13.276  10.901  1.00  0.00    -0.237 OA
ATOM     85  O   UNL     1      -9.658 -11.338  11.648  1.00  0.00    -0.744 OA
ENDBRANCH  78  82
ENDBRANCH  51  75
BRANCH  63  86
ATOM     86  C   UNL     1     -11.575 -13.905   2.497  1.00  0.00     0.023 A 
ATOM     87  C   UNL     1     -12.620 -12.988   2.704  1.00  0.00     0.031 A 
ATOM     88  C   UNL     1     -11.908 -15.268   2.392  1.00  0.00     0.131 A 
ATOM     89  C   UNL     1     -13.931 -13.451   2.891  1.00  0.00     0.055 A 
ATOM     90  C   UNL     1     -13.226 -15.714   2.491  1.00  0.00     0.041 A 
ATOM     91  F   UNL     1     -10.954 -16.193   2.198  1.00  0.00    -0.206 F 
ATOM     92  C   UNL     1     -14.244 -14.806   2.764  1.00  0.00     0.022 A 
BRANCH  89  93
ATOM     93  S   UNL     1     -15.194 -12.275   3.451  1.00  0.00     0.124 S 
ATOM     94  O   UNL     1     -14.596 -11.750   4.674  1.00  0.00    -0.237 OA
ATOM     95  O   UNL     1     -15.272 -11.345   2.330  1.00  0.00    -0.237 OA
ATOM     96  O   UNL     1     -16.377 -13.111   3.647  1.00  0.00    -0.744 OA
ENDBRANCH  89  93
ENDBRANCH  63  86
ENDBRANCH  37  38
ENDBRANCH  29  32
ENDBRANCH  27  28
ENDBRANCH  26  27
ENDBRANCH   1  26
TORSDOF 18
