REMARK SMILES CC1(C)C(NC(=O)N[C@]2(C(=O)NCCCCNC(=O)c3ccc(-c4c5nc(c(-c6cc(S(=O)(=O)[O-])ccc6F)c6ccc([nH]6)c(-c6cc(S(=O)(=O)[O-])ccc6F)c6nc(c(-c7cc(S(=O)(=O)[O-])ccc7F)c7ccc4[nH]7)C=C6)C=C5)cc3)CC[C@@H](C)CC2)C1(C)C
REMARK SMILES IDX 15 1 14 2 13 3 12 4 10 5 11 6 9 8 86 9 85 10 87 11 84 12
REMARK SMILES IDX 88 13 83 14 8 15 6 16 7 18 5 19 4 21 2 22 89 23 1 24 3 25
REMARK SMILES IDX 90 26 91 27 16 28 17 29 18 30 19 32 20 33 21 34 82 35 22 36
REMARK SMILES IDX 81 37 23 38 24 39 25 40 75 41 26 42 80 43 74 44 76 45 27 46
REMARK SMILES IDX 79 47 73 48 72 49 28 51 60 52 40 53 59 54 41 55 44 56 58 57
REMARK SMILES IDX 77 58 42 59 43 60 57 62 78 63 45 64 29 65 30 66 38 67 31 68
REMARK SMILES IDX 37 69 39 70 36 71 32 72 33 73 34 74 35 75 61 76 62 77 70 78
REMARK SMILES IDX 63 79 69 80 71 81 68 82 64 83 65 84 66 85 67 86 46 87 47 88
REMARK SMILES IDX 55 89 48 90 54 91 56 92 53 93 49 94 50 95 51 96 52 97
REMARK H PARENT 12 7 8 17 5 20 17 31 76 50 44 61
REMARK Flexibility Score: inf
ROOT
ATOM      1  C   UNL     1      -2.682   4.699  -3.281  1.00  0.00     0.023 C 
ENDROOT
BRANCH   1   2
ATOM      2  C   UNL     1      -2.582   4.407  -1.782  1.00  0.00     0.023 C 
BRANCH   2   3
ATOM      3  C   UNL     1      -2.747   2.929  -1.447  1.00  0.00     0.116 C 
BRANCH   3   4
ATOM      4  N   UNL     1      -1.604   2.177  -1.927  1.00  0.00    -0.354 N 
ATOM      5  C   UNL     1      -1.063   1.004  -1.501  1.00  0.00     0.245 C 
ATOM      6  O   UNL     1      -0.018   0.654  -2.058  1.00  0.00    -0.272 OA
ATOM      7  H   UNL     1      -1.140   2.586  -2.693  1.00  0.00     0.163 HD
BRANCH   5   8
ATOM      8  C   UNL     1      -1.610   0.270  -0.247  1.00  0.00     0.120 C 
ATOM      9  C   UNL     1       2.571  -0.009   0.267  1.00  0.00     0.007 C 
ATOM     10  C   UNL     1       1.160  -0.173   0.850  1.00  0.00    -0.014 C 
ATOM     11  C   UNL     1       0.425  -1.280   0.070  1.00  0.00     0.006 C 
ATOM     12  C   UNL     1       0.457   1.193   0.916  1.00  0.00     0.006 C 
ATOM     13  C   UNL     1      -1.094  -1.159   0.009  1.00  0.00     0.039 C 
ATOM     14  C   UNL     1      -1.073   1.100   0.956  1.00  0.00     0.039 C 
BRANCH   8  15
ATOM     15  N   UNL     1      -3.085   0.247  -0.274  1.00  0.00    -0.324 N 
ATOM     16  C   UNL     1      -4.008  -0.182  -1.153  1.00  0.00     0.315 C 
ATOM     17  H   UNL     1      -3.485   0.634   0.538  1.00  0.00     0.166 HD
ATOM     18  O   UNL     1      -5.179  -0.186  -0.758  1.00  0.00    -0.249 OA
ATOM     19  N   UNL     1      -3.777  -0.549  -2.433  1.00  0.00    -0.334 N 
ATOM     20  H   UNL     1      -4.609  -0.735  -2.926  1.00  0.00     0.165 HD
BRANCH  19  21
ATOM     21  C   UNL     1      -2.610  -0.730  -3.241  1.00  0.00     0.096 C 
ATOM     22  C   UNL     1      -2.622  -1.510  -4.551  1.00  0.00    -0.007 C 
ATOM     23  C   UNL     1      -2.379   0.001  -4.570  1.00  0.00    -0.007 C 
ATOM     24  C   UNL     1      -1.450  -2.451  -4.769  1.00  0.00     0.014 C 
ATOM     25  C   UNL     1      -3.891  -2.039  -5.175  1.00  0.00     0.014 C 
ATOM     26  C   UNL     1      -3.443   0.908  -5.147  1.00  0.00     0.014 C 
ATOM     27  C   UNL     1      -0.993   0.493  -4.943  1.00  0.00     0.014 C 
ENDBRANCH  19  21
ENDBRANCH   8  15
ENDBRANCH   5   8
ENDBRANCH   3   4
ENDBRANCH   2   3
ENDBRANCH   1   2
BRANCH   1  28
ATOM     28  C   UNL     1      -4.059   4.413  -3.870  1.00  0.00     0.116 C 
BRANCH  28  29
ATOM     29  N   UNL     1      -5.055   5.346  -3.382  1.00  0.00    -0.352 N 
ATOM     30  C   UNL     1      -5.782   6.265  -4.091  1.00  0.00     0.251 C 
ATOM     31  H   UNL     1      -5.233   5.315  -2.414  1.00  0.00     0.163 HD
ATOM     32  O   UNL     1      -6.408   7.140  -3.491  1.00  0.00    -0.269 OA
BRANCH  30  33
ATOM     33  C   UNL     1      -5.789   6.217  -5.567  1.00  0.00     0.039 A 
ATOM     34  C   UNL     1      -5.607   7.404  -6.277  1.00  0.00     0.014 A 
ATOM     35  C   UNL     1      -5.981   5.010  -6.250  1.00  0.00     0.014 A 
ATOM     36  C   UNL     1      -5.580   7.377  -7.672  1.00  0.00     0.010 A 
ATOM     37  C   UNL     1      -5.881   4.975  -7.640  1.00  0.00     0.010 A 
ATOM     38  C   UNL     1      -5.692   6.160  -8.367  1.00  0.00    -0.014 A 
BRANCH  38  39
ATOM     39  C   UNL     1      -5.637   6.129  -9.852  1.00  0.00     0.031 A 
ATOM     40  C   UNL     1      -6.845   5.707 -10.645  1.00  0.00     0.074 A 
ATOM     41  C   UNL     1      -4.496   6.465 -10.486  1.00  0.00     0.049 A 
ATOM     42  N   UNL     1      -6.988   5.602 -11.942  1.00  0.00    -0.248 NA
ATOM     43  C   UNL     1      -8.043   5.335  -9.878  1.00  0.00     0.031 C 
ATOM     44  C   UNL     1      -3.252   6.866  -9.826  1.00  0.00     0.029 A 
ATOM     45  N   UNL     1      -4.195   6.527 -11.824  1.00  0.00    -0.354 N 
ATOM     46  C   UNL     1      -8.287   5.149 -12.146  1.00  0.00     0.074 A 
ATOM     47  C   UNL     1      -8.866   4.939 -10.836  1.00  0.00     0.031 C 
ATOM     48  C   UNL     1      -2.335   7.162 -10.760  1.00  0.00     0.029 A 
ATOM     49  C   UNL     1      -2.904   6.925 -12.084  1.00  0.00     0.049 A 
ATOM     50  H   UNL     1      -4.843   6.307 -12.532  1.00  0.00     0.167 HD
ATOM     51  C   UNL     1      -8.944   4.952 -13.316  1.00  0.00     0.034 A 
ATOM     52  C   UNL     1      -2.248   7.072 -13.253  1.00  0.00     0.034 A 
ATOM     53  C   UNL     1      -8.352   5.168 -14.615  1.00  0.00     0.049 A 
ATOM     54  C   UNL     1      -2.985   6.797 -14.540  1.00  0.00     0.074 A 
ATOM     55  C   UNL     1      -8.941   5.041 -15.861  1.00  0.00     0.029 A 
ATOM     56  N   UNL     1      -7.034   5.545 -14.839  1.00  0.00    -0.354 N 
ATOM     57  N   UNL     1      -4.229   6.416 -14.716  1.00  0.00    -0.248 NA
ATOM     58  C   UNL     1      -2.231   6.984 -15.787  1.00  0.00     0.031 C 
ATOM     59  C   UNL     1      -7.962   5.260 -16.835  1.00  0.00     0.029 A 
ATOM     60  C   UNL     1      -6.782   5.616 -16.201  1.00  0.00     0.049 A 
ATOM     61  H   UNL     1      -6.374   5.734 -14.133  1.00  0.00     0.167 HD
ATOM     62  C   UNL     1      -4.415   6.351 -16.095  1.00  0.00     0.074 A 
ATOM     63  C   UNL     1      -3.160   6.747 -16.701  1.00  0.00     0.031 C 
ATOM     64  C   UNL     1      -5.523   6.000 -16.797  1.00  0.00     0.034 A 
BRANCH  51  65
ATOM     65  C   UNL     1     -10.367   4.447 -13.241  1.00  0.00     0.023 A 
ATOM     66  C   UNL     1     -11.386   5.194 -12.624  1.00  0.00     0.031 A 
ATOM     67  C   UNL     1     -10.706   3.191 -13.777  1.00  0.00     0.131 A 
ATOM     68  C   UNL     1     -12.672   4.649 -12.491  1.00  0.00     0.055 A 
ATOM     69  C   UNL     1     -12.009   2.693 -13.718  1.00  0.00     0.041 A 
ATOM     70  F   UNL     1      -9.774   2.421 -14.358  1.00  0.00    -0.206 F 
ATOM     71  C   UNL     1     -12.998   3.416 -13.058  1.00  0.00     0.022 A 
BRANCH  68  72
ATOM     72  S   UNL     1     -13.872   5.509 -11.436  1.00  0.00     0.124 S 
ATOM     73  O   UNL     1     -13.165   5.548 -10.158  1.00  0.00    -0.237 OA
ATOM     74  O   UNL     1     -14.031   6.788 -12.118  1.00  0.00    -0.237 OA
ATOM     75  O   UNL     1     -15.043   4.635 -11.465  1.00  0.00    -0.744 OA
ENDBRANCH  68  72
ENDBRANCH  51  65
BRANCH  52  76
ATOM     76  C   UNL     1      -0.814   7.481 -13.269  1.00  0.00     0.023 A 
ATOM     77  C   UNL     1      -0.408   8.683 -13.871  1.00  0.00     0.031 A 
ATOM     78  C   UNL     1       0.182   6.648 -12.726  1.00  0.00     0.131 A 
ATOM     79  C   UNL     1       0.958   8.994 -13.961  1.00  0.00     0.055 A 
ATOM     80  C   UNL     1       1.534   6.991 -12.765  1.00  0.00     0.041 A 
ATOM     81  F   UNL     1      -0.149   5.487 -12.139  1.00  0.00    -0.206 F 
ATOM     82  C   UNL     1       1.931   8.164 -13.399  1.00  0.00     0.022 A 
BRANCH  79  83
ATOM     83  S   UNL     1       1.455  10.455 -14.915  1.00  0.00     0.124 S 
ATOM     84  O   UNL     1       0.883  10.162 -16.224  1.00  0.00    -0.237 OA
ATOM     85  O   UNL     1       0.824  11.535 -14.165  1.00  0.00    -0.237 OA
ATOM     86  O   UNL     1       2.914  10.423 -14.850  1.00  0.00    -0.744 OA
ENDBRANCH  79  83
ENDBRANCH  52  76
BRANCH  64  87
ATOM     87  C   UNL     1      -5.439   6.078 -18.303  1.00  0.00     0.023 A 
ATOM     88  C   UNL     1      -4.587   5.242 -19.045  1.00  0.00     0.031 A 
ATOM     89  C   UNL     1      -6.219   7.015 -19.006  1.00  0.00     0.131 A 
ATOM     90  C   UNL     1      -4.491   5.397 -20.437  1.00  0.00     0.055 A 
ATOM     91  C   UNL     1      -6.170   7.118 -20.397  1.00  0.00     0.041 A 
ATOM     92  F   UNL     1      -7.048   7.843 -18.351  1.00  0.00    -0.206 F 
ATOM     93  C   UNL     1      -5.292   6.316 -21.119  1.00  0.00     0.022 A 
BRANCH  90  94
ATOM     94  S   UNL     1      -3.230   4.451 -21.335  1.00  0.00     0.124 S 
ATOM     95  O   UNL     1      -2.002   4.875 -20.671  1.00  0.00    -0.237 OA
ATOM     96  O   UNL     1      -3.643   3.072 -21.093  1.00  0.00    -0.237 OA
ATOM     97  O   UNL     1      -3.378   4.908 -22.716  1.00  0.00    -0.744 OA
ENDBRANCH  90  94
ENDBRANCH  64  87
ENDBRANCH  38  39
ENDBRANCH  30  33
ENDBRANCH  28  29
ENDBRANCH   1  28
TORSDOF 16
