REMARK SMILES CCC(CC)(NC(=O)NC[C@H](C)[NH+]1CCCCC1)C(=O)NCCCCNC(=O)c1ccc(-c2c3nc(c(-c4cc(S(=O)(=O)[O-])ccc4F)c4ccc([nH]4)c(-c4cc(S(=O)(=O)[O-])ccc4F)c4nc(c(-c5cc(S(=O)(=O)[O-])ccc5F)c5ccc2[nH]5)C=C4)C=C3)cc1
REMARK SMILES IDX 23 1 22 2 21 3 19 4 20 5 3 7 2 8 1 9 4 10 5 11 6 12 7 13
REMARK SMILES IDX 8 15 9 16 10 18 11 19 12 20 13 21 14 22 18 23 15 25 17 26
REMARK SMILES IDX 16 27 24 28 25 29 26 30 27 31 28 33 29 34 30 35 91 36 31 37
REMARK SMILES IDX 90 38 32 39 33 40 34 41 84 42 35 43 89 44 83 45 85 46 36 47
REMARK SMILES IDX 88 48 82 49 81 50 37 52 69 53 49 54 68 55 50 56 53 57 67 58
REMARK SMILES IDX 86 59 51 60 52 61 66 63 87 64 54 65 38 66 39 67 47 68 40 69
REMARK SMILES IDX 46 70 48 71 45 72 41 73 42 74 43 75 44 76 70 77 71 78 79 79
REMARK SMILES IDX 72 80 78 81 80 82 77 83 73 84 74 85 75 86 76 87 55 88 56 89
REMARK SMILES IDX 64 90 57 91 63 92 65 93 62 94 58 95 59 96 60 97 61 98
REMARK H PARENT 21 6 6 14 9 17 13 24 26 32 85 51 53 62
REMARK Flexibility Score: inf
ROOT
ATOM      1  C   UNL     1       2.207  -1.620   5.966  1.00  0.00     0.023 C 
ENDROOT
BRANCH   1   2
ATOM      2  C   UNL     1       2.553  -2.594   4.800  1.00  0.00     0.116 C 
BRANCH   2   3
ATOM      3  N   UNL     1       3.401  -2.273   3.644  1.00  0.00    -0.354 N 
ATOM      4  C   UNL     1       4.729  -2.403   3.285  1.00  0.00     0.245 C 
ATOM      5  O   UNL     1       5.016  -2.148   2.108  1.00  0.00    -0.272 OA
ATOM      6  H   UNL     1       2.878  -1.847   2.927  1.00  0.00     0.163 HD
BRANCH   4   7
ATOM      7  C   UNL     1       5.756  -3.097   4.205  1.00  0.00     0.120 C 
BRANCH   7   8
ATOM      8  C   UNL     1       7.286  -2.916   3.995  1.00  0.00     0.035 C 
ATOM      9  C   UNL     1       7.876  -3.073   2.606  1.00  0.00     0.007 C 
ENDBRANCH   7   8
BRANCH   7  10
ATOM     10  C   UNL     1       5.331  -4.583   3.910  1.00  0.00     0.035 C 
ATOM     11  C   UNL     1       6.063  -5.750   4.538  1.00  0.00     0.007 C 
ENDBRANCH   7  10
BRANCH   7  12
ATOM     12  N   UNL     1       5.489  -2.615   5.558  1.00  0.00    -0.324 N 
ATOM     13  C   UNL     1       5.451  -1.366   6.062  1.00  0.00     0.315 C 
ATOM     14  H   UNL     1       5.306  -3.325   6.214  1.00  0.00     0.166 HD
ATOM     15  O   UNL     1       5.459  -1.277   7.295  1.00  0.00    -0.249 OA
ATOM     16  N   UNL     1       5.294  -0.224   5.367  1.00  0.00    -0.332 N 
ATOM     17  H   UNL     1       4.870   0.458   5.937  1.00  0.00     0.165 HD
BRANCH  16  18
ATOM     18  C   UNL     1       5.554   0.342   4.013  1.00  0.00     0.182 C 
BRANCH  18  19
ATOM     19  C   UNL     1       4.396   1.173   3.320  1.00  0.00     0.200 C 
ATOM     20  C   UNL     1       3.176   0.418   2.804  1.00  0.00     0.077 C 
BRANCH  19  21
ATOM     21  N   UNL     1       4.927   2.050   2.228  1.00  0.00    -0.331 N 
ATOM     22  C   UNL     1       4.696   1.512   0.863  1.00  0.00     0.262 C 
ATOM     23  C   UNL     1       4.347   3.400   2.365  1.00  0.00     0.262 C 
ATOM     24  H   UNL     1       5.940   2.087   2.337  1.00  0.00     0.348 HD
ATOM     25  C   UNL     1       5.163   2.432  -0.259  1.00  0.00     0.062 C 
ATOM     26  C   UNL     1       4.859   4.350   1.288  1.00  0.00     0.062 C 
ATOM     27  C   UNL     1       4.543   3.813  -0.100  1.00  0.00     0.012 C 
ENDBRANCH  19  21
ENDBRANCH  18  19
ENDBRANCH  16  18
ENDBRANCH   7  12
ENDBRANCH   4   7
ENDBRANCH   2   3
ENDBRANCH   1   2
BRANCH   1  28
ATOM     28  C   UNL     1       1.922  -0.103   5.943  1.00  0.00     0.023 C 
BRANCH  28  29
ATOM     29  C   UNL     1       0.784   0.554   5.156  1.00  0.00     0.116 C 
BRANCH  29  30
ATOM     30  N   UNL     1      -0.481  -0.127   5.133  1.00  0.00    -0.352 N 
ATOM     31  C   UNL     1      -1.695   0.409   4.755  1.00  0.00     0.251 C 
ATOM     32  H   UNL     1      -0.482  -1.070   5.415  1.00  0.00     0.163 HD
ATOM     33  O   UNL     1      -2.704  -0.293   4.805  1.00  0.00    -0.269 OA
BRANCH  31  34
ATOM     34  C   UNL     1      -1.808   1.839   4.347  1.00  0.00     0.039 A 
ATOM     35  C   UNL     1      -2.745   2.639   5.007  1.00  0.00     0.014 A 
ATOM     36  C   UNL     1      -1.043   2.393   3.314  1.00  0.00     0.014 A 
ATOM     37  C   UNL     1      -2.884   3.992   4.670  1.00  0.00     0.010 A 
ATOM     38  C   UNL     1      -1.154   3.760   3.006  1.00  0.00     0.010 A 
ATOM     39  C   UNL     1      -2.075   4.578   3.683  1.00  0.00    -0.014 A 
BRANCH  39  40
ATOM     40  C   UNL     1      -2.188   6.036   3.376  1.00  0.00     0.031 A 
ATOM     41  C   UNL     1      -2.718   6.511   2.046  1.00  0.00     0.074 A 
ATOM     42  C   UNL     1      -1.803   6.947   4.294  1.00  0.00     0.049 A 
ATOM     43  N   UNL     1      -2.888   7.735   1.609  1.00  0.00    -0.248 NA
ATOM     44  C   UNL     1      -3.090   5.473   1.076  1.00  0.00     0.031 C 
ATOM     45  C   UNL     1      -1.254   6.628   5.614  1.00  0.00     0.029 A 
ATOM     46  N   UNL     1      -1.814   8.322   4.266  1.00  0.00    -0.354 N 
ATOM     47  C   UNL     1      -3.385   7.617   0.314  1.00  0.00     0.074 A 
ATOM     48  C   UNL     1      -3.435   6.198   0.021  1.00  0.00     0.031 C 
ATOM     49  C   UNL     1      -1.006   7.771   6.275  1.00  0.00     0.029 A 
ATOM     50  C   UNL     1      -1.335   8.906   5.417  1.00  0.00     0.049 A 
ATOM     51  H   UNL     1      -2.135   8.841   3.493  1.00  0.00     0.167 HD
ATOM     52  C   UNL     1      -3.779   8.594  -0.543  1.00  0.00     0.034 A 
ATOM     53  C   UNL     1      -1.169  10.204   5.747  1.00  0.00     0.034 A 
ATOM     54  C   UNL     1      -3.726  10.007  -0.242  1.00  0.00     0.049 A 
ATOM     55  C   UNL     1      -1.569  11.273   4.759  1.00  0.00     0.074 A 
ATOM     56  C   UNL     1      -4.150  11.070  -1.023  1.00  0.00     0.029 A 
ATOM     57  N   UNL     1      -3.207  10.559   0.922  1.00  0.00    -0.354 N 
ATOM     58  N   UNL     1      -2.087  11.138   3.560  1.00  0.00    -0.248 NA
ATOM     59  C   UNL     1      -1.373  12.668   5.175  1.00  0.00     0.031 C 
ATOM     60  C   UNL     1      -3.816  12.261  -0.368  1.00  0.00     0.029 A 
ATOM     61  C   UNL     1      -3.263  11.945   0.861  1.00  0.00     0.049 A 
ATOM     62  H   UNL     1      -2.850  10.042   1.680  1.00  0.00     0.167 HD
ATOM     63  C   UNL     1      -2.309  12.433   3.095  1.00  0.00     0.074 A 
ATOM     64  C   UNL     1      -1.883  13.331   4.148  1.00  0.00     0.031 C 
ATOM     65  C   UNL     1      -2.825  12.840   1.907  1.00  0.00     0.034 A 
BRANCH  52  66
ATOM     66  C   UNL     1      -4.274   8.168  -1.907  1.00  0.00     0.023 A 
ATOM     67  C   UNL     1      -5.428   7.380  -2.063  1.00  0.00     0.031 A 
ATOM     68  C   UNL     1      -3.579   8.549  -3.069  1.00  0.00     0.131 A 
ATOM     69  C   UNL     1      -5.808   6.937  -3.340  1.00  0.00     0.055 A 
ATOM     70  C   UNL     1      -4.009   8.174  -4.344  1.00  0.00     0.041 A 
ATOM     71  F   UNL     1      -2.461   9.288  -2.985  1.00  0.00    -0.206 F 
ATOM     72  C   UNL     1      -5.121   7.350  -4.484  1.00  0.00     0.022 A 
BRANCH  69  73
ATOM     73  S   UNL     1      -7.123   5.695  -3.470  1.00  0.00     0.124 S 
ATOM     74  O   UNL     1      -6.585   4.609  -2.655  1.00  0.00    -0.237 OA
ATOM     75  O   UNL     1      -8.276   6.398  -2.920  1.00  0.00    -0.237 OA
ATOM     76  O   UNL     1      -7.188   5.413  -4.903  1.00  0.00    -0.744 OA
ENDBRANCH  69  73
ENDBRANCH  52  66
BRANCH  53  77
ATOM     77  C   UNL     1      -0.580  10.581   7.066  1.00  0.00     0.023 A 
ATOM     78  C   UNL     1      -1.318  11.313   8.010  1.00  0.00     0.031 A 
ATOM     79  C   UNL     1       0.754  10.262   7.379  1.00  0.00     0.131 A 
ATOM     80  C   UNL     1      -0.706  11.745   9.197  1.00  0.00     0.055 A 
ATOM     81  C   UNL     1       1.342  10.644   8.586  1.00  0.00     0.041 A 
ATOM     82  F   UNL     1       1.507   9.565   6.513  1.00  0.00    -0.206 F 
ATOM     83  C   UNL     1       0.615  11.402   9.498  1.00  0.00     0.022 A 
BRANCH  80  84
ATOM     84  S   UNL     1      -1.632  12.844  10.304  1.00  0.00     0.124 S 
ATOM     85  O   UNL     1      -1.933  13.967   9.423  1.00  0.00    -0.237 OA
ATOM     86  O   UNL     1      -2.763  12.006  10.686  1.00  0.00    -0.237 OA
ATOM     87  O   UNL     1      -0.680  13.129  11.375  1.00  0.00    -0.744 OA
ENDBRANCH  80  84
ENDBRANCH  53  77
BRANCH  65  88
ATOM     88  C   UNL     1      -3.001  14.327   1.704  1.00  0.00     0.023 A 
ATOM     89  C   UNL     1      -1.903  15.204   1.628  1.00  0.00     0.031 A 
ATOM     90  C   UNL     1      -4.291  14.878   1.597  1.00  0.00     0.131 A 
ATOM     91  C   UNL     1      -2.117  16.586   1.508  1.00  0.00     0.055 A 
ATOM     92  C   UNL     1      -4.496  16.247   1.415  1.00  0.00     0.041 A 
ATOM     93  F   UNL     1      -5.378  14.092   1.667  1.00  0.00    -0.206 F 
ATOM     94  C   UNL     1      -3.406  17.111   1.383  1.00  0.00     0.022 A 
BRANCH  91  95
ATOM     95  S   UNL     1      -0.691  17.703   1.614  1.00  0.00     0.124 S 
ATOM     96  O   UNL     1      -0.142  17.371   2.924  1.00  0.00    -0.237 OA
ATOM     97  O   UNL     1       0.111  17.295   0.465  1.00  0.00    -0.237 OA
ATOM     98  O   UNL     1      -1.288  19.033   1.510  1.00  0.00    -0.744 OA
ENDBRANCH  91  95
ENDBRANCH  65  88
ENDBRANCH  39  40
ENDBRANCH  31  34
ENDBRANCH  29  30
ENDBRANCH  28  29
ENDBRANCH   1  28
TORSDOF 20
