REMARK SMILES CCN1C(=O)/C(=C2/SC(=S)N([C@@H](C)C(=O)NCCCCNC(=O)c3ccc(-c4c5nc(c(-c6cc(S(=O)(=O)[O-])ccc6F)c6ccc([nH]6)c(-c6cc(S(=O)(=O)[O-])ccc6F)c6nc(c(-c7cc(S(=O)(=O)[O-])ccc7F)c7ccc4[nH]7)C=C6)C=C5)cc3)C2=O)c2cc(Br)ccc21
REMARK SMILES IDX 19 1 18 2 17 3 16 4 14 5 15 6 12 8 13 9 11 10 3 11 4 12
REMARK SMILES IDX 95 13 5 14 6 15 89 16 94 17 7 18 90 19 93 20 8 21 87 22
REMARK SMILES IDX 91 23 9 24 88 25 92 26 10 27 2 28 1 29 20 30 21 31 22 32
REMARK SMILES IDX 23 34 24 35 25 36 86 37 26 38 85 39 27 40 28 41 29 42 79 43
REMARK SMILES IDX 30 44 84 45 78 46 80 47 31 48 83 49 77 50 76 51 32 53 64 54
REMARK SMILES IDX 44 55 63 56 45 57 48 58 62 59 81 60 46 61 47 62 61 64 82 65
REMARK SMILES IDX 49 66 33 67 34 68 42 69 35 70 41 71 43 72 40 73 36 74 37 75
REMARK SMILES IDX 38 76 39 77 65 78 66 79 74 80 67 81 73 82 75 83 72 84 68 85
REMARK SMILES IDX 69 86 70 87 71 88 50 89 51 90 59 91 52 92 58 93 60 94 57 95
REMARK SMILES IDX 53 96 54 97 55 98 56 99
REMARK H PARENT 16 7 21 33 80 52 48 63
REMARK Flexibility Score: inf
ROOT
ATOM      1  C   UNL     1       2.797  -7.631  -8.810  1.00  0.00     0.023 C 
ENDROOT
BRANCH   1   2
ATOM      2  C   UNL     1       1.774  -6.969  -7.900  1.00  0.00     0.023 C 
BRANCH   2   3
ATOM      3  C   UNL     1       0.711  -7.908  -7.333  1.00  0.00     0.116 C 
BRANCH   3   4
ATOM      4  N   UNL     1       1.098  -8.440  -6.043  1.00  0.00    -0.354 N 
ATOM      5  C   UNL     1       0.671  -8.198  -4.773  1.00  0.00     0.242 C 
ATOM      6  O   UNL     1       1.192  -8.894  -3.893  1.00  0.00    -0.273 OA
ATOM      7  H   UNL     1       1.816  -9.111  -6.095  1.00  0.00     0.163 HD
BRANCH   5   8
ATOM      8  C   UNL     1      -0.443  -7.182  -4.393  1.00  0.00     0.178 C 
ATOM      9  C   UNL     1      -1.808  -7.639  -4.896  1.00  0.00     0.042 C 
BRANCH   8  10
ATOM     10  N   UNL     1      -0.044  -5.783  -4.664  1.00  0.00    -0.280 N 
ATOM     11  N   UNL     1       1.188  -0.728  -2.541  1.00  0.00    -0.308 N 
ATOM     12  C   UNL     1       0.978  -2.118  -2.506  1.00  0.00     0.260 C 
ATOM     13  C   UNL     1       1.833  -0.336  -3.730  1.00  0.00     0.052 A 
ATOM     14  O   UNL     1       0.340  -2.745  -1.687  1.00  0.00    -0.269 OA
ATOM     15  C   UNL     1       1.545  -2.625  -3.807  1.00  0.00     0.069 C 
ATOM     16  C   UNL     1       2.105  -1.457  -4.516  1.00  0.00     0.014 A 
ATOM     17  C   UNL     1       2.160   0.940  -4.167  1.00  0.00     0.028 A 
ATOM     18  C   UNL     1       1.272  -3.836  -4.318  1.00  0.00     0.093 C 
ATOM     19  C   UNL     1       2.776  -1.320  -5.727  1.00  0.00     0.026 A 
ATOM     20  C   UNL     1       2.766   1.084  -5.421  1.00  0.00     0.018 A 
ATOM     21  S   UNL     1       1.219  -4.091  -6.032  1.00  0.00    -0.053 SA
ATOM     22  C   UNL     1       0.688  -5.078  -3.700  1.00  0.00     0.267 C 
ATOM     23  C   UNL     1       3.071  -0.041  -6.190  1.00  0.00     0.018 A 
ATOM     24  C   UNL     1      -0.194  -5.092  -5.834  1.00  0.00     0.149 C 
ATOM     25  O   UNL     1       0.897  -5.432  -2.552  1.00  0.00    -0.268 OA
ATOM     26  Br  UNL     1       3.856   0.165  -7.898  1.00  0.00    -0.051 Br
ATOM     27  S   UNL     1      -1.499  -4.958  -6.858  1.00  0.00    -0.052 S 
BRANCH  11  28
ATOM     28  C   UNL     1       0.622   0.193  -1.576  1.00  0.00     0.122 C 
ATOM     29  C   UNL     1       1.174  -0.001  -0.174  1.00  0.00     0.028 C 
ENDBRANCH  11  28
ENDBRANCH   8  10
ENDBRANCH   5   8
ENDBRANCH   3   4
ENDBRANCH   2   3
ENDBRANCH   1   2
BRANCH   1  30
ATOM     30  C   UNL     1       2.221  -8.254 -10.071  1.00  0.00     0.116 C 
BRANCH  30  31
ATOM     31  N   UNL     1       1.543  -7.314 -10.958  1.00  0.00    -0.352 N 
ATOM     32  C   UNL     1       1.658  -7.206 -12.331  1.00  0.00     0.251 C 
ATOM     33  H   UNL     1       0.928  -6.678 -10.525  1.00  0.00     0.163 HD
ATOM     34  O   UNL     1       1.071  -6.321 -12.943  1.00  0.00    -0.269 OA
BRANCH  32  35
ATOM     35  C   UNL     1       2.560  -8.146 -13.028  1.00  0.00     0.039 A 
ATOM     36  C   UNL     1       2.483  -9.508 -12.738  1.00  0.00     0.014 A 
ATOM     37  C   UNL     1       3.596  -7.644 -13.816  1.00  0.00     0.014 A 
ATOM     38  C   UNL     1       3.580 -10.312 -13.004  1.00  0.00     0.010 A 
ATOM     39  C   UNL     1       4.634  -8.495 -14.205  1.00  0.00     0.010 A 
ATOM     40  C   UNL     1       4.676  -9.818 -13.735  1.00  0.00    -0.014 A 
BRANCH  40  41
ATOM     41  C   UNL     1       5.843 -10.706 -13.989  1.00  0.00     0.031 A 
ATOM     42  C   UNL     1       7.227 -10.341 -13.515  1.00  0.00     0.074 A 
ATOM     43  C   UNL     1       5.637 -11.880 -14.617  1.00  0.00     0.049 A 
ATOM     44  N   UNL     1       8.345 -11.005 -13.662  1.00  0.00    -0.248 NA
ATOM     45  C   UNL     1       7.384  -9.069 -12.792  1.00  0.00     0.031 C 
ATOM     46  C   UNL     1       4.339 -12.339 -15.115  1.00  0.00     0.029 A 
ATOM     47  N   UNL     1       6.494 -12.904 -14.930  1.00  0.00    -0.354 N 
ATOM     48  C   UNL     1       9.340 -10.220 -13.090  1.00  0.00     0.074 A 
ATOM     49  C   UNL     1       8.698  -9.016 -12.611  1.00  0.00     0.031 C 
ATOM     50  C   UNL     1       4.472 -13.572 -15.614  1.00  0.00     0.029 A 
ATOM     51  C   UNL     1       5.880 -13.953 -15.573  1.00  0.00     0.049 A 
ATOM     52  H   UNL     1       7.454 -12.890 -14.715  1.00  0.00     0.167 HD
ATOM     53  C   UNL     1      10.663 -10.486 -12.970  1.00  0.00     0.034 A 
ATOM     54  C   UNL     1       6.385 -15.083 -16.108  1.00  0.00     0.034 A 
ATOM     55  C   UNL     1      11.276 -11.713 -13.421  1.00  0.00     0.049 A 
ATOM     56  C   UNL     1       7.858 -15.350 -15.977  1.00  0.00     0.074 A 
ATOM     57  C   UNL     1      12.597 -12.103 -13.285  1.00  0.00     0.029 A 
ATOM     58  N   UNL     1      10.626 -12.739 -14.092  1.00  0.00    -0.354 N 
ATOM     59  N   UNL     1       8.773 -14.621 -15.383  1.00  0.00    -0.248 NA
ATOM     60  C   UNL     1       8.371 -16.585 -16.580  1.00  0.00     0.031 C 
ATOM     61  C   UNL     1      12.764 -13.318 -13.948  1.00  0.00     0.029 A 
ATOM     62  C   UNL     1      11.529 -13.740 -14.415  1.00  0.00     0.049 A 
ATOM     63  H   UNL     1       9.665 -12.755 -14.306  1.00  0.00     0.167 HD
ATOM     64  C   UNL     1       9.970 -15.315 -15.530  1.00  0.00     0.074 A 
ATOM     65  C   UNL     1       9.654 -16.537 -16.240  1.00  0.00     0.031 C 
ATOM     66  C   UNL     1      11.214 -14.963 -15.118  1.00  0.00     0.034 A 
BRANCH  53  67
ATOM     67  C   UNL     1      11.569  -9.457 -12.333  1.00  0.00     0.023 A 
ATOM     68  C   UNL     1      12.638  -8.916 -13.076  1.00  0.00     0.031 A 
ATOM     69  C   UNL     1      11.480  -9.126 -10.970  1.00  0.00     0.131 A 
ATOM     70  C   UNL     1      13.597  -8.114 -12.444  1.00  0.00     0.055 A 
ATOM     71  C   UNL     1      12.410  -8.285 -10.355  1.00  0.00     0.041 A 
ATOM     72  F   UNL     1      10.486  -9.617 -10.212  1.00  0.00    -0.206 F 
ATOM     73  C   UNL     1      13.483  -7.788 -11.089  1.00  0.00     0.022 A 
BRANCH  70  74
ATOM     74  S   UNL     1      15.071  -7.537 -13.329  1.00  0.00     0.124 S 
ATOM     75  O   UNL     1      14.934  -6.086 -13.223  1.00  0.00    -0.237 OA
ATOM     76  O   UNL     1      16.151  -8.121 -12.538  1.00  0.00    -0.237 OA
ATOM     77  O   UNL     1      14.908  -8.079 -14.674  1.00  0.00    -0.744 OA
ENDBRANCH  70  74
ENDBRANCH  53  67
BRANCH  54  78
ATOM     78  C   UNL     1       5.450 -16.029 -16.786  1.00  0.00     0.023 A 
ATOM     79  C   UNL     1       4.684 -15.606 -17.889  1.00  0.00     0.031 A 
ATOM     80  C   UNL     1       5.188 -17.297 -16.246  1.00  0.00     0.131 A 
ATOM     81  C   UNL     1       3.623 -16.397 -18.345  1.00  0.00     0.055 A 
ATOM     82  C   UNL     1       4.187 -18.122 -16.763  1.00  0.00     0.041 A 
ATOM     83  F   UNL     1       5.882 -17.738 -15.185  1.00  0.00    -0.206 F 
ATOM     84  C   UNL     1       3.381 -17.662 -17.801  1.00  0.00     0.022 A 
BRANCH  81  85
ATOM     85  S   UNL     1       2.417 -15.735 -19.528  1.00  0.00     0.124 S 
ATOM     86  O   UNL     1       2.506 -16.694 -20.624  1.00  0.00    -0.237 OA
ATOM     87  O   UNL     1       1.182 -15.779 -18.748  1.00  0.00    -0.237 OA
ATOM     88  O   UNL     1       2.917 -14.395 -19.819  1.00  0.00    -0.744 OA
ENDBRANCH  81  85
ENDBRANCH  54  78
BRANCH  66  89
ATOM     89  C   UNL     1      12.365 -15.896 -15.412  1.00  0.00     0.023 A 
ATOM     90  C   UNL     1      13.114 -16.442 -14.351  1.00  0.00     0.031 A 
ATOM     91  C   UNL     1      12.822 -16.108 -16.724  1.00  0.00     0.131 A 
ATOM     92  C   UNL     1      14.309 -17.122 -14.617  1.00  0.00     0.055 A 
ATOM     93  C   UNL     1      13.982 -16.838 -16.987  1.00  0.00     0.041 A 
ATOM     94  F   UNL     1      12.151 -15.600 -17.770  1.00  0.00    -0.206 F 
ATOM     95  C   UNL     1      14.741 -17.332 -15.930  1.00  0.00     0.022 A 
BRANCH  92  96
ATOM     96  S   UNL     1      15.396 -17.664 -13.270  1.00  0.00     0.124 S 
ATOM     97  O   UNL     1      15.451 -19.108 -13.488  1.00  0.00    -0.237 OA
ATOM     98  O   UNL     1      16.631 -16.941 -13.563  1.00  0.00    -0.237 OA
ATOM     99  O   UNL     1      14.695 -17.245 -12.060  1.00  0.00    -0.744 OA
ENDBRANCH  92  96
ENDBRANCH  66  89
ENDBRANCH  40  41
ENDBRANCH  32  35
ENDBRANCH  30  31
ENDBRANCH   1  30
TORSDOF 16
