REMARK SMILES C=CCN(CC(=O)NCCCCNC(=O)c1ccc(-c2c3nc(c(-c4cc(S(=O)(=O)[O-])ccc4F)c4ccc([nH]4)c(-c4cc(S(=O)(=O)[O-])ccc4F)c4nc(c(-c5cc(S(=O)(=O)[O-])ccc5F)c5ccc2[nH]5)C=C4)C=C3)cc1)C(=O)c1cn(C2C[NH2+]C2)nn1
REMARK SMILES IDX 10 1 9 2 8 3 6 4 7 5 5 7 4 8 3 9 2 10 1 11 79 12 80 13 81 14
REMARK SMILES IDX 82 15 89 16 83 17 88 18 84 19 85 20 87 21 86 22 11 25 12 26
REMARK SMILES IDX 13 27 14 28 15 30 16 31 17 32 78 33 18 34 77 35 19 36 20 37
REMARK SMILES IDX 21 38 71 39 22 40 76 41 70 42 72 43 23 44 75 45 69 46 68 47
REMARK SMILES IDX 24 49 56 50 36 51 55 52 37 53 40 54 54 55 73 56 38 57 39 58
REMARK SMILES IDX 53 60 74 61 41 62 25 63 26 64 34 65 27 66 33 67 35 68 32 69
REMARK SMILES IDX 28 70 29 71 30 72 31 73 57 74 58 75 66 76 59 77 65 78 67 79
REMARK SMILES IDX 64 80 60 81 61 82 62 83 63 84 42 85 43 86 51 87 44 88 50 89
REMARK SMILES IDX 52 90 49 91 45 92 46 93 47 94 48 95
REMARK H PARENT 8 6 86 23 86 24 13 29 72 48 40 59
REMARK Flexibility Score: inf
ROOT
ATOM      1  C   UNL     1      -4.179  -0.257  -0.498  1.00  0.00     0.023 C 
ENDROOT
BRANCH   1   2
ATOM      2  C   UNL     1      -4.425  -0.288   1.009  1.00  0.00     0.116 C 
BRANCH   2   3
ATOM      3  N   UNL     1      -4.680  -1.613   1.532  1.00  0.00    -0.355 N 
ATOM      4  C   UNL     1      -3.838  -2.479   2.166  1.00  0.00     0.239 C 
ATOM      5  O   UNL     1      -4.356  -3.401   2.805  1.00  0.00    -0.273 OA
ATOM      6  H   UNL     1      -5.601  -1.938   1.413  1.00  0.00     0.163 HD
BRANCH   4   7
ATOM      7  C   UNL     1      -2.313  -2.273   2.218  1.00  0.00     0.220 C 
BRANCH   7   8
ATOM      8  N   UNL     1      -1.660  -1.919   0.948  1.00  0.00    -0.324 N 
BRANCH   8   9
ATOM      9  C   UNL     1      -1.026  -0.612   0.844  1.00  0.00     0.147 C 
BRANCH   9  10
ATOM     10  C   UNL     1       0.440  -0.727   1.134  1.00  0.00    -0.014 C 
ATOM     11  C   UNL     1       1.390  -0.286   0.298  1.00  0.00     0.006 C 
ENDBRANCH   9  10
ENDBRANCH   8   9
BRANCH   8  12
ATOM     12  C   UNL     1      -1.488  -2.822  -0.106  1.00  0.00     0.276 C 
ATOM     13  O   UNL     1      -0.956  -2.491  -1.169  1.00  0.00    -0.267 OA
BRANCH  12  14
ATOM     14  C   UNL     1      -1.959  -4.185   0.078  1.00  0.00     0.170 A 
ATOM     15  C   UNL     1      -3.250  -4.668  -0.014  1.00  0.00     0.145 A 
ATOM     16  N   UNL     1      -1.113  -5.232   0.354  1.00  0.00    -0.125 NA
ATOM     17  N   UNL     1      -3.130  -6.003   0.253  1.00  0.00    -0.237 N 
ATOM     18  N   UNL     1      -1.840  -6.336   0.459  1.00  0.00    -0.066 NA
BRANCH  17  19
ATOM     19  C   UNL     1      -4.166  -6.988   0.349  1.00  0.00     0.218 C 
ATOM     20  C   UNL     1      -5.225  -6.638   1.420  1.00  0.00     0.294 C 
ATOM     21  C   UNL     1      -5.344  -6.821  -0.634  1.00  0.00     0.294 C 
ATOM     22  N   UNL     1      -6.275  -7.097   0.483  1.00  0.00    -0.342 N 
ATOM     23  H   UNL     1      -7.118  -6.522   0.480  1.00  0.00     0.346 HD
ATOM     24  H   UNL     1      -6.717  -8.010   0.590  1.00  0.00     0.346 HD
ENDBRANCH  17  19
ENDBRANCH  12  14
ENDBRANCH   8  12
ENDBRANCH   7   8
ENDBRANCH   4   7
ENDBRANCH   2   3
ENDBRANCH   1   2
BRANCH   1  25
ATOM     25  C   UNL     1      -5.392  -0.559  -1.377  1.00  0.00     0.023 C 
BRANCH  25  26
ATOM     26  C   UNL     1      -6.621   0.310  -1.141  1.00  0.00     0.116 C 
BRANCH  26  27
ATOM     27  N   UNL     1      -6.350   1.736  -1.215  1.00  0.00    -0.352 N 
ATOM     28  C   UNL     1      -7.161   2.748  -1.675  1.00  0.00     0.251 C 
ATOM     29  H   UNL     1      -5.464   2.017  -0.890  1.00  0.00     0.163 HD
ATOM     30  O   UNL     1      -6.723   3.894  -1.729  1.00  0.00    -0.269 OA
BRANCH  28  31
ATOM     31  C   UNL     1      -8.531   2.446  -2.146  1.00  0.00     0.039 A 
ATOM     32  C   UNL     1      -8.961   3.001  -3.355  1.00  0.00     0.014 A 
ATOM     33  C   UNL     1      -9.380   1.607  -1.419  1.00  0.00     0.014 A 
ATOM     34  C   UNL     1     -10.211   2.653  -3.874  1.00  0.00     0.010 A 
ATOM     35  C   UNL     1     -10.598   1.212  -1.967  1.00  0.00     0.010 A 
ATOM     36  C   UNL     1     -11.021   1.726  -3.203  1.00  0.00    -0.014 A 
BRANCH  36  37
ATOM     37  C   UNL     1     -12.315   1.272  -3.772  1.00  0.00     0.031 A 
ATOM     38  C   UNL     1     -13.603   1.604  -3.072  1.00  0.00     0.074 A 
ATOM     39  C   UNL     1     -12.323   0.492  -4.870  1.00  0.00     0.049 A 
ATOM     40  N   UNL     1     -14.820   1.209  -3.342  1.00  0.00    -0.248 NA
ATOM     41  C   UNL     1     -13.496   2.469  -1.890  1.00  0.00     0.031 C 
ATOM     42  C   UNL     1     -11.137   0.069  -5.617  1.00  0.00     0.029 A 
ATOM     43  N   UNL     1     -13.366  -0.096  -5.540  1.00  0.00    -0.354 N 
ATOM     44  C   UNL     1     -15.626   1.763  -2.353  1.00  0.00     0.074 A 
ATOM     45  C   UNL     1     -14.743   2.472  -1.448  1.00  0.00     0.031 C 
ATOM     46  C   UNL     1     -11.520  -0.698  -6.651  1.00  0.00     0.029 A 
ATOM     47  C   UNL     1     -12.971  -0.852  -6.618  1.00  0.00     0.049 A 
ATOM     48  H   UNL     1     -14.307   0.012  -5.274  1.00  0.00     0.167 HD
ATOM     49  C   UNL     1     -16.975   1.705  -2.223  1.00  0.00     0.034 A 
ATOM     50  C   UNL     1     -13.695  -1.595  -7.476  1.00  0.00     0.034 A 
ATOM     51  C   UNL     1     -17.841   1.002  -3.139  1.00  0.00     0.049 A 
ATOM     52  C   UNL     1     -15.189  -1.665  -7.306  1.00  0.00     0.074 A 
ATOM     53  C   UNL     1     -19.223   0.921  -3.136  1.00  0.00     0.029 A 
ATOM     54  N   UNL     1     -17.405   0.251  -4.224  1.00  0.00    -0.354 N 
ATOM     55  N   UNL     1     -15.941  -1.110  -6.384  1.00  0.00    -0.248 NA
ATOM     56  C   UNL     1     -15.929  -2.457  -8.296  1.00  0.00     0.031 C 
ATOM     57  C   UNL     1     -19.618   0.081  -4.185  1.00  0.00     0.029 A 
ATOM     58  C   UNL     1     -18.487  -0.316  -4.880  1.00  0.00     0.049 A 
ATOM     59  H   UNL     1     -16.463   0.138  -4.489  1.00  0.00     0.167 HD
ATOM     60  C   UNL     1     -17.248  -1.467  -6.699  1.00  0.00     0.074 A 
ATOM     61  C   UNL     1     -17.180  -2.281  -7.896  1.00  0.00     0.031 C 
ATOM     62  C   UNL     1     -18.401  -1.143  -6.061  1.00  0.00     0.034 A 
BRANCH  49  63
ATOM     63  C   UNL     1     -17.576   2.399  -1.024  1.00  0.00     0.023 A 
ATOM     64  C   UNL     1     -17.454   3.789  -0.844  1.00  0.00     0.031 A 
ATOM     65  C   UNL     1     -18.214   1.659  -0.015  1.00  0.00     0.131 A 
ATOM     66  C   UNL     1     -17.869   4.378   0.359  1.00  0.00     0.055 A 
ATOM     67  C   UNL     1     -18.705   2.266   1.143  1.00  0.00     0.041 A 
ATOM     68  F   UNL     1     -18.344   0.327  -0.121  1.00  0.00    -0.206 F 
ATOM     69  C   UNL     1     -18.515   3.631   1.345  1.00  0.00     0.022 A 
BRANCH  66  70
ATOM     70  S   UNL     1     -17.387   6.096   0.688  1.00  0.00     0.124 S 
ATOM     71  O   UNL     1     -15.933   6.023   0.567  1.00  0.00    -0.237 OA
ATOM     72  O   UNL     1     -18.081   6.825  -0.368  1.00  0.00    -0.237 OA
ATOM     73  O   UNL     1     -17.880   6.337   2.042  1.00  0.00    -0.744 OA
ENDBRANCH  66  70
ENDBRANCH  49  63
BRANCH  50  74
ATOM     74  C   UNL     1     -13.020  -2.338  -8.573  1.00  0.00     0.023 A 
ATOM     75  C   UNL     1     -13.160  -1.929  -9.907  1.00  0.00     0.031 A 
ATOM     76  C   UNL     1     -12.236  -3.472  -8.302  1.00  0.00     0.131 A 
ATOM     77  C   UNL     1     -12.548  -2.668 -10.930  1.00  0.00     0.055 A 
ATOM     78  C   UNL     1     -11.601  -4.185  -9.320  1.00  0.00     0.041 A 
ATOM     79  F   UNL     1     -12.064  -3.892  -7.039  1.00  0.00    -0.206 F 
ATOM     80  C   UNL     1     -11.762  -3.788 -10.645  1.00  0.00     0.022 A 
BRANCH  77  81
ATOM     81  S   UNL     1     -12.823  -2.164 -12.650  1.00  0.00     0.124 S 
ATOM     82  O   UNL     1     -14.266  -2.329 -12.781  1.00  0.00    -0.237 OA
ATOM     83  O   UNL     1     -12.332  -0.789 -12.645  1.00  0.00    -0.237 OA
ATOM     84  O   UNL     1     -12.012  -3.109 -13.415  1.00  0.00    -0.744 OA
ENDBRANCH  77  81
ENDBRANCH  50  74
BRANCH  62  85
ATOM     85  C   UNL     1     -19.680  -1.642  -6.680  1.00  0.00     0.023 A 
ATOM     86  C   UNL     1     -20.034  -3.002  -6.648  1.00  0.00     0.031 A 
ATOM     87  C   UNL     1     -20.543  -0.744  -7.332  1.00  0.00     0.131 A 
ATOM     88  C   UNL     1     -21.200  -3.433  -7.297  1.00  0.00     0.055 A 
ATOM     89  C   UNL     1     -21.725  -1.172  -7.936  1.00  0.00     0.041 A 
ATOM     90  F   UNL     1     -20.248   0.564  -7.392  1.00  0.00    -0.206 F 
ATOM     91  C   UNL     1     -22.054  -2.525  -7.930  1.00  0.00     0.022 A 
BRANCH  88  92
ATOM     92  S   UNL     1     -21.555  -5.211  -7.365  1.00  0.00     0.124 S 
ATOM     93  O   UNL     1     -20.389  -5.726  -8.075  1.00  0.00    -0.237 OA
ATOM     94  O   UNL     1     -21.650  -5.565  -5.952  1.00  0.00    -0.237 OA
ATOM     95  O   UNL     1     -22.813  -5.282  -8.106  1.00  0.00    -0.744 OA
ENDBRANCH  88  92
ENDBRANCH  62  85
ENDBRANCH  36  37
ENDBRANCH  28  31
ENDBRANCH  26  27
ENDBRANCH  25  26
ENDBRANCH   1  25
TORSDOF 20
