REMARK SMILES Cc1nc(CN(C)C(=O)NCc2ccc(C(=O)NCCCCNC(=O)c3ccc(-c4c5nc(c(-c6cc(S(=O)(=O)[O-])ccc6F)c6ccc([nH]6)c(-c6cc(S(=O)(=O)[O-])ccc6F)c6nc(c(-c7cc(S(=O)(=O)[O-])ccc7F)c7ccc4[nH]7)C=C6)C=C5)cc3)o2)n[nH]1
REMARK SMILES IDX 19 1 18 2 16 3 17 4 15 6 12 7 13 8 89 9 14 10 11 11 10 12
REMARK SMILES IDX 8 13 9 14 6 16 7 17 5 18 4 19 1 20 2 21 3 22 91 23 90 24
REMARK SMILES IDX 20 26 21 27 22 28 23 29 24 30 25 32 26 33 27 34 88 35 28 36
REMARK SMILES IDX 87 37 29 38 30 39 31 40 81 41 32 42 86 43 80 44 82 45 33 46
REMARK SMILES IDX 85 47 79 48 78 49 34 51 66 52 46 53 65 54 47 55 50 56 64 57
REMARK SMILES IDX 83 58 48 59 49 60 63 62 84 63 51 64 35 65 36 66 44 67 37 68
REMARK SMILES IDX 43 69 45 70 42 71 38 72 39 73 40 74 41 75 67 76 68 77 76 78
REMARK SMILES IDX 69 79 75 80 77 81 74 82 70 83 71 84 72 85 73 86 52 87 53 88
REMARK SMILES IDX 61 89 54 90 60 91 62 92 59 93 55 94 56 95 57 96 58 97
REMARK H PARENT 18 5 10 15 91 25 23 31 82 50 50 61
REMARK Flexibility Score: inf
ROOT
ATOM      1  C   UNL     1       8.430   5.804   6.090  1.00  0.00     0.116 C 
ENDROOT
BRANCH   1   2
ATOM      2  N   UNL     1       8.801   4.449   6.433  1.00  0.00    -0.349 N 
ATOM      3  C   UNL     1       8.220   3.241   6.120  1.00  0.00     0.286 C 
ATOM      4  O   UNL     1       8.815   2.244   6.537  1.00  0.00    -0.266 OA
ATOM      5  H   UNL     1       9.611   4.378   6.988  1.00  0.00     0.163 HD
BRANCH   3   6
ATOM      6  C   UNL     1       6.995   3.151   5.341  1.00  0.00     0.191 A 
ATOM      7  C   UNL     1       5.458   1.973   4.252  1.00  0.00     0.124 A 
ATOM      8  C   UNL     1       5.077   3.292   4.154  1.00  0.00     0.048 A 
ATOM      9  O   UNL     1       6.621   1.883   4.951  1.00  0.00    -0.454 OA
ATOM     10  C   UNL     1       6.037   4.038   4.880  1.00  0.00     0.056 A 
BRANCH   7  11
ATOM     11  C   UNL     1       4.866   0.687   3.805  1.00  0.00     0.193 C 
BRANCH  11  12
ATOM     12  N   UNL     1       3.461   0.890   3.526  1.00  0.00    -0.331 N 
ATOM     13  C   UNL     1       2.745   1.303   2.468  1.00  0.00     0.317 C 
ATOM     14  O   UNL     1       1.595   1.666   2.735  1.00  0.00    -0.249 OA
ATOM     15  H   UNL     1       2.893   0.673   4.300  1.00  0.00     0.165 HD
BRANCH  13  16
ATOM     16  N   UNL     1       3.239   1.330   1.196  1.00  0.00    -0.320 N 
ATOM     17  C   UNL     1       4.520   0.826   0.744  1.00  0.00     0.149 C 
BRANCH  16  18
ATOM     18  C   UNL     1       2.299   1.749   0.144  1.00  0.00     0.200 C 
BRANCH  18  19
ATOM     19  C   UNL     1       1.205   0.742  -0.066  1.00  0.00     0.170 A 
ATOM     20  C   UNL     1      -2.227  -0.217  -0.099  1.00  0.00     0.089 C 
ATOM     21  C   UNL     1      -0.766  -0.015  -0.140  1.00  0.00     0.121 A 
ATOM     22  N   UNL     1      -0.114   1.124  -0.158  1.00  0.00    -0.215 NA
ATOM     23  N   UNL     1       0.136  -1.039  -0.118  1.00  0.00    -0.263 N 
ATOM     24  N   UNL     1       1.400  -0.587  -0.130  1.00  0.00    -0.157 NA
ATOM     25  H   UNL     1      -0.110  -1.992  -0.097  1.00  0.00     0.192 HD
ENDBRANCH  18  19
ENDBRANCH  16  18
ENDBRANCH  13  16
ENDBRANCH  11  12
ENDBRANCH   7  11
ENDBRANCH   3   6
ENDBRANCH   1   2
BRANCH   1  26
ATOM     26  C   UNL     1       7.561   6.436   7.177  1.00  0.00     0.023 C 
BRANCH  26  27
ATOM     27  C   UNL     1       8.356   7.004   8.360  1.00  0.00     0.023 C 
BRANCH  27  28
ATOM     28  C   UNL     1       9.351   8.109   8.007  1.00  0.00     0.116 C 
BRANCH  28  29
ATOM     29  N   UNL     1       8.747   9.228   7.303  1.00  0.00    -0.352 N 
ATOM     30  C   UNL     1       9.125  10.551   7.314  1.00  0.00     0.251 C 
ATOM     31  H   UNL     1       7.965   9.011   6.746  1.00  0.00     0.163 HD
ATOM     32  O   UNL     1       8.439  11.389   6.744  1.00  0.00    -0.269 OA
BRANCH  30  33
ATOM     33  C   UNL     1      10.338  10.950   8.061  1.00  0.00     0.039 A 
ATOM     34  C   UNL     1      10.252  12.009   8.967  1.00  0.00     0.014 A 
ATOM     35  C   UNL     1      11.542  10.260   7.893  1.00  0.00     0.014 A 
ATOM     36  C   UNL     1      11.355  12.331   9.759  1.00  0.00     0.010 A 
ATOM     37  C   UNL     1      12.620  10.540   8.729  1.00  0.00     0.010 A 
ATOM     38  C   UNL     1      12.536  11.574   9.674  1.00  0.00    -0.014 A 
BRANCH  38  39
ATOM     39  C   UNL     1      13.690  11.846  10.569  1.00  0.00     0.031 A 
ATOM     40  C   UNL     1      14.996  12.319   9.991  1.00  0.00     0.074 A 
ATOM     41  C   UNL     1      13.581  11.598  11.890  1.00  0.00     0.049 A 
ATOM     42  N   UNL     1      16.139  12.528  10.591  1.00  0.00    -0.248 NA
ATOM     43  C   UNL     1      15.025  12.558   8.540  1.00  0.00     0.031 C 
ATOM     44  C   UNL     1      12.379  11.093  12.559  1.00  0.00     0.029 A 
ATOM     45  N   UNL     1      14.495  11.723  12.906  1.00  0.00    -0.354 N 
ATOM     46  C   UNL     1      17.029  12.906   9.591  1.00  0.00     0.074 A 
ATOM     47  C   UNL     1      16.303  12.844   8.340  1.00  0.00     0.031 C 
ATOM     48  C   UNL     1      12.625  10.969  13.873  1.00  0.00     0.029 A 
ATOM     49  C   UNL     1      14.011  11.344  14.137  1.00  0.00     0.049 A 
ATOM     50  H   UNL     1      15.412  12.054  12.767  1.00  0.00     0.167 HD
ATOM     51  C   UNL     1      18.324  13.290   9.710  1.00  0.00     0.034 A 
ATOM     52  C   UNL     1      14.618  11.293  15.340  1.00  0.00     0.034 A 
ATOM     53  C   UNL     1      19.026  13.367  10.968  1.00  0.00     0.049 A 
ATOM     54  C   UNL     1      16.059  11.724  15.445  1.00  0.00     0.074 A 
ATOM     55  C   UNL     1      20.318  13.801  11.209  1.00  0.00     0.029 A 
ATOM     56  N   UNL     1      18.497  12.996  12.198  1.00  0.00    -0.354 N 
ATOM     57  N   UNL     1      16.870  12.133  14.496  1.00  0.00    -0.248 NA
ATOM     58  C   UNL     1      16.663  11.700  16.784  1.00  0.00     0.031 C 
ATOM     59  C   UNL     1      20.590  13.636  12.572  1.00  0.00     0.029 A 
ATOM     60  C   UNL     1      19.444  13.167  13.195  1.00  0.00     0.049 A 
ATOM     61  H   UNL     1      17.582  12.661  12.340  1.00  0.00     0.167 HD
ATOM     62  C   UNL     1      18.069  12.447  15.132  1.00  0.00     0.074 A 
ATOM     63  C   UNL     1      17.868  12.194  16.544  1.00  0.00     0.031 C 
ATOM     64  C   UNL     1      19.230  12.905  14.599  1.00  0.00     0.034 A 
BRANCH  51  65
ATOM     65  C   UNL     1      19.067  13.634   8.441  1.00  0.00     0.023 A 
ATOM     66  C   UNL     1      18.687  14.720   7.634  1.00  0.00     0.031 A 
ATOM     67  C   UNL     1      20.161  12.855   8.024  1.00  0.00     0.131 A 
ATOM     68  C   UNL     1      19.348  14.955   6.419  1.00  0.00     0.055 A 
ATOM     69  C   UNL     1      20.865  13.142   6.853  1.00  0.00     0.041 A 
ATOM     70  F   UNL     1      20.557  11.793   8.743  1.00  0.00    -0.206 F 
ATOM     71  C   UNL     1      20.451  14.189   6.035  1.00  0.00     0.022 A 
BRANCH  68  72
ATOM     72  S   UNL     1      18.662  16.193   5.285  1.00  0.00     0.124 S 
ATOM     73  O   UNL     1      17.331  15.649   5.026  1.00  0.00    -0.237 OA
ATOM     74  O   UNL     1      18.710  17.413   6.082  1.00  0.00    -0.237 OA
ATOM     75  O   UNL     1      19.575  16.157   4.144  1.00  0.00    -0.744 OA
ENDBRANCH  68  72
ENDBRANCH  51  65
BRANCH  52  76
ATOM     76  C   UNL     1      13.881  10.808  16.543  1.00  0.00     0.023 A 
ATOM     77  C   UNL     1      13.629  11.662  17.629  1.00  0.00     0.031 A 
ATOM     78  C   UNL     1      13.466   9.469  16.647  1.00  0.00     0.131 A 
ATOM     79  C   UNL     1      13.031  11.155  18.793  1.00  0.00     0.055 A 
ATOM     80  C   UNL     1      12.822   8.983  17.787  1.00  0.00     0.041 A 
ATOM     81  F   UNL     1      13.676   8.612  15.636  1.00  0.00    -0.206 F 
ATOM     82  C   UNL     1      12.615   9.825  18.875  1.00  0.00     0.022 A 
BRANCH  79  83
ATOM     83  S   UNL     1      12.893  12.242  20.240  1.00  0.00     0.124 S 
ATOM     84  O   UNL     1      14.282  12.634  20.450  1.00  0.00    -0.237 OA
ATOM     85  O   UNL     1      11.998  13.284  19.749  1.00  0.00    -0.237 OA
ATOM     86  O   UNL     1      12.328  11.369  21.267  1.00  0.00    -0.744 OA
ENDBRANCH  79  83
ENDBRANCH  52  76
BRANCH  64  87
ATOM     87  C   UNL     1      20.351  13.210  15.561  1.00  0.00     0.023 A 
ATOM     88  C   UNL     1      21.003  12.196  16.284  1.00  0.00     0.031 A 
ATOM     89  C   UNL     1      20.762  14.539  15.766  1.00  0.00     0.131 A 
ATOM     90  C   UNL     1      21.993  12.532  17.219  1.00  0.00     0.055 A 
ATOM     91  C   UNL     1      21.788  14.862  16.654  1.00  0.00     0.041 A 
ATOM     92  F   UNL     1      20.172  15.547  15.102  1.00  0.00    -0.206 F 
ATOM     93  C   UNL     1      22.401  13.857  17.397  1.00  0.00     0.022 A 
BRANCH  90  94
ATOM     94  S   UNL     1      22.682  11.222  18.268  1.00  0.00     0.124 S 
ATOM     95  O   UNL     1      21.489  10.710  18.935  1.00  0.00    -0.237 OA
ATOM     96  O   UNL     1      23.297  10.331  17.290  1.00  0.00    -0.237 OA
ATOM     97  O   UNL     1      23.620  11.934  19.134  1.00  0.00    -0.744 OA
ENDBRANCH  90  94
ENDBRANCH  64  87
ENDBRANCH  38  39
ENDBRANCH  30  33
ENDBRANCH  28  29
ENDBRANCH  27  28
ENDBRANCH  26  27
ENDBRANCH   1  26
TORSDOF 19
