REMARK SMILES Cc1[nH]c2ccccc2c1/C=C1/SC(=S)N(c2cccc(C(=O)NCCCCNC(=O)c3ccc(-c4c5nc(c(-c6cc(S(=O)(=O)[O-])ccc6F)c6ccc([nH]6)c(-c6cc(S(=O)(=O)[O-])ccc6F)c6nc(c(-c7cc(S(=O)(=O)[O-])ccc7F)c7ccc4[nH]7)C=C6)C=C5)cc3)c2)C1=O
REMARK SMILES IDX 27 1 26 2 25 3 24 4 22 5 23 6 21 8 17 9 18 10 95 11 19 12
REMARK SMILES IDX 20 13 16 14 11 15 12 16 13 17 96 18 14 19 97 20 15 21 10 22
REMARK SMILES IDX 1 23 2 24 3 25 4 26 9 28 5 29 8 30 6 31 7 32 28 33 29 34
REMARK SMILES IDX 30 35 31 37 32 38 33 39 94 40 34 41 93 42 35 43 36 44 37 45
REMARK SMILES IDX 87 46 38 47 92 48 86 49 88 50 39 51 91 52 85 53 84 54 40 56
REMARK SMILES IDX 72 57 52 58 71 59 53 60 56 61 70 62 89 63 54 64 55 65 69 67
REMARK SMILES IDX 90 68 57 69 41 70 42 71 50 72 43 73 49 74 51 75 48 76 44 77
REMARK SMILES IDX 45 78 46 79 47 80 73 81 74 82 82 83 75 84 81 85 83 86 80 87
REMARK SMILES IDX 76 88 77 89 78 90 79 91 58 92 59 93 67 94 60 95 66 96 68 97
REMARK SMILES IDX 65 98 61 99 62 100 63 101 64 102
REMARK H PARENT 24 7 3 27 29 36 88 55 56 66
REMARK Flexibility Score: inf
ROOT
ATOM      1  C   UNL     1      -9.958  -1.389  -2.467  1.00  0.00     0.023 C 
ENDROOT
BRANCH   1   2
ATOM      2  C   UNL     1      -8.437  -1.304  -2.437  1.00  0.00     0.023 C 
BRANCH   2   3
ATOM      3  C   UNL     1      -7.682  -2.209  -3.402  1.00  0.00     0.116 C 
BRANCH   3   4
ATOM      4  N   UNL     1      -7.962  -1.969  -4.808  1.00  0.00    -0.352 N 
ATOM      5  C   UNL     1      -7.125  -1.890  -5.899  1.00  0.00     0.251 C 
ATOM      6  O   UNL     1      -7.609  -1.659  -7.006  1.00  0.00    -0.269 OA
ATOM      7  H   UNL     1      -8.915  -1.839  -5.017  1.00  0.00     0.163 HD
BRANCH   5   8
ATOM      8  C   UNL     1      -5.647  -2.002  -5.772  1.00  0.00     0.041 A 
ATOM      9  C   UNL     1      -3.664  -2.726  -4.567  1.00  0.00     0.051 A 
ATOM     10  C   UNL     1      -2.895  -1.866  -5.365  1.00  0.00     0.027 A 
ATOM     11  C   UNL     1      -5.030  -2.855  -4.850  1.00  0.00     0.040 A 
ATOM     12  C   UNL     1      -3.481  -1.119  -6.388  1.00  0.00     0.003 A 
ATOM     13  C   UNL     1      -4.860  -1.167  -6.573  1.00  0.00     0.014 A 
BRANCH   9  14
ATOM     14  N   UNL     1      -3.128  -3.278  -3.357  1.00  0.00    -0.261 N 
ATOM     15  C   UNL     1      -1.647  -2.533  -0.093  1.00  0.00     0.032 C 
ATOM     16  C   UNL     1      -2.180  -3.092  -1.191  1.00  0.00     0.081 C 
ATOM     17  S   UNL     1      -2.764  -4.710  -1.233  1.00  0.00    -0.054 SA
ATOM     18  C   UNL     1      -2.402  -2.434  -2.510  1.00  0.00     0.270 C 
ATOM     19  C   UNL     1      -3.376  -4.556  -2.880  1.00  0.00     0.152 C 
ATOM     20  O   UNL     1      -2.032  -1.294  -2.763  1.00  0.00    -0.268 OA
ATOM     21  S   UNL     1      -4.047  -5.875  -3.660  1.00  0.00    -0.051 S 
BRANCH  15  22
ATOM     22  C   UNL     1      -1.184  -1.191   0.028  1.00  0.00     0.004 A 
ATOM     23  C   UNL     1      -3.462   0.112   0.142  1.00  0.00     0.065 C 
ATOM     24  C   UNL     1      -1.988  -0.070   0.124  1.00  0.00     0.020 A 
ATOM     25  N   UNL     1      -1.148   1.019   0.158  1.00  0.00    -0.358 N 
ATOM     26  C   UNL     1       0.170   0.623   0.119  1.00  0.00     0.046 A 
ATOM     27  H   UNL     1      -1.449   1.955   0.204  1.00  0.00     0.166 HD
ATOM     28  C   UNL     1       0.178  -0.770   0.056  1.00  0.00     0.007 A 
ATOM     29  C   UNL     1       1.341   1.389   0.121  1.00  0.00     0.027 A 
ATOM     30  C   UNL     1       1.421  -1.435   0.005  1.00  0.00     0.011 A 
ATOM     31  C   UNL     1       2.561   0.707   0.066  1.00  0.00     0.002 A 
ATOM     32  C   UNL     1       2.603  -0.685   0.013  1.00  0.00     0.001 A 
ENDBRANCH  15  22
ENDBRANCH   9  14
ENDBRANCH   5   8
ENDBRANCH   3   4
ENDBRANCH   2   3
ENDBRANCH   1   2
BRANCH   1  33
ATOM     33  C   UNL     1     -10.558  -2.788  -2.378  1.00  0.00     0.116 C 
BRANCH  33  34
ATOM     34  N   UNL     1     -10.140  -3.534  -1.201  1.00  0.00    -0.352 N 
ATOM     35  C   UNL     1     -10.899  -4.184  -0.251  1.00  0.00     0.251 C 
ATOM     36  H   UNL     1      -9.167  -3.581  -1.062  1.00  0.00     0.163 HD
ATOM     37  O   UNL     1     -10.347  -4.687   0.718  1.00  0.00    -0.269 OA
BRANCH  35  38
ATOM     38  C   UNL     1     -12.374  -4.226  -0.381  1.00  0.00     0.039 A 
ATOM     39  C   UNL     1     -13.156  -3.919   0.737  1.00  0.00     0.014 A 
ATOM     40  C   UNL     1     -12.987  -4.532  -1.598  1.00  0.00     0.014 A 
ATOM     41  C   UNL     1     -14.544  -3.821   0.607  1.00  0.00     0.010 A 
ATOM     42  C   UNL     1     -14.361  -4.356  -1.744  1.00  0.00     0.010 A 
ATOM     43  C   UNL     1     -15.154  -3.987  -0.646  1.00  0.00    -0.014 A 
BRANCH  43  44
ATOM     44  C   UNL     1     -16.613  -3.762  -0.838  1.00  0.00     0.031 A 
ATOM     45  C   UNL     1     -17.497  -4.893  -1.291  1.00  0.00     0.074 A 
ATOM     46  C   UNL     1     -17.124  -2.523  -0.688  1.00  0.00     0.049 A 
ATOM     47  N   UNL     1     -18.765  -4.875  -1.613  1.00  0.00    -0.248 NA
ATOM     48  C   UNL     1     -16.860  -6.210  -1.433  1.00  0.00     0.031 C 
ATOM     49  C   UNL     1     -16.361  -1.334  -0.299  1.00  0.00     0.029 A 
ATOM     50  N   UNL     1     -18.402  -2.051  -0.857  1.00  0.00    -0.354 N 
ATOM     51  C   UNL     1     -19.072  -6.170  -2.020  1.00  0.00     0.074 A 
ATOM     52  C   UNL     1     -17.842  -6.931  -1.953  1.00  0.00     0.031 C 
ATOM     53  C   UNL     1     -17.189  -0.278  -0.239  1.00  0.00     0.029 A 
ATOM     54  C   UNL     1     -18.531  -0.699  -0.628  1.00  0.00     0.049 A 
ATOM     55  H   UNL     1     -19.158  -2.626  -1.119  1.00  0.00     0.167 HD
ATOM     56  C   UNL     1     -20.271  -6.680  -2.397  1.00  0.00     0.034 A 
ATOM     57  C   UNL     1     -19.603   0.111  -0.734  1.00  0.00     0.034 A 
ATOM     58  C   UNL     1     -21.494  -5.915  -2.430  1.00  0.00     0.049 A 
ATOM     59  C   UNL     1     -20.924  -0.480  -1.157  1.00  0.00     0.074 A 
ATOM     60  C   UNL     1     -22.776  -6.352  -2.717  1.00  0.00     0.029 A 
ATOM     61  N   UNL     1     -21.588  -4.553  -2.175  1.00  0.00    -0.354 N 
ATOM     62  N   UNL     1     -21.210  -1.722  -1.476  1.00  0.00    -0.248 NA
ATOM     63  C   UNL     1     -22.070   0.437  -1.225  1.00  0.00     0.031 C 
ATOM     64  C   UNL     1     -23.632  -5.245  -2.697  1.00  0.00     0.029 A 
ATOM     65  C   UNL     1     -22.899  -4.129  -2.329  1.00  0.00     0.049 A 
ATOM     66  H   UNL     1     -20.833  -3.973  -1.923  1.00  0.00     0.167 HD
ATOM     67  C   UNL     1     -22.575  -1.738  -1.747  1.00  0.00     0.074 A 
ATOM     68  C   UNL     1     -23.056  -0.388  -1.543  1.00  0.00     0.031 C 
ATOM     69  C   UNL     1     -23.363  -2.777  -2.126  1.00  0.00     0.034 A 
BRANCH  56  70
ATOM     70  C   UNL     1     -20.308  -8.127  -2.827  1.00  0.00     0.023 A 
ATOM     71  C   UNL     1     -19.996  -9.171  -1.939  1.00  0.00     0.031 A 
ATOM     72  C   UNL     1     -20.639  -8.466  -4.151  1.00  0.00     0.131 A 
ATOM     73  C   UNL     1     -19.947 -10.494  -2.403  1.00  0.00     0.055 A 
ATOM     74  C   UNL     1     -20.667  -9.792  -4.586  1.00  0.00     0.041 A 
ATOM     75  F   UNL     1     -20.928  -7.511  -5.049  1.00  0.00    -0.206 F 
ATOM     76  C   UNL     1     -20.305 -10.815  -3.714  1.00  0.00     0.022 A 
BRANCH  73  77
ATOM     77  S   UNL     1     -19.275 -11.772  -1.305  1.00  0.00     0.124 S 
ATOM     78  O   UNL     1     -17.927 -11.267  -1.057  1.00  0.00    -0.237 OA
ATOM     79  O   UNL     1     -20.192 -11.728  -0.172  1.00  0.00    -0.237 OA
ATOM     80  O   UNL     1     -19.339 -12.987  -2.114  1.00  0.00    -0.744 OA
ENDBRANCH  73  77
ENDBRANCH  56  70
BRANCH  57  81
ATOM     81  C   UNL     1     -19.487   1.570  -0.445  1.00  0.00     0.023 A 
ATOM     82  C   UNL     1     -20.183   2.149   0.628  1.00  0.00     0.031 A 
ATOM     83  C   UNL     1     -18.725   2.416  -1.269  1.00  0.00     0.131 A 
ATOM     84  C   UNL     1     -20.149   3.539   0.817  1.00  0.00     0.055 A 
ATOM     85  C   UNL     1     -18.651   3.792  -1.046  1.00  0.00     0.041 A 
ATOM     86  F   UNL     1     -18.034   1.914  -2.305  1.00  0.00    -0.206 F 
ATOM     87  C   UNL     1     -19.378   4.364  -0.006  1.00  0.00     0.022 A 
BRANCH  84  88
ATOM     88  S   UNL     1     -21.206   4.267   2.099  1.00  0.00     0.124 S 
ATOM     89  O   UNL     1     -22.526   3.796   1.699  1.00  0.00    -0.237 OA
ATOM     90  O   UNL     1     -20.654   3.677   3.315  1.00  0.00    -0.237 OA
ATOM     91  O   UNL     1     -20.982   5.703   1.949  1.00  0.00    -0.744 OA
ENDBRANCH  84  88
ENDBRANCH  57  81
BRANCH  69  92
ATOM     92  C   UNL     1     -24.836  -2.494  -2.289  1.00  0.00     0.023 A 
ATOM     93  C   UNL     1     -25.323  -1.670  -3.318  1.00  0.00     0.031 A 
ATOM     94  C   UNL     1     -25.763  -3.050  -1.389  1.00  0.00     0.131 A 
ATOM     95  C   UNL     1     -26.693  -1.380  -3.390  1.00  0.00     0.055 A 
ATOM     96  C   UNL     1     -27.132  -2.804  -1.501  1.00  0.00     0.041 A 
ATOM     97  F   UNL     1     -25.352  -3.843  -0.387  1.00  0.00    -0.206 F 
ATOM     98  C   UNL     1     -27.603  -1.954  -2.498  1.00  0.00     0.022 A 
BRANCH  95  99
ATOM     99  S   UNL     1     -27.265  -0.170  -4.615  1.00  0.00     0.124 S 
ATOM    100  O   UNL     1     -26.512   1.022  -4.239  1.00  0.00    -0.237 OA
ATOM    101  O   UNL     1     -26.880  -0.796  -5.876  1.00  0.00    -0.237 OA
ATOM    102  O   UNL     1     -28.705  -0.094  -4.376  1.00  0.00    -0.744 OA
ENDBRANCH  95  99
ENDBRANCH  69  92
ENDBRANCH  43  44
ENDBRANCH  35  38
ENDBRANCH  33  34
ENDBRANCH   1  33
TORSDOF 16
