REMARK SMILES CC(=O)N[C@H]1[C@@H](O[C@H](C)C(=O)NCCCCNC(=O)c2ccc(-c3c4nc(c(-c5cc(S(=O)(=O)[O-])ccc5F)c5ccc([nH]5)c(-c5cc(S(=O)(=O)[O-])ccc5F)c5nc(c(-c6cc(S(=O)(=O)[O-])ccc6F)c6ccc3[nH]6)C=C5)C=C4)cc2)[C@H]2OC(C)(C)OC[C@@H]2O[C@H]1Sc1ccc(Cl)cc1
REMARK SMILES IDX 14 1 13 2 12 3 10 4 11 5 8 7 9 8 7 9 6 10 5 11 92 12 83 13
REMARK SMILES IDX 91 14 84 15 90 16 85 17 89 18 86 19 87 20 88 21 4 22 1 23
REMARK SMILES IDX 2 24 3 25 93 27 94 28 95 29 100 30 96 31 99 32 97 33 98 34
REMARK SMILES IDX 15 35 16 36 17 37 18 38 19 40 20 41 21 42 82 43 22 44 81 45
REMARK SMILES IDX 23 46 24 47 25 48 75 49 26 50 80 51 74 52 76 53 27 54 79 55
REMARK SMILES IDX 73 56 72 57 28 59 60 60 40 61 59 62 41 63 44 64 58 65 77 66
REMARK SMILES IDX 42 67 43 68 57 70 78 71 45 72 29 73 30 74 38 75 31 76 37 77
REMARK SMILES IDX 39 78 36 79 32 80 33 81 34 82 35 83 61 84 62 85 70 86 63 87
REMARK SMILES IDX 69 88 71 89 68 90 64 91 65 92 66 93 67 94 46 95 47 96 55 97
REMARK SMILES IDX 48 98 54 99 56 100 53 101 49 102 50 103 51 104 52 105
REMARK H PARENT 12 6 4 26 17 39 76 58 44 69
REMARK Flexibility Score: inf
ROOT
ATOM      1  C   UNL     1      10.356   1.325   3.561  1.00  0.00     0.023 C 
ENDROOT
BRANCH   1   2
ATOM      2  C   UNL     1       8.976   1.765   3.060  1.00  0.00     0.116 C 
BRANCH   2   3
ATOM      3  N   UNL     1       8.960   2.362   1.714  1.00  0.00    -0.354 N 
ATOM      4  C   UNL     1       7.747   2.547   1.090  1.00  0.00     0.248 C 
ATOM      5  O   UNL     1       6.788   2.810   1.823  1.00  0.00    -0.272 OA
ATOM      6  H   UNL     1       9.799   2.623   1.270  1.00  0.00     0.163 HD
BRANCH   4   7
ATOM      7  C   UNL     1       7.519   2.379  -0.506  1.00  0.00     0.204 C 
ATOM      8  C   UNL     1       8.707   2.972  -1.268  1.00  0.00     0.049 C 
BRANCH   7   9
ATOM      9  O   UNL     1       7.203   1.076  -1.094  1.00  0.00    -0.360 OA
BRANCH   9  10
ATOM     10  C   UNL     1       5.818   0.632  -1.184  1.00  0.00     0.177 C 
ATOM     11  C   UNL     1       5.173   0.588   0.202  1.00  0.00     0.153 C 
ATOM     12  C   UNL     1       5.976  -0.477   1.043  1.00  0.00     0.206 C 
ATOM     13  C   UNL     1       5.507  -0.893  -1.737  1.00  0.00     0.184 C 
ATOM     14  O   UNL     1       5.340  -1.718   0.637  1.00  0.00    -0.356 OA
ATOM     15  O   UNL     1       6.093  -1.269  -2.991  1.00  0.00    -0.342 OA
ATOM     16  C   UNL     1       5.781  -1.995  -0.679  1.00  0.00     0.177 C 
ATOM     17  C   UNL     1       5.852  -2.651  -3.376  1.00  0.00     0.163 C 
ATOM     18  C   UNL     1       5.395  -3.373  -1.149  1.00  0.00     0.198 C 
ATOM     19  C   UNL     1       6.864  -2.977  -4.480  1.00  0.00     0.075 C 
ATOM     20  C   UNL     1       4.443  -2.913  -3.915  1.00  0.00     0.075 C 
ATOM     21  O   UNL     1       6.122  -3.612  -2.348  1.00  0.00    -0.348 OA
BRANCH  11  22
ATOM     22  N   UNL     1       4.790   1.881   0.775  1.00  0.00    -0.347 N 
ATOM     23  C   UNL     1       2.340   1.663   0.971  1.00  0.00     0.114 C 
ATOM     24  C   UNL     1       3.588   2.487   0.969  1.00  0.00     0.217 C 
ATOM     25  O   UNL     1       3.551   3.702   1.165  1.00  0.00    -0.275 OA
ATOM     26  H   UNL     1       5.556   2.419   1.082  1.00  0.00     0.163 HD
ENDBRANCH  11  22
BRANCH  12  27
ATOM     27  S   UNL     1       7.961  -0.905   1.202  1.00  0.00    -0.092 SA
BRANCH  27  28
ATOM     28  C   UNL     1       9.039  -0.700  -0.253  1.00  0.00     0.010 A 
ATOM     29  C   UNL     1       9.003  -1.369  -1.484  1.00  0.00     0.016 A 
ATOM     30  C   UNL     1      10.177   0.103  -0.064  1.00  0.00     0.016 A 
ATOM     31  C   UNL     1       9.935  -1.116  -2.512  1.00  0.00     0.021 A 
ATOM     32  C   UNL     1      11.128   0.355  -1.066  1.00  0.00     0.021 A 
ATOM     33  C   UNL     1      10.986  -0.240  -2.304  1.00  0.00     0.041 A 
ATOM     34  Cl  UNL     1      12.126   0.068  -3.552  1.00  0.00    -0.084 Cl
ENDBRANCH  27  28
ENDBRANCH  12  27
ENDBRANCH   9  10
ENDBRANCH   7   9
ENDBRANCH   4   7
ENDBRANCH   2   3
ENDBRANCH   1   2
BRANCH   1  35
ATOM     35  C   UNL     1      10.325   0.307   4.715  1.00  0.00     0.023 C 
BRANCH  35  36
ATOM     36  C   UNL     1       9.615  -1.033   4.485  1.00  0.00     0.116 C 
BRANCH  36  37
ATOM     37  N   UNL     1      10.357  -1.992   3.678  1.00  0.00    -0.352 N 
ATOM     38  C   UNL     1      10.675  -3.310   3.979  1.00  0.00     0.251 C 
ATOM     39  H   UNL     1      10.674  -1.663   2.806  1.00  0.00     0.163 HD
ATOM     40  O   UNL     1      11.349  -3.981   3.228  1.00  0.00    -0.269 OA
BRANCH  38  41
ATOM     41  C   UNL     1      10.207  -3.869   5.273  1.00  0.00     0.039 A 
ATOM     42  C   UNL     1      11.153  -4.315   6.198  1.00  0.00     0.014 A 
ATOM     43  C   UNL     1       8.849  -3.854   5.601  1.00  0.00     0.014 A 
ATOM     44  C   UNL     1      10.746  -4.639   7.496  1.00  0.00     0.010 A 
ATOM     45  C   UNL     1       8.458  -4.110   6.915  1.00  0.00     0.010 A 
ATOM     46  C   UNL     1       9.405  -4.479   7.886  1.00  0.00    -0.014 A 
BRANCH  46  47
ATOM     47  C   UNL     1       8.992  -4.641   9.309  1.00  0.00     0.031 A 
ATOM     48  C   UNL     1       7.992  -5.696   9.701  1.00  0.00     0.074 A 
ATOM     49  C   UNL     1       9.454  -3.780  10.240  1.00  0.00     0.049 A 
ATOM     50  N   UNL     1       7.465  -5.943  10.874  1.00  0.00    -0.248 NA
ATOM     51  C   UNL     1       7.494  -6.560   8.623  1.00  0.00     0.031 C 
ATOM     52  C   UNL     1      10.371  -2.667   9.980  1.00  0.00     0.029 A 
ATOM     53  N   UNL     1       9.209  -3.692  11.590  1.00  0.00    -0.354 N 
ATOM     54  C   UNL     1       6.557  -6.978  10.671  1.00  0.00     0.074 A 
ATOM     55  C   UNL     1       6.565  -7.264   9.252  1.00  0.00     0.031 C 
ATOM     56  C   UNL     1      10.627  -2.026  11.131  1.00  0.00     0.029 A 
ATOM     57  C   UNL     1       9.864  -2.650  12.207  1.00  0.00     0.049 A 
ATOM     58  H   UNL     1       8.620  -4.317  12.071  1.00  0.00     0.167 HD
ATOM     59  C   UNL     1       5.805  -7.642  11.586  1.00  0.00     0.034 A 
ATOM     60  C   UNL     1       9.847  -2.234  13.490  1.00  0.00     0.034 A 
ATOM     61  C   UNL     1       5.822  -7.355  13.001  1.00  0.00     0.049 A 
ATOM     62  C   UNL     1       9.017  -2.994  14.493  1.00  0.00     0.074 A 
ATOM     63  C   UNL     1       5.167  -8.020  14.024  1.00  0.00     0.029 A 
ATOM     64  N   UNL     1       6.519  -6.310  13.595  1.00  0.00    -0.354 N 
ATOM     65  N   UNL     1       8.228  -4.026  14.299  1.00  0.00    -0.248 NA
ATOM     66  C   UNL     1       9.088  -2.545  15.889  1.00  0.00     0.031 C 
ATOM     67  C   UNL     1       5.409  -7.336  15.220  1.00  0.00     0.029 A 
ATOM     68  C   UNL     1       6.281  -6.291  14.962  1.00  0.00     0.049 A 
ATOM     69  H   UNL     1       7.099  -5.675  13.114  1.00  0.00     0.167 HD
ATOM     70  C   UNL     1       7.728  -4.362  15.554  1.00  0.00     0.074 A 
ATOM     71  C   UNL     1       8.320  -3.437  16.498  1.00  0.00     0.031 C 
ATOM     72  C   UNL     1       6.861  -5.351  15.894  1.00  0.00     0.034 A 
BRANCH  59  73
ATOM     73  C   UNL     1       4.882  -8.724  11.071  1.00  0.00     0.023 A 
ATOM     74  C   UNL     1       5.373  -9.857  10.397  1.00  0.00     0.031 A 
ATOM     75  C   UNL     1       3.489  -8.603  11.218  1.00  0.00     0.131 A 
ATOM     76  C   UNL     1       4.480 -10.769   9.814  1.00  0.00     0.055 A 
ATOM     77  C   UNL     1       2.607  -9.563  10.715  1.00  0.00     0.041 A 
ATOM     78  F   UNL     1       2.956  -7.537  11.836  1.00  0.00    -0.206 F 
ATOM     79  C   UNL     1       3.100 -10.644   9.991  1.00  0.00     0.022 A 
BRANCH  76  80
ATOM     80  S   UNL     1       5.142 -12.023   8.682  1.00  0.00     0.124 S 
ATOM     81  O   UNL     1       5.815 -11.194   7.686  1.00  0.00    -0.237 OA
ATOM     82  O   UNL     1       6.009 -12.807   9.553  1.00  0.00    -0.237 OA
ATOM     83  O   UNL     1       3.948 -12.715   8.201  1.00  0.00    -0.744 OA
ENDBRANCH  76  80
ENDBRANCH  59  73
BRANCH  60  84
ATOM     84  C   UNL     1      10.630  -1.032  13.902  1.00  0.00     0.023 A 
ATOM     85  C   UNL     1      11.720  -1.139  14.781  1.00  0.00     0.031 A 
ATOM     86  C   UNL     1      10.280   0.249  13.439  1.00  0.00     0.131 A 
ATOM     87  C   UNL     1      12.396   0.019  15.201  1.00  0.00     0.055 A 
ATOM     88  C   UNL     1      10.986   1.391  13.821  1.00  0.00     0.041 A 
ATOM     89  F   UNL     1       9.251   0.406  12.591  1.00  0.00    -0.206 F 
ATOM     90  C   UNL     1      12.045   1.281  14.716  1.00  0.00     0.022 A 
BRANCH  87  91
ATOM     91  S   UNL     1      13.707  -0.141  16.446  1.00  0.00     0.124 S 
ATOM     92  O   UNL     1      12.984  -0.733  17.565  1.00  0.00    -0.237 OA
ATOM     93  O   UNL     1      14.664  -1.008  15.768  1.00  0.00    -0.237 OA
ATOM     94  O   UNL     1      14.153   1.236  16.648  1.00  0.00    -0.744 OA
ENDBRANCH  87  91
ENDBRANCH  60  84
BRANCH  72  95
ATOM     95  C   UNL     1       6.533  -5.502  17.361  1.00  0.00     0.023 A 
ATOM     96  C   UNL     1       5.818  -4.517  18.066  1.00  0.00     0.031 A 
ATOM     97  C   UNL     1       6.954  -6.644  18.065  1.00  0.00     0.131 A 
ATOM     98  C   UNL     1       5.593  -4.668  19.443  1.00  0.00     0.055 A 
ATOM     99  C   UNL     1       6.673  -6.817  19.422  1.00  0.00     0.041 A 
ATOM    100  F   UNL     1       7.643  -7.615  17.445  1.00  0.00    -0.206 F 
ATOM    101  C   UNL     1       6.001  -5.819  20.121  1.00  0.00     0.022 A 
BRANCH  98 102
ATOM    102  S   UNL     1       4.844  -3.293  20.360  1.00  0.00     0.124 S 
ATOM    103  O   UNL     1       5.780  -2.205  20.094  1.00  0.00    -0.237 OA
ATOM    104  O   UNL     1       3.533  -3.176  19.731  1.00  0.00    -0.237 OA
ATOM    105  O   UNL     1       4.827  -3.771  21.742  1.00  0.00    -0.744 OA
ENDBRANCH  98 102
ENDBRANCH  72  95
ENDBRANCH  46  47
ENDBRANCH  38  41
ENDBRANCH  36  37
ENDBRANCH  35  36
ENDBRANCH   1  35
TORSDOF 19
