REMARK SMILES O=C(NCCCCNC(=O)c1sccc1S(=O)(=O)Nc1ccccc1N1CCCCC1)c1ccc(-c2c3nc(c(-c4cc(S(=O)(=O)[O-])ccc4F)c4ccc([nH]4)c(-c4cc(S(=O)(=O)[O-])ccc4F)c4nc(c(-c5cc(S(=O)(=O)[O-])ccc5F)c5ccc2[nH]5)C=C4)C=C3)cc1
REMARK SMILES IDX 6 1 5 2 4 3 3 4 1 5 2 6 32 8 33 9 94 10 34 11 93 12 35 13
REMARK SMILES IDX 36 14 37 15 87 16 38 17 92 18 86 19 88 20 39 21 91 22 85 23
REMARK SMILES IDX 84 24 40 26 72 27 52 28 71 29 53 30 56 31 70 32 89 33 54 34
REMARK SMILES IDX 55 35 69 37 90 38 57 39 41 40 42 41 50 42 43 43 49 44 51 45
REMARK SMILES IDX 48 46 44 47 45 48 46 49 47 50 73 51 74 52 82 53 75 54 81 55
REMARK SMILES IDX 83 56 80 57 76 58 77 59 78 60 79 61 58 62 59 63 67 64 60 65
REMARK SMILES IDX 66 66 68 67 65 68 61 69 62 70 63 71 64 72 7 73 8 74 9 75
REMARK SMILES IDX 10 77 11 78 12 79 15 80 13 81 14 82 16 83 17 84 18 85 19 86
REMARK SMILES IDX 20 88 21 89 25 90 22 91 24 92 23 93 26 94 27 95 31 96 28 97
REMARK SMILES IDX 30 98 29 99
REMARK H PARENT 3 7 88 25 56 36 8 76 19 87
REMARK Flexibility Score: inf
ROOT
ATOM      1  C   UNL     1       3.853  -0.571   3.807  1.00  0.00     0.023 C 
ENDROOT
BRANCH   1   2
ATOM      2  C   UNL     1       4.533   0.126   2.622  1.00  0.00     0.023 C 
BRANCH   2   3
ATOM      3  C   UNL     1       4.353  -0.561   1.271  1.00  0.00     0.116 C 
BRANCH   3   4
ATOM      4  N   UNL     1       2.964  -0.676   0.870  1.00  0.00    -0.352 N 
ATOM      5  O   UNL     1       1.025  -0.087  -0.105  1.00  0.00    -0.269 OA
ATOM      6  C   UNL     1       2.242   0.060  -0.036  1.00  0.00     0.251 C 
ATOM      7  H   UNL     1       2.460  -1.393   1.317  1.00  0.00     0.163 HD
BRANCH   6   8
ATOM      8  C   UNL     1       2.915   1.041  -0.914  1.00  0.00     0.039 A 
ATOM      9  C   UNL     1       4.045   0.697  -1.663  1.00  0.00     0.014 A 
ATOM     10  C   UNL     1       2.364   2.320  -1.026  1.00  0.00     0.014 A 
ATOM     11  C   UNL     1       4.688   1.663  -2.438  1.00  0.00     0.010 A 
ATOM     12  C   UNL     1       2.976   3.269  -1.845  1.00  0.00     0.010 A 
ATOM     13  C   UNL     1       4.157   2.957  -2.538  1.00  0.00    -0.014 A 
BRANCH  13  14
ATOM     14  C   UNL     1       4.815   3.990  -3.377  1.00  0.00     0.031 A 
ATOM     15  C   UNL     1       5.426   5.205  -2.738  1.00  0.00     0.074 A 
ATOM     16  C   UNL     1       4.810   3.861  -4.717  1.00  0.00     0.049 A 
ATOM     17  N   UNL     1       5.915   6.281  -3.299  1.00  0.00    -0.248 NA
ATOM     18  C   UNL     1       5.477   5.213  -1.270  1.00  0.00     0.031 C 
ATOM     19  C   UNL     1       4.247   2.727  -5.451  1.00  0.00     0.029 A 
ATOM     20  N   UNL     1       5.269   4.702  -5.698  1.00  0.00    -0.354 N 
ATOM     21  C   UNL     1       6.312   7.109  -2.254  1.00  0.00     0.074 A 
ATOM     22  C   UNL     1       5.975   6.417  -1.026  1.00  0.00     0.031 C 
ATOM     23  C   UNL     1       4.380   2.949  -6.768  1.00  0.00     0.029 A 
ATOM     24  C   UNL     1       4.986   4.262  -6.969  1.00  0.00     0.049 A 
ATOM     25  H   UNL     1       5.752   5.539  -5.511  1.00  0.00     0.167 HD
ATOM     26  C   UNL     1       6.905   8.328  -2.316  1.00  0.00     0.034 A 
ATOM     27  C   UNL     1       5.151   4.864  -8.162  1.00  0.00     0.034 A 
ATOM     28  C   UNL     1       7.229   9.002  -3.551  1.00  0.00     0.049 A 
ATOM     29  C   UNL     1       5.763   6.236  -8.213  1.00  0.00     0.074 A 
ATOM     30  C   UNL     1       7.865  10.219  -3.732  1.00  0.00     0.029 A 
ATOM     31  N   UNL     1       6.926   8.523  -4.820  1.00  0.00    -0.354 N 
ATOM     32  N   UNL     1       6.146   7.003  -7.219  1.00  0.00    -0.248 NA
ATOM     33  C   UNL     1       5.968   6.822  -9.543  1.00  0.00     0.031 C 
ATOM     34  C   UNL     1       7.894  10.501  -5.103  1.00  0.00     0.029 A 
ATOM     35  C   UNL     1       7.336   9.431  -5.785  1.00  0.00     0.049 A 
ATOM     36  H   UNL     1       6.485   7.663  -5.007  1.00  0.00     0.167 HD
ATOM     37  C   UNL     1       6.657   8.156  -7.806  1.00  0.00     0.074 A 
ATOM     38  C   UNL     1       6.534   7.982  -9.240  1.00  0.00     0.031 C 
ATOM     39  C   UNL     1       7.192   9.252  -7.210  1.00  0.00     0.034 A 
BRANCH  26  40
ATOM     40  C   UNL     1       7.188   9.022  -1.005  1.00  0.00     0.023 A 
ATOM     41  C   UNL     1       8.079   8.483  -0.060  1.00  0.00     0.031 A 
ATOM     42  C   UNL     1       6.516  10.211  -0.669  1.00  0.00     0.131 A 
ATOM     43  C   UNL     1       8.206   9.078   1.204  1.00  0.00     0.055 A 
ATOM     44  C   UNL     1       6.709  10.845   0.560  1.00  0.00     0.041 A 
ATOM     45  F   UNL     1       5.638  10.764  -1.522  1.00  0.00    -0.206 F 
ATOM     46  C   UNL     1       7.543  10.268   1.513  1.00  0.00     0.022 A 
BRANCH  43  47
ATOM     47  S   UNL     1       9.110   8.180   2.495  1.00  0.00     0.124 S 
ATOM     48  O   UNL     1       8.428   6.887   2.493  1.00  0.00    -0.237 OA
ATOM     49  O   UNL     1      10.475   8.182   1.982  1.00  0.00    -0.237 OA
ATOM     50  O   UNL     1       8.890   8.987   3.693  1.00  0.00    -0.744 OA
ENDBRANCH  43  47
ENDBRANCH  26  40
BRANCH  27  51
ATOM     51  C   UNL     1       4.676   4.184  -9.396  1.00  0.00     0.023 A 
ATOM     52  C   UNL     1       5.578   3.656 -10.330  1.00  0.00     0.031 A 
ATOM     53  C   UNL     1       3.299   4.030  -9.639  1.00  0.00     0.131 A 
ATOM     54  C   UNL     1       5.091   3.009 -11.476  1.00  0.00     0.055 A 
ATOM     55  C   UNL     1       2.820   3.355 -10.761  1.00  0.00     0.041 A 
ATOM     56  F   UNL     1       2.399   4.509  -8.764  1.00  0.00    -0.206 F 
ATOM     57  C   UNL     1       3.720   2.843 -11.691  1.00  0.00     0.022 A 
BRANCH  54  58
ATOM     58  S   UNL     1       6.281   2.396 -12.699  1.00  0.00     0.124 S 
ATOM     59  O   UNL     1       6.913   3.633 -13.145  1.00  0.00    -0.237 OA
ATOM     60  O   UNL     1       7.112   1.504 -11.897  1.00  0.00    -0.237 OA
ATOM     61  O   UNL     1       5.438   1.732 -13.691  1.00  0.00    -0.744 OA
ENDBRANCH  54  58
ENDBRANCH  27  51
BRANCH  39  62
ATOM     62  C   UNL     1       7.730  10.326  -8.118  1.00  0.00     0.023 A 
ATOM     63  C   UNL     1       6.880  11.173  -8.849  1.00  0.00     0.031 A 
ATOM     64  C   UNL     1       9.119  10.505  -8.243  1.00  0.00     0.131 A 
ATOM     65  C   UNL     1       7.430  12.141  -9.703  1.00  0.00     0.055 A 
ATOM     66  C   UNL     1       9.659  11.497  -9.061  1.00  0.00     0.041 A 
ATOM     67  F   UNL     1       9.972   9.720  -7.566  1.00  0.00    -0.206 F 
ATOM     68  C   UNL     1       8.814  12.317  -9.803  1.00  0.00     0.022 A 
BRANCH  65  69
ATOM     69  S   UNL     1       6.316  13.145 -10.723  1.00  0.00     0.124 S 
ATOM     70  O   UNL     1       5.698  12.136 -11.578  1.00  0.00    -0.237 OA
ATOM     71  O   UNL     1       5.443  13.758  -9.727  1.00  0.00    -0.237 OA
ATOM     72  O   UNL     1       7.217  14.071 -11.408  1.00  0.00    -0.744 OA
ENDBRANCH  65  69
ENDBRANCH  39  62
ENDBRANCH  13  14
ENDBRANCH   6   8
ENDBRANCH   3   4
ENDBRANCH   2   3
ENDBRANCH   1   2
BRANCH   1  73
ATOM     73  C   UNL     1       4.221  -2.040   3.986  1.00  0.00     0.116 C 
BRANCH  73  74
ATOM     74  N   UNL     1       5.626  -2.233   4.273  1.00  0.00    -0.351 N 
ATOM     75  C   UNL     1       6.237  -3.328   4.826  1.00  0.00     0.262 C 
ATOM     76  H   UNL     1       6.219  -1.482   4.043  1.00  0.00     0.163 HD
ATOM     77  O   UNL     1       7.401  -3.200   5.207  1.00  0.00    -0.268 OA
BRANCH  75  78
ATOM     78  C   UNL     1       5.476  -4.534   5.034  1.00  0.00     0.112 A 
ATOM     79  S   UNL     1       5.332  -5.025   6.687  1.00  0.00    -0.137 S 
ATOM     80  C   UNL     1       4.864  -5.439   4.188  1.00  0.00     0.111 A 
ATOM     81  C   UNL     1       4.380  -6.377   6.291  1.00  0.00     0.067 A 
ATOM     82  C   UNL     1       4.190  -6.477   4.936  1.00  0.00     0.035 A 
BRANCH  80  83
ATOM     83  S   UNL     1       4.771  -5.468   2.457  1.00  0.00     0.263 S 
ATOM     84  O   UNL     1       4.754  -6.889   2.161  1.00  0.00    -0.201 OA
ATOM     85  O   UNL     1       3.561  -4.708   2.208  1.00  0.00    -0.201 OA
BRANCH  83  86
ATOM     86  N   UNL     1       5.926  -4.764   1.488  1.00  0.00    -0.277 N 
ATOM     87  H   UNL     1       5.704  -4.661   0.534  1.00  0.00     0.180 HD
BRANCH  86  88
ATOM     88  C   UNL     1       7.206  -4.296   1.905  1.00  0.00     0.072 A 
ATOM     89  C   UNL     1       7.477  -2.948   1.611  1.00  0.00     0.029 A 
ATOM     90  C   UNL     1       8.193  -5.092   2.519  1.00  0.00     0.061 A 
ATOM     91  C   UNL     1       8.663  -2.343   2.014  1.00  0.00     0.002 A 
ATOM     92  C   UNL     1       9.373  -4.449   2.944  1.00  0.00     0.028 A 
ATOM     93  C   UNL     1       9.604  -3.091   2.705  1.00  0.00     0.002 A 
BRANCH  90  94
ATOM     94  N   UNL     1       8.143  -6.478   2.634  1.00  0.00    -0.370 N 
ATOM     95  C   UNL     1       7.937  -7.058   3.954  1.00  0.00     0.116 C 
ATOM     96  C   UNL     1       7.903  -7.259   1.423  1.00  0.00     0.116 C 
ATOM     97  C   UNL     1       8.511  -8.467   4.040  1.00  0.00     0.021 C 
ATOM     98  C   UNL     1       8.462  -8.673   1.560  1.00  0.00     0.021 C 
ATOM     99  C   UNL     1       8.031  -9.319   2.871  1.00  0.00     0.004 C 
ENDBRANCH  90  94
ENDBRANCH  86  88
ENDBRANCH  83  86
ENDBRANCH  80  83
ENDBRANCH  75  78
ENDBRANCH  73  74
ENDBRANCH   1  73
TORSDOF 18
