REMARK SMILES CO[C@@H]1C[C@H](C(=O)NCCCCNC(=O)c2ccc(-c3c4nc(c(-c5cc(S(=O)(=O)[O-])ccc5F)c5ccc([nH]5)c(-c5cc(S(=O)(=O)[O-])ccc5F)c5nc(c(-c6cc(S(=O)(=O)[O-])ccc6F)c6ccc3[nH]6)C=C5)C=C4)cc2)N(C(=O)[C@H](CC(C)C)NC(N)=O)C1
REMARK SMILES IDX 10 1 9 2 8 3 6 4 7 5 5 7 3 8 4 9 91 10 79 11 2 12 1 13 80 14
REMARK SMILES IDX 81 15 82 16 87 17 88 18 89 20 90 21 83 24 84 25 85 26 86 27
REMARK SMILES IDX 11 28 12 29 13 30 14 31 15 33 16 34 17 35 78 36 18 37 77 38
REMARK SMILES IDX 19 39 20 40 21 41 71 42 22 43 76 44 70 45 72 46 23 47 75 48
REMARK SMILES IDX 69 49 68 50 24 52 56 53 36 54 55 55 37 56 40 57 54 58 73 59
REMARK SMILES IDX 38 60 39 61 53 63 74 64 41 65 25 66 26 67 34 68 27 69 33 70
REMARK SMILES IDX 35 71 32 72 28 73 29 74 30 75 31 76 57 77 58 78 66 79 59 80
REMARK SMILES IDX 65 81 67 82 64 83 60 84 61 85 62 86 63 87 42 88 43 89 51 90
REMARK SMILES IDX 44 91 50 92 52 93 49 94 45 95 46 96 47 97 48 98
REMARK H PARENT 8 6 87 19 89 22 89 23 13 32 72 51 40 62
REMARK Flexibility Score: inf
ROOT
ATOM      1  C   UNL     1      -2.123  10.450  -3.918  1.00  0.00     0.023 C 
ENDROOT
BRANCH   1   2
ATOM      2  C   UNL     1      -0.929   9.701  -4.514  1.00  0.00     0.116 C 
BRANCH   2   3
ATOM      3  N   UNL     1       0.191   9.684  -3.590  1.00  0.00    -0.354 N 
ATOM      4  C   UNL     1       0.597   8.743  -2.695  1.00  0.00     0.242 C 
ATOM      5  O   UNL     1       1.451   9.086  -1.862  1.00  0.00    -0.273 OA
ATOM      6  H   UNL     1       0.753  10.492  -3.616  1.00  0.00     0.163 HD
BRANCH   4   7
ATOM      7  C   UNL     1      -0.026   7.329  -2.570  1.00  0.00     0.177 C 
ATOM      8  C   UNL     1      -2.421   6.808  -2.768  1.00  0.00     0.139 C 
ATOM      9  C   UNL     1      -1.361   7.370  -1.825  1.00  0.00     0.069 C 
ATOM     10  C   UNL     1      -1.662   6.237  -3.962  1.00  0.00     0.152 C 
ATOM     11  N   UNL     1      -0.260   6.593  -3.799  1.00  0.00    -0.326 N 
BRANCH   8  12
ATOM     12  O   UNL     1      -3.275   7.875  -3.167  1.00  0.00    -0.380 OA
ATOM     13  C   UNL     1      -4.629   7.484  -3.341  1.00  0.00     0.195 C 
ENDBRANCH   8  12
BRANCH  11  14
ATOM     14  C   UNL     1       0.651   6.141  -4.732  1.00  0.00     0.246 C 
ATOM     15  O   UNL     1       0.221   5.806  -5.845  1.00  0.00    -0.272 OA
BRANCH  14  16
ATOM     16  C   UNL     1       2.123   5.775  -4.356  1.00  0.00     0.173 C 
BRANCH  16  17
ATOM     17  N   UNL     1       2.754   6.632  -3.353  1.00  0.00    -0.327 N 
ATOM     18  C   UNL     1       3.808   7.454  -3.594  1.00  0.00     0.312 C 
ATOM     19  H   UNL     1       2.389   6.611  -2.439  1.00  0.00     0.166 HD
ATOM     20  N   UNL     1       4.092   8.229  -2.517  1.00  0.00    -0.352 N 
ATOM     21  O   UNL     1       4.455   7.504  -4.625  1.00  0.00    -0.249 OA
ATOM     22  H   UNL     1       3.545   8.159  -1.701  1.00  0.00     0.161 HD
ATOM     23  H   UNL     1       4.845   8.863  -2.551  1.00  0.00     0.161 HD
ENDBRANCH  16  17
BRANCH  16  24
ATOM     24  C   UNL     1       2.315   4.296  -3.913  1.00  0.00     0.038 C 
BRANCH  24  25
ATOM     25  C   UNL     1       1.221   3.259  -4.241  1.00  0.00    -0.015 C 
ATOM     26  C   UNL     1       1.172   2.866  -5.718  1.00  0.00     0.007 C 
ATOM     27  C   UNL     1       1.452   1.986  -3.414  1.00  0.00     0.007 C 
ENDBRANCH  24  25
ENDBRANCH  16  24
ENDBRANCH  14  16
ENDBRANCH  11  14
ENDBRANCH   4   7
ENDBRANCH   2   3
ENDBRANCH   1   2
BRANCH   1  28
ATOM     28  C   UNL     1      -2.179  11.941  -4.237  1.00  0.00     0.023 C 
BRANCH  28  29
ATOM     29  C   UNL     1      -2.430  12.269  -5.706  1.00  0.00     0.116 C 
BRANCH  29  30
ATOM     30  N   UNL     1      -3.647  11.675  -6.249  1.00  0.00    -0.352 N 
ATOM     31  C   UNL     1      -4.512  12.197  -7.183  1.00  0.00     0.251 C 
ATOM     32  H   UNL     1      -3.879  10.783  -5.902  1.00  0.00     0.163 HD
ATOM     33  O   UNL     1      -5.542  11.598  -7.477  1.00  0.00    -0.269 OA
BRANCH  31  34
ATOM     34  C   UNL     1      -4.206  13.513  -7.780  1.00  0.00     0.039 A 
ATOM     35  C   UNL     1      -5.180  14.513  -7.752  1.00  0.00     0.014 A 
ATOM     36  C   UNL     1      -2.930  13.779  -8.282  1.00  0.00     0.014 A 
ATOM     37  C   UNL     1      -4.842  15.811  -8.138  1.00  0.00     0.010 A 
ATOM     38  C   UNL     1      -2.574  15.086  -8.589  1.00  0.00     0.010 A 
ATOM     39  C   UNL     1      -3.522  16.118  -8.508  1.00  0.00    -0.014 A 
BRANCH  39  40
ATOM     40  C   UNL     1      -3.103  17.512  -8.808  1.00  0.00     0.031 A 
ATOM     41  C   UNL     1      -2.591  17.857 -10.179  1.00  0.00     0.074 A 
ATOM     42  C   UNL     1      -3.100  18.436  -7.826  1.00  0.00     0.049 A 
ATOM     43  N   UNL     1      -2.062  18.973 -10.609  1.00  0.00    -0.248 NA
ATOM     44  C   UNL     1      -2.649  16.790 -11.189  1.00  0.00     0.031 C 
ATOM     45  C   UNL     1      -3.527  18.205  -6.443  1.00  0.00     0.029 A 
ATOM     46  N   UNL     1      -2.714  19.753  -7.834  1.00  0.00    -0.354 N 
ATOM     47  C   UNL     1      -1.706  18.737 -11.932  1.00  0.00     0.074 A 
ATOM     48  C   UNL     1      -2.023  17.352 -12.211  1.00  0.00     0.031 C 
ATOM     49  C   UNL     1      -3.400  19.346  -5.746  1.00  0.00     0.029 A 
ATOM     50  C   UNL     1      -2.842  20.377  -6.614  1.00  0.00     0.049 A 
ATOM     51  H   UNL     1      -2.376  20.209  -8.639  1.00  0.00     0.167 HD
ATOM     52  C   UNL     1      -1.186  19.602 -12.838  1.00  0.00     0.034 A 
ATOM     53  C   UNL     1      -2.533  21.634  -6.238  1.00  0.00     0.034 A 
ATOM     54  C   UNL     1      -0.899  20.985 -12.550  1.00  0.00     0.049 A 
ATOM     55  C   UNL     1      -1.959  22.578  -7.264  1.00  0.00     0.074 A 
ATOM     56  C   UNL     1      -0.415  21.962 -13.403  1.00  0.00     0.029 A 
ATOM     57  N   UNL     1      -1.072  21.590 -11.312  1.00  0.00    -0.354 N 
ATOM     58  N   UNL     1      -1.665  22.349  -8.524  1.00  0.00    -0.248 NA
ATOM     59  C   UNL     1      -1.685  23.951  -6.822  1.00  0.00     0.031 C 
ATOM     60  C   UNL     1      -0.250  23.142 -12.670  1.00  0.00     0.029 A 
ATOM     61  C   UNL     1      -0.691  22.921 -11.375  1.00  0.00     0.049 A 
ATOM     62  H   UNL     1      -1.416  21.139 -10.507  1.00  0.00     0.167 HD
ATOM     63  C   UNL     1      -1.205  23.561  -9.031  1.00  0.00     0.074 A 
ATOM     64  C   UNL     1      -1.272  24.518  -7.947  1.00  0.00     0.031 C 
ATOM     65  C   UNL     1      -0.768  23.858 -10.281  1.00  0.00     0.034 A 
BRANCH  52  66
ATOM     66  C   UNL     1      -0.886  19.063 -14.214  1.00  0.00     0.023 A 
ATOM     67  C   UNL     1      -1.907  18.587 -15.055  1.00  0.00     0.031 A 
ATOM     68  C   UNL     1       0.438  18.994 -14.683  1.00  0.00     0.131 A 
ATOM     69  C   UNL     1      -1.584  17.995 -16.285  1.00  0.00     0.055 A 
ATOM     70  C   UNL     1       0.746  18.477 -15.943  1.00  0.00     0.041 A 
ATOM     71  F   UNL     1       1.457  19.416 -13.917  1.00  0.00    -0.206 F 
ATOM     72  C   UNL     1      -0.266  17.960 -16.746  1.00  0.00     0.022 A 
BRANCH  69  73
ATOM     73  S   UNL     1      -2.896  17.155 -17.212  1.00  0.00     0.124 S 
ATOM     74  O   UNL     1      -3.291  16.105 -16.276  1.00  0.00    -0.237 OA
ATOM     75  O   UNL     1      -3.869  18.222 -17.422  1.00  0.00    -0.237 OA
ATOM     76  O   UNL     1      -2.217  16.684 -18.417  1.00  0.00    -0.744 OA
ENDBRANCH  69  73
ENDBRANCH  52  66
BRANCH  53  77
ATOM     77  C   UNL     1      -2.750  22.085  -4.833  1.00  0.00     0.023 A 
ATOM     78  C   UNL     1      -3.675  23.098  -4.536  1.00  0.00     0.031 A 
ATOM     79  C   UNL     1      -1.994  21.552  -3.774  1.00  0.00     0.131 A 
ATOM     80  C   UNL     1      -3.781  23.588  -3.225  1.00  0.00     0.055 A 
ATOM     81  C   UNL     1      -2.142  22.005  -2.461  1.00  0.00     0.041 A 
ATOM     82  F   UNL     1      -1.101  20.575  -4.000  1.00  0.00    -0.206 F 
ATOM     83  C   UNL     1      -3.029  23.041  -2.184  1.00  0.00     0.022 A 
BRANCH  80  84
ATOM     84  S   UNL     1      -4.850  25.022  -2.919  1.00  0.00     0.124 S 
ATOM     85  O   UNL     1      -4.305  26.003  -3.850  1.00  0.00    -0.237 OA
ATOM     86  O   UNL     1      -6.169  24.490  -3.245  1.00  0.00    -0.237 OA
ATOM     87  O   UNL     1      -4.630  25.314  -1.504  1.00  0.00    -0.744 OA
ENDBRANCH  80  84
ENDBRANCH  53  77
BRANCH  65  88
ATOM     88  C   UNL     1      -0.385  25.292 -10.546  1.00  0.00     0.023 A 
ATOM     89  C   UNL     1       0.750  25.875  -9.958  1.00  0.00     0.031 A 
ATOM     90  C   UNL     1      -1.178  26.086 -11.393  1.00  0.00     0.131 A 
ATOM     91  C   UNL     1       1.033  27.231 -10.184  1.00  0.00     0.055 A 
ATOM     92  C   UNL     1      -0.861  27.419 -11.658  1.00  0.00     0.041 A 
ATOM     93  F   UNL     1      -2.273  25.577 -11.980  1.00  0.00    -0.206 F 
ATOM     94  C   UNL     1       0.243  28.002 -11.041  1.00  0.00     0.022 A 
BRANCH  91  95
ATOM     95  S   UNL     1       2.403  27.997  -9.276  1.00  0.00     0.124 S 
ATOM     96  O   UNL     1       2.002  27.791  -7.888  1.00  0.00    -0.237 OA
ATOM     97  O   UNL     1       3.552  27.220  -9.730  1.00  0.00    -0.237 OA
ATOM     98  O   UNL     1       2.380  29.387  -9.729  1.00  0.00    -0.744 OA
ENDBRANCH  91  95
ENDBRANCH  65  88
ENDBRANCH  39  40
ENDBRANCH  31  34
ENDBRANCH  29  30
ENDBRANCH  28  29
ENDBRANCH   1  28
TORSDOF 20
