REMARK SMILES CCCCCn1c(SCC(=O)NCCCCNC(=O)c2ccc(-c3c4nc(c(-c5cc(S(=O)(=O)[O-])ccc5F)c5ccc([nH]5)c(-c5cc(S(=O)(=O)[O-])ccc5F)c5nc(c(-c6cc(S(=O)(=O)[O-])ccc6F)c6ccc3[nH]6)C=C5)C=C4)cc2)nc2ccccc2c1=O
REMARK SMILES IDX 13 1 12 2 10 3 11 4 9 6 8 7 7 8 6 9 90 10 83 11 89 12 91 13
REMARK SMILES IDX 84 14 88 15 85 16 87 17 86 18 5 19 4 20 3 21 2 22 1 23 14 24
REMARK SMILES IDX 15 25 16 26 17 27 18 28 19 30 20 31 21 32 82 33 22 34 81 35
REMARK SMILES IDX 23 36 24 37 25 38 75 39 26 40 80 41 74 42 76 43 27 44 79 45
REMARK SMILES IDX 73 46 72 47 28 49 60 50 40 51 59 52 41 53 44 54 58 55 77 56
REMARK SMILES IDX 42 57 43 58 57 60 78 61 45 62 29 63 30 64 38 65 31 66 37 67
REMARK SMILES IDX 39 68 36 69 32 70 33 71 34 72 35 73 61 74 62 75 70 76 63 77
REMARK SMILES IDX 69 78 71 79 68 80 64 81 65 82 66 83 67 84 46 85 47 86 55 87
REMARK SMILES IDX 48 88 54 89 56 90 53 91 49 92 50 93 51 94 52 95
REMARK H PARENT 12 5 17 29 76 48 44 59
REMARK Flexibility Score: inf
ROOT
ATOM      1  C   UNL     1      -0.306   5.458   4.769  1.00  0.00     0.116 C 
ENDROOT
BRANCH   1   2
ATOM      2  N   UNL     1       0.049   4.811   3.521  1.00  0.00    -0.355 N 
ATOM      3  C   UNL     1      -0.750   4.192   2.610  1.00  0.00     0.230 C 
ATOM      4  O   UNL     1      -0.268   3.952   1.499  1.00  0.00    -0.274 OA
ATOM      5  H   UNL     1       1.009   4.821   3.300  1.00  0.00     0.163 HD
BRANCH   3   6
ATOM      6  C   UNL     1      -2.209   3.889   2.884  1.00  0.00     0.178 C 
BRANCH   6   7
ATOM      7  S   UNL     1      -2.558   2.989   4.370  1.00  0.00    -0.078 SA
BRANCH   7   8
ATOM      8  C   UNL     1      -2.174   1.290   4.429  1.00  0.00     0.171 A 
ATOM      9  N   UNL     1      -1.616   0.481   3.449  1.00  0.00    -0.287 N 
ATOM     10  C   UNL     1      -1.591  -0.910   3.639  1.00  0.00     0.262 A 
ATOM     11  N   UNL     1      -2.532   0.829   5.589  1.00  0.00    -0.224 NA
ATOM     12  C   UNL     1      -1.856  -1.416   4.987  1.00  0.00     0.066 A 
ATOM     13  O   UNL     1      -1.376  -1.733   2.752  1.00  0.00    -0.269 OA
ATOM     14  C   UNL     1      -2.326  -0.506   5.915  1.00  0.00     0.079 A 
ATOM     15  C   UNL     1      -1.626  -2.754   5.329  1.00  0.00     0.016 A 
ATOM     16  C   UNL     1      -2.598  -0.947   7.212  1.00  0.00     0.029 A 
ATOM     17  C   UNL     1      -1.885  -3.183   6.630  1.00  0.00     0.001 A 
ATOM     18  C   UNL     1      -2.377  -2.280   7.571  1.00  0.00     0.002 A 
BRANCH   9  19
ATOM     19  C   UNL     1      -1.026   0.900   2.179  1.00  0.00     0.128 C 
BRANCH  19  20
ATOM     20  C   UNL     1       0.499   1.090   2.276  1.00  0.00     0.022 C 
BRANCH  20  21
ATOM     21  C   UNL     1       1.349  -0.183   2.172  1.00  0.00     0.002 C 
BRANCH  21  22
ATOM     22  C   UNL     1       1.184  -0.990   0.878  1.00  0.00    -0.003 C 
ATOM     23  C   UNL     1       1.483  -0.199  -0.387  1.00  0.00     0.004 C 
ENDBRANCH  21  22
ENDBRANCH  20  21
ENDBRANCH  19  20
ENDBRANCH   9  19
ENDBRANCH   7   8
ENDBRANCH   6   7
ENDBRANCH   3   6
ENDBRANCH   1   2
BRANCH   1  24
ATOM     24  C   UNL     1       0.157   4.685   6.003  1.00  0.00     0.023 C 
BRANCH  24  25
ATOM     25  C   UNL     1       1.665   4.474   6.123  1.00  0.00     0.023 C 
BRANCH  25  26
ATOM     26  C   UNL     1       2.523   5.721   5.964  1.00  0.00     0.116 C 
BRANCH  26  27
ATOM     27  N   UNL     1       2.157   6.808   6.861  1.00  0.00    -0.352 N 
ATOM     28  C   UNL     1       2.977   7.648   7.581  1.00  0.00     0.251 C 
ATOM     29  H   UNL     1       1.191   6.963   6.968  1.00  0.00     0.163 HD
ATOM     30  O   UNL     1       2.489   8.476   8.346  1.00  0.00    -0.269 OA
BRANCH  28  31
ATOM     31  C   UNL     1       4.443   7.499   7.467  1.00  0.00     0.039 A 
ATOM     32  C   UNL     1       5.047   7.371   6.216  1.00  0.00     0.014 A 
ATOM     33  C   UNL     1       5.207   7.397   8.633  1.00  0.00     0.014 A 
ATOM     34  C   UNL     1       6.366   6.940   6.135  1.00  0.00     0.010 A 
ATOM     35  C   UNL     1       6.560   7.059   8.544  1.00  0.00     0.010 A 
ATOM     36  C   UNL     1       7.134   6.762   7.298  1.00  0.00    -0.014 A 
BRANCH  36  37
ATOM     37  C   UNL     1       8.530   6.263   7.182  1.00  0.00     0.031 A 
ATOM     38  C   UNL     1       8.932   4.939   7.774  1.00  0.00     0.074 A 
ATOM     39  C   UNL     1       9.428   6.992   6.494  1.00  0.00     0.049 A 
ATOM     40  N   UNL     1      10.092   4.335   7.721  1.00  0.00    -0.248 NA
ATOM     41  C   UNL     1       7.910   4.198   8.530  1.00  0.00     0.031 C 
ATOM     42  C   UNL     1       9.149   8.290   5.880  1.00  0.00     0.029 A 
ATOM     43  N   UNL     1      10.739   6.744   6.172  1.00  0.00    -0.354 N 
ATOM     44  C   UNL     1       9.950   3.164   8.457  1.00  0.00     0.074 A 
ATOM     45  C   UNL     1       8.598   3.154   8.971  1.00  0.00     0.031 C 
ATOM     46  C   UNL     1      10.232   8.696   5.207  1.00  0.00     0.029 A 
ATOM     47  C   UNL     1      11.310   7.729   5.402  1.00  0.00     0.049 A 
ATOM     48  H   UNL     1      11.224   5.938   6.464  1.00  0.00     0.167 HD
ATOM     49  C   UNL     1      10.862   2.185   8.674  1.00  0.00     0.034 A 
ATOM     50  C   UNL     1      12.561   7.855   4.913  1.00  0.00     0.034 A 
ATOM     51  C   UNL     1      12.194   2.195   8.123  1.00  0.00     0.049 A 
ATOM     52  C   UNL     1      13.558   6.760   5.172  1.00  0.00     0.074 A 
ATOM     53  C   UNL     1      13.162   1.211   8.223  1.00  0.00     0.029 A 
ATOM     54  N   UNL     1      12.749   3.227   7.380  1.00  0.00    -0.354 N 
ATOM     55  N   UNL     1      13.386   5.626   5.811  1.00  0.00    -0.248 NA
ATOM     56  C   UNL     1      14.917   6.952   4.649  1.00  0.00     0.031 C 
ATOM     57  C   UNL     1      14.324   1.679   7.609  1.00  0.00     0.029 A 
ATOM     58  C   UNL     1      14.061   2.921   7.053  1.00  0.00     0.049 A 
ATOM     59  H   UNL     1      12.281   4.054   7.124  1.00  0.00     0.167 HD
ATOM     60  C   UNL     1      14.610   4.966   5.759  1.00  0.00     0.074 A 
ATOM     61  C   UNL     1      15.505   5.815   5.000  1.00  0.00     0.031 C 
ATOM     62  C   UNL     1      14.955   3.768   6.296  1.00  0.00     0.034 A 
BRANCH  49  63
ATOM     63  C   UNL     1      10.477   1.010   9.540  1.00  0.00     0.023 A 
ATOM     64  C   UNL     1      11.178   0.767  10.738  1.00  0.00     0.031 A 
ATOM     65  C   UNL     1       9.520   0.065   9.129  1.00  0.00     0.131 A 
ATOM     66  C   UNL     1      10.933  -0.405  11.465  1.00  0.00     0.055 A 
ATOM     67  C   UNL     1       9.251  -1.081   9.879  1.00  0.00     0.041 A 
ATOM     68  F   UNL     1       8.827   0.246   7.992  1.00  0.00    -0.206 F 
ATOM     69  C   UNL     1       9.968  -1.326  11.046  1.00  0.00     0.022 A 
BRANCH  66  70
ATOM     70  S   UNL     1      11.904  -0.814  12.941  1.00  0.00     0.124 S 
ATOM     71  O   UNL     1      10.873  -0.850  13.976  1.00  0.00    -0.237 OA
ATOM     72  O   UNL     1      12.473  -2.111  12.583  1.00  0.00    -0.237 OA
ATOM     73  O   UNL     1      12.858   0.284  13.051  1.00  0.00    -0.744 OA
ENDBRANCH  66  70
ENDBRANCH  49  63
BRANCH  50  74
ATOM     74  C   UNL     1      12.884   9.055   4.088  1.00  0.00     0.023 A 
ATOM     75  C   UNL     1      12.780  10.349   4.631  1.00  0.00     0.031 A 
ATOM     76  C   UNL     1      13.136   8.933   2.712  1.00  0.00     0.131 A 
ATOM     77  C   UNL     1      12.822  11.464   3.785  1.00  0.00     0.055 A 
ATOM     78  C   UNL     1      13.261  10.051   1.886  1.00  0.00     0.041 A 
ATOM     79  F   UNL     1      13.232   7.719   2.147  1.00  0.00    -0.206 F 
ATOM     80  C   UNL     1      13.079  11.325   2.419  1.00  0.00     0.022 A 
BRANCH  77  81
ATOM     81  S   UNL     1      12.381  13.112   4.403  1.00  0.00     0.124 S 
ATOM     82  O   UNL     1      13.563  13.896   4.059  1.00  0.00    -0.237 OA
ATOM     83  O   UNL     1      11.179  13.406   3.625  1.00  0.00    -0.237 OA
ATOM     84  O   UNL     1      12.159  12.899   5.829  1.00  0.00    -0.744 OA
ENDBRANCH  77  81
ENDBRANCH  50  74
BRANCH  62  85
ATOM     85  C   UNL     1      16.370   3.273   6.112  1.00  0.00     0.023 A 
ATOM     86  C   UNL     1      16.611   2.072   5.417  1.00  0.00     0.031 A 
ATOM     87  C   UNL     1      17.451   3.894   6.760  1.00  0.00     0.131 A 
ATOM     88  C   UNL     1      17.890   1.503   5.429  1.00  0.00     0.055 A 
ATOM     89  C   UNL     1      18.736   3.349   6.726  1.00  0.00     0.041 A 
ATOM     90  F   UNL     1      17.272   5.035   7.444  1.00  0.00    -0.206 F 
ATOM     91  C   UNL     1      18.956   2.139   6.073  1.00  0.00     0.022 A 
BRANCH  88  92
ATOM     92  S   UNL     1      18.197  -0.128   4.696  1.00  0.00     0.124 S 
ATOM     93  O   UNL     1      19.187   0.184   3.668  1.00  0.00    -0.237 OA
ATOM     94  O   UNL     1      18.700  -0.889   5.837  1.00  0.00    -0.237 OA
ATOM     95  O   UNL     1      16.890  -0.541   4.195  1.00  0.00    -0.744 OA
ENDBRANCH  88  92
ENDBRANCH  62  85
ENDBRANCH  36  37
ENDBRANCH  28  31
ENDBRANCH  26  27
ENDBRANCH  25  26
ENDBRANCH  24  25
ENDBRANCH   1  24
TORSDOF 20
