REMARK SMILES C[C@@H]1C[N@@H+](Cc2cccc(C(=O)NCCCCNC(=O)c3ccc(-c4c5nc(c(-c6cc(S(=O)(=O)[O-])ccc6F)c6ccc([nH]6)c(-c6cc(S(=O)(=O)[O-])ccc6F)c6nc(c(-c7cc(S(=O)(=O)[O-])ccc7F)c7ccc4[nH]7)C=C6)C=C5)cc3)c2)CCN1C(=O)OC(C)(C)C
REMARK SMILES IDX 14 1 13 2 11 3 12 4 10 6 6 7 7 8 84 9 8 10 9 11 5 12 4 13
REMARK SMILES IDX 1 14 2 15 3 16 87 17 86 18 85 19 88 21 89 22 90 23 91 24
REMARK SMILES IDX 92 25 93 26 94 27 15 28 16 29 17 30 18 31 19 32 20 34 21 35
REMARK SMILES IDX 22 36 83 37 23 38 82 39 24 40 25 41 26 42 76 43 27 44 81 45
REMARK SMILES IDX 75 46 77 47 28 48 80 49 74 50 73 51 29 53 61 54 41 55 60 56
REMARK SMILES IDX 42 57 45 58 59 59 78 60 43 61 44 62 58 64 79 65 46 66 30 67
REMARK SMILES IDX 31 68 39 69 32 70 38 71 40 72 37 73 33 74 34 75 35 76 36 77
REMARK SMILES IDX 62 78 63 79 71 80 64 81 70 82 72 83 69 84 65 85 66 86 67 87
REMARK SMILES IDX 68 88 47 89 48 90 56 91 49 92 55 93 57 94 54 95 50 96 51 97
REMARK SMILES IDX 52 98 53 99
REMARK H PARENT 13 5 4 20 18 33 77 52 45 63
REMARK Flexibility Score: inf
ROOT
ATOM      1  C   UNL     1      -2.227   4.710   3.515  1.00  0.00     0.116 C 
ENDROOT
BRANCH   1   2
ATOM      2  N   UNL     1      -2.698   6.019   3.121  1.00  0.00    -0.352 N 
ATOM      3  C   UNL     1      -2.250   6.920   2.186  1.00  0.00     0.251 C 
ATOM      4  O   UNL     1      -2.930   7.933   2.009  1.00  0.00    -0.269 OA
ATOM      5  H   UNL     1      -3.492   6.323   3.618  1.00  0.00     0.163 HD
BRANCH   3   6
ATOM      6  C   UNL     1      -1.040   6.710   1.329  1.00  0.00     0.040 A 
ATOM      7  C   UNL     1       1.039   5.569   0.705  1.00  0.00     0.007 A 
ATOM      8  C   UNL     1       1.033   6.246  -0.521  1.00  0.00     0.009 A 
ATOM      9  C   UNL     1       0.052   5.902   1.659  1.00  0.00     0.023 A 
ATOM     10  C   UNL     1       0.026   7.166  -0.812  1.00  0.00     0.001 A 
ATOM     11  C   UNL     1      -1.021   7.367   0.090  1.00  0.00     0.014 A 
BRANCH   7  12
ATOM     12  C   UNL     1       2.051   4.458   0.973  1.00  0.00     0.299 C 
BRANCH  12  13
ATOM     13  N   UNL     1       1.559   3.055   0.906  1.00  0.00    -0.328 N 
ATOM     14  C   UNL     1       1.482   0.099  -0.476  1.00  0.00     0.037 C 
ATOM     15  C   UNL     1       0.451   1.231  -0.529  1.00  0.00     0.140 C 
ATOM     16  C   UNL     1       1.102   2.656  -0.445  1.00  0.00     0.287 C 
ATOM     17  N   UNL     1      -0.554   1.062   0.537  1.00  0.00    -0.294 N 
ATOM     18  C   UNL     1      -0.081   1.387   1.880  1.00  0.00     0.185 C 
ATOM     19  C   UNL     1       0.483   2.807   1.882  1.00  0.00     0.284 C 
ATOM     20  H   UNL     1       2.367   2.479   1.140  1.00  0.00     0.348 HD
BRANCH  17  21
ATOM     21  C   UNL     1      -1.899   0.804   0.346  1.00  0.00     0.410 C 
ATOM     22  O   UNL     1      -2.714   0.816   1.257  1.00  0.00    -0.224 OA
BRANCH  21  23
ATOM     23  O   UNL     1      -2.212   0.543  -0.952  1.00  0.00    -0.444 OA
BRANCH  23  24
ATOM     24  C   UNL     1      -3.571   0.168  -1.311  1.00  0.00     0.106 C 
ATOM     25  C   UNL     1      -3.975  -1.154  -0.645  1.00  0.00     0.056 C 
ATOM     26  C   UNL     1      -4.578   1.287  -1.013  1.00  0.00     0.056 C 
ATOM     27  C   UNL     1      -3.534  -0.049  -2.832  1.00  0.00     0.056 C 
ENDBRANCH  23  24
ENDBRANCH  21  23
ENDBRANCH  17  21
ENDBRANCH  12  13
ENDBRANCH   7  12
ENDBRANCH   3   6
ENDBRANCH   1   2
BRANCH   1  28
ATOM     28  C   UNL     1      -1.387   4.777   4.791  1.00  0.00     0.023 C 
BRANCH  28  29
ATOM     29  C   UNL     1      -2.218   4.623   6.064  1.00  0.00     0.023 C 
BRANCH  29  30
ATOM     30  C   UNL     1      -2.884   3.260   6.220  1.00  0.00     0.116 C 
BRANCH  30  31
ATOM     31  N   UNL     1      -1.935   2.159   6.301  1.00  0.00    -0.352 N 
ATOM     32  C   UNL     1      -2.009   1.035   7.092  1.00  0.00     0.251 C 
ATOM     33  H   UNL     1      -1.144   2.226   5.719  1.00  0.00     0.163 HD
ATOM     34  O   UNL     1      -1.070   0.248   7.139  1.00  0.00    -0.269 OA
BRANCH  32  35
ATOM     35  C   UNL     1      -3.216   0.830   7.921  1.00  0.00     0.039 A 
ATOM     36  C   UNL     1      -3.066   0.597   9.289  1.00  0.00     0.014 A 
ATOM     37  C   UNL     1      -4.489   0.958   7.359  1.00  0.00     0.014 A 
ATOM     38  C   UNL     1      -4.197   0.568  10.107  1.00  0.00     0.010 A 
ATOM     39  C   UNL     1      -5.604   1.015   8.188  1.00  0.00     0.010 A 
ATOM     40  C   UNL     1      -5.471   0.823   9.572  1.00  0.00    -0.014 A 
BRANCH  40  41
ATOM     41  C   UNL     1      -6.673   0.893  10.447  1.00  0.00     0.031 A 
ATOM     42  C   UNL     1      -7.803  -0.083  10.249  1.00  0.00     0.074 A 
ATOM     43  C   UNL     1      -6.772   1.870  11.373  1.00  0.00     0.049 A 
ATOM     44  N   UNL     1      -8.955  -0.148  10.865  1.00  0.00    -0.248 NA
ATOM     45  C   UNL     1      -7.626  -1.104   9.203  1.00  0.00     0.031 C 
ATOM     46  C   UNL     1      -5.763   2.903  11.623  1.00  0.00     0.029 A 
ATOM     47  N   UNL     1      -7.770   2.164  12.271  1.00  0.00    -0.354 N 
ATOM     48  C   UNL     1      -9.647  -1.197  10.269  1.00  0.00     0.074 A 
ATOM     49  C   UNL     1      -8.805  -1.708   9.210  1.00  0.00     0.031 C 
ATOM     50  C   UNL     1      -6.183   3.699  12.620  1.00  0.00     0.029 A 
ATOM     51  C   UNL     1      -7.511   3.273  13.047  1.00  0.00     0.049 A 
ATOM     52  H   UNL     1      -8.594   1.632  12.351  1.00  0.00     0.167 HD
ATOM     53  C   UNL     1     -10.866  -1.695  10.587  1.00  0.00     0.034 A 
ATOM     54  C   UNL     1      -8.266   3.888  13.981  1.00  0.00     0.034 A 
ATOM     55  C   UNL     1     -11.680  -1.189  11.664  1.00  0.00     0.049 A 
ATOM     56  C   UNL     1      -9.625   3.314  14.307  1.00  0.00     0.074 A 
ATOM     57  C   UNL     1     -12.889  -1.679  12.127  1.00  0.00     0.029 A 
ATOM     58  N   UNL     1     -11.382  -0.073  12.434  1.00  0.00    -0.354 N 
ATOM     59  N   UNL     1     -10.226   2.267  13.788  1.00  0.00    -0.248 NA
ATOM     60  C   UNL     1     -10.402   3.994  15.352  1.00  0.00     0.031 C 
ATOM     61  C   UNL     1     -13.365  -0.809  13.111  1.00  0.00     0.029 A 
ATOM     62  C   UNL     1     -12.408   0.167  13.336  1.00  0.00     0.049 A 
ATOM     63  H   UNL     1     -10.564   0.468  12.352  1.00  0.00     0.167 HD
ATOM     64  C   UNL     1     -11.434   2.145  14.472  1.00  0.00     0.074 A 
ATOM     65  C   UNL     1     -11.465   3.210  15.452  1.00  0.00     0.031 C 
ATOM     66  C   UNL     1     -12.427   1.234  14.308  1.00  0.00     0.034 A 
BRANCH  53  67
ATOM     67  C   UNL     1     -11.413  -2.823   9.746  1.00  0.00     0.023 A 
ATOM     68  C   UNL     1     -10.803  -4.088   9.702  1.00  0.00     0.031 A 
ATOM     69  C   UNL     1     -12.585  -2.631   8.993  1.00  0.00     0.131 A 
ATOM     70  C   UNL     1     -11.341  -5.096   8.886  1.00  0.00     0.055 A 
ATOM     71  C   UNL     1     -13.157  -3.659   8.243  1.00  0.00     0.041 A 
ATOM     72  F   UNL     1     -13.198  -1.436   8.976  1.00  0.00    -0.206 F 
ATOM     73  C   UNL     1     -12.529  -4.899   8.179  1.00  0.00     0.022 A 
BRANCH  70  74
ATOM     74  S   UNL     1     -10.405  -6.635   8.673  1.00  0.00     0.124 S 
ATOM     75  O   UNL     1      -9.151  -6.143   8.108  1.00  0.00    -0.237 OA
ATOM     76  O   UNL     1     -10.332  -7.152  10.035  1.00  0.00    -0.237 OA
ATOM     77  O   UNL     1     -11.231  -7.414   7.753  1.00  0.00    -0.744 OA
ENDBRANCH  70  74
ENDBRANCH  53  67
BRANCH  54  78
ATOM     78  C   UNL     1      -7.790   5.134  14.656  1.00  0.00     0.023 A 
ATOM     79  C   UNL     1      -7.628   5.191  16.050  1.00  0.00     0.031 A 
ATOM     80  C   UNL     1      -7.572   6.315  13.924  1.00  0.00     0.131 A 
ATOM     81  C   UNL     1      -7.336   6.415  16.674  1.00  0.00     0.055 A 
ATOM     82  C   UNL     1      -7.209   7.514  14.542  1.00  0.00     0.041 A 
ATOM     83  F   UNL     1      -7.712   6.324  12.589  1.00  0.00    -0.206 F 
ATOM     84  C   UNL     1      -7.110   7.573  15.928  1.00  0.00     0.022 A 
BRANCH  81  85
ATOM     85  S   UNL     1      -7.395   6.503  18.486  1.00  0.00     0.124 S 
ATOM     86  O   UNL     1      -8.737   6.003  18.761  1.00  0.00    -0.237 OA
ATOM     87  O   UNL     1      -6.293   5.626  18.866  1.00  0.00    -0.237 OA
ATOM     88  O   UNL     1      -7.187   7.922  18.764  1.00  0.00    -0.744 OA
ENDBRANCH  81  85
ENDBRANCH  54  78
BRANCH  66  89
ATOM     89  C   UNL     1     -13.605   1.318  15.250  1.00  0.00     0.023 A 
ATOM     90  C   UNL     1     -14.479   2.418  15.254  1.00  0.00     0.031 A 
ATOM     91  C   UNL     1     -13.851   0.276  16.162  1.00  0.00     0.131 A 
ATOM     92  C   UNL     1     -15.520   2.480  16.192  1.00  0.00     0.055 A 
ATOM     93  C   UNL     1     -14.932   0.309  17.044  1.00  0.00     0.041 A 
ATOM     94  F   UNL     1     -13.047  -0.799  16.207  1.00  0.00    -0.206 F 
ATOM     95  C   UNL     1     -15.765   1.423  17.072  1.00  0.00     0.022 A 
BRANCH  92  96
ATOM     96  S   UNL     1     -16.490   4.008  16.318  1.00  0.00     0.124 S 
ATOM     97  O   UNL     1     -15.457   4.998  16.604  1.00  0.00    -0.237 OA
ATOM     98  O   UNL     1     -17.109   4.095  15.000  1.00  0.00    -0.237 OA
ATOM     99  O   UNL     1     -17.413   3.738  17.419  1.00  0.00    -0.744 OA
ENDBRANCH  92  96
ENDBRANCH  66  89
ENDBRANCH  40  41
ENDBRANCH  32  35
ENDBRANCH  30  31
ENDBRANCH  29  30
ENDBRANCH  28  29
ENDBRANCH   1  28
TORSDOF 19
