REMARK SMILES O=C(NCc1ccsc1)NC[C@H]1CC[C@@H](C(=O)NCCCCNC(=O)c2ccc(-c3c4nc(c(-c5cc(S(=O)(=O)[O-])ccc5F)c5ccc([nH]5)c(-c5cc(S(=O)(=O)[O-])ccc5F)c5nc(c(-c6cc(S(=O)(=O)[O-])ccc6F)c6ccc3[nH]6)C=C5)C=C4)cc2)CC1
REMARK SMILES IDX 20 1 19 2 18 3 16 4 17 5 15 7 12 8 13 9 90 10 14 11 89 12
REMARK SMILES IDX 11 13 10 14 1 15 2 16 3 17 4 20 5 21 6 22 9 23 7 24 8 25
REMARK SMILES IDX 21 26 22 27 23 28 24 29 25 31 26 32 27 33 88 34 28 35 87 36
REMARK SMILES IDX 29 37 30 38 31 39 81 40 32 41 86 42 80 43 82 44 33 45 85 46
REMARK SMILES IDX 79 47 78 48 34 50 66 51 46 52 65 53 47 54 50 55 64 56 83 57
REMARK SMILES IDX 48 58 49 59 63 61 84 62 51 63 35 64 36 65 44 66 37 67 43 68
REMARK SMILES IDX 45 69 42 70 38 71 39 72 40 73 41 74 67 75 68 76 76 77 69 78
REMARK SMILES IDX 75 79 77 80 74 81 70 82 71 83 72 84 73 85 52 86 53 87 61 88
REMARK SMILES IDX 54 89 60 90 62 91 59 92 55 93 56 94 57 95 58 96
REMARK H PARENT 18 6 3 18 10 19 23 30 82 49 50 60
REMARK Flexibility Score: inf
ROOT
ATOM      1  C   UNL     1      -0.483  -3.459   3.328  1.00  0.00     0.023 C 
ENDROOT
BRANCH   1   2
ATOM      2  C   UNL     1       0.818  -3.756   4.070  1.00  0.00     0.116 C 
BRANCH   2   3
ATOM      3  N   UNL     1       1.018  -5.161   4.338  1.00  0.00    -0.356 N 
ATOM      4  C   UNL     1       1.903  -6.075   3.874  1.00  0.00     0.223 C 
ATOM      5  O   UNL     1       1.852  -7.189   4.413  1.00  0.00    -0.275 OA
ATOM      6  H   UNL     1       0.380  -5.530   4.991  1.00  0.00     0.163 HD
BRANCH   4   7
ATOM      7  C   UNL     1       2.931  -5.847   2.751  1.00  0.00     0.078 C 
ATOM      8  C   UNL     1       3.232  -3.190   1.345  1.00  0.00     0.008 C 
ATOM      9  C   UNL     1       3.981  -3.478   2.662  1.00  0.00     0.006 C 
ATOM     10  C   UNL     1       2.128  -4.194   0.963  1.00  0.00     0.006 C 
ATOM     11  C   UNL     1       4.120  -4.942   3.056  1.00  0.00     0.014 C 
ATOM     12  C   UNL     1       2.367  -5.639   1.353  1.00  0.00     0.014 C 
BRANCH   8  13
ATOM     13  C   UNL     1       2.622  -1.765   1.386  1.00  0.00     0.121 C 
BRANCH  13  14
ATOM     14  N   UNL     1       3.279  -0.843   0.491  1.00  0.00    -0.338 N 
ATOM     15  O   UNL     1       1.344  -0.108  -0.472  1.00  0.00    -0.249 OA
ATOM     16  C   UNL     1       2.563  -0.049  -0.351  1.00  0.00     0.315 C 
ATOM     17  N   UNL     1       3.253   0.837  -1.101  1.00  0.00    -0.334 N 
ATOM     18  H   UNL     1       2.695   1.473  -1.603  1.00  0.00     0.165 HD
ATOM     19  H   UNL     1       4.262  -0.787   0.490  1.00  0.00     0.165 HD
BRANCH  17  20
ATOM     20  C   UNL     1       4.673   1.005  -1.286  1.00  0.00     0.154 C 
BRANCH  20  21
ATOM     21  C   UNL     1       5.056   0.328  -2.565  1.00  0.00    -0.018 A 
ATOM     22  C   UNL     1       4.926  -1.080  -2.819  1.00  0.00     0.017 A 
ATOM     23  C   UNL     1       5.575   0.975  -3.672  1.00  0.00     0.070 A 
ATOM     24  C   UNL     1       5.332  -1.433  -4.086  1.00  0.00     0.065 A 
ATOM     25  S   UNL     1       5.890  -0.086  -4.976  1.00  0.00    -0.152 S 
ENDBRANCH  20  21
ENDBRANCH  17  20
ENDBRANCH  13  14
ENDBRANCH   8  13
ENDBRANCH   4   7
ENDBRANCH   2   3
ENDBRANCH   1   2
BRANCH   1  26
ATOM     26  C   UNL     1      -1.629  -2.960   4.201  1.00  0.00     0.023 C 
BRANCH  26  27
ATOM     27  C   UNL     1      -1.344  -1.695   5.007  1.00  0.00     0.116 C 
BRANCH  27  28
ATOM     28  N   UNL     1      -0.866  -0.559   4.229  1.00  0.00    -0.352 N 
ATOM     29  C   UNL     1      -1.050   0.780   4.503  1.00  0.00     0.251 C 
ATOM     30  H   UNL     1      -0.354  -0.772   3.415  1.00  0.00     0.163 HD
ATOM     31  O   UNL     1      -0.602   1.643   3.756  1.00  0.00    -0.269 OA
BRANCH  29  32
ATOM     32  C   UNL     1      -1.855   1.152   5.684  1.00  0.00     0.039 A 
ATOM     33  C   UNL     1      -3.003   1.927   5.500  1.00  0.00     0.014 A 
ATOM     34  C   UNL     1      -1.545   0.625   6.939  1.00  0.00     0.014 A 
ATOM     35  C   UNL     1      -3.899   2.087   6.559  1.00  0.00     0.010 A 
ATOM     36  C   UNL     1      -2.476   0.720   7.967  1.00  0.00     0.010 A 
ATOM     37  C   UNL     1      -3.670   1.437   7.782  1.00  0.00    -0.014 A 
BRANCH  37  38
ATOM     38  C   UNL     1      -4.675   1.465   8.877  1.00  0.00     0.031 A 
ATOM     39  C   UNL     1      -4.319   2.075  10.204  1.00  0.00     0.074 A 
ATOM     40  C   UNL     1      -5.860   0.845   8.712  1.00  0.00     0.049 A 
ATOM     41  N   UNL     1      -4.998   2.085  11.321  1.00  0.00    -0.248 NA
ATOM     42  C   UNL     1      -2.999   2.716  10.293  1.00  0.00     0.031 C 
ATOM     43  C   UNL     1      -6.293   0.151   7.496  1.00  0.00     0.029 A 
ATOM     44  N   UNL     1      -6.911   0.677   9.578  1.00  0.00    -0.354 N 
ATOM     45  C   UNL     1      -4.175   2.702  12.257  1.00  0.00     0.074 A 
ATOM     46  C   UNL     1      -2.926   2.996  11.585  1.00  0.00     0.031 C 
ATOM     47  C   UNL     1      -7.522  -0.353   7.690  1.00  0.00     0.029 A 
ATOM     48  C   UNL     1      -7.952  -0.052   9.051  1.00  0.00     0.049 A 
ATOM     49  H   UNL     1      -6.920   1.044  10.491  1.00  0.00     0.167 HD
ATOM     50  C   UNL     1      -4.443   3.012  13.550  1.00  0.00     0.034 A 
ATOM     51  C   UNL     1      -9.116  -0.444   9.606  1.00  0.00     0.034 A 
ATOM     52  C   UNL     1      -5.706   2.742  14.192  1.00  0.00     0.049 A 
ATOM     53  C   UNL     1      -9.415  -0.049  11.027  1.00  0.00     0.074 A 
ATOM     54  C   UNL     1      -6.121   3.091  15.465  1.00  0.00     0.029 A 
ATOM     55  N   UNL     1      -6.761   2.051  13.608  1.00  0.00    -0.354 N 
ATOM     56  N   UNL     1      -8.653   0.595  11.881  1.00  0.00    -0.248 NA
ATOM     57  C   UNL     1     -10.734  -0.421  11.554  1.00  0.00     0.031 C 
ATOM     58  C   UNL     1      -7.404   2.569  15.668  1.00  0.00     0.029 A 
ATOM     59  C   UNL     1      -7.815   1.944  14.502  1.00  0.00     0.049 A 
ATOM     60  H   UNL     1      -6.759   1.689  12.692  1.00  0.00     0.167 HD
ATOM     61  C   UNL     1      -9.411   0.723  13.041  1.00  0.00     0.074 A 
ATOM     62  C   UNL     1     -10.692   0.101  12.771  1.00  0.00     0.031 C 
ATOM     63  C   UNL     1      -9.080   1.307  14.221  1.00  0.00     0.034 A 
BRANCH  50  64
ATOM     64  C   UNL     1      -3.333   3.655  14.347  1.00  0.00     0.023 A 
ATOM     65  C   UNL     1      -2.792   4.902  13.985  1.00  0.00     0.031 A 
ATOM     66  C   UNL     1      -2.765   2.987  15.445  1.00  0.00     0.131 A 
ATOM     67  C   UNL     1      -1.655   5.391  14.646  1.00  0.00     0.055 A 
ATOM     68  C   UNL     1      -1.690   3.523  16.157  1.00  0.00     0.041 A 
ATOM     69  F   UNL     1      -3.226   1.786  15.829  1.00  0.00    -0.206 F 
ATOM     70  C   UNL     1      -1.115   4.722  15.746  1.00  0.00     0.022 A 
BRANCH  67  71
ATOM     71  S   UNL     1      -0.794   6.820  13.935  1.00  0.00     0.124 S 
ATOM     72  O   UNL     1      -0.467   6.331  12.597  1.00  0.00    -0.237 OA
ATOM     73  O   UNL     1      -1.808   7.865  14.003  1.00  0.00    -0.237 OA
ATOM     74  O   UNL     1       0.354   7.004  14.820  1.00  0.00    -0.744 OA
ENDBRANCH  67  71
ENDBRANCH  50  64
BRANCH  51  75
ATOM     75  C   UNL     1     -10.084  -1.258   8.820  1.00  0.00     0.023 A 
ATOM     76  C   UNL     1     -11.309  -0.716   8.400  1.00  0.00     0.031 A 
ATOM     77  C   UNL     1      -9.804  -2.596   8.494  1.00  0.00     0.131 A 
ATOM     78  C   UNL     1     -12.226  -1.520   7.707  1.00  0.00     0.055 A 
ATOM     79  C   UNL     1     -10.704  -3.381   7.771  1.00  0.00     0.041 A 
ATOM     80  F   UNL     1      -8.640  -3.155   8.863  1.00  0.00    -0.206 F 
ATOM     81  C   UNL     1     -11.928  -2.846   7.381  1.00  0.00     0.022 A 
BRANCH  78  82
ATOM     82  S   UNL     1     -13.844  -0.821   7.278  1.00  0.00     0.124 S 
ATOM     83  O   UNL     1     -14.385  -0.493   8.592  1.00  0.00    -0.237 OA
ATOM     84  O   UNL     1     -13.471   0.312   6.437  1.00  0.00    -0.237 OA
ATOM     85  O   UNL     1     -14.514  -1.916   6.581  1.00  0.00    -0.744 OA
ENDBRANCH  78  82
ENDBRANCH  51  75
BRANCH  63  86
ATOM     86  C   UNL     1     -10.141   1.328  15.290  1.00  0.00     0.023 A 
ATOM     87  C   UNL     1     -10.548   0.155  15.949  1.00  0.00     0.031 A 
ATOM     88  C   UNL     1     -10.761   2.539  15.645  1.00  0.00     0.131 A 
ATOM     89  C   UNL     1     -11.579   0.211  16.898  1.00  0.00     0.055 A 
ATOM     90  C   UNL     1     -11.752   2.596  16.625  1.00  0.00     0.041 A 
ATOM     91  F   UNL     1     -10.409   3.687  15.044  1.00  0.00    -0.206 F 
ATOM     92  C   UNL     1     -12.174   1.426  17.250  1.00  0.00     0.022 A 
BRANCH  89  93
ATOM     93  S   UNL     1     -12.188  -1.339  17.617  1.00  0.00     0.124 S 
ATOM     94  O   UNL     1     -12.640  -2.066  16.435  1.00  0.00    -0.237 OA
ATOM     95  O   UNL     1     -10.996  -1.868  18.274  1.00  0.00    -0.237 OA
ATOM     96  O   UNL     1     -13.251  -0.904  18.522  1.00  0.00    -0.744 OA
ENDBRANCH  89  93
ENDBRANCH  63  86
ENDBRANCH  37  38
ENDBRANCH  29  32
ENDBRANCH  27  28
ENDBRANCH  26  27
ENDBRANCH   1  26
TORSDOF 18
