REMARK SMILES CSCC[C@@H](C(=O)NCCCCNC(=O)c1ccc(-c2c3nc(c(-c4cc(S(=O)(=O)[O-])ccc4F)c4ccc([nH]4)c(-c4cc(S(=O)(=O)[O-])ccc4F)c4nc(c(-c5cc(S(=O)(=O)[O-])ccc5F)c5ccc2[nH]5)C=C4)C=C3)cc1)N1C(=O)/C(=C/c2ccc(-c3ccccc3Cl)o2)SC1=S
REMARK SMILES IDX 10 1 9 2 8 3 6 4 7 5 5 7 4 8 3 9 2 10 1 11 79 12 80 13 97 14
REMARK SMILES IDX 81 15 82 16 96 17 98 18 83 19 84 20 85 21 95 22 86 23 87 24
REMARK SMILES IDX 88 25 89 26 93 27 90 28 92 29 94 30 91 31 11 32 12 33 13 34
REMARK SMILES IDX 14 35 15 37 16 38 17 39 78 40 18 41 77 42 19 43 20 44 21 45
REMARK SMILES IDX 71 46 22 47 76 48 70 49 72 50 23 51 75 52 69 53 68 54 24 56
REMARK SMILES IDX 56 57 36 58 55 59 37 60 40 61 54 62 73 63 38 64 39 65 53 67
REMARK SMILES IDX 74 68 41 69 25 70 26 71 34 72 27 73 33 74 35 75 32 76 28 77
REMARK SMILES IDX 29 78 30 79 31 80 57 81 58 82 66 83 59 84 65 85 67 86 64 87
REMARK SMILES IDX 60 88 61 89 62 90 63 91 42 92 43 93 51 94 44 95 50 96 52 97
REMARK SMILES IDX 49 98 45 99 46 100 47 101 48 102
REMARK H PARENT 8 6 13 36 72 55 40 66
REMARK Flexibility Score: inf
ROOT
ATOM      1  C   UNL     1       3.263   2.316   2.140  1.00  0.00     0.023 C 
ENDROOT
BRANCH   1   2
ATOM      2  C   UNL     1       3.269   0.841   1.730  1.00  0.00     0.116 C 
BRANCH   2   3
ATOM      3  N   UNL     1       3.398   0.002   2.899  1.00  0.00    -0.354 N 
ATOM      4  C   UNL     1       2.480  -0.750   3.564  1.00  0.00     0.243 C 
ATOM      5  O   UNL     1       2.874  -1.306   4.594  1.00  0.00    -0.273 OA
ATOM      6  H   UNL     1       4.306  -0.033   3.279  1.00  0.00     0.163 HD
BRANCH   4   7
ATOM      7  C   UNL     1       1.024  -0.925   3.047  1.00  0.00     0.182 C 
BRANCH   7   8
ATOM      8  C   UNL     1       0.082   0.270   3.309  1.00  0.00     0.046 C 
BRANCH   8   9
ATOM      9  C   UNL     1      -0.178   1.302   2.211  1.00  0.00     0.072 C 
BRANCH   9  10
ATOM     10  S   UNL     1      -1.331   0.770   0.903  1.00  0.00    -0.165 SA
ATOM     11  C   UNL     1      -0.192   0.016  -0.281  1.00  0.00     0.085 C 
ENDBRANCH   9  10
ENDBRANCH   8   9
ENDBRANCH   7   8
BRANCH   7  12
ATOM     12  N   UNL     1       0.561  -2.199   3.691  1.00  0.00    -0.280 N 
ATOM     13  C   UNL     1       0.903  -3.392   3.060  1.00  0.00     0.267 C 
ATOM     14  C   UNL     1       0.018  -2.341   4.959  1.00  0.00     0.149 C 
ATOM     15  O   UNL     1       1.475  -3.494   1.982  1.00  0.00    -0.268 OA
ATOM     16  C   UNL     1       0.463  -4.568   3.863  1.00  0.00     0.084 C 
ATOM     17  S   UNL     1      -0.415  -4.023   5.234  1.00  0.00    -0.054 SA
ATOM     18  S   UNL     1      -0.280  -1.220   6.162  1.00  0.00    -0.052 S 
ATOM     19  C   UNL     1       0.747  -5.840   3.541  1.00  0.00     0.068 C 
BRANCH  19  20
ATOM     20  C   UNL     1       0.173  -6.940   4.244  1.00  0.00     0.128 A 
ATOM     21  C   UNL     1      -1.175  -7.267   4.350  1.00  0.00     0.051 A 
ATOM     22  O   UNL     1       0.888  -7.891   4.947  1.00  0.00    -0.457 OA
ATOM     23  C   UNL     1      -1.286  -8.404   5.173  1.00  0.00     0.051 A 
ATOM     24  C   UNL     1      -0.003  -8.742   5.536  1.00  0.00     0.136 A 
BRANCH  24  25
ATOM     25  C   UNL     1       0.513  -9.819   6.374  1.00  0.00     0.036 A 
ATOM     26  C   UNL     1       0.053 -11.126   6.121  1.00  0.00     0.013 A 
ATOM     27  C   UNL     1       1.348  -9.613   7.484  1.00  0.00     0.052 A 
ATOM     28  C   UNL     1       0.401 -12.193   6.953  1.00  0.00     0.001 A 
ATOM     29  C   UNL     1       1.695 -10.687   8.317  1.00  0.00     0.021 A 
ATOM     30  Cl  UNL     1       1.927  -8.048   7.938  1.00  0.00    -0.084 Cl
ATOM     31  C   UNL     1       1.218 -11.972   8.056  1.00  0.00     0.002 A 
ENDBRANCH  24  25
ENDBRANCH  19  20
ENDBRANCH   7  12
ENDBRANCH   4   7
ENDBRANCH   2   3
ENDBRANCH   1   2
BRANCH   1  32
ATOM     32  C   UNL     1       4.654   2.950   2.148  1.00  0.00     0.023 C 
BRANCH  32  33
ATOM     33  C   UNL     1       5.240   3.168   0.757  1.00  0.00     0.116 C 
BRANCH  33  34
ATOM     34  N   UNL     1       4.465   4.098  -0.055  1.00  0.00    -0.352 N 
ATOM     35  C   UNL     1       4.927   5.052  -0.932  1.00  0.00     0.251 C 
ATOM     36  H   UNL     1       3.486   4.035   0.035  1.00  0.00     0.163 HD
ATOM     37  O   UNL     1       4.145   5.828  -1.472  1.00  0.00    -0.269 OA
BRANCH  35  38
ATOM     38  C   UNL     1       6.381   5.155  -1.166  1.00  0.00     0.039 A 
ATOM     39  C   UNL     1       7.011   6.387  -0.984  1.00  0.00     0.014 A 
ATOM     40  C   UNL     1       7.125   4.011  -1.467  1.00  0.00     0.014 A 
ATOM     41  C   UNL     1       8.405   6.455  -1.018  1.00  0.00     0.010 A 
ATOM     42  C   UNL     1       8.512   4.067  -1.420  1.00  0.00     0.010 A 
ATOM     43  C   UNL     1       9.167   5.287  -1.187  1.00  0.00    -0.014 A 
BRANCH  43  44
ATOM     44  C   UNL     1      10.651   5.314  -1.123  1.00  0.00     0.031 A 
ATOM     45  C   UNL     1      11.456   4.912  -2.328  1.00  0.00     0.074 A 
ATOM     46  C   UNL     1      11.267   5.616   0.037  1.00  0.00     0.049 A 
ATOM     47  N   UNL     1      12.749   4.758  -2.448  1.00  0.00    -0.248 NA
ATOM     48  C   UNL     1      10.697   4.602  -3.549  1.00  0.00     0.031 C 
ATOM     49  C   UNL     1      10.591   5.967   1.289  1.00  0.00     0.029 A 
ATOM     50  N   UNL     1      12.600   5.664   0.359  1.00  0.00    -0.354 N 
ATOM     51  C   UNL     1      12.957   4.315  -3.749  1.00  0.00     0.074 A 
ATOM     52  C   UNL     1      11.651   4.159  -4.353  1.00  0.00     0.031 C 
ATOM     53  C   UNL     1      11.514   6.214   2.234  1.00  0.00     0.029 A 
ATOM     54  C   UNL     1      12.843   6.000   1.671  1.00  0.00     0.049 A 
ATOM     55  H   UNL     1      13.317   5.475  -0.289  1.00  0.00     0.167 HD
ATOM     56  C   UNL     1      14.130   4.086  -4.391  1.00  0.00     0.034 A 
ATOM     57  C   UNL     1      14.005   6.112   2.346  1.00  0.00     0.034 A 
ATOM     58  C   UNL     1      15.424   4.269  -3.780  1.00  0.00     0.049 A 
ATOM     59  C   UNL     1      15.297   5.860   1.611  1.00  0.00     0.074 A 
ATOM     60  C   UNL     1      16.676   4.119  -4.348  1.00  0.00     0.029 A 
ATOM     61  N   UNL     1      15.631   4.642  -2.458  1.00  0.00    -0.354 N 
ATOM     62  N   UNL     1      15.479   5.488   0.365  1.00  0.00    -0.248 NA
ATOM     63  C   UNL     1      16.539   6.056   2.370  1.00  0.00     0.031 C 
ATOM     64  C   UNL     1      17.638   4.348  -3.358  1.00  0.00     0.029 A 
ATOM     65  C   UNL     1      16.989   4.708  -2.188  1.00  0.00     0.049 A 
ATOM     66  H   UNL     1      14.917   4.833  -1.807  1.00  0.00     0.167 HD
ATOM     67  C   UNL     1      16.858   5.434   0.184  1.00  0.00     0.074 A 
ATOM     68  C   UNL     1      17.458   5.826   1.444  1.00  0.00     0.031 C 
ATOM     69  C   UNL     1      17.567   5.095  -0.923  1.00  0.00     0.034 A 
BRANCH  56  70
ATOM     70  C   UNL     1      14.052   3.599  -5.818  1.00  0.00     0.023 A 
ATOM     71  C   UNL     1      13.465   4.380  -6.830  1.00  0.00     0.031 A 
ATOM     72  C   UNL     1      14.528   2.323  -6.166  1.00  0.00     0.131 A 
ATOM     73  C   UNL     1      13.288   3.846  -8.114  1.00  0.00     0.055 A 
ATOM     74  C   UNL     1      14.427   1.831  -7.469  1.00  0.00     0.041 A 
ATOM     75  F   UNL     1      15.079   1.523  -5.240  1.00  0.00    -0.206 F 
ATOM     76  C   UNL     1      13.788   2.586  -8.448  1.00  0.00     0.022 A 
BRANCH  73  77
ATOM     77  S   UNL     1      12.256   4.759  -9.294  1.00  0.00     0.124 S 
ATOM     78  O   UNL     1      10.978   4.810  -8.587  1.00  0.00    -0.237 OA
ATOM     79  O   UNL     1      12.967   6.025  -9.421  1.00  0.00    -0.237 OA
ATOM     80  O   UNL     1      12.267   3.913 -10.485  1.00  0.00    -0.744 OA
ENDBRANCH  73  77
ENDBRANCH  56  70
BRANCH  57  81
ATOM     81  C   UNL     1      14.009   6.473   3.792  1.00  0.00     0.023 A 
ATOM     82  C   UNL     1      14.560   7.687   4.232  1.00  0.00     0.031 A 
ATOM     83  C   UNL     1      13.498   5.591   4.761  1.00  0.00     0.131 A 
ATOM     84  C   UNL     1      14.632   7.966   5.605  1.00  0.00     0.055 A 
ATOM     85  C   UNL     1      13.527   5.895   6.123  1.00  0.00     0.041 A 
ATOM     86  F   UNL     1      12.951   4.421   4.393  1.00  0.00    -0.206 F 
ATOM     87  C   UNL     1      14.110   7.084   6.553  1.00  0.00     0.022 A 
BRANCH  84  88
ATOM     88  S   UNL     1      15.495   9.469   6.141  1.00  0.00     0.124 S 
ATOM     89  O   UNL     1      16.820   9.274   5.562  1.00  0.00    -0.237 OA
ATOM     90  O   UNL     1      14.679  10.517   5.538  1.00  0.00    -0.237 OA
ATOM     91  O   UNL     1      15.434   9.395   7.599  1.00  0.00    -0.744 OA
ENDBRANCH  84  88
ENDBRANCH  57  81
BRANCH  69  92
ATOM     92  C   UNL     1      19.069   5.182  -0.825  1.00  0.00     0.023 A 
ATOM     93  C   UNL     1      19.810   4.305  -0.014  1.00  0.00     0.031 A 
ATOM     94  C   UNL     1      19.767   6.165  -1.549  1.00  0.00     0.131 A 
ATOM     95  C   UNL     1      21.200   4.461   0.094  1.00  0.00     0.055 A 
ATOM     96  C   UNL     1      21.155   6.280  -1.481  1.00  0.00     0.041 A 
ATOM     97  F   UNL     1      19.107   7.028  -2.338  1.00  0.00    -0.206 F 
ATOM     98  C   UNL     1      21.879   5.433  -0.646  1.00  0.00     0.022 A 
BRANCH  95  99
ATOM     99  S   UNL     1      22.102   3.429   1.281  1.00  0.00     0.124 S 
ATOM    100  O   UNL     1      21.452   3.775   2.541  1.00  0.00    -0.237 OA
ATOM    101  O   UNL     1      21.846   2.082   0.781  1.00  0.00    -0.237 OA
ATOM    102  O   UNL     1      23.485   3.885   1.151  1.00  0.00    -0.744 OA
ENDBRANCH  95  99
ENDBRANCH  69  92
ENDBRANCH  43  44
ENDBRANCH  35  38
ENDBRANCH  33  34
ENDBRANCH  32  33
ENDBRANCH   1  32
TORSDOF 20
