REMARK SMILES CCc1ccc2[nH]c(C(=O)c3cc(C)ccn3)c(CC(=O)NCCCCNC(=O)c3ccc(-c4c5nc(c(-c6cc(S(=O)(=O)[O-])ccc6F)c6ccc([nH]6)c(-c6cc(S(=O)(=O)[O-])ccc6F)c6nc(c(-c7cc(S(=O)(=O)[O-])ccc7F)c7ccc4[nH]7)C=C6)C=C5)cc3)c2c1
REMARK SMILES IDX 24 1 23 2 22 3 20 4 21 5 19 7 18 8 3 9 4 10 94 11 5 12 93 13
REMARK SMILES IDX 6 14 7 15 8 16 2 18 1 19 9 20 10 21 11 22 12 23 17 24 13 25
REMARK SMILES IDX 16 26 14 27 15 28 25 29 26 30 27 31 28 32 29 34 30 35 31 36
REMARK SMILES IDX 92 37 32 38 91 39 33 40 34 41 35 42 85 43 36 44 90 45 84 46
REMARK SMILES IDX 86 47 37 48 89 49 83 50 82 51 38 53 70 54 50 55 69 56 51 57
REMARK SMILES IDX 54 58 68 59 87 60 52 61 53 62 67 64 88 65 55 66 39 67 40 68
REMARK SMILES IDX 48 69 41 70 47 71 49 72 46 73 42 74 43 75 44 76 45 77 71 78
REMARK SMILES IDX 72 79 80 80 73 81 79 82 81 83 78 84 74 85 75 86 76 87 77 88
REMARK SMILES IDX 56 89 57 90 65 91 58 92 64 93 66 94 63 95 59 96 60 97 61 98
REMARK SMILES IDX 62 99
REMARK H PARENT 22 6 7 17 27 33 86 52 54 63
REMARK Flexibility Score: inf
ROOT
ATOM      1  C   UNL     1       4.151   5.165  -2.069  1.00  0.00     0.023 C 
ENDROOT
BRANCH   1   2
ATOM      2  C   UNL     1       3.151   5.901  -1.179  1.00  0.00     0.116 C 
BRANCH   2   3
ATOM      3  N   UNL     1       2.716   7.158  -1.749  1.00  0.00    -0.356 N 
ATOM      4  C   UNL     1       1.525   7.485  -2.333  1.00  0.00     0.224 C 
ATOM      5  O   UNL     1       1.321   8.681  -2.558  1.00  0.00    -0.275 OA
ATOM      6  H   UNL     1       3.376   7.887  -1.709  1.00  0.00     0.163 HD
BRANCH   4   7
ATOM      7  C   UNL     1       0.439   6.439  -2.570  1.00  0.00     0.138 C 
BRANCH   7   8
ATOM      8  C   UNL     1       0.858   5.257  -3.404  1.00  0.00    -0.002 A 
ATOM      9  C   UNL     1       0.801   1.869  -1.572  1.00  0.00    -0.048 A 
ATOM     10  C   UNL     1       1.355   1.146  -2.633  1.00  0.00     0.006 A 
ATOM     11  C   UNL     1       0.560   3.245  -1.745  1.00  0.00     0.014 A 
ATOM     12  C   UNL     1       1.688   1.760  -3.848  1.00  0.00     0.027 A 
ATOM     13  C   UNL     1       0.900   3.894  -2.952  1.00  0.00     0.004 A 
ATOM     14  C   UNL     1       1.448   3.132  -3.975  1.00  0.00     0.046 A 
ATOM     15  N   UNL     1       1.692   3.983  -5.024  1.00  0.00    -0.352 N 
ATOM     16  C   UNL     1       1.248   5.260  -4.745  1.00  0.00     0.093 A 
ATOM     17  H   UNL     1       2.126   3.717  -5.866  1.00  0.00     0.167 HD
BRANCH   9  18
ATOM     18  C   UNL     1       0.425   1.253  -0.242  1.00  0.00     0.032 C 
ATOM     19  C   UNL     1       0.928  -0.158   0.032  1.00  0.00     0.009 C 
ENDBRANCH   9  18
BRANCH  16  20
ATOM     20  C   UNL     1       1.238   6.372  -5.690  1.00  0.00     0.227 C 
ATOM     21  O   UNL     1       0.771   7.479  -5.427  1.00  0.00    -0.285 OA
BRANCH  20  22
ATOM     22  C   UNL     1       1.727   6.145  -7.075  1.00  0.00     0.113 A 
ATOM     23  C   UNL     1       1.019   5.297  -7.922  1.00  0.00     0.036 A 
ATOM     24  N   UNL     1       2.854   6.806  -7.435  1.00  0.00    -0.253 NA
ATOM     25  C   UNL     1       1.496   5.108  -9.220  1.00  0.00    -0.047 A 
ATOM     26  C   UNL     1       3.276   6.632  -8.703  1.00  0.00     0.112 A 
ATOM     27  C   UNL     1       0.789   4.204 -10.183  1.00  0.00     0.044 C 
ATOM     28  C   UNL     1       2.643   5.802  -9.617  1.00  0.00     0.023 A 
ENDBRANCH  20  22
ENDBRANCH  16  20
ENDBRANCH   7   8
ENDBRANCH   4   7
ENDBRANCH   2   3
ENDBRANCH   1   2
BRANCH   1  29
ATOM     29  C   UNL     1       5.523   5.832  -2.188  1.00  0.00     0.023 C 
BRANCH  29  30
ATOM     30  C   UNL     1       6.248   6.088  -0.872  1.00  0.00     0.116 C 
BRANCH  30  31
ATOM     31  N   UNL     1       6.460   4.881  -0.088  1.00  0.00    -0.352 N 
ATOM     32  C   UNL     1       7.552   4.527   0.668  1.00  0.00     0.251 C 
ATOM     33  H   UNL     1       5.722   4.230  -0.101  1.00  0.00     0.163 HD
ATOM     34  O   UNL     1       7.605   3.409   1.176  1.00  0.00    -0.269 OA
BRANCH  32  35
ATOM     35  C   UNL     1       8.676   5.476   0.829  1.00  0.00     0.039 A 
ATOM     36  C   UNL     1       9.981   5.013   0.642  1.00  0.00     0.014 A 
ATOM     37  C   UNL     1       8.446   6.820   1.137  1.00  0.00     0.014 A 
ATOM     38  C   UNL     1      11.049   5.913   0.689  1.00  0.00     0.010 A 
ATOM     39  C   UNL     1       9.504   7.726   1.116  1.00  0.00     0.010 A 
ATOM     40  C   UNL     1      10.816   7.283   0.887  1.00  0.00    -0.014 A 
BRANCH  40  41
ATOM     41  C   UNL     1      11.928   8.269   0.850  1.00  0.00     0.031 A 
ATOM     42  C   UNL     1      12.281   9.057   2.081  1.00  0.00     0.074 A 
ATOM     43  C   UNL     1      12.571   8.505  -0.311  1.00  0.00     0.049 A 
ATOM     44  N   UNL     1      13.160  10.014   2.229  1.00  0.00    -0.248 NA
ATOM     45  C   UNL     1      11.518   8.745   3.298  1.00  0.00     0.031 C 
ATOM     46  C   UNL     1      12.290   7.837  -1.584  1.00  0.00     0.029 A 
ATOM     47  N   UNL     1      13.585   9.379  -0.613  1.00  0.00    -0.354 N 
ATOM     48  C   UNL     1      13.048  10.431   3.551  1.00  0.00     0.074 A 
ATOM     49  C   UNL     1      11.971   9.662   4.140  1.00  0.00     0.031 C 
ATOM     50  C   UNL     1      13.127   8.309  -2.522  1.00  0.00     0.029 A 
ATOM     51  C   UNL     1      13.972   9.342  -1.932  1.00  0.00     0.049 A 
ATOM     52  H   UNL     1      13.997   9.977   0.052  1.00  0.00     0.167 HD
ATOM     53  C   UNL     1      13.789  11.352   4.218  1.00  0.00     0.034 A 
ATOM     54  C   UNL     1      14.895  10.066  -2.596  1.00  0.00     0.034 A 
ATOM     55  C   UNL     1      14.864  12.104   3.618  1.00  0.00     0.049 A 
ATOM     56  C   UNL     1      15.690  11.101  -1.843  1.00  0.00     0.074 A 
ATOM     57  C   UNL     1      15.719  13.016   4.213  1.00  0.00     0.029 A 
ATOM     58  N   UNL     1      15.227  12.042   2.277  1.00  0.00    -0.354 N 
ATOM     59  N   UNL     1      15.610  11.447  -0.579  1.00  0.00    -0.248 NA
ATOM     60  C   UNL     1      16.706  11.838  -2.606  1.00  0.00     0.031 C 
ATOM     61  C   UNL     1      16.551  13.552   3.224  1.00  0.00     0.029 A 
ATOM     62  C   UNL     1      16.269  12.922   2.022  1.00  0.00     0.049 A 
ATOM     63  H   UNL     1      14.805  11.458   1.606  1.00  0.00     0.167 HD
ATOM     64  C   UNL     1      16.585  12.422  -0.390  1.00  0.00     0.074 A 
ATOM     65  C   UNL     1      17.247  12.599  -1.666  1.00  0.00     0.031 C 
ATOM     66  C   UNL     1      16.909  13.104   0.739  1.00  0.00     0.034 A 
BRANCH  53  67
ATOM     67  C   UNL     1      13.431  11.609   5.664  1.00  0.00     0.023 A 
ATOM     68  C   UNL     1      13.511  10.595   6.636  1.00  0.00     0.031 A 
ATOM     69  C   UNL     1      12.958  12.869   6.070  1.00  0.00     0.131 A 
ATOM     70  C   UNL     1      13.039  10.829   7.936  1.00  0.00     0.055 A 
ATOM     71  C   UNL     1      12.572  13.122   7.389  1.00  0.00     0.041 A 
ATOM     72  F   UNL     1      12.841  13.873   5.187  1.00  0.00    -0.206 F 
ATOM     73  C   UNL     1      12.593  12.093   8.326  1.00  0.00     0.022 A 
BRANCH  70  74
ATOM     74  S   UNL     1      12.860   9.415   9.058  1.00  0.00     0.124 S 
ATOM     75  O   UNL     1      11.967   8.544   8.296  1.00  0.00    -0.237 OA
ATOM     76  O   UNL     1      14.235   8.952   9.203  1.00  0.00    -0.237 OA
ATOM     77  O   UNL     1      12.268  10.002  10.258  1.00  0.00    -0.744 OA
ENDBRANCH  70  74
ENDBRANCH  53  67
BRANCH  54  78
ATOM     78  C   UNL     1      15.119   9.845  -4.052  1.00  0.00     0.023 A 
ATOM     79  C   UNL     1      16.328   9.311  -4.524  1.00  0.00     0.031 A 
ATOM     80  C   UNL     1      14.134  10.188  -4.996  1.00  0.00     0.131 A 
ATOM     81  C   UNL     1      16.538   9.169  -5.904  1.00  0.00     0.055 A 
ATOM     82  C   UNL     1      14.330  10.002  -6.365  1.00  0.00     0.041 A 
ATOM     83  F   UNL     1      12.957  10.694  -4.595  1.00  0.00    -0.206 F 
ATOM     84  C   UNL     1      15.543   9.499  -6.827  1.00  0.00     0.022 A 
BRANCH  81  85
ATOM     85  S   UNL     1      18.160   8.600  -6.483  1.00  0.00     0.124 S 
ATOM     86  O   UNL     1      19.043   9.634  -5.957  1.00  0.00    -0.237 OA
ATOM     87  O   UNL     1      18.263   7.287  -5.854  1.00  0.00    -0.237 OA
ATOM     88  O   UNL     1      18.015   8.581  -7.937  1.00  0.00    -0.744 OA
ENDBRANCH  81  85
ENDBRANCH  54  78
BRANCH  66  89
ATOM     89  C   UNL     1      18.060  14.075   0.644  1.00  0.00     0.023 A 
ATOM     90  C   UNL     1      17.977  15.250  -0.123  1.00  0.00     0.031 A 
ATOM     91  C   UNL     1      19.264  13.811   1.321  1.00  0.00     0.131 A 
ATOM     92  C   UNL     1      19.095  16.090  -0.239  1.00  0.00     0.055 A 
ATOM     93  C   UNL     1      20.354  14.679   1.249  1.00  0.00     0.041 A 
ATOM     94  F   UNL     1      19.400  12.701   2.065  1.00  0.00    -0.206 F 
ATOM     95  C   UNL     1      20.278  15.820   0.456  1.00  0.00     0.022 A 
BRANCH  92  96
ATOM     96  S   UNL     1      19.017  17.496  -1.382  1.00  0.00     0.124 S 
ATOM     97  O   UNL     1      18.737  16.838  -2.654  1.00  0.00    -0.237 OA
ATOM     98  O   UNL     1      17.929  18.293  -0.823  1.00  0.00    -0.237 OA
ATOM     99  O   UNL     1      20.344  18.100  -1.276  1.00  0.00    -0.744 OA
ENDBRANCH  92  96
ENDBRANCH  66  89
ENDBRANCH  40  41
ENDBRANCH  32  35
ENDBRANCH  30  31
ENDBRANCH  29  30
ENDBRANCH   1  29
TORSDOF 18
