REMARK SMILES Cc1noc(C[N@H+]2CCC[C@@H](c3ccc(C(=O)NCCCCNC(=O)c4ccc(-c5c6nc(c(-c7cc(S(=O)(=O)[O-])ccc7F)c7ccc([nH]7)c(-c7cc(S(=O)(=O)[O-])ccc7F)c7nc(c(-c8cc(S(=O)(=O)[O-])ccc8F)c8ccc5[nH]8)C=C7)C=C6)cc4)cc3)C2)n1
REMARK SMILES IDX 20 1 19 2 18 3 16 4 17 5 15 7 12 8 13 9 90 10 14 11 89 12
REMARK SMILES IDX 11 13 7 14 8 15 91 16 9 18 10 19 6 20 5 21 1 22 2 23 3 24
REMARK SMILES IDX 92 25 4 26 21 27 22 28 23 29 24 30 25 32 26 33 27 34 88 35
REMARK SMILES IDX 28 36 87 37 29 38 30 39 31 40 81 41 32 42 86 43 80 44 82 45
REMARK SMILES IDX 33 46 85 47 79 48 78 49 34 51 66 52 46 53 65 54 47 55 50 56
REMARK SMILES IDX 64 57 83 58 48 59 49 60 63 62 84 63 51 64 35 65 36 66 44 67
REMARK SMILES IDX 37 68 43 69 45 70 42 71 38 72 39 73 40 74 41 75 67 76 68 77
REMARK SMILES IDX 76 78 69 79 75 80 77 81 74 82 70 83 71 84 72 85 73 86 52 87
REMARK SMILES IDX 53 88 61 89 54 90 60 91 62 92 59 93 55 94 56 95 57 96 58 97
REMARK H PARENT 18 6 7 17 23 31 82 50 50 61
REMARK Flexibility Score: inf
ROOT
ATOM      1  C   UNL     1      -2.673  10.020  -3.476  1.00  0.00     0.023 C 
ENDROOT
BRANCH   1   2
ATOM      2  C   UNL     1      -3.050   9.206  -2.236  1.00  0.00     0.116 C 
BRANCH   2   3
ATOM      3  N   UNL     1      -4.046   8.208  -2.568  1.00  0.00    -0.352 N 
ATOM      4  C   UNL     1      -3.927   6.879  -2.882  1.00  0.00     0.251 C 
ATOM      5  O   UNL     1      -4.959   6.242  -3.094  1.00  0.00    -0.269 OA
ATOM      6  H   UNL     1      -4.971   8.543  -2.567  1.00  0.00     0.163 HD
BRANCH   4   7
ATOM      7  C   UNL     1      -2.620   6.165  -2.920  1.00  0.00     0.039 A 
ATOM      8  C   UNL     1      -0.224   4.658  -2.870  1.00  0.00    -0.039 A 
ATOM      9  C   UNL     1      -1.461   4.058  -2.586  1.00  0.00     0.005 A 
ATOM     10  C   UNL     1      -0.213   6.003  -3.245  1.00  0.00     0.005 A 
ATOM     11  C   UNL     1      -2.640   4.805  -2.597  1.00  0.00     0.014 A 
ATOM     12  C   UNL     1      -1.401   6.740  -3.291  1.00  0.00     0.014 A 
BRANCH   8  13
ATOM     13  C   UNL     1       1.083   3.883  -2.799  1.00  0.00     0.074 C 
ATOM     14  N   UNL     1       2.376   2.202  -1.406  1.00  0.00    -0.327 N 
ATOM     15  C   UNL     1       2.443   1.302  -2.565  1.00  0.00     0.262 C 
ATOM     16  C   UNL     1       1.200   3.091  -1.478  1.00  0.00     0.270 C 
ATOM     17  H   UNL     1       3.212   2.785  -1.430  1.00  0.00     0.348 HD
ATOM     18  C   UNL     1       2.466   2.086  -3.878  1.00  0.00     0.062 C 
ATOM     19  C   UNL     1       1.225   2.960  -4.014  1.00  0.00     0.020 C 
BRANCH  14  20
ATOM     20  C   UNL     1       2.382   1.442  -0.123  1.00  0.00     0.364 C 
BRANCH  20  21
ATOM     21  C   UNL     1       1.186   0.570   0.114  1.00  0.00     0.281 A 
ATOM     22  C   UNL     1      -2.199  -0.321   0.284  1.00  0.00     0.093 C 
ATOM     23  C   UNL     1      -0.726  -0.261   0.239  1.00  0.00     0.169 A 
ATOM     24  N   UNL     1       0.041  -1.315  -0.070  1.00  0.00    -0.063 NA
ATOM     25  N   UNL     1      -0.049   0.914   0.412  1.00  0.00    -0.191 NA
ATOM     26  O   UNL     1       1.324  -0.763  -0.152  1.00  0.00    -0.333 OA
ENDBRANCH  20  21
ENDBRANCH  14  20
ENDBRANCH   8  13
ENDBRANCH   4   7
ENDBRANCH   2   3
ENDBRANCH   1   2
BRANCH   1  27
ATOM     27  C   UNL     1      -3.702  11.080  -3.871  1.00  0.00     0.023 C 
BRANCH  27  28
ATOM     28  C   UNL     1      -3.912  12.181  -2.841  1.00  0.00     0.116 C 
BRANCH  28  29
ATOM     29  N   UNL     1      -2.688  12.891  -2.506  1.00  0.00    -0.352 N 
ATOM     30  C   UNL     1      -2.541  14.209  -2.139  1.00  0.00     0.251 C 
ATOM     31  H   UNL     1      -1.859  12.361  -2.546  1.00  0.00     0.163 HD
ATOM     32  O   UNL     1      -1.426  14.688  -2.000  1.00  0.00    -0.269 OA
BRANCH  30  33
ATOM     33  C   UNL     1      -3.753  15.039  -1.968  1.00  0.00     0.039 A 
ATOM     34  C   UNL     1      -3.828  16.263  -2.636  1.00  0.00     0.014 A 
ATOM     35  C   UNL     1      -4.824  14.585  -1.196  1.00  0.00     0.014 A 
ATOM     36  C   UNL     1      -5.011  17.001  -2.585  1.00  0.00     0.010 A 
ATOM     37  C   UNL     1      -6.024  15.289  -1.200  1.00  0.00     0.010 A 
ATOM     38  C   UNL     1      -6.130  16.502  -1.897  1.00  0.00    -0.014 A 
BRANCH  38  39
ATOM     39  C   UNL     1      -7.420  17.239  -1.889  1.00  0.00     0.031 A 
ATOM     40  C   UNL     1      -7.954  17.793  -0.597  1.00  0.00     0.074 A 
ATOM     41  C   UNL     1      -8.129  17.358  -3.028  1.00  0.00     0.049 A 
ATOM     42  N   UNL     1      -9.095  18.385  -0.360  1.00  0.00    -0.248 NA
ATOM     43  C   UNL     1      -7.098  17.637   0.590  1.00  0.00     0.031 C 
ATOM     44  C   UNL     1      -7.725  16.835  -4.336  1.00  0.00     0.029 A 
ATOM     45  N   UNL     1      -9.344  17.949  -3.271  1.00  0.00    -0.354 N 
ATOM     46  C   UNL     1      -9.098  18.671   1.001  1.00  0.00     0.074 A 
ATOM     47  C   UNL     1      -7.873  18.126   1.546  1.00  0.00     0.031 C 
ATOM     48  C   UNL     1      -8.662  17.151  -5.245  1.00  0.00     0.029 A 
ATOM     49  C   UNL     1      -9.754  17.855  -4.582  1.00  0.00     0.049 A 
ATOM     50  H   UNL     1      -9.872  18.398  -2.573  1.00  0.00     0.167 HD
ATOM     51  C   UNL     1     -10.023  19.349   1.724  1.00  0.00     0.034 A 
ATOM     52  C   UNL     1     -10.888  18.280  -5.175  1.00  0.00     0.034 A 
ATOM     53  C   UNL     1     -11.236  19.892   1.165  1.00  0.00     0.049 A 
ATOM     54  C   UNL     1     -11.920  18.996  -4.338  1.00  0.00     0.074 A 
ATOM     55  C   UNL     1     -12.234  20.610   1.802  1.00  0.00     0.029 A 
ATOM     56  N   UNL     1     -11.617  19.781  -0.166  1.00  0.00    -0.354 N 
ATOM     57  N   UNL     1     -11.893  19.281  -3.056  1.00  0.00    -0.248 NA
ATOM     58  C   UNL     1     -13.130  19.457  -5.031  1.00  0.00     0.031 C 
ATOM     59  C   UNL     1     -13.239  20.888   0.869  1.00  0.00     0.029 A 
ATOM     60  C   UNL     1     -12.839  20.402  -0.365  1.00  0.00     0.049 A 
ATOM     61  H   UNL     1     -11.094  19.327  -0.866  1.00  0.00     0.167 HD
ATOM     62  C   UNL     1     -13.063  19.991  -2.802  1.00  0.00     0.074 A 
ATOM     63  C   UNL     1     -13.765  20.101  -4.063  1.00  0.00     0.031 C 
ATOM     64  C   UNL     1     -13.520  20.507  -1.633  1.00  0.00     0.034 A 
BRANCH  51  65
ATOM     65  C   UNL     1      -9.755  19.526   3.197  1.00  0.00     0.023 A 
ATOM     66  C   UNL     1      -8.662  20.282   3.656  1.00  0.00     0.031 A 
ATOM     67  C   UNL     1     -10.588  18.923   4.156  1.00  0.00     0.131 A 
ATOM     68  C   UNL     1      -8.391  20.359   5.030  1.00  0.00     0.055 A 
ATOM     69  C   UNL     1     -10.357  19.068   5.525  1.00  0.00     0.041 A 
ATOM     70  F   UNL     1     -11.634  18.172   3.776  1.00  0.00    -0.206 F 
ATOM     71  C   UNL     1      -9.246  19.779   5.969  1.00  0.00     0.022 A 
BRANCH  68  72
ATOM     72  S   UNL     1      -6.837  21.126   5.564  1.00  0.00     0.124 S 
ATOM     73  O   UNL     1      -5.848  20.246   4.946  1.00  0.00    -0.237 OA
ATOM     74  O   UNL     1      -6.937  22.468   5.003  1.00  0.00    -0.237 OA
ATOM     75  O   UNL     1      -6.902  21.052   7.022  1.00  0.00    -0.744 OA
ENDBRANCH  68  72
ENDBRANCH  51  65
BRANCH  52  76
ATOM     76  C   UNL     1     -11.128  18.044  -6.628  1.00  0.00     0.023 A 
ATOM     77  C   UNL     1     -11.277  19.121  -7.516  1.00  0.00     0.031 A 
ATOM     78  C   UNL     1     -11.294  16.744  -7.137  1.00  0.00     0.131 A 
ATOM     79  C   UNL     1     -11.649  18.884  -8.849  1.00  0.00     0.055 A 
ATOM     80  C   UNL     1     -11.604  16.511  -8.479  1.00  0.00     0.041 A 
ATOM     81  F   UNL     1     -11.159  15.676  -6.334  1.00  0.00    -0.206 F 
ATOM     82  C   UNL     1     -11.802  17.586  -9.339  1.00  0.00     0.022 A 
BRANCH  79  83
ATOM     83  S   UNL     1     -12.051  20.307  -9.900  1.00  0.00     0.124 S 
ATOM     84  O   UNL     1     -13.073  20.982  -9.109  1.00  0.00    -0.237 OA
ATOM     85  O   UNL     1     -10.761  20.984  -9.996  1.00  0.00    -0.237 OA
ATOM     86  O   UNL     1     -12.524  19.692 -11.138  1.00  0.00    -0.744 OA
ENDBRANCH  79  83
ENDBRANCH  52  76
BRANCH  64  87
ATOM     87  C   UNL     1     -14.807  21.290  -1.688  1.00  0.00     0.023 A 
ATOM     88  C   UNL     1     -16.038  20.672  -1.967  1.00  0.00     0.031 A 
ATOM     89  C   UNL     1     -14.796  22.680  -1.474  1.00  0.00     0.131 A 
ATOM     90  C   UNL     1     -17.199  21.451  -2.081  1.00  0.00     0.055 A 
ATOM     91  C   UNL     1     -15.963  23.441  -1.531  1.00  0.00     0.041 A 
ATOM     92  F   UNL     1     -13.646  23.320  -1.203  1.00  0.00    -0.206 F 
ATOM     93  C   UNL     1     -17.172  22.829  -1.850  1.00  0.00     0.022 A 
BRANCH  90  94
ATOM     94  S   UNL     1     -18.735  20.650  -2.621  1.00  0.00     0.124 S 
ATOM     95  O   UNL     1     -18.355  20.111  -3.922  1.00  0.00    -0.237 OA
ATOM     96  O   UNL     1     -18.962  19.668  -1.566  1.00  0.00    -0.237 OA
ATOM     97  O   UNL     1     -19.699  21.748  -2.661  1.00  0.00    -0.744 OA
ENDBRANCH  90  94
ENDBRANCH  64  87
ENDBRANCH  38  39
ENDBRANCH  30  33
ENDBRANCH  28  29
ENDBRANCH  27  28
ENDBRANCH   1  27
TORSDOF 17
