REMARK SMILES C/C=C(\C)[C@H]1C(C)=C[C@H]2CC[C@@H](OS(=O)(=O)[O-])[C@@H](C)[C@H]2[C@H]1/C=C/C=C/C(=O)NCCCCNC(=O)c1ccc(-c2c3nc(c(-c4cc(S(=O)(=O)[O-])ccc4F)c4ccc([nH]4)c(-c4cc(S(=O)(=O)[O-])ccc4F)c4nc(c(-c5cc(S(=O)(=O)[O-])ccc5F)c5ccc2[nH]5)C=C4)C=C3)cc1
REMARK SMILES IDX 30 1 29 2 28 3 26 4 27 5 25 7 24 8 23 9 22 10 21 11 5 12
REMARK SMILES IDX 6 13 7 14 8 15 20 16 9 17 18 18 10 19 12 20 19 21 11 22 3 23
REMARK SMILES IDX 1 24 2 25 4 26 13 27 14 28 15 29 16 30 17 31 31 32 32 33
REMARK SMILES IDX 33 34 34 35 35 37 36 38 37 39 98 40 38 41 97 42 39 43 40 44
REMARK SMILES IDX 41 45 91 46 42 47 96 48 90 49 92 50 43 51 95 52 89 53 88 54
REMARK SMILES IDX 44 56 76 57 56 58 75 59 57 60 60 61 74 62 93 63 58 64 59 65
REMARK SMILES IDX 73 67 94 68 61 69 45 70 46 71 54 72 47 73 53 74 55 75 52 76
REMARK SMILES IDX 48 77 49 78 50 79 51 80 77 81 78 82 86 83 79 84 85 85 87 86
REMARK SMILES IDX 84 87 80 88 81 89 82 90 83 91 62 92 63 93 71 94 64 95 70 96
REMARK SMILES IDX 72 97 69 98 65 99 66 100 67 101 68 102
REMARK H PARENT 28 6 33 36 92 55 60 66
REMARK Flexibility Score: inf
ROOT
ATOM      1  C   UNL     1       2.689   4.127   1.747  1.00  0.00     0.023 C 
ENDROOT
BRANCH   1   2
ATOM      2  C   UNL     1       1.172   4.289   1.853  1.00  0.00     0.116 C 
BRANCH   2   3
ATOM      3  N   UNL     1       0.800   5.686   1.768  1.00  0.00    -0.353 N 
ATOM      4  C   UNL     1       0.481   6.455   0.695  1.00  0.00     0.243 C 
ATOM      5  O   UNL     1       0.160   7.629   0.871  1.00  0.00    -0.270 OA
ATOM      6  H   UNL     1       0.776   6.158   2.632  1.00  0.00     0.163 HD
BRANCH   4   7
ATOM      7  C   UNL     1       0.367   5.884  -0.670  1.00  0.00     0.071 C 
ATOM      8  C   UNL     1       1.049   4.874  -1.232  1.00  0.00     0.005 C 
BRANCH   8   9
ATOM      9  C   UNL     1       0.589   4.292  -2.470  1.00  0.00    -0.004 C 
ATOM     10  C   UNL     1       0.623   2.965  -2.681  1.00  0.00    -0.022 C 
BRANCH  10  11
ATOM     11  C   UNL     1      -0.234   2.182  -3.670  1.00  0.00     0.027 C 
ATOM     12  C   UNL     1      -0.680   0.657  -3.322  1.00  0.00     0.047 C 
ATOM     13  C   UNL     1      -2.135   0.328  -3.725  1.00  0.00    -0.069 C 
ATOM     14  C   UNL     1      -2.946  -0.702  -2.984  1.00  0.00     0.040 C 
ATOM     15  C   UNL     1      -2.726   0.977  -4.748  1.00  0.00    -0.024 C 
ATOM     16  C   UNL     1      -1.394   3.026  -4.317  1.00  0.00     0.009 C 
ATOM     17  C   UNL     1      -2.108   2.179  -5.394  1.00  0.00     0.016 C 
ATOM     18  C   UNL     1      -2.413   3.753  -3.354  1.00  0.00     0.021 C 
ATOM     19  C   UNL     1      -3.139   3.027  -6.154  1.00  0.00     0.011 C 
ATOM     20  C   UNL     1      -3.409   4.593  -4.191  1.00  0.00     0.141 C 
ATOM     21  C   UNL     1      -3.110   2.904  -2.284  1.00  0.00     0.011 C 
ATOM     22  C   UNL     1      -4.127   3.749  -5.243  1.00  0.00     0.034 C 
BRANCH  12  23
ATOM     23  C   UNL     1      -0.179  -0.105  -2.061  1.00  0.00    -0.070 C 
ATOM     24  C   UNL     1       0.787  -0.266   0.293  1.00  0.00     0.035 C 
ATOM     25  C   UNL     1       0.157   0.443  -0.873  1.00  0.00    -0.031 C 
ATOM     26  C   UNL     1      -0.034  -1.609  -2.242  1.00  0.00     0.040 C 
ENDBRANCH  12  23
BRANCH  20  27
ATOM     27  O   UNL     1      -4.340   5.220  -3.317  1.00  0.00    -0.276 OA
BRANCH  27  28
ATOM     28  S   UNL     1      -5.211   6.479  -3.850  1.00  0.00     0.217 S 
ATOM     29  O   UNL     1      -4.377   7.334  -4.668  1.00  0.00    -0.213 OA
ATOM     30  O   UNL     1      -6.484   5.991  -4.327  1.00  0.00    -0.213 OA
ATOM     31  O   UNL     1      -5.541   7.289  -2.501  1.00  0.00    -0.726 OA
ENDBRANCH  27  28
ENDBRANCH  20  27
ENDBRANCH  10  11
ENDBRANCH   8   9
ENDBRANCH   4   7
ENDBRANCH   2   3
ENDBRANCH   1   2
BRANCH   1  32
ATOM     32  C   UNL     1       3.451   4.517   3.011  1.00  0.00     0.023 C 
BRANCH  32  33
ATOM     33  C   UNL     1       3.083   3.713   4.249  1.00  0.00     0.116 C 
BRANCH  33  34
ATOM     34  N   UNL     1       3.236   2.278   4.062  1.00  0.00    -0.352 N 
ATOM     35  C   UNL     1       3.705   1.350   4.961  1.00  0.00     0.251 C 
ATOM     36  H   UNL     1       2.970   1.928   3.181  1.00  0.00     0.163 HD
ATOM     37  O   UNL     1       3.902   0.193   4.607  1.00  0.00    -0.269 OA
BRANCH  35  38
ATOM     38  C   UNL     1       4.006   1.787   6.340  1.00  0.00     0.039 A 
ATOM     39  C   UNL     1       5.248   1.476   6.893  1.00  0.00     0.014 A 
ATOM     40  C   UNL     1       3.086   2.562   7.051  1.00  0.00     0.014 A 
ATOM     41  C   UNL     1       5.596   2.006   8.137  1.00  0.00     0.010 A 
ATOM     42  C   UNL     1       3.467   3.156   8.249  1.00  0.00     0.010 A 
ATOM     43  C   UNL     1       4.727   2.886   8.805  1.00  0.00    -0.014 A 
BRANCH  43  44
ATOM     44  C   UNL     1       5.117   3.527  10.089  1.00  0.00     0.031 A 
ATOM     45  C   UNL     1       4.322   3.247  11.336  1.00  0.00     0.074 A 
ATOM     46  C   UNL     1       6.154   4.388  10.123  1.00  0.00     0.049 A 
ATOM     47  N   UNL     1       4.452   3.762  12.531  1.00  0.00    -0.248 NA
ATOM     48  C   UNL     1       3.221   2.278  11.218  1.00  0.00     0.031 C 
ATOM     49  C   UNL     1       6.982   4.761   8.973  1.00  0.00     0.029 A 
ATOM     50  N   UNL     1       6.690   5.111  11.160  1.00  0.00    -0.354 N 
ATOM     51  C   UNL     1       3.459   3.175  13.307  1.00  0.00     0.074 A 
ATOM     52  C   UNL     1       2.684   2.327  12.427  1.00  0.00     0.031 C 
ATOM     53  C   UNL     1       7.938   5.615   9.376  1.00  0.00     0.029 A 
ATOM     54  C   UNL     1       7.760   5.898  10.796  1.00  0.00     0.049 A 
ATOM     55  H   UNL     1       6.341   5.069  12.080  1.00  0.00     0.167 HD
ATOM     56  C   UNL     1       3.235   3.301  14.638  1.00  0.00     0.034 A 
ATOM     57  C   UNL     1       8.500   6.761  11.521  1.00  0.00     0.034 A 
ATOM     58  C   UNL     1       4.014   4.147  15.506  1.00  0.00     0.049 A 
ATOM     59  C   UNL     1       8.178   6.938  12.988  1.00  0.00     0.074 A 
ATOM     60  C   UNL     1       3.876   4.341  16.870  1.00  0.00     0.029 A 
ATOM     61  N   UNL     1       5.078   4.941  15.099  1.00  0.00    -0.354 N 
ATOM     62  N   UNL     1       7.254   6.345  13.710  1.00  0.00    -0.248 NA
ATOM     63  C   UNL     1       9.007   7.889  13.740  1.00  0.00     0.031 C 
ATOM     64  C   UNL     1       4.811   5.298  17.274  1.00  0.00     0.029 A 
ATOM     65  C   UNL     1       5.589   5.640  16.181  1.00  0.00     0.049 A 
ATOM     66  H   UNL     1       5.418   4.999  14.177  1.00  0.00     0.167 HD
ATOM     67  C   UNL     1       7.428   6.820  15.009  1.00  0.00     0.074 A 
ATOM     68  C   UNL     1       8.553   7.728  14.973  1.00  0.00     0.031 C 
ATOM     69  C   UNL     1       6.722   6.533  16.132  1.00  0.00     0.034 A 
BRANCH  56  70
ATOM     70  C   UNL     1       2.101   2.504  15.233  1.00  0.00     0.023 A 
ATOM     71  C   UNL     1       2.124   1.098  15.240  1.00  0.00     0.031 A 
ATOM     72  C   UNL     1       0.992   3.148  15.807  1.00  0.00     0.131 A 
ATOM     73  C   UNL     1       1.035   0.383  15.759  1.00  0.00     0.055 A 
ATOM     74  C   UNL     1      -0.052   2.431  16.394  1.00  0.00     0.041 A 
ATOM     75  F   UNL     1       0.905   4.488  15.808  1.00  0.00    -0.206 F 
ATOM     76  C   UNL     1      -0.039   1.039  16.363  1.00  0.00     0.022 A 
BRANCH  73  77
ATOM     77  S   UNL     1       0.991  -1.414  15.525  1.00  0.00     0.124 S 
ATOM     78  O   UNL     1       0.997  -1.521  14.068  1.00  0.00    -0.237 OA
ATOM     79  O   UNL     1       2.205  -1.852  16.202  1.00  0.00    -0.237 OA
ATOM     80  O   UNL     1      -0.260  -1.812  16.166  1.00  0.00    -0.744 OA
ENDBRANCH  73  77
ENDBRANCH  56  70
BRANCH  57  81
ATOM     81  C   UNL     1       9.604   7.550  10.895  1.00  0.00     0.023 A 
ATOM     82  C   UNL     1      10.920   7.454  11.376  1.00  0.00     0.031 A 
ATOM     83  C   UNL     1       9.345   8.491   9.883  1.00  0.00     0.131 A 
ATOM     84  C   UNL     1      11.902   8.344  10.915  1.00  0.00     0.055 A 
ATOM     85  C   UNL     1      10.345   9.320   9.369  1.00  0.00     0.041 A 
ATOM     86  F   UNL     1       8.106   8.630   9.383  1.00  0.00    -0.206 F 
ATOM     87  C   UNL     1      11.628   9.266   9.903  1.00  0.00     0.022 A 
BRANCH  84  88
ATOM     88  S   UNL     1      13.499   8.389  11.777  1.00  0.00     0.124 S 
ATOM     89  O   UNL     1      13.081   8.611  13.156  1.00  0.00    -0.237 OA
ATOM     90  O   UNL     1      14.042   7.070  11.474  1.00  0.00    -0.237 OA
ATOM     91  O   UNL     1      14.193   9.510  11.146  1.00  0.00    -0.744 OA
ENDBRANCH  84  88
ENDBRANCH  57  81
BRANCH  69  92
ATOM     92  C   UNL     1       7.195   7.155  17.424  1.00  0.00     0.023 A 
ATOM     93  C   UNL     1       7.160   8.544  17.638  1.00  0.00     0.031 A 
ATOM     94  C   UNL     1       7.699   6.340  18.454  1.00  0.00     0.131 A 
ATOM     95  C   UNL     1       7.679   9.081  18.826  1.00  0.00     0.055 A 
ATOM     96  C   UNL     1       8.148   6.875  19.662  1.00  0.00     0.041 A 
ATOM     97  F   UNL     1       7.758   5.007  18.305  1.00  0.00    -0.206 F 
ATOM     98  C   UNL     1       8.154   8.254  19.847  1.00  0.00     0.022 A 
BRANCH  95  99
ATOM     99  S   UNL     1       7.821  10.882  18.977  1.00  0.00     0.124 S 
ATOM    100  O   UNL     1       8.662  11.218  17.833  1.00  0.00    -0.237 OA
ATOM    101  O   UNL     1       6.429  11.313  18.891  1.00  0.00    -0.237 OA
ATOM    102  O   UNL     1       8.447  11.069  20.284  1.00  0.00    -0.744 OA
ENDBRANCH  95  99
ENDBRANCH  69  92
ENDBRANCH  43  44
ENDBRANCH  35  38
ENDBRANCH  33  34
ENDBRANCH  32  33
ENDBRANCH   1  32
TORSDOF 19
