REMARK SMILES Cc1nc(N2CCN(c3ccccc3)CC2)nc(OCC(=O)NCCCCNC(=O)c2ccc(-c3c4nc(c(-c5cc(S(=O)(=O)[O-])ccc5F)c5ccc([nH]5)c(-c5cc(S(=O)(=O)[O-])ccc5F)c5nc(c(-c6cc(S(=O)(=O)[O-])ccc6F)c6ccc3[nH]6)C=C5)C=C4)cc2)c1C
REMARK SMILES IDX 25 1 24 2 23 3 21 4 22 5 20 7 19 8 18 9 1 10 2 11 3 12 94 13
REMARK SMILES IDX 4 14 95 15 17 16 5 17 6 18 16 19 7 20 15 21 8 22 9 23 10 24
REMARK SMILES IDX 14 25 11 26 13 27 12 28 26 29 27 30 28 31 29 32 30 34 31 35
REMARK SMILES IDX 32 36 93 37 33 38 92 39 34 40 35 41 36 42 86 43 37 44 91 45
REMARK SMILES IDX 85 46 87 47 38 48 90 49 84 50 83 51 39 53 71 54 51 55 70 56
REMARK SMILES IDX 52 57 55 58 69 59 88 60 53 61 54 62 68 64 89 65 56 66 40 67
REMARK SMILES IDX 41 68 49 69 42 70 48 71 50 72 47 73 43 74 44 75 45 76 46 77
REMARK SMILES IDX 72 78 73 79 81 80 74 81 80 82 82 83 79 84 75 85 76 86 77 87
REMARK SMILES IDX 78 88 57 89 58 90 66 91 59 92 65 93 67 94 64 95 60 96 61 97
REMARK SMILES IDX 62 98 63 99
REMARK H PARENT 23 6 28 33 87 52 55 63
REMARK Flexibility Score: inf
ROOT
ATOM      1  C   UNL     1       2.116   0.650   6.369  1.00  0.00     0.023 C 
ENDROOT
BRANCH   1   2
ATOM      2  C   UNL     1       1.079   1.762   6.491  1.00  0.00     0.116 C 
BRANCH   2   3
ATOM      3  N   UNL     1       1.109   2.685   5.373  1.00  0.00    -0.353 N 
ATOM      4  C   UNL     1       0.147   2.933   4.444  1.00  0.00     0.258 C 
ATOM      5  O   UNL     1       0.314   3.871   3.661  1.00  0.00    -0.271 OA
ATOM      6  H   UNL     1       1.940   3.203   5.273  1.00  0.00     0.163 HD
BRANCH   4   7
ATOM      7  C   UNL     1      -1.144   2.109   4.425  1.00  0.00     0.331 C 
BRANCH   7   8
ATOM      8  O   UNL     1      -1.127   0.712   4.314  1.00  0.00    -0.467 OA
BRANCH   8   9
ATOM      9  C   UNL     1      -0.497   0.003   3.350  1.00  0.00     0.221 A 
ATOM     10  C   UNL     1       1.227  -0.404   0.026  1.00  0.00     0.067 C 
ATOM     11  C   UNL     1       0.610  -0.618   1.381  1.00  0.00     0.050 A 
ATOM     12  N   UNL     1       0.794  -1.867   1.863  1.00  0.00    -0.218 NA
ATOM     13  C   UNL     1      -0.049   0.389   2.096  1.00  0.00     0.033 A 
ATOM     14  C   UNL     1       0.265  -2.164   3.047  1.00  0.00     0.229 A 
ATOM     15  C   UNL     1      -0.186   1.753   1.501  1.00  0.00     0.052 C 
ATOM     16  N   UNL     1      -0.387  -1.267   3.785  1.00  0.00    -0.177 NA
BRANCH  14  17
ATOM     17  N   UNL     1       0.393  -3.434   3.560  1.00  0.00    -0.337 N 
ATOM     18  C   UNL     1       1.487  -4.281   3.079  1.00  0.00     0.141 C 
ATOM     19  C   UNL     1      -0.876  -4.118   3.826  1.00  0.00     0.141 C 
ATOM     20  C   UNL     1       1.706  -5.464   4.056  1.00  0.00     0.138 C 
ATOM     21  C   UNL     1      -0.668  -5.330   4.757  1.00  0.00     0.138 C 
ATOM     22  N   UNL     1       0.435  -6.179   4.268  1.00  0.00    -0.368 N 
BRANCH  22  23
ATOM     23  C   UNL     1       0.430  -7.504   4.666  1.00  0.00     0.037 A 
ATOM     24  C   UNL     1       1.315  -8.020   5.617  1.00  0.00     0.026 A 
ATOM     25  C   UNL     1      -0.498  -8.382   4.087  1.00  0.00     0.026 A 
ATOM     26  C   UNL     1       1.276  -9.373   5.976  1.00  0.00     0.002 A 
ATOM     27  C   UNL     1      -0.531  -9.735   4.428  1.00  0.00     0.002 A 
ATOM     28  C   UNL     1       0.358 -10.231   5.375  1.00  0.00     0.000 A 
ENDBRANCH  22  23
ENDBRANCH  14  17
ENDBRANCH   8   9
ENDBRANCH   7   8
ENDBRANCH   4   7
ENDBRANCH   2   3
ENDBRANCH   1   2
BRANCH   1  29
ATOM     29  C   UNL     1       3.569   1.109   6.210  1.00  0.00     0.023 C 
BRANCH  29  30
ATOM     30  C   UNL     1       4.069   2.144   7.215  1.00  0.00     0.116 C 
BRANCH  30  31
ATOM     31  N   UNL     1       3.961   1.706   8.595  1.00  0.00    -0.352 N 
ATOM     32  C   UNL     1       4.909   1.698   9.593  1.00  0.00     0.251 C 
ATOM     33  H   UNL     1       3.076   1.362   8.856  1.00  0.00     0.163 HD
ATOM     34  O   UNL     1       4.642   1.186  10.672  1.00  0.00    -0.269 OA
BRANCH  32  35
ATOM     35  C   UNL     1       6.255   2.271   9.353  1.00  0.00     0.039 A 
ATOM     36  C   UNL     1       7.373   1.532   9.750  1.00  0.00     0.014 A 
ATOM     37  C   UNL     1       6.422   3.521   8.751  1.00  0.00     0.014 A 
ATOM     38  C   UNL     1       8.657   2.013   9.478  1.00  0.00     0.010 A 
ATOM     39  C   UNL     1       7.703   3.971   8.427  1.00  0.00     0.010 A 
ATOM     40  C   UNL     1       8.833   3.219   8.782  1.00  0.00    -0.014 A 
BRANCH  40  41
ATOM     41  C   UNL     1      10.192   3.706   8.424  1.00  0.00     0.031 A 
ATOM     42  C   UNL     1      10.728   4.970   9.042  1.00  0.00     0.074 A 
ATOM     43  C   UNL     1      10.931   3.031   7.519  1.00  0.00     0.049 A 
ATOM     44  N   UNL     1      11.852   5.593   8.801  1.00  0.00    -0.248 NA
ATOM     45  C   UNL     1       9.882   5.628  10.050  1.00  0.00     0.031 C 
ATOM     46  C   UNL     1      10.516   1.801   6.839  1.00  0.00     0.029 A 
ATOM     47  N   UNL     1      12.184   3.279   7.015  1.00  0.00    -0.354 N 
ATOM     48  C   UNL     1      11.849   6.715   9.622  1.00  0.00     0.074 A 
ATOM     49  C   UNL     1      10.589   6.713  10.333  1.00  0.00     0.031 C 
ATOM     50  C   UNL     1      11.507   1.389   6.030  1.00  0.00     0.029 A 
ATOM     51  C   UNL     1      12.609   2.345   6.097  1.00  0.00     0.049 A 
ATOM     52  H   UNL     1      12.728   4.053   7.285  1.00  0.00     0.167 HD
ATOM     53  C   UNL     1      12.817   7.648   9.784  1.00  0.00     0.034 A 
ATOM     54  C   UNL     1      13.750   2.271   5.382  1.00  0.00     0.034 A 
ATOM     55  C   UNL     1      14.081   7.630   9.093  1.00  0.00     0.049 A 
ATOM     56  C   UNL     1      14.793   3.345   5.555  1.00  0.00     0.074 A 
ATOM     57  C   UNL     1      15.140   8.512   9.220  1.00  0.00     0.029 A 
ATOM     58  N   UNL     1      14.460   6.683   8.154  1.00  0.00    -0.354 N 
ATOM     59  N   UNL     1      14.769   4.397   6.339  1.00  0.00    -0.248 NA
ATOM     60  C   UNL     1      16.015   3.224   4.748  1.00  0.00     0.031 C 
ATOM     61  C   UNL     1      16.139   8.129   8.321  1.00  0.00     0.029 A 
ATOM     62  C   UNL     1      15.727   6.974   7.676  1.00  0.00     0.049 A 
ATOM     63  H   UNL     1      13.910   5.918   7.868  1.00  0.00     0.167 HD
ATOM     64  C   UNL     1      15.981   5.050   6.133  1.00  0.00     0.074 A 
ATOM     65  C   UNL     1      16.717   4.270   5.161  1.00  0.00     0.031 C 
ATOM     66  C   UNL     1      16.443   6.191   6.700  1.00  0.00     0.034 A 
BRANCH  53  67
ATOM     67  C   UNL     1      12.553   8.774  10.746  1.00  0.00     0.023 A 
ATOM     68  C   UNL     1      12.520   8.557  12.133  1.00  0.00     0.031 A 
ATOM     69  C   UNL     1      12.384  10.087  10.273  1.00  0.00     0.131 A 
ATOM     70  C   UNL     1      12.292   9.634  13.001  1.00  0.00     0.055 A 
ATOM     71  C   UNL     1      12.214  11.164  11.145  1.00  0.00     0.041 A 
ATOM     72  F   UNL     1      12.393  10.344   8.955  1.00  0.00    -0.206 F 
ATOM     73  C   UNL     1      12.164  10.939  12.518  1.00  0.00     0.022 A 
BRANCH  70  74
ATOM     74  S   UNL     1      12.117   9.302  14.774  1.00  0.00     0.124 S 
ATOM     75  O   UNL     1      10.856   8.565  14.811  1.00  0.00    -0.237 OA
ATOM     76  O   UNL     1      13.316   8.530  15.075  1.00  0.00    -0.237 OA
ATOM     77  O   UNL     1      12.070  10.636  15.369  1.00  0.00    -0.744 OA
ENDBRANCH  70  74
ENDBRANCH  53  67
BRANCH  54  78
ATOM     78  C   UNL     1      13.968   1.154   4.420  1.00  0.00     0.023 A 
ATOM     79  C   UNL     1      14.975   0.200   4.638  1.00  0.00     0.031 A 
ATOM     80  C   UNL     1      13.198   1.047   3.248  1.00  0.00     0.131 A 
ATOM     81  C   UNL     1      15.210  -0.798   3.679  1.00  0.00     0.055 A 
ATOM     82  C   UNL     1      13.407   0.026   2.319  1.00  0.00     0.041 A 
ATOM     83  F   UNL     1      12.221   1.933   2.995  1.00  0.00    -0.206 F 
ATOM     84  C   UNL     1      14.426  -0.899   2.528  1.00  0.00     0.022 A 
BRANCH  81  85
ATOM     85  S   UNL     1      16.603  -1.934   3.930  1.00  0.00     0.124 S 
ATOM     86  O   UNL     1      17.737  -1.017   3.928  1.00  0.00    -0.237 OA
ATOM     87  O   UNL     1      16.271  -2.543   5.213  1.00  0.00    -0.237 OA
ATOM     88  O   UNL     1      16.522  -2.830   2.778  1.00  0.00    -0.744 OA
ENDBRANCH  81  85
ENDBRANCH  54  78
BRANCH  66  89
ATOM     89  C   UNL     1      17.820   6.654   6.305  1.00  0.00     0.023 A 
ATOM     90  C   UNL     1      18.071   7.200   5.036  1.00  0.00     0.031 A 
ATOM     91  C   UNL     1      18.880   6.588   7.226  1.00  0.00     0.131 A 
ATOM     92  C   UNL     1      19.364   7.636   4.710  1.00  0.00     0.055 A 
ATOM     93  C   UNL     1      20.152   7.065   6.912  1.00  0.00     0.041 A 
ATOM     94  F   UNL     1      18.687   6.078   8.453  1.00  0.00    -0.206 F 
ATOM     95  C   UNL     1      20.401   7.588   5.646  1.00  0.00     0.022 A 
BRANCH  92  96
ATOM     96  S   UNL     1      19.682   8.243   3.032  1.00  0.00     0.124 S 
ATOM     97  O   UNL     1      19.458   7.045   2.230  1.00  0.00    -0.237 OA
ATOM     98  O   UNL     1      18.689   9.302   2.885  1.00  0.00    -0.237 OA
ATOM     99  O   UNL     1      21.069   8.701   3.090  1.00  0.00    -0.744 OA
ENDBRANCH  92  96
ENDBRANCH  66  89
ENDBRANCH  40  41
ENDBRANCH  32  35
ENDBRANCH  30  31
ENDBRANCH  29  30
ENDBRANCH   1  29
TORSDOF 18
