REMARK SMILES CS(=O)(=O)c1ccc(/C=C(/C(=O)NCCCCNC(=O)c2ccc(-c3c4nc(c(-c5cc(S(=O)(=O)[O-])ccc5F)c5ccc([nH]5)c(-c5cc(S(=O)(=O)[O-])ccc5F)c5nc(c(-c6cc(S(=O)(=O)[O-])ccc6F)c6ccc3[nH]6)C=C5)C=C4)cc2)c2ccc(-c3ccc(S(C)(=O)=O)cc3)cc2)cc1
REMARK SMILES IDX 15 1 14 2 13 3 11 4 12 5 10 7 9 8 8 9 5 10 6 11 101 12 7 13
REMARK SMILES IDX 100 14 2 15 1 16 3 17 4 18 84 19 85 20 99 21 86 22 98 23
REMARK SMILES IDX 87 24 88 25 89 26 97 27 90 28 96 29 91 30 92 31 93 32 94 33
REMARK SMILES IDX 95 34 16 35 17 36 18 37 19 38 20 40 21 41 22 42 83 43 23 44
REMARK SMILES IDX 82 45 24 46 25 47 26 48 76 49 27 50 81 51 75 52 77 53 28 54
REMARK SMILES IDX 80 55 74 56 73 57 29 59 61 60 41 61 60 62 42 63 45 64 59 65
REMARK SMILES IDX 78 66 43 67 44 68 58 70 79 71 46 72 30 73 31 74 39 75 32 76
REMARK SMILES IDX 38 77 40 78 37 79 33 80 34 81 35 82 36 83 62 84 63 85 71 86
REMARK SMILES IDX 64 87 70 88 72 89 69 90 65 91 66 92 67 93 68 94 47 95 48 96
REMARK SMILES IDX 56 97 49 98 55 99 57 100 54 101 50 102 51 103 52 104 53 105
REMARK H PARENT 13 6 18 39 77 58 45 69
REMARK Flexibility Score: inf
ROOT
ATOM      1  C   UNL     1       0.654   9.865  -0.301  1.00  0.00     0.023 C 
ENDROOT
BRANCH   1   2
ATOM      2  C   UNL     1       2.072   9.378  -0.615  1.00  0.00     0.116 C 
BRANCH   2   3
ATOM      3  N   UNL     1       2.865   9.343   0.596  1.00  0.00    -0.352 N 
ATOM      4  C   UNL     1       3.185   8.369   1.486  1.00  0.00     0.251 C 
ATOM      5  O   UNL     1       3.844   8.734   2.464  1.00  0.00    -0.269 OA
ATOM      6  H   UNL     1       3.258  10.217   0.824  1.00  0.00     0.163 HD
BRANCH   4   7
ATOM      7  C   UNL     1       2.853   6.901   1.296  1.00  0.00     0.047 C 
ATOM      8  C   UNL     1       1.744   6.484   0.643  1.00  0.00     0.022 C 
BRANCH   8   9
ATOM      9  C   UNL     1       1.310   5.122   0.261  1.00  0.00    -0.025 A 
ATOM     10  C   UNL     1       0.564   2.576  -0.675  1.00  0.00     0.067 A 
ATOM     11  C   UNL     1       1.027   2.728   0.631  1.00  0.00     0.021 A 
ATOM     12  C   UNL     1       0.429   3.690  -1.506  1.00  0.00     0.021 A 
ATOM     13  C   UNL     1       1.372   4.003   1.100  1.00  0.00     0.009 A 
ATOM     14  C   UNL     1       0.799   4.953  -1.037  1.00  0.00     0.009 A 
BRANCH  10  15
ATOM     15  S   UNL     1       0.153   0.991  -1.361  1.00  0.00     0.175 S 
ATOM     16  C   UNL     1       0.762  -0.242  -0.247  1.00  0.00     0.163 C 
ATOM     17  O   UNL     1       0.915   0.862  -2.590  1.00  0.00    -0.224 OA
ATOM     18  O   UNL     1      -1.294   0.905  -1.363  1.00  0.00    -0.224 OA
ENDBRANCH  10  15
ENDBRANCH   8   9
BRANCH   7  19
ATOM     19  C   UNL     1       3.702   5.933   2.035  1.00  0.00    -0.013 A 
ATOM     20  C   UNL     1       3.669   5.973   3.435  1.00  0.00     0.009 A 
ATOM     21  C   UNL     1       4.468   4.943   1.412  1.00  0.00     0.009 A 
ATOM     22  C   UNL     1       4.353   5.029   4.195  1.00  0.00     0.009 A 
ATOM     23  C   UNL     1       5.131   3.973   2.183  1.00  0.00     0.009 A 
ATOM     24  C   UNL     1       5.069   3.986   3.588  1.00  0.00    -0.018 A 
BRANCH  24  25
ATOM     25  C   UNL     1       5.705   2.950   4.425  1.00  0.00    -0.018 A 
ATOM     26  C   UNL     1       5.034   2.437   5.555  1.00  0.00     0.010 A 
ATOM     27  C   UNL     1       6.995   2.461   4.153  1.00  0.00     0.010 A 
ATOM     28  C   UNL     1       5.636   1.509   6.405  1.00  0.00     0.021 A 
ATOM     29  C   UNL     1       7.607   1.527   4.996  1.00  0.00     0.021 A 
ATOM     30  C   UNL     1       6.931   1.077   6.130  1.00  0.00     0.067 A 
BRANCH  30  31
ATOM     31  S   UNL     1       7.708  -0.054   7.256  1.00  0.00     0.175 S 
ATOM     32  C   UNL     1       7.990   0.936   8.702  1.00  0.00     0.163 C 
ATOM     33  O   UNL     1       6.733  -1.073   7.581  1.00  0.00    -0.224 OA
ATOM     34  O   UNL     1       9.006  -0.410   6.705  1.00  0.00    -0.224 OA
ENDBRANCH  30  31
ENDBRANCH  24  25
ENDBRANCH   7  19
ENDBRANCH   4   7
ENDBRANCH   2   3
ENDBRANCH   1   2
BRANCH   1  35
ATOM     35  C   UNL     1       0.565  11.354   0.059  1.00  0.00     0.023 C 
BRANCH  35  36
ATOM     36  C   UNL     1       1.067  12.310  -1.019  1.00  0.00     0.116 C 
BRANCH  36  37
ATOM     37  N   UNL     1       0.400  12.120  -2.296  1.00  0.00    -0.352 N 
ATOM     38  C   UNL     1       0.100  13.056  -3.254  1.00  0.00     0.251 C 
ATOM     39  H   UNL     1       0.127  11.196  -2.501  1.00  0.00     0.163 HD
ATOM     40  O   UNL     1      -0.587  12.741  -4.219  1.00  0.00    -0.269 OA
BRANCH  38  41
ATOM     41  C   UNL     1       0.576  14.445  -3.088  1.00  0.00     0.039 A 
ATOM     42  C   UNL     1      -0.328  15.493  -3.276  1.00  0.00     0.014 A 
ATOM     43  C   UNL     1       1.902  14.712  -2.736  1.00  0.00     0.014 A 
ATOM     44  C   UNL     1       0.084  16.808  -3.058  1.00  0.00     0.010 A 
ATOM     45  C   UNL     1       2.293  16.017  -2.455  1.00  0.00     0.010 A 
ATOM     46  C   UNL     1       1.390  17.079  -2.619  1.00  0.00    -0.014 A 
BRANCH  46  47
ATOM     47  C   UNL     1       1.840  18.469  -2.353  1.00  0.00     0.031 A 
ATOM     48  C   UNL     1       2.920  19.081  -3.202  1.00  0.00     0.074 A 
ATOM     49  C   UNL     1       1.321  19.153  -1.314  1.00  0.00     0.049 A 
ATOM     50  N   UNL     1       3.511  20.241  -3.083  1.00  0.00    -0.248 NA
ATOM     51  C   UNL     1       3.425  18.259  -4.313  1.00  0.00     0.031 C 
ATOM     52  C   UNL     1       0.296  18.648  -0.397  1.00  0.00     0.029 A 
ATOM     53  N   UNL     1       1.589  20.415  -0.848  1.00  0.00    -0.354 N 
ATOM     54  C   UNL     1       4.468  20.284  -4.092  1.00  0.00     0.074 A 
ATOM     55  C   UNL     1       4.418  19.005  -4.769  1.00  0.00     0.031 C 
ATOM     56  C   UNL     1       0.010  19.598   0.508  1.00  0.00     0.029 A 
ATOM     57  C   UNL     1       0.856  20.762   0.264  1.00  0.00     0.049 A 
ATOM     58  H   UNL     1       2.246  21.016  -1.269  1.00  0.00     0.167 HD
ATOM     59  C   UNL     1       5.294  21.303  -4.436  1.00  0.00     0.034 A 
ATOM     60  C   UNL     1       0.873  21.887   1.006  1.00  0.00     0.034 A 
ATOM     61  C   UNL     1       5.316  22.577  -3.759  1.00  0.00     0.049 A 
ATOM     62  C   UNL     1       1.805  23.004   0.610  1.00  0.00     0.074 A 
ATOM     63  C   UNL     1       6.072  23.698  -4.053  1.00  0.00     0.029 A 
ATOM     64  N   UNL     1       4.548  22.899  -2.647  1.00  0.00    -0.354 N 
ATOM     65  N   UNL     1       2.672  23.047  -0.376  1.00  0.00    -0.248 NA
ATOM     66  C   UNL     1       1.752  24.228   1.419  1.00  0.00     0.031 C 
ATOM     67  C   UNL     1       5.807  24.673  -3.085  1.00  0.00     0.029 A 
ATOM     68  C   UNL     1       4.830  24.190  -2.229  1.00  0.00     0.049 A 
ATOM     69  H   UNL     1       3.897  22.297  -2.218  1.00  0.00     0.167 HD
ATOM     70  C   UNL     1       3.242  24.316  -0.324  1.00  0.00     0.074 A 
ATOM     71  C   UNL     1       2.611  25.009   0.782  1.00  0.00     0.031 C 
ATOM     72  C   UNL     1       4.196  24.863  -1.120  1.00  0.00     0.034 A 
BRANCH  59  73
ATOM     73  C   UNL     1       6.252  21.063  -5.579  1.00  0.00     0.023 A 
ATOM     74  C   UNL     1       5.793  20.791  -6.881  1.00  0.00     0.031 A 
ATOM     75  C   UNL     1       7.640  21.068  -5.361  1.00  0.00     0.131 A 
ATOM     76  C   UNL     1       6.707  20.451  -7.889  1.00  0.00     0.055 A 
ATOM     77  C   UNL     1       8.549  20.814  -6.390  1.00  0.00     0.041 A 
ATOM     78  F   UNL     1       8.139  21.301  -4.136  1.00  0.00    -0.206 F 
ATOM     79  C   UNL     1       8.084  20.486  -7.660  1.00  0.00     0.022 A 
BRANCH  76  80
ATOM     80  S   UNL     1       6.062  19.813  -9.460  1.00  0.00     0.124 S 
ATOM     81  O   UNL     1       5.320  18.635  -9.017  1.00  0.00    -0.237 OA
ATOM     82  O   UNL     1       5.258  20.928  -9.948  1.00  0.00    -0.237 OA
ATOM     83  O   UNL     1       7.268  19.526 -10.235  1.00  0.00    -0.744 OA
ENDBRANCH  76  80
ENDBRANCH  59  73
BRANCH  60  84
ATOM     84  C   UNL     1      -0.013  22.020   2.198  1.00  0.00     0.023 A 
ATOM     85  C   UNL     1      -1.039  22.977   2.232  1.00  0.00     0.031 A 
ATOM     86  C   UNL     1       0.181  21.220   3.338  1.00  0.00     0.131 A 
ATOM     87  C   UNL     1      -1.800  23.145   3.399  1.00  0.00     0.055 A 
ATOM     88  C   UNL     1      -0.613  21.356   4.478  1.00  0.00     0.041 A 
ATOM     89  F   UNL     1       1.144  20.284   3.355  1.00  0.00    -0.206 F 
ATOM     90  C   UNL     1      -1.602  22.333   4.518  1.00  0.00     0.022 A 
BRANCH  87  91
ATOM     91  S   UNL     1      -3.003  24.502   3.462  1.00  0.00     0.124 S 
ATOM     92  O   UNL     1      -2.156  25.661   3.205  1.00  0.00    -0.237 OA
ATOM     93  O   UNL     1      -3.930  24.134   2.397  1.00  0.00    -0.237 OA
ATOM     94  O   UNL     1      -3.545  24.412   4.816  1.00  0.00    -0.744 OA
ENDBRANCH  87  91
ENDBRANCH  60  84
BRANCH  72  95
ATOM     95  C   UNL     1       4.574  26.298  -0.848  1.00  0.00     0.023 A 
ATOM     96  C   UNL     1       5.243  26.679   0.328  1.00  0.00     0.031 A 
ATOM     97  C   UNL     1       4.247  27.300  -1.779  1.00  0.00     0.131 A 
ATOM     98  C   UNL     1       5.516  28.034   0.567  1.00  0.00     0.055 A 
ATOM     99  C   UNL     1       4.574  28.639  -1.562  1.00  0.00     0.041 A 
ATOM    100  F   UNL     1       3.606  26.992  -2.918  1.00  0.00    -0.206 F 
ATOM    101  C   UNL     1       5.200  29.014  -0.377  1.00  0.00     0.022 A 
BRANCH  98 102
ATOM    102  S   UNL     1       6.212  28.512   2.173  1.00  0.00     0.124 S 
ATOM    103  O   UNL     1       5.202  28.016   3.102  1.00  0.00    -0.237 OA
ATOM    104  O   UNL     1       7.488  27.805   2.183  1.00  0.00    -0.237 OA
ATOM    105  O   UNL     1       6.312  29.968   2.084  1.00  0.00    -0.744 OA
ENDBRANCH  98 102
ENDBRANCH  72  95
ENDBRANCH  46  47
ENDBRANCH  38  41
ENDBRANCH  36  37
ENDBRANCH  35  36
ENDBRANCH   1  35
TORSDOF 19
