REMARK SMILES O=C(NCCCCNC(=O)c1nccnc1C(=O)Nc1ccc(-n2cncn2)c(Cl)c1)c1ccc(-c2c3nc(c(-c4cc(S(=O)(=O)[O-])ccc4F)c4ccc([nH]4)c(-c4cc(S(=O)(=O)[O-])ccc4F)c4nc(c(-c5cc(S(=O)(=O)[O-])ccc5F)c5ccc2[nH]5)C=C4)C=C3)cc1
REMARK SMILES IDX 5 1 4 2 3 3 1 4 2 5 32 7 33 8 94 9 34 10 93 11 35 12 36 13
REMARK SMILES IDX 37 14 87 15 38 16 92 17 86 18 88 19 39 20 91 21 85 22 84 23
REMARK SMILES IDX 40 25 72 26 52 27 71 28 53 29 56 30 70 31 89 32 54 33 55 34
REMARK SMILES IDX 69 36 90 37 57 38 41 39 42 40 50 41 43 42 49 43 51 44 48 45
REMARK SMILES IDX 44 46 45 47 46 48 47 49 73 50 74 51 82 52 75 53 81 54 83 55
REMARK SMILES IDX 80 56 76 57 77 58 78 59 79 60 58 61 59 62 67 63 60 64 66 65
REMARK SMILES IDX 68 66 65 67 61 68 62 69 63 70 64 71 6 72 7 73 8 74 9 75
REMARK SMILES IDX 10 77 11 78 12 79 16 80 13 81 15 82 14 83 17 84 18 85 19 86
REMARK SMILES IDX 20 88 21 89 31 90 22 91 29 92 23 93 30 94 24 95 25 96 28 97
REMARK SMILES IDX 26 98 27 99
REMARK H PARENT 3 6 88 24 56 35 8 76 19 87
REMARK Flexibility Score: inf
ROOT
ATOM      1  C   UNL     1       4.088  -2.791   0.102  1.00  0.00     0.023 C 
ENDROOT
BRANCH   1   2
ATOM      2  C   UNL     1       4.089  -1.407  -0.532  1.00  0.00     0.116 C 
BRANCH   2   3
ATOM      3  N   UNL     1       2.790  -0.853  -0.827  1.00  0.00    -0.352 N 
ATOM      4  O   UNL     1       1.129   0.616  -0.823  1.00  0.00    -0.269 OA
ATOM      5  C   UNL     1       2.007   0.054  -0.163  1.00  0.00     0.251 C 
ATOM      6  H   UNL     1       2.391  -1.191  -1.661  1.00  0.00     0.163 HD
BRANCH   5   7
ATOM      7  C   UNL     1       2.062   0.283   1.305  1.00  0.00     0.039 A 
ATOM      8  C   UNL     1       3.197   0.228   2.117  1.00  0.00     0.014 A 
ATOM      9  C   UNL     1       0.818   0.562   1.898  1.00  0.00     0.014 A 
ATOM     10  C   UNL     1       3.070   0.326   3.505  1.00  0.00     0.010 A 
ATOM     11  C   UNL     1       0.688   0.665   3.275  1.00  0.00     0.010 A 
ATOM     12  C   UNL     1       1.809   0.502   4.084  1.00  0.00    -0.014 A 
BRANCH  12  13
ATOM     13  C   UNL     1       1.703   0.777   5.519  1.00  0.00     0.031 A 
ATOM     14  C   UNL     1       2.288   2.098   5.890  1.00  0.00     0.074 A 
ATOM     15  C   UNL     1       0.973   0.030   6.377  1.00  0.00     0.049 A 
ATOM     16  N   UNL     1       3.324   2.332   6.626  1.00  0.00    -0.248 NA
ATOM     17  C   UNL     1       1.779   3.298   5.196  1.00  0.00     0.031 C 
ATOM     18  C   UNL     1       0.155  -1.141   6.054  1.00  0.00     0.029 A 
ATOM     19  N   UNL     1       0.710   0.211   7.707  1.00  0.00    -0.354 N 
ATOM     20  C   UNL     1       3.411   3.720   6.717  1.00  0.00     0.074 A 
ATOM     21  C   UNL     1       2.625   4.231   5.631  1.00  0.00     0.031 C 
ATOM     22  C   UNL     1      -0.681  -1.408   7.083  1.00  0.00     0.029 A 
ATOM     23  C   UNL     1      -0.396  -0.502   8.185  1.00  0.00     0.049 A 
ATOM     24  H   UNL     1       1.255   0.795   8.282  1.00  0.00     0.167 HD
ATOM     25  C   UNL     1       3.845   4.318   7.863  1.00  0.00     0.034 A 
ATOM     26  C   UNL     1      -1.068  -0.327   9.364  1.00  0.00     0.034 A 
ATOM     27  C   UNL     1       4.584   3.374   8.680  1.00  0.00     0.049 A 
ATOM     28  C   UNL     1      -0.146   0.394  10.277  1.00  0.00     0.074 A 
ATOM     29  C   UNL     1       5.682   2.559   8.470  1.00  0.00     0.029 A 
ATOM     30  N   UNL     1       3.977   2.876   9.814  1.00  0.00    -0.354 N 
ATOM     31  N   UNL     1       0.957  -0.131  10.734  1.00  0.00    -0.248 NA
ATOM     32  C   UNL     1      -0.180   1.849  10.261  1.00  0.00     0.031 C 
ATOM     33  C   UNL     1       5.376   1.345   9.155  1.00  0.00     0.029 A 
ATOM     34  C   UNL     1       4.165   1.518   9.826  1.00  0.00     0.049 A 
ATOM     35  H   UNL     1       3.495   3.401  10.492  1.00  0.00     0.167 HD
ATOM     36  C   UNL     1       1.901   0.878  10.622  1.00  0.00     0.074 A 
ATOM     37  C   UNL     1       1.125   2.100  10.406  1.00  0.00     0.031 C 
ATOM     38  C   UNL     1       3.222   0.590  10.415  1.00  0.00     0.034 A 
BRANCH  25  39
ATOM     39  C   UNL     1       3.200   5.563   8.464  1.00  0.00     0.023 A 
ATOM     40  C   UNL     1       3.633   5.916   9.755  1.00  0.00     0.031 A 
ATOM     41  C   UNL     1       2.000   6.179   8.042  1.00  0.00     0.131 A 
ATOM     42  C   UNL     1       2.796   6.628  10.628  1.00  0.00     0.055 A 
ATOM     43  C   UNL     1       1.205   6.957   8.891  1.00  0.00     0.041 A 
ATOM     44  F   UNL     1       1.483   6.026   6.819  1.00  0.00    -0.206 F 
ATOM     45  C   UNL     1       1.573   7.140  10.211  1.00  0.00     0.022 A 
BRANCH  42  46
ATOM     46  S   UNL     1       3.237   6.648  12.382  1.00  0.00     0.124 S 
ATOM     47  O   UNL     1       3.332   5.215  12.656  1.00  0.00    -0.237 OA
ATOM     48  O   UNL     1       4.497   7.385  12.363  1.00  0.00    -0.237 OA
ATOM     49  O   UNL     1       2.115   7.337  13.006  1.00  0.00    -0.744 OA
ENDBRANCH  42  46
ENDBRANCH  25  39
BRANCH  26  50
ATOM     50  C   UNL     1      -2.544  -0.441   9.620  1.00  0.00     0.023 A 
ATOM     51  C   UNL     1      -3.125  -0.526  10.913  1.00  0.00     0.031 A 
ATOM     52  C   UNL     1      -3.443  -0.213   8.553  1.00  0.00     0.131 A 
ATOM     53  C   UNL     1      -4.531  -0.391  11.084  1.00  0.00     0.055 A 
ATOM     54  C   UNL     1      -4.823  -0.080   8.728  1.00  0.00     0.041 A 
ATOM     55  F   UNL     1      -3.003  -0.023   7.300  1.00  0.00    -0.206 F 
ATOM     56  C   UNL     1      -5.373  -0.158   9.995  1.00  0.00     0.022 A 
BRANCH  53  57
ATOM     57  S   UNL     1      -5.306  -0.439  12.741  1.00  0.00     0.124 S 
ATOM     58  O   UNL     1      -5.109  -1.824  13.141  1.00  0.00    -0.237 OA
ATOM     59  O   UNL     1      -4.545   0.568  13.477  1.00  0.00    -0.237 OA
ATOM     60  O   UNL     1      -6.699  -0.070  12.480  1.00  0.00    -0.744 OA
ENDBRANCH  53  57
ENDBRANCH  26  50
BRANCH  38  61
ATOM     61  C   UNL     1       3.699  -0.829  10.637  1.00  0.00     0.023 A 
ATOM     62  C   UNL     1       3.191  -1.976   9.985  1.00  0.00     0.031 A 
ATOM     63  C   UNL     1       4.807  -0.998  11.486  1.00  0.00     0.131 A 
ATOM     64  C   UNL     1       3.784  -3.234  10.212  1.00  0.00     0.055 A 
ATOM     65  C   UNL     1       5.404  -2.240  11.690  1.00  0.00     0.041 A 
ATOM     66  F   UNL     1       5.354   0.057  12.112  1.00  0.00    -0.206 F 
ATOM     67  C   UNL     1       4.890  -3.365  11.059  1.00  0.00     0.022 A 
BRANCH  64  68
ATOM     68  S   UNL     1       3.118  -4.738   9.426  1.00  0.00     0.124 S 
ATOM     69  O   UNL     1       1.681  -4.637   9.653  1.00  0.00    -0.237 OA
ATOM     70  O   UNL     1       3.558  -4.592   8.040  1.00  0.00    -0.237 OA
ATOM     71  O   UNL     1       3.775  -5.823  10.158  1.00  0.00    -0.744 OA
ENDBRANCH  64  68
ENDBRANCH  38  61
ENDBRANCH  12  13
ENDBRANCH   5   7
ENDBRANCH   2   3
ENDBRANCH   1   2
BRANCH   1  72
ATOM     72  C   UNL     1       3.966  -4.013  -0.831  1.00  0.00     0.023 C 
BRANCH  72  73
ATOM     73  C   UNL     1       4.144  -3.857  -2.345  1.00  0.00     0.116 C 
BRANCH  73  74
ATOM     74  N   UNL     1       5.502  -3.613  -2.822  1.00  0.00    -0.351 N 
ATOM     75  C   UNL     1       6.433  -4.501  -3.338  1.00  0.00     0.272 C 
ATOM     76  H   UNL     1       5.801  -2.677  -2.769  1.00  0.00     0.163 HD
ATOM     77  O   UNL     1       7.428  -4.088  -3.926  1.00  0.00    -0.267 OA
BRANCH  75  78
ATOM     78  C   UNL     1       6.163  -5.946  -3.305  1.00  0.00     0.159 A 
ATOM     79  N   UNL     1       5.122  -6.254  -4.162  1.00  0.00    -0.247 NA
ATOM     80  C   UNL     1       6.894  -6.914  -2.626  1.00  0.00     0.159 A 
ATOM     81  C   UNL     1       4.815  -7.552  -4.316  1.00  0.00     0.132 A 
ATOM     82  N   UNL     1       6.507  -8.232  -2.792  1.00  0.00    -0.247 NA
ATOM     83  C   UNL     1       5.491  -8.527  -3.631  1.00  0.00     0.132 A 
BRANCH  80  84
ATOM     84  C   UNL     1       8.163  -6.863  -1.789  1.00  0.00     0.276 C 
ATOM     85  O   UNL     1       8.662  -7.952  -1.459  1.00  0.00    -0.267 OA
ATOM     86  N   UNL     1       8.961  -5.796  -1.447  1.00  0.00    -0.321 N 
ATOM     87  H   UNL     1       9.870  -6.070  -1.187  1.00  0.00     0.170 HD
BRANCH  86  88
ATOM     88  C   UNL     1       8.781  -4.424  -1.384  1.00  0.00     0.043 A 
ATOM     89  C   UNL     1       7.777  -3.841  -0.624  1.00  0.00     0.028 A 
ATOM     90  C   UNL     1       9.693  -3.622  -2.074  1.00  0.00     0.049 A 
ATOM     91  C   UNL     1       7.570  -2.463  -0.723  1.00  0.00     0.032 A 
ATOM     92  C   UNL     1       9.404  -2.272  -2.280  1.00  0.00     0.068 A 
ATOM     93  C   UNL     1       8.272  -1.717  -1.683  1.00  0.00     0.085 A 
ATOM     94  Cl  UNL     1      10.510  -1.357  -3.240  1.00  0.00    -0.082 Cl
BRANCH  93  95
ATOM     95  N   UNL     1       7.646  -0.547  -2.180  1.00  0.00    -0.220 N 
ATOM     96  C   UNL     1       7.507  -0.184  -3.504  1.00  0.00     0.226 A 
ATOM     97  N   UNL     1       6.766   0.172  -1.439  1.00  0.00    -0.155 NA
ATOM     98  N   UNL     1       6.614   0.771  -3.632  1.00  0.00    -0.223 NA
ATOM     99  C   UNL     1       6.202   0.967  -2.350  1.00  0.00     0.246 A 
ENDBRANCH  93  95
ENDBRANCH  86  88
ENDBRANCH  80  84
ENDBRANCH  75  78
ENDBRANCH  73  74
ENDBRANCH  72  73
ENDBRANCH   1  72
TORSDOF 17
