REMARK SMILES COc1cccc(-c2c(C(=O)NCCCCNC(=O)c3ccc(-c4c5nc(c(-c6cc(S(=O)(=O)[O-])ccc6F)c6ccc([nH]6)c(-c6cc(S(=O)(=O)[O-])ccc6F)c6nc(c(-c7cc(S(=O)(=O)[O-])ccc7F)c7ccc4[nH]7)C=C6)C=C5)cc3)nnn2Cc2ccc(OC(F)(F)F)cc2)c1
REMARK SMILES IDX 14 1 13 2 12 3 10 4 11 5 9 7 8 8 85 9 83 10 84 11 7 12 3 13
REMARK SMILES IDX 4 14 98 15 5 16 6 17 2 18 1 19 86 20 87 21 88 22 97 23 89 24
REMARK SMILES IDX 96 25 90 26 91 27 92 28 93 29 94 30 95 31 15 32 16 33 17 34
REMARK SMILES IDX 18 35 19 37 20 38 21 39 82 40 22 41 81 42 23 43 24 44 25 45
REMARK SMILES IDX 75 46 26 47 80 48 74 49 76 50 27 51 79 52 73 53 72 54 28 56
REMARK SMILES IDX 60 57 40 58 59 59 41 60 44 61 58 62 77 63 42 64 43 65 57 67
REMARK SMILES IDX 78 68 45 69 29 70 30 71 38 72 31 73 37 74 39 75 36 76 32 77
REMARK SMILES IDX 33 78 34 79 35 80 61 81 62 82 70 83 63 84 69 85 71 86 68 87
REMARK SMILES IDX 64 88 65 89 66 90 67 91 46 92 47 93 55 94 48 95 54 96 56 97
REMARK SMILES IDX 53 98 49 99 50 100 51 101 52 102
REMARK H PARENT 12 6 17 36 76 55 44 66
REMARK Flexibility Score: inf
ROOT
ATOM      1  C   UNL     1       1.014  -4.823   1.760  1.00  0.00     0.023 C 
ENDROOT
BRANCH   1   2
ATOM      2  C   UNL     1       1.677  -4.462   3.081  1.00  0.00     0.116 C 
BRANCH   2   3
ATOM      3  N   UNL     1       2.861  -5.199   3.426  1.00  0.00    -0.351 N 
ATOM      4  C   UNL     1       4.146  -4.788   3.717  1.00  0.00     0.274 C 
ATOM      5  O   UNL     1       4.908  -5.714   4.021  1.00  0.00    -0.267 OA
ATOM      6  H   UNL     1       2.732  -6.174   3.462  1.00  0.00     0.163 HD
BRANCH   4   7
ATOM      7  C   UNL     1       4.665  -3.406   3.632  1.00  0.00     0.178 A 
ATOM      8  C   UNL     1       4.138  -2.106   3.621  1.00  0.00     0.102 A 
ATOM      9  N   UNL     1       5.258  -1.300   3.511  1.00  0.00    -0.239 N 
ATOM     10  N   UNL     1       6.046  -3.292   3.511  1.00  0.00    -0.124 NA
ATOM     11  N   UNL     1       6.377  -2.025   3.376  1.00  0.00    -0.066 NA
BRANCH   8  12
ATOM     12  C   UNL     1       2.796  -1.533   3.635  1.00  0.00     0.006 A 
ATOM     13  C   UNL     1       0.958  -0.558   2.361  1.00  0.00     0.119 A 
ATOM     14  C   UNL     1       0.148  -0.664   3.493  1.00  0.00     0.046 A 
ATOM     15  C   UNL     1       2.277  -0.999   2.434  1.00  0.00     0.056 A 
ATOM     16  C   UNL     1       0.653  -1.181   4.690  1.00  0.00     0.005 A 
ATOM     17  C   UNL     1       1.982  -1.603   4.769  1.00  0.00     0.011 A 
BRANCH  13  18
ATOM     18  O   UNL     1       0.352  -0.020   1.260  1.00  0.00    -0.497 OA
ATOM     19  C   UNL     1       1.059  -0.075   0.027  1.00  0.00     0.278 C 
ENDBRANCH  13  18
ENDBRANCH   8  12
BRANCH   9  20
ATOM     20  C   UNL     1       5.337   0.146   3.342  1.00  0.00     0.182 C 
BRANCH  20  21
ATOM     21  C   UNL     1       5.959   0.857   4.518  1.00  0.00    -0.026 A 
ATOM     22  C   UNL     1       5.215   1.767   5.279  1.00  0.00     0.009 A 
ATOM     23  C   UNL     1       7.309   0.663   4.837  1.00  0.00     0.009 A 
ATOM     24  C   UNL     1       5.819   2.471   6.324  1.00  0.00     0.047 A 
ATOM     25  C   UNL     1       7.907   1.358   5.891  1.00  0.00     0.047 A 
ATOM     26  C   UNL     1       7.168   2.275   6.636  1.00  0.00     0.129 A 
BRANCH  26  27
ATOM     27  O   UNL     1       7.632   3.038   7.669  1.00  0.00    -0.406 OA
BRANCH  27  28
ATOM     28  C   UNL     1       8.988   2.869   8.046  1.00  0.00     0.573 C 
ATOM     29  F   UNL     1       9.228   1.611   8.470  1.00  0.00    -0.132 F 
ATOM     30  F   UNL     1       9.820   3.168   7.023  1.00  0.00    -0.132 F 
ATOM     31  F   UNL     1       9.265   3.717   9.062  1.00  0.00    -0.132 F 
ENDBRANCH  27  28
ENDBRANCH  26  27
ENDBRANCH  20  21
ENDBRANCH   9  20
ENDBRANCH   4   7
ENDBRANCH   2   3
ENDBRANCH   1   2
BRANCH   1  32
ATOM     32  C   UNL     1       0.034  -5.992   1.779  1.00  0.00     0.023 C 
BRANCH  32  33
ATOM     33  C   UNL     1      -1.080  -5.891   2.817  1.00  0.00     0.116 C 
BRANCH  33  34
ATOM     34  N   UNL     1      -1.922  -4.709   2.662  1.00  0.00    -0.352 N 
ATOM     35  C   UNL     1      -3.002  -4.345   3.451  1.00  0.00     0.251 C 
ATOM     36  H   UNL     1      -1.700  -4.106   1.916  1.00  0.00     0.163 HD
ATOM     37  O   UNL     1      -3.852  -3.578   3.033  1.00  0.00    -0.269 OA
BRANCH  35  38
ATOM     38  C   UNL     1      -3.094  -4.908   4.814  1.00  0.00     0.039 A 
ATOM     39  C   UNL     1      -4.287  -5.468   5.281  1.00  0.00     0.014 A 
ATOM     40  C   UNL     1      -1.948  -4.902   5.608  1.00  0.00     0.014 A 
ATOM     41  C   UNL     1      -4.290  -6.114   6.517  1.00  0.00     0.010 A 
ATOM     42  C   UNL     1      -1.929  -5.613   6.788  1.00  0.00     0.010 A 
ATOM     43  C   UNL     1      -3.100  -6.210   7.257  1.00  0.00    -0.014 A 
BRANCH  43  44
ATOM     44  C   UNL     1      -3.014  -7.112   8.409  1.00  0.00     0.031 A 
ATOM     45  C   UNL     1      -3.330  -8.532   8.089  1.00  0.00     0.074 A 
ATOM     46  C   UNL     1      -2.426  -6.782   9.580  1.00  0.00     0.049 A 
ATOM     47  N   UNL     1      -4.348  -9.228   8.476  1.00  0.00    -0.248 NA
ATOM     48  C   UNL     1      -2.503  -9.213   7.078  1.00  0.00     0.031 C 
ATOM     49  C   UNL     1      -1.780  -5.511   9.915  1.00  0.00     0.029 A 
ATOM     50  N   UNL     1      -2.154  -7.555  10.673  1.00  0.00    -0.354 N 
ATOM     51  C   UNL     1      -4.123 -10.517   7.997  1.00  0.00     0.074 A 
ATOM     52  C   UNL     1      -3.152 -10.372   6.949  1.00  0.00     0.031 C 
ATOM     53  C   UNL     1      -0.996  -5.675  11.001  1.00  0.00     0.029 A 
ATOM     54  C   UNL     1      -1.192  -7.015  11.528  1.00  0.00     0.049 A 
ATOM     55  H   UNL     1      -2.597  -8.417  10.842  1.00  0.00     0.167 HD
ATOM     56  C   UNL     1      -4.512 -11.609   8.716  1.00  0.00     0.034 A 
ATOM     57  C   UNL     1      -0.562  -7.626  12.570  1.00  0.00     0.034 A 
ATOM     58  C   UNL     1      -5.469 -11.233   9.743  1.00  0.00     0.049 A 
ATOM     59  C   UNL     1      -1.420  -8.761  12.987  1.00  0.00     0.074 A 
ATOM     60  C   UNL     1      -6.663 -10.532   9.748  1.00  0.00     0.029 A 
ATOM     61  N   UNL     1      -5.059 -11.249  11.061  1.00  0.00    -0.354 N 
ATOM     62  N   UNL     1      -2.608  -8.607  13.503  1.00  0.00    -0.248 NA
ATOM     63  C   UNL     1      -1.169 -10.068  12.399  1.00  0.00     0.031 C 
ATOM     64  C   UNL     1      -6.618  -9.737  10.933  1.00  0.00     0.029 A 
ATOM     65  C   UNL     1      -5.458 -10.069  11.634  1.00  0.00     0.049 A 
ATOM     66  H   UNL     1      -4.570 -11.976  11.509  1.00  0.00     0.167 HD
ATOM     67  C   UNL     1      -3.383  -9.590  12.910  1.00  0.00     0.074 A 
ATOM     68  C   UNL     1      -2.421 -10.530  12.335  1.00  0.00     0.031 C 
ATOM     69  C   UNL     1      -4.717  -9.395  12.683  1.00  0.00     0.034 A 
BRANCH  56  70
ATOM     70  C   UNL     1      -3.715 -12.908   8.809  1.00  0.00     0.023 A 
ATOM     71  C   UNL     1      -4.196 -13.865   9.722  1.00  0.00     0.031 A 
ATOM     72  C   UNL     1      -2.396 -13.125   8.351  1.00  0.00     0.131 A 
ATOM     73  C   UNL     1      -3.335 -14.813  10.298  1.00  0.00     0.055 A 
ATOM     74  C   UNL     1      -1.565 -14.126   8.868  1.00  0.00     0.041 A 
ATOM     75  F   UNL     1      -1.799 -12.356   7.435  1.00  0.00    -0.206 F 
ATOM     76  C   UNL     1      -2.015 -14.943   9.887  1.00  0.00     0.022 A 
BRANCH  73  77
ATOM     77  S   UNL     1      -3.922 -15.692  11.766  1.00  0.00     0.124 S 
ATOM     78  O   UNL     1      -4.271 -14.572  12.635  1.00  0.00    -0.237 OA
ATOM     79  O   UNL     1      -5.036 -16.463  11.226  1.00  0.00    -0.237 OA
ATOM     80  O   UNL     1      -2.760 -16.473  12.179  1.00  0.00    -0.744 OA
ENDBRANCH  73  77
ENDBRANCH  56  70
BRANCH  57  81
ATOM     81  C   UNL     1       0.840  -7.433  13.045  1.00  0.00     0.023 A 
ATOM     82  C   UNL     1       1.290  -7.859  14.315  1.00  0.00     0.031 A 
ATOM     83  C   UNL     1       1.838  -7.025  12.131  1.00  0.00     0.131 A 
ATOM     84  C   UNL     1       2.674  -7.864  14.621  1.00  0.00     0.055 A 
ATOM     85  C   UNL     1       3.201  -7.025  12.440  1.00  0.00     0.041 A 
ATOM     86  F   UNL     1       1.532  -6.691  10.867  1.00  0.00    -0.206 F 
ATOM     87  C   UNL     1       3.626  -7.456  13.685  1.00  0.00     0.022 A 
BRANCH  84  88
ATOM     88  S   UNL     1       3.275  -8.506  16.220  1.00  0.00     0.124 S 
ATOM     89  O   UNL     1       2.834  -7.477  17.154  1.00  0.00    -0.237 OA
ATOM     90  O   UNL     1       2.607  -9.799  16.313  1.00  0.00    -0.237 OA
ATOM     91  O   UNL     1       4.725  -8.582  16.034  1.00  0.00    -0.744 OA
ENDBRANCH  84  88
ENDBRANCH  57  81
BRANCH  69  92
ATOM     92  C   UNL     1      -5.424  -8.273  13.415  1.00  0.00     0.023 A 
ATOM     93  C   UNL     1      -5.040  -6.912  13.392  1.00  0.00     0.031 A 
ATOM     94  C   UNL     1      -6.611  -8.602  14.095  1.00  0.00     0.131 A 
ATOM     95  C   UNL     1      -5.826  -5.947  14.052  1.00  0.00     0.055 A 
ATOM     96  C   UNL     1      -7.397  -7.642  14.728  1.00  0.00     0.041 A 
ATOM     97  F   UNL     1      -7.047  -9.872  14.130  1.00  0.00    -0.206 F 
ATOM     98  C   UNL     1      -7.002  -6.310  14.717  1.00  0.00     0.022 A 
BRANCH  95  99
ATOM     99  S   UNL     1      -5.321  -4.197  14.085  1.00  0.00     0.124 S 
ATOM    100  O   UNL     1      -3.897  -4.253  14.392  1.00  0.00    -0.237 OA
ATOM    101  O   UNL     1      -5.667  -3.744  12.740  1.00  0.00    -0.237 OA
ATOM    102  O   UNL     1      -6.151  -3.625  15.148  1.00  0.00    -0.744 OA
ENDBRANCH  95  99
ENDBRANCH  69  92
ENDBRANCH  43  44
ENDBRANCH  35  38
ENDBRANCH  33  34
ENDBRANCH  32  33
ENDBRANCH   1  32
TORSDOF 20
