REMARK SMILES O=C(NCCCCNC(=O)c1ccnc(Oc2cccc(C(F)(F)F)c2)c1)c1ccc(-c2c3nc(c(-c4cc(S(=O)(=O)[O-])ccc4F)c4ccc([nH]4)c(-c4cc(S(=O)(=O)[O-])ccc4F)c4nc(c(-c5cc(S(=O)(=O)[O-])ccc5F)c5ccc2[nH]5)C=C4)C=C3)cc1
REMARK SMILES IDX 5 1 4 2 3 3 1 4 2 5 28 7 29 8 90 9 30 10 89 11 31 12 32 13
REMARK SMILES IDX 33 14 83 15 34 16 88 17 82 18 84 19 35 20 87 21 81 22 80 23
REMARK SMILES IDX 36 25 68 26 48 27 67 28 49 29 52 30 66 31 85 32 50 33 51 34
REMARK SMILES IDX 65 36 86 37 53 38 37 39 38 40 46 41 39 42 45 43 47 44 44 45
REMARK SMILES IDX 40 46 41 47 42 48 43 49 69 50 70 51 78 52 71 53 77 54 79 55
REMARK SMILES IDX 76 56 72 57 73 58 74 59 75 60 54 61 55 62 63 63 56 64 62 65
REMARK SMILES IDX 64 66 61 67 57 68 58 69 59 70 60 71 6 72 7 73 8 74 9 75
REMARK SMILES IDX 10 77 11 78 12 79 27 80 13 81 15 82 14 83 16 84 17 85 18 86
REMARK SMILES IDX 26 87 19 88 21 89 20 90 22 91 23 92 24 93 25 94
REMARK H PARENT 3 6 84 24 52 35 8 76
REMARK Flexibility Score: inf
ROOT
ATOM      1  C   UNL     1       4.896   1.003   2.478  1.00  0.00     0.023 C 
ENDROOT
BRANCH   1   2
ATOM      2  C   UNL     1       4.535   0.068   1.329  1.00  0.00     0.116 C 
BRANCH   2   3
ATOM      3  N   UNL     1       3.101  -0.108   1.162  1.00  0.00    -0.352 N 
ATOM      4  O   UNL     1       1.113  -0.052   0.104  1.00  0.00    -0.269 OA
ATOM      5  C   UNL     1       2.336   0.025   0.027  1.00  0.00     0.251 C 
ATOM      6  H   UNL     1       2.608  -0.359   1.977  1.00  0.00     0.163 HD
BRANCH   5   7
ATOM      7  C   UNL     1       2.986   0.287  -1.276  1.00  0.00     0.039 A 
ATOM      8  C   UNL     1       4.106  -0.445  -1.676  1.00  0.00     0.014 A 
ATOM      9  C   UNL     1       2.465   1.284  -2.106  1.00  0.00     0.014 A 
ATOM     10  C   UNL     1       4.787  -0.088  -2.836  1.00  0.00     0.010 A 
ATOM     11  C   UNL     1       3.106   1.588  -3.311  1.00  0.00     0.010 A 
ATOM     12  C   UNL     1       4.290   0.925  -3.671  1.00  0.00    -0.014 A 
BRANCH  12  13
ATOM     13  C   UNL     1       4.995   1.240  -4.940  1.00  0.00     0.031 A 
ATOM     14  C   UNL     1       5.641   2.579  -5.159  1.00  0.00     0.074 A 
ATOM     15  C   UNL     1       5.051   0.295  -5.899  1.00  0.00     0.049 A 
ATOM     16  N   UNL     1       6.279   3.026  -6.211  1.00  0.00    -0.248 NA
ATOM     17  C   UNL     1       5.544   3.548  -4.058  1.00  0.00     0.031 C 
ATOM     18  C   UNL     1       4.445  -1.036  -5.802  1.00  0.00     0.029 A 
ATOM     19  N   UNL     1       5.641   0.302  -7.136  1.00  0.00    -0.354 N 
ATOM     20  C   UNL     1       6.649   4.333  -5.909  1.00  0.00     0.074 A 
ATOM     21  C   UNL     1       6.128   4.614  -4.586  1.00  0.00     0.031 C 
ATOM     22  C   UNL     1       4.712  -1.723  -6.921  1.00  0.00     0.029 A 
ATOM     23  C   UNL     1       5.452  -0.864  -7.839  1.00  0.00     0.049 A 
ATOM     24  H   UNL     1       6.150   1.067  -7.487  1.00  0.00     0.167 HD
ATOM     25  C   UNL     1       7.361   5.208  -6.663  1.00  0.00     0.034 A 
ATOM     26  C   UNL     1       5.803  -1.199  -9.095  1.00  0.00     0.034 A 
ATOM     27  C   UNL     1       7.871   4.904  -7.980  1.00  0.00     0.049 A 
ATOM     28  C   UNL     1       6.563  -0.203  -9.925  1.00  0.00     0.074 A 
ATOM     29  C   UNL     1       8.649   5.694  -8.809  1.00  0.00     0.029 A 
ATOM     30  N   UNL     1       7.639   3.720  -8.671  1.00  0.00    -0.354 N 
ATOM     31  N   UNL     1       6.937   1.016  -9.611  1.00  0.00    -0.248 NA
ATOM     32  C   UNL     1       6.953  -0.628 -11.274  1.00  0.00     0.031 C 
ATOM     33  C   UNL     1       8.828   5.019 -10.023  1.00  0.00     0.029 A 
ATOM     34  C   UNL     1       8.225   3.775  -9.928  1.00  0.00     0.049 A 
ATOM     35  H   UNL     1       7.132   2.953  -8.320  1.00  0.00     0.167 HD
ATOM     36  C   UNL     1       7.618   1.500 -10.722  1.00  0.00     0.074 A 
ATOM     37  C   UNL     1       7.619   0.434 -11.704  1.00  0.00     0.031 C 
ATOM     38  C   UNL     1       8.193   2.716 -10.910  1.00  0.00     0.034 A 
BRANCH  25  39
ATOM     39  C   UNL     1       7.585   6.592  -6.096  1.00  0.00     0.023 A 
ATOM     40  C   UNL     1       8.323   6.802  -4.918  1.00  0.00     0.031 A 
ATOM     41  C   UNL     1       7.024   7.717  -6.727  1.00  0.00     0.131 A 
ATOM     42  C   UNL     1       8.413   8.090  -4.366  1.00  0.00     0.055 A 
ATOM     43  C   UNL     1       7.184   9.007  -6.216  1.00  0.00     0.041 A 
ATOM     44  F   UNL     1       6.294   7.580  -7.845  1.00  0.00    -0.206 F 
ATOM     45  C   UNL     1       7.868   9.198  -5.019  1.00  0.00     0.022 A 
BRANCH  42  46
ATOM     46  S   UNL     1       9.116   8.274  -2.703  1.00  0.00     0.124 S 
ATOM     47  O   UNL     1       8.282   7.359  -1.926  1.00  0.00    -0.237 OA
ATOM     48  O   UNL     1      10.501   7.864  -2.901  1.00  0.00    -0.237 OA
ATOM     49  O   UNL     1       8.919   9.690  -2.402  1.00  0.00    -0.744 OA
ENDBRANCH  42  46
ENDBRANCH  25  39
BRANCH  26  50
ATOM     50  C   UNL     1       5.391  -2.518  -9.648  1.00  0.00     0.023 A 
ATOM     51  C   UNL     1       6.334  -3.511  -9.950  1.00  0.00     0.031 A 
ATOM     52  C   UNL     1       4.031  -2.804  -9.870  1.00  0.00     0.131 A 
ATOM     53  C   UNL     1       5.906  -4.739 -10.480  1.00  0.00     0.055 A 
ATOM     54  C   UNL     1       3.607  -4.042 -10.354  1.00  0.00     0.041 A 
ATOM     55  F   UNL     1       3.090  -1.889  -9.587  1.00  0.00    -0.206 F 
ATOM     56  C   UNL     1       4.549  -5.015 -10.670  1.00  0.00     0.022 A 
BRANCH  53  57
ATOM     57  S   UNL     1       7.156  -5.959 -10.966  1.00  0.00     0.124 S 
ATOM     58  O   UNL     1       7.923  -5.220 -11.962  1.00  0.00    -0.237 OA
ATOM     59  O   UNL     1       7.832  -6.220  -9.700  1.00  0.00    -0.237 OA
ATOM     60  O   UNL     1       6.362  -7.070 -11.486  1.00  0.00    -0.744 OA
ENDBRANCH  53  57
ENDBRANCH  26  50
BRANCH  38  61
ATOM     61  C   UNL     1       8.892   2.937 -12.228  1.00  0.00     0.023 A 
ATOM     62  C   UNL     1       8.178   3.024 -13.436  1.00  0.00     0.031 A 
ATOM     63  C   UNL     1      10.293   3.041 -12.276  1.00  0.00     0.131 A 
ATOM     64  C   UNL     1       8.872   3.160 -14.648  1.00  0.00     0.055 A 
ATOM     65  C   UNL     1      10.974   3.232 -13.479  1.00  0.00     0.041 A 
ATOM     66  F   UNL     1      11.023   2.960 -11.152  1.00  0.00    -0.206 F 
ATOM     67  C   UNL     1      10.264   3.280 -14.675  1.00  0.00     0.022 A 
BRANCH  64  68
ATOM     68  S   UNL     1       7.936   3.097 -16.201  1.00  0.00     0.124 S 
ATOM     69  O   UNL     1       7.329   1.771 -16.134  1.00  0.00    -0.237 OA
ATOM     70  O   UNL     1       7.021   4.225 -16.062  1.00  0.00    -0.237 OA
ATOM     71  O   UNL     1       8.964   3.257 -17.228  1.00  0.00    -0.744 OA
ENDBRANCH  64  68
ENDBRANCH  38  61
ENDBRANCH  12  13
ENDBRANCH   5   7
ENDBRANCH   2   3
ENDBRANCH   1   2
BRANCH   1  72
ATOM     72  C   UNL     1       4.399   0.578   3.858  1.00  0.00     0.023 C 
BRANCH  72  73
ATOM     73  C   UNL     1       4.726  -0.857   4.263  1.00  0.00     0.116 C 
BRANCH  73  74
ATOM     74  N   UNL     1       6.155  -1.124   4.313  1.00  0.00    -0.352 N 
ATOM     75  C   UNL     1       6.935  -1.514   5.371  1.00  0.00     0.251 C 
ATOM     76  H   UNL     1       6.634  -1.006   3.461  1.00  0.00     0.163 HD
ATOM     77  O   UNL     1       8.154  -1.593   5.264  1.00  0.00    -0.269 OA
BRANCH  75  78
ATOM     78  C   UNL     1       6.311  -1.805   6.673  1.00  0.00     0.046 A 
ATOM     79  C   UNL     1       5.306  -2.757   6.793  1.00  0.00     0.034 A 
ATOM     80  C   UNL     1       6.762  -1.100   7.787  1.00  0.00     0.082 A 
ATOM     81  C   UNL     1       4.728  -2.905   8.034  1.00  0.00     0.116 A 
ATOM     82  C   UNL     1       6.104  -1.296   8.989  1.00  0.00     0.219 A 
ATOM     83  N   UNL     1       5.091  -2.187   9.119  1.00  0.00    -0.222 NA
BRANCH  82  84
ATOM     84  O   UNL     1       6.385  -0.633  10.165  1.00  0.00    -0.439 OA
BRANCH  84  85
ATOM     85  C   UNL     1       7.360   0.331  10.184  1.00  0.00     0.130 A 
ATOM     86  C   UNL     1       8.464   0.109  11.006  1.00  0.00     0.047 A 
ATOM     87  C   UNL     1       7.228   1.534   9.485  1.00  0.00     0.060 A 
ATOM     88  C   UNL     1       9.471   1.068  11.089  1.00  0.00     0.004 A 
ATOM     89  C   UNL     1       8.253   2.492   9.536  1.00  0.00     0.059 A 
ATOM     90  C   UNL     1       9.373   2.247  10.350  1.00  0.00     0.013 A 
BRANCH  89  91
ATOM     91  C   UNL     1       8.171   3.768   8.734  1.00  0.00     0.416 C 
ATOM     92  F   UNL     1       8.083   4.871   9.528  1.00  0.00    -0.166 F 
ATOM     93  F   UNL     1       9.264   3.957   7.947  1.00  0.00    -0.166 F 
ATOM     94  F   UNL     1       7.094   3.816   7.903  1.00  0.00    -0.166 F 
ENDBRANCH  89  91
ENDBRANCH  84  85
ENDBRANCH  82  84
ENDBRANCH  75  78
ENDBRANCH  73  74
ENDBRANCH  72  73
ENDBRANCH   1  72
TORSDOF 17
