REMARK SMILES COc1ccc(OC)c(NC(=O)[C@@H]2[C@@H](C(=O)NCCCCNC(=O)c3ccc(-c4c5nc(c(-c6cc(S(=O)(=O)[O-])ccc6F)c6ccc([nH]6)c(-c6cc(S(=O)(=O)[O-])ccc6F)c6nc(c(-c7cc(S(=O)(=O)[O-])ccc7F)c7ccc4[nH]7)C=C6)C=C5)cc3)[C@H]3C=C[C@@H]2C3)c1
REMARK SMILES IDX 19 1 18 2 17 3 15 4 16 5 14 7 13 8 91 9 88 10 90 11 92 12
REMARK SMILES IDX 89 13 11 14 10 15 12 17 9 18 3 19 4 20 93 21 5 22 6 23 2 24
REMARK SMILES IDX 1 25 7 26 8 27 20 28 21 29 22 30 23 31 24 33 25 34 26 35
REMARK SMILES IDX 87 36 27 37 86 38 28 39 29 40 30 41 80 42 31 43 85 44 79 45
REMARK SMILES IDX 81 46 32 47 84 48 78 49 77 50 33 52 65 53 45 54 64 55 46 56
REMARK SMILES IDX 49 57 63 58 82 59 47 60 48 61 62 63 83 64 50 65 34 66 35 67
REMARK SMILES IDX 43 68 36 69 42 70 44 71 41 72 37 73 38 74 39 75 40 76 66 77
REMARK SMILES IDX 67 78 75 79 68 80 74 81 76 82 73 83 69 84 70 85 71 86 72 87
REMARK SMILES IDX 51 88 52 89 60 90 53 91 59 92 61 93 58 94 54 95 55 96 56 97
REMARK SMILES IDX 57 98
REMARK H PARENT 17 6 10 16 22 32 81 51 49 62
REMARK Flexibility Score: inf
ROOT
ATOM      1  C   UNL     1       3.188  -2.385 -10.317  1.00  0.00     0.023 C 
ENDROOT
BRANCH   1   2
ATOM      2  C   UNL     1       4.094  -1.424  -9.558  1.00  0.00     0.116 C 
BRANCH   2   3
ATOM      3  N   UNL     1       3.542  -0.096  -9.514  1.00  0.00    -0.356 N 
ATOM      4  C   UNL     1       2.737   0.520  -8.630  1.00  0.00     0.224 C 
ATOM      5  O   UNL     1       2.506   1.716  -8.864  1.00  0.00    -0.275 OA
ATOM      6  H   UNL     1       3.804   0.470 -10.275  1.00  0.00     0.163 HD
BRANCH   4   7
ATOM      7  C   UNL     1       2.053  -0.114  -7.432  1.00  0.00     0.098 C 
ATOM      8  C   UNL     1       2.531  -1.338  -6.619  1.00  0.00     0.099 C 
ATOM      9  C   UNL     1       1.189  -2.019  -6.228  1.00  0.00     0.025 C 
ATOM     10  C   UNL     1       0.557  -0.455  -7.716  1.00  0.00     0.025 C 
ATOM     11  C   UNL     1       0.741  -2.744  -7.493  1.00  0.00    -0.027 C 
ATOM     12  C   UNL     1       0.127  -0.914  -6.324  1.00  0.00     0.017 C 
ATOM     13  C   UNL     1       0.383  -1.800  -8.381  1.00  0.00    -0.027 C 
BRANCH   8  14
ATOM     14  C   UNL     1       3.685  -1.147  -5.622  1.00  0.00     0.229 C 
ATOM     15  N   UNL     1       3.599  -1.038  -4.269  1.00  0.00    -0.323 N 
ATOM     16  H   UNL     1       4.418  -1.310  -3.797  1.00  0.00     0.170 HD
ATOM     17  O   UNL     1       4.843  -1.200  -6.067  1.00  0.00    -0.274 OA
BRANCH  15  18
ATOM     18  C   UNL     1       2.573  -0.615  -3.418  1.00  0.00     0.087 A 
ATOM     19  C   UNL     1       1.378  -0.915  -1.347  1.00  0.00     0.121 A 
ATOM     20  C   UNL     1       0.297  -0.206  -1.861  1.00  0.00     0.050 A 
ATOM     21  C   UNL     1       2.493  -1.182  -2.143  1.00  0.00     0.076 A 
ATOM     22  C   UNL     1       0.469   0.503  -3.036  1.00  0.00     0.052 A 
ATOM     23  C   UNL     1       1.669   0.394  -3.737  1.00  0.00     0.142 A 
BRANCH  19  24
ATOM     24  O   UNL     1       1.351  -1.365  -0.056  1.00  0.00    -0.497 OA
ATOM     25  C   UNL     1       1.292  -0.252   0.849  1.00  0.00     0.278 C 
ENDBRANCH  19  24
BRANCH  23  26
ATOM     26  O   UNL     1       1.866   1.357  -4.685  1.00  0.00    -0.495 OA
ATOM     27  C   UNL     1       3.140   2.003  -4.606  1.00  0.00     0.278 C 
ENDBRANCH  23  26
ENDBRANCH  15  18
ENDBRANCH   8  14
ENDBRANCH   4   7
ENDBRANCH   2   3
ENDBRANCH   1   2
BRANCH   1  28
ATOM     28  C   UNL     1       3.292  -2.278 -11.834  1.00  0.00     0.023 C 
BRANCH  28  29
ATOM     29  C   UNL     1       4.714  -2.355 -12.354  1.00  0.00     0.116 C 
BRANCH  29  30
ATOM     30  N   UNL     1       5.478  -3.444 -11.755  1.00  0.00    -0.352 N 
ATOM     31  C   UNL     1       6.423  -4.245 -12.350  1.00  0.00     0.251 C 
ATOM     32  H   UNL     1       5.293  -3.628 -10.806  1.00  0.00     0.163 HD
ATOM     33  O   UNL     1       6.893  -5.203 -11.771  1.00  0.00    -0.269 OA
BRANCH  31  34
ATOM     34  C   UNL     1       6.803  -3.909 -13.733  1.00  0.00     0.039 A 
ATOM     35  C   UNL     1       6.704  -4.889 -14.717  1.00  0.00     0.014 A 
ATOM     36  C   UNL     1       7.120  -2.586 -14.053  1.00  0.00     0.014 A 
ATOM     37  C   UNL     1       6.886  -4.524 -16.047  1.00  0.00     0.010 A 
ATOM     38  C   UNL     1       7.173  -2.206 -15.381  1.00  0.00     0.010 A 
ATOM     39  C   UNL     1       7.094  -3.176 -16.389  1.00  0.00    -0.014 A 
BRANCH  39  40
ATOM     40  C   UNL     1       7.311  -2.773 -17.797  1.00  0.00     0.031 A 
ATOM     41  C   UNL     1       8.623  -2.144 -18.181  1.00  0.00     0.074 A 
ATOM     42  C   UNL     1       6.329  -2.941 -18.702  1.00  0.00     0.049 A 
ATOM     43  N   UNL     1       9.017  -1.694 -19.343  1.00  0.00    -0.248 NA
ATOM     44  C   UNL     1       9.606  -1.949 -17.102  1.00  0.00     0.031 C 
ATOM     45  C   UNL     1       4.994  -3.476 -18.417  1.00  0.00     0.029 A 
ATOM     46  N   UNL     1       6.302  -2.688 -20.048  1.00  0.00    -0.354 N 
ATOM     47  C   UNL     1      10.278  -1.149 -19.126  1.00  0.00     0.074 A 
ATOM     48  C   UNL     1      10.538  -1.234 -17.708  1.00  0.00     0.031 C 
ATOM     49  C   UNL     1       4.299  -3.558 -19.564  1.00  0.00     0.029 A 
ATOM     50  C   UNL     1       5.122  -3.049 -20.655  1.00  0.00     0.049 A 
ATOM     51  H   UNL     1       7.057  -2.285 -20.535  1.00  0.00     0.167 HD
ATOM     52  C   UNL     1      11.159  -0.664 -20.033  1.00  0.00     0.034 A 
ATOM     53  C   UNL     1       4.758  -2.982 -21.951  1.00  0.00     0.034 A 
ATOM     54  C   UNL     1      10.888  -0.624 -21.447  1.00  0.00     0.049 A 
ATOM     55  C   UNL     1       5.763  -2.462 -22.948  1.00  0.00     0.074 A 
ATOM     56  C   UNL     1      11.716  -0.211 -22.475  1.00  0.00     0.029 A 
ATOM     57  N   UNL     1       9.690  -1.017 -22.033  1.00  0.00    -0.354 N 
ATOM     58  N   UNL     1       6.980  -2.011 -22.739  1.00  0.00    -0.248 NA
ATOM     59  C   UNL     1       5.353  -2.462 -24.355  1.00  0.00     0.031 C 
ATOM     60  C   UNL     1      10.998  -0.297 -23.673  1.00  0.00     0.029 A 
ATOM     61  C   UNL     1       9.748  -0.836 -23.405  1.00  0.00     0.049 A 
ATOM     62  H   UNL     1       8.914  -1.373 -21.544  1.00  0.00     0.167 HD
ATOM     63  C   UNL     1       7.489  -1.699 -23.996  1.00  0.00     0.074 A 
ATOM     64  C   UNL     1       6.457  -2.044 -24.954  1.00  0.00     0.031 C 
ATOM     65  C   UNL     1       8.696  -1.174 -24.335  1.00  0.00     0.034 A 
BRANCH  52  66
ATOM     66  C   UNL     1      12.474  -0.137 -19.507  1.00  0.00     0.023 A 
ATOM     67  C   UNL     1      13.373  -0.961 -18.803  1.00  0.00     0.031 A 
ATOM     68  C   UNL     1      12.810   1.219 -19.656  1.00  0.00     0.131 A 
ATOM     69  C   UNL     1      14.509  -0.406 -18.197  1.00  0.00     0.055 A 
ATOM     70  C   UNL     1      13.991   1.748 -19.129  1.00  0.00     0.041 A 
ATOM     71  F   UNL     1      11.985   2.062 -20.296  1.00  0.00    -0.206 F 
ATOM     72  C   UNL     1      14.839   0.938 -18.378  1.00  0.00     0.022 A 
BRANCH  69  73
ATOM     73  S   UNL     1      15.457  -1.427 -17.035  1.00  0.00     0.124 S 
ATOM     74  O   UNL     1      14.447  -1.738 -16.025  1.00  0.00    -0.237 OA
ATOM     75  O   UNL     1      15.888  -2.540 -17.871  1.00  0.00    -0.237 OA
ATOM     76  O   UNL     1      16.523  -0.534 -16.585  1.00  0.00    -0.744 OA
ENDBRANCH  69  73
ENDBRANCH  52  66
BRANCH  53  77
ATOM     77  C   UNL     1       3.405  -3.433 -22.386  1.00  0.00     0.023 A 
ATOM     78  C   UNL     1       3.250  -4.529 -23.250  1.00  0.00     0.031 A 
ATOM     79  C   UNL     1       2.247  -2.747 -21.980  1.00  0.00     0.131 A 
ATOM     80  C   UNL     1       1.974  -4.874 -23.724  1.00  0.00     0.055 A 
ATOM     81  C   UNL     1       0.974  -3.127 -22.411  1.00  0.00     0.041 A 
ATOM     82  F   UNL     1       2.336  -1.698 -21.146  1.00  0.00    -0.206 F 
ATOM     83  C   UNL     1       0.834  -4.188 -23.301  1.00  0.00     0.022 A 
BRANCH  80  84
ATOM     84  S   UNL     1       1.835  -6.181 -24.974  1.00  0.00     0.124 S 
ATOM     85  O   UNL     1       2.689  -5.667 -26.039  1.00  0.00    -0.237 OA
ATOM     86  O   UNL     1       2.340  -7.345 -24.252  1.00  0.00    -0.237 OA
ATOM     87  O   UNL     1       0.406  -6.211 -25.279  1.00  0.00    -0.744 OA
ENDBRANCH  80  84
ENDBRANCH  53  77
BRANCH  65  88
ATOM     88  C   UNL     1       8.959  -0.979 -25.808  1.00  0.00     0.023 A 
ATOM     89  C   UNL     1       8.207  -0.071 -26.574  1.00  0.00     0.031 A 
ATOM     90  C   UNL     1       9.949  -1.735 -26.458  1.00  0.00     0.131 A 
ATOM     91  C   UNL     1       8.402  -0.001 -27.960  1.00  0.00     0.055 A 
ATOM     92  C   UNL     1      10.189  -1.606 -27.826  1.00  0.00     0.041 A 
ATOM     93  F   UNL     1      10.697  -2.616 -25.775  1.00  0.00    -0.206 F 
ATOM     94  C   UNL     1       9.400  -0.749 -28.589  1.00  0.00     0.022 A 
BRANCH  91  95
ATOM     95  S   UNL     1       7.245   0.986 -28.948  1.00  0.00     0.124 S 
ATOM     96  O   UNL     1       5.959   0.401 -28.582  1.00  0.00    -0.237 OA
ATOM     97  O   UNL     1       7.492   2.338 -28.458  1.00  0.00    -0.237 OA
ATOM     98  O   UNL     1       7.670   0.737 -30.324  1.00  0.00    -0.744 OA
ENDBRANCH  91  95
ENDBRANCH  65  88
ENDBRANCH  39  40
ENDBRANCH  31  34
ENDBRANCH  29  30
ENDBRANCH  28  29
ENDBRANCH   1  28
TORSDOF 18
