REMARK SMILES CCCCC[NH2+][C@](C)(C(=O)NCCCCNC(=O)c1ccc(-c2c3nc(c(-c4cc(S(=O)(=O)[O-])ccc4F)c4ccc([nH]4)c(-c4cc(S(=O)(=O)[O-])ccc4F)c4nc(c(-c5cc(S(=O)(=O)[O-])ccc5F)c5ccc2[nH]5)C=C4)C=C3)cc1)C(F)(F)F
REMARK SMILES IDX 12 1 11 2 9 3 10 4 7 6 8 7 6 8 5 11 4 12 3 13 2 14 1 15
REMARK SMILES IDX 82 16 83 17 84 18 85 19 13 20 14 21 15 22 16 23 17 24 18 26
REMARK SMILES IDX 19 27 20 28 81 29 21 30 80 31 22 32 23 33 24 34 74 35 25 36
REMARK SMILES IDX 79 37 73 38 75 39 26 40 78 41 72 42 71 43 27 45 59 46 39 47
REMARK SMILES IDX 58 48 40 49 43 50 57 51 76 52 41 53 42 54 56 56 77 57 44 58
REMARK SMILES IDX 28 59 29 60 37 61 30 62 36 63 38 64 35 65 31 66 32 67 33 68
REMARK SMILES IDX 34 69 60 70 61 71 69 72 62 73 68 74 70 75 67 76 63 77 64 78
REMARK SMILES IDX 65 79 66 80 45 81 46 82 54 83 47 84 53 85 55 86 52 87 48 88
REMARK SMILES IDX 49 89 50 90 51 91
REMARK H PARENT 11 5 6 9 6 10 16 25 75 44 43 55
REMARK Flexibility Score: inf
ROOT
ATOM      1  C   UNL     1      -2.284   0.466  -4.766  1.00  0.00     0.116 C 
ENDROOT
BRANCH   1   2
ATOM      2  N   UNL     1      -3.084  -0.669  -5.197  1.00  0.00    -0.350 N 
ATOM      3  C   UNL     1      -3.422  -1.824  -4.537  1.00  0.00     0.290 C 
ATOM      4  O   UNL     1      -4.204  -2.578  -5.122  1.00  0.00    -0.267 OA
ATOM      5  H   UNL     1      -3.442  -0.596  -6.111  1.00  0.00     0.163 HD
BRANCH   3   6
ATOM      6  C   UNL     1      -2.815  -2.167  -3.153  1.00  0.00     0.268 C 
ATOM      7  C   UNL     1      -1.308  -2.436  -3.343  1.00  0.00     0.101 C 
BRANCH   6   8
ATOM      8  N   UNL     1      -3.155  -1.030  -2.220  1.00  0.00    -0.326 N 
ATOM      9  H   UNL     1      -3.287  -0.191  -2.785  1.00  0.00     0.347 HD
ATOM     10  H   UNL     1      -3.989  -1.329  -1.715  1.00  0.00     0.347 HD
BRANCH   8  11
ATOM     11  C   UNL     1      -2.165  -0.726  -1.197  1.00  0.00     0.261 C 
BRANCH  11  12
ATOM     12  C   UNL     1      -2.652   0.414  -0.296  1.00  0.00     0.061 C 
BRANCH  12  13
ATOM     13  C   UNL     1      -3.765   0.034   0.685  1.00  0.00     0.006 C 
BRANCH  13  14
ATOM     14  C   UNL     1      -3.444  -1.145   1.608  1.00  0.00    -0.003 C 
ATOM     15  C   UNL     1      -2.154  -0.969   2.396  1.00  0.00     0.004 C 
ENDBRANCH  13  14
ENDBRANCH  12  13
ENDBRANCH  11  12
ENDBRANCH   8  11
ENDBRANCH   6   8
BRANCH   6  16
ATOM     16  C   UNL     1      -3.466  -3.503  -2.696  1.00  0.00     0.453 C 
ATOM     17  F   UNL     1      -3.228  -4.539  -3.528  1.00  0.00    -0.164 F 
ATOM     18  F   UNL     1      -2.957  -3.868  -1.483  1.00  0.00    -0.164 F 
ATOM     19  F   UNL     1      -4.802  -3.388  -2.513  1.00  0.00    -0.164 F 
ENDBRANCH   6  16
ENDBRANCH   3   6
ENDBRANCH   1   2
BRANCH   1  20
ATOM     20  C   UNL     1      -0.987   0.599  -5.556  1.00  0.00     0.023 C 
BRANCH  20  21
ATOM     21  C   UNL     1      -1.160   1.077  -6.995  1.00  0.00     0.023 C 
BRANCH  21  22
ATOM     22  C   UNL     1      -1.900   2.400  -7.159  1.00  0.00     0.116 C 
BRANCH  22  23
ATOM     23  N   UNL     1      -1.298   3.497  -6.413  1.00  0.00    -0.352 N 
ATOM     24  C   UNL     1      -1.094   4.796  -6.815  1.00  0.00     0.251 C 
ATOM     25  H   UNL     1      -0.999   3.280  -5.500  1.00  0.00     0.163 HD
ATOM     26  O   UNL     1      -0.472   5.574  -6.096  1.00  0.00    -0.269 OA
BRANCH  24  27
ATOM     27  C   UNL     1      -1.591   5.226  -8.139  1.00  0.00     0.039 A 
ATOM     28  C   UNL     1      -0.712   5.861  -9.019  1.00  0.00     0.014 A 
ATOM     29  C   UNL     1      -2.903   4.943  -8.528  1.00  0.00     0.014 A 
ATOM     30  C   UNL     1      -1.125   6.133 -10.325  1.00  0.00     0.010 A 
ATOM     31  C   UNL     1      -3.287   5.150  -9.849  1.00  0.00     0.010 A 
ATOM     32  C   UNL     1      -2.399   5.738 -10.763  1.00  0.00    -0.014 A 
BRANCH  32  33
ATOM     33  C   UNL     1      -2.824   5.918 -12.175  1.00  0.00     0.031 A 
ATOM     34  C   UNL     1      -3.977   6.827 -12.500  1.00  0.00     0.074 A 
ATOM     35  C   UNL     1      -2.229   5.201 -13.149  1.00  0.00     0.049 A 
ATOM     36  N   UNL     1      -4.572   7.034 -13.646  1.00  0.00    -0.248 NA
ATOM     37  C   UNL     1      -4.556   7.575 -11.375  1.00  0.00     0.031 C 
ATOM     38  C   UNL     1      -1.127   4.256 -12.952  1.00  0.00     0.029 A 
ATOM     39  N   UNL     1      -2.475   5.145 -14.498  1.00  0.00    -0.354 N 
ATOM     40  C   UNL     1      -5.605   7.925 -13.380  1.00  0.00     0.074 A 
ATOM     41  C   UNL     1      -5.591   8.165 -11.951  1.00  0.00     0.031 C 
ATOM     42  C   UNL     1      -0.780   3.732 -14.139  1.00  0.00     0.029 A 
ATOM     43  C   UNL     1      -1.660   4.266 -15.173  1.00  0.00     0.049 A 
ATOM     44  H   UNL     1      -3.170   5.684 -14.941  1.00  0.00     0.167 HD
ATOM     45  C   UNL     1      -6.470   8.507 -14.248  1.00  0.00     0.034 A 
ATOM     46  C   UNL     1      -1.634   3.920 -16.475  1.00  0.00     0.034 A 
ATOM     47  C   UNL     1      -6.463   8.264 -15.670  1.00  0.00     0.049 A 
ATOM     48  C   UNL     1      -2.620   4.559 -17.418  1.00  0.00     0.074 A 
ATOM     49  C   UNL     1      -7.258   8.836 -16.648  1.00  0.00     0.029 A 
ATOM     50  N   UNL     1      -5.619   7.370 -16.318  1.00  0.00    -0.354 N 
ATOM     51  N   UNL     1      -3.567   5.431 -17.158  1.00  0.00    -0.248 NA
ATOM     52  C   UNL     1      -2.529   4.172 -18.832  1.00  0.00     0.031 C 
ATOM     53  C   UNL     1      -6.935   8.247 -17.877  1.00  0.00     0.029 A 
ATOM     54  C   UNL     1      -5.893   7.356 -17.678  1.00  0.00     0.049 A 
ATOM     55  H   UNL     1      -4.928   6.826 -15.877  1.00  0.00     0.167 HD
ATOM     56  C   UNL     1      -4.164   5.718 -18.381  1.00  0.00     0.074 A 
ATOM     57  C   UNL     1      -3.465   4.934 -19.379  1.00  0.00     0.031 C 
ATOM     58  C   UNL     1      -5.193   6.559 -18.657  1.00  0.00     0.034 A 
BRANCH  45  59
ATOM     59  C   UNL     1      -7.504   9.441 -13.666  1.00  0.00     0.023 A 
ATOM     60  C   UNL     1      -7.135  10.621 -12.996  1.00  0.00     0.031 A 
ATOM     61  C   UNL     1      -8.872   9.127 -13.737  1.00  0.00     0.131 A 
ATOM     62  C   UNL     1      -8.109  11.394 -12.349  1.00  0.00     0.055 A 
ATOM     63  C   UNL     1      -9.846   9.948 -13.164  1.00  0.00     0.041 A 
ATOM     64  F   UNL     1      -9.286   8.004 -14.346  1.00  0.00    -0.206 F 
ATOM     65  C   UNL     1      -9.466  11.080 -12.448  1.00  0.00     0.022 A 
BRANCH  62  66
ATOM     66  S   UNL     1      -7.561  12.724 -11.243  1.00  0.00     0.124 S 
ATOM     67  O   UNL     1      -6.747  11.988 -10.278  1.00  0.00    -0.237 OA
ATOM     68  O   UNL     1      -6.837  13.608 -12.148  1.00  0.00    -0.237 OA
ATOM     69  O   UNL     1      -8.811  13.263 -10.710  1.00  0.00    -0.744 OA
ENDBRANCH  62  66
ENDBRANCH  45  59
BRANCH  46  70
ATOM     70  C   UNL     1      -0.650   2.918 -16.971  1.00  0.00     0.023 A 
ATOM     71  C   UNL     1       0.373   3.291 -17.857  1.00  0.00     0.031 A 
ATOM     72  C   UNL     1      -0.739   1.566 -16.595  1.00  0.00     0.131 A 
ATOM     73  C   UNL     1       1.242   2.317 -18.372  1.00  0.00     0.055 A 
ATOM     74  C   UNL     1       0.157   0.608 -17.075  1.00  0.00     0.041 A 
ATOM     75  F   UNL     1      -1.694   1.159 -15.743  1.00  0.00    -0.206 F 
ATOM     76  C   UNL     1       1.147   0.980 -17.978  1.00  0.00     0.022 A 
BRANCH  73  77
ATOM     77  S   UNL     1       2.458   2.813 -19.622  1.00  0.00     0.124 S 
ATOM     78  O   UNL     1       1.601   3.347 -20.675  1.00  0.00    -0.237 OA
ATOM     79  O   UNL     1       3.261   3.788 -18.893  1.00  0.00    -0.237 OA
ATOM     80  O   UNL     1       3.142   1.563 -19.947  1.00  0.00    -0.744 OA
ENDBRANCH  73  77
ENDBRANCH  46  70
BRANCH  58  81
ATOM     81  C   UNL     1      -5.586   6.702 -20.106  1.00  0.00     0.023 A 
ATOM     82  C   UNL     1      -6.197   5.653 -20.814  1.00  0.00     0.031 A 
ATOM     83  C   UNL     1      -5.332   7.905 -20.789  1.00  0.00     0.131 A 
ATOM     84  C   UNL     1      -6.489   5.809 -22.178  1.00  0.00     0.055 A 
ATOM     85  C   UNL     1      -5.673   8.073 -22.131  1.00  0.00     0.041 A 
ATOM     86  F   UNL     1      -4.749   8.938 -20.159  1.00  0.00    -0.206 F 
ATOM     87  C   UNL     1      -6.244   7.018 -22.836  1.00  0.00     0.022 A 
BRANCH  84  88
ATOM     88  S   UNL     1      -7.123   4.384 -23.103  1.00  0.00     0.124 S 
ATOM     89  O   UNL     1      -6.046   3.412 -22.939  1.00  0.00    -0.237 OA
ATOM     90  O   UNL     1      -8.366   4.082 -22.400  1.00  0.00    -0.237 OA
ATOM     91  O   UNL     1      -7.290   4.902 -24.459  1.00  0.00    -0.744 OA
ENDBRANCH  84  88
ENDBRANCH  58  81
ENDBRANCH  32  33
ENDBRANCH  24  27
ENDBRANCH  22  23
ENDBRANCH  21  22
ENDBRANCH  20  21
ENDBRANCH   1  20
TORSDOF 20
