REMARK SMILES Cc1csc(C[NH2+]C[C@H]2CCC[C@H]2C(=O)NCCCCNC(=O)c2ccc(-c3c4nc(c(-c5cc(S(=O)(=O)[O-])ccc5F)c5ccc([nH]5)c(-c5cc(S(=O)(=O)[O-])ccc5F)c5nc(c(-c6cc(S(=O)(=O)[O-])ccc6F)c6ccc3[nH]6)C=C5)C=C4)cc2)n1
REMARK SMILES IDX 18 1 17 2 16 3 14 4 15 5 13 7 9 8 10 9 11 10 12 11 8 12 7 13
REMARK SMILES IDX 6 16 5 17 1 18 2 19 3 20 87 21 4 22 19 23 20 24 21 25 22 26
REMARK SMILES IDX 23 28 24 29 25 30 86 31 26 32 85 33 27 34 28 35 29 36 79 37
REMARK SMILES IDX 30 38 84 39 78 40 80 41 31 42 83 43 77 44 76 45 32 47 64 48
REMARK SMILES IDX 44 49 63 50 45 51 48 52 62 53 81 54 46 55 47 56 61 58 82 59
REMARK SMILES IDX 49 60 33 61 34 62 42 63 35 64 41 65 43 66 40 67 36 68 37 69
REMARK SMILES IDX 38 70 39 71 65 72 66 73 74 74 67 75 73 76 75 77 72 78 68 79
REMARK SMILES IDX 69 80 70 81 71 82 50 83 51 84 59 85 52 86 58 87 60 88 57 89
REMARK SMILES IDX 53 90 54 91 55 92 56 93
REMARK H PARENT 16 6 7 14 7 15 21 27 80 46 48 57
REMARK Flexibility Score: inf
ROOT
ATOM      1  C   UNL     1       4.517   2.791   2.019  1.00  0.00     0.023 C 
ENDROOT
BRANCH   1   2
ATOM      2  C   UNL     1       4.988   2.115   0.727  1.00  0.00     0.116 C 
BRANCH   2   3
ATOM      3  N   UNL     1       3.865   1.573  -0.019  1.00  0.00    -0.356 N 
ATOM      4  C   UNL     1       3.216   1.958  -1.145  1.00  0.00     0.223 C 
ATOM      5  O   UNL     1       2.198   1.315  -1.430  1.00  0.00    -0.275 OA
ATOM      6  H   UNL     1       3.496   0.752   0.379  1.00  0.00     0.163 HD
BRANCH   4   7
ATOM      7  C   UNL     1       3.641   3.103  -2.067  1.00  0.00     0.087 C 
ATOM      8  C   UNL     1       3.261   4.563  -1.703  1.00  0.00     0.057 C 
ATOM      9  C   UNL     1       4.180   5.354  -2.641  1.00  0.00     0.010 C 
ATOM     10  C   UNL     1       5.501   4.599  -2.587  1.00  0.00     0.001 C 
ATOM     11  C   UNL     1       5.104   3.125  -2.535  1.00  0.00     0.014 C 
BRANCH   8  12
ATOM     12  C   UNL     1       3.457   4.897  -0.225  1.00  0.00     0.265 C 
BRANCH  12  13
ATOM     13  N   UNL     1       3.446   6.285   0.183  1.00  0.00    -0.340 N 
ATOM     14  H   UNL     1       3.975   6.360   1.052  1.00  0.00     0.346 HD
ATOM     15  H   UNL     1       3.851   6.806  -0.595  1.00  0.00     0.346 HD
BRANCH  13  16
ATOM     16  C   UNL     1       2.130   6.869   0.408  1.00  0.00     0.329 C 
BRANCH  16  17
ATOM     17  C   UNL     1       2.302   8.223   1.051  1.00  0.00     0.147 A 
ATOM     18  C   UNL     1       3.363  10.139   3.904  1.00  0.00     0.067 C 
ATOM     19  C   UNL     1       2.888   9.746   2.554  1.00  0.00     0.049 A 
ATOM     20  C   UNL     1       2.688  10.574   1.466  1.00  0.00     0.090 A 
ATOM     21  N   UNL     1       2.631   8.410   2.314  1.00  0.00    -0.241 NA
ATOM     22  S   UNL     1       2.194   9.656   0.106  1.00  0.00    -0.121 S 
ENDBRANCH  16  17
ENDBRANCH  13  16
ENDBRANCH  12  13
ENDBRANCH   8  12
ENDBRANCH   4   7
ENDBRANCH   2   3
ENDBRANCH   1   2
BRANCH   1  23
ATOM     23  C   UNL     1       4.280   1.859   3.198  1.00  0.00     0.023 C 
BRANCH  23  24
ATOM     24  C   UNL     1       5.528   1.171   3.718  1.00  0.00     0.116 C 
BRANCH  24  25
ATOM     25  N   UNL     1       6.585   2.096   4.095  1.00  0.00    -0.352 N 
ATOM     26  C   UNL     1       7.446   2.027   5.168  1.00  0.00     0.251 C 
ATOM     27  H   UNL     1       6.700   2.875   3.505  1.00  0.00     0.163 HD
ATOM     28  O   UNL     1       8.210   2.949   5.402  1.00  0.00    -0.269 OA
BRANCH  26  29
ATOM     29  C   UNL     1       7.392   0.840   6.049  1.00  0.00     0.039 A 
ATOM     30  C   UNL     1       7.381   1.027   7.431  1.00  0.00     0.014 A 
ATOM     31  C   UNL     1       7.300  -0.444   5.506  1.00  0.00     0.014 A 
ATOM     32  C   UNL     1       7.220  -0.077   8.270  1.00  0.00     0.010 A 
ATOM     33  C   UNL     1       7.032  -1.524   6.335  1.00  0.00     0.010 A 
ATOM     34  C   UNL     1       7.012  -1.356   7.727  1.00  0.00    -0.014 A 
BRANCH  34  35
ATOM     35  C   UNL     1       6.832  -2.542   8.600  1.00  0.00     0.031 A 
ATOM     36  C   UNL     1       7.840  -3.659   8.548  1.00  0.00     0.074 A 
ATOM     37  C   UNL     1       5.749  -2.631   9.396  1.00  0.00     0.049 A 
ATOM     38  N   UNL     1       7.848  -4.799   9.188  1.00  0.00    -0.248 NA
ATOM     39  C   UNL     1       8.968  -3.488   7.618  1.00  0.00     0.031 C 
ATOM     40  C   UNL     1       4.678  -1.634   9.484  1.00  0.00     0.029 A 
ATOM     41  N   UNL     1       5.368  -3.602  10.286  1.00  0.00    -0.354 N 
ATOM     42  C   UNL     1       8.969  -5.482   8.727  1.00  0.00     0.074 A 
ATOM     43  C   UNL     1       9.564  -4.666   7.693  1.00  0.00     0.031 C 
ATOM     44  C   UNL     1       3.785  -2.028  10.407  1.00  0.00     0.029 A 
ATOM     45  C   UNL     1       4.196  -3.319  10.948  1.00  0.00     0.049 A 
ATOM     46  H   UNL     1       5.885  -4.426  10.436  1.00  0.00     0.167 HD
ATOM     47  C   UNL     1       9.477  -6.665   9.153  1.00  0.00     0.034 A 
ATOM     48  C   UNL     1       3.535  -4.022  11.888  1.00  0.00     0.034 A 
ATOM     49  C   UNL     1       8.883  -7.448  10.207  1.00  0.00     0.049 A 
ATOM     50  C   UNL     1       4.120  -5.334  12.350  1.00  0.00     0.074 A 
ATOM     51  C   UNL     1       9.335  -8.630  10.764  1.00  0.00     0.029 A 
ATOM     52  N   UNL     1       7.702  -7.125  10.864  1.00  0.00    -0.354 N 
ATOM     53  N   UNL     1       5.215  -5.939  11.947  1.00  0.00    -0.248 NA
ATOM     54  C   UNL     1       3.389  -6.048  13.403  1.00  0.00     0.031 C 
ATOM     55  C   UNL     1       8.399  -9.052  11.715  1.00  0.00     0.029 A 
ATOM     56  C   UNL     1       7.398  -8.097  11.803  1.00  0.00     0.049 A 
ATOM     57  H   UNL     1       7.160  -6.322  10.688  1.00  0.00     0.167 HD
ATOM     58  C   UNL     1       5.316  -7.092  12.719  1.00  0.00     0.074 A 
ATOM     59  C   UNL     1       4.185  -7.083  13.625  1.00  0.00     0.031 C 
ATOM     60  C   UNL     1       6.256  -8.072  12.686  1.00  0.00     0.034 A 
BRANCH  47  61
ATOM     61  C   UNL     1      10.724  -7.171   8.466  1.00  0.00     0.023 A 
ATOM     62  C   UNL     1      11.930  -6.448   8.502  1.00  0.00     0.031 A 
ATOM     63  C   UNL     1      10.698  -8.366   7.727  1.00  0.00     0.131 A 
ATOM     64  C   UNL     1      13.030  -6.878   7.744  1.00  0.00     0.055 A 
ATOM     65  C   UNL     1      11.823  -8.835   7.046  1.00  0.00     0.041 A 
ATOM     66  F   UNL     1       9.571  -9.089   7.636  1.00  0.00    -0.206 F 
ATOM     67  C   UNL     1      12.993  -8.081   7.038  1.00  0.00     0.022 A 
BRANCH  64  68
ATOM     68  S   UNL     1      14.451  -5.763   7.572  1.00  0.00     0.124 S 
ATOM     69  O   UNL     1      13.835  -4.597   6.944  1.00  0.00    -0.237 OA
ATOM     70  O   UNL     1      14.886  -5.591   8.953  1.00  0.00    -0.237 OA
ATOM     71  O   UNL     1      15.370  -6.510   6.716  1.00  0.00    -0.744 OA
ENDBRANCH  64  68
ENDBRANCH  47  61
BRANCH  48  72
ATOM     72  C   UNL     1       2.259  -3.510  12.466  1.00  0.00     0.023 A 
ATOM     73  C   UNL     1       2.166  -3.174  13.826  1.00  0.00     0.031 A 
ATOM     74  C   UNL     1       1.100  -3.392  11.678  1.00  0.00     0.131 A 
ATOM     75  C   UNL     1       0.931  -2.788  14.370  1.00  0.00     0.055 A 
ATOM     76  C   UNL     1      -0.114  -2.957  12.213  1.00  0.00     0.041 A 
ATOM     77  F   UNL     1       1.134  -3.693  10.370  1.00  0.00    -0.206 F 
ATOM     78  C   UNL     1      -0.207  -2.666  13.570  1.00  0.00     0.022 A 
BRANCH  75  79
ATOM     79  S   UNL     1       0.812  -2.537  16.163  1.00  0.00     0.124 S 
ATOM     80  O   UNL     1       1.261  -3.826  16.675  1.00  0.00    -0.237 OA
ATOM     81  O   UNL     1       1.719  -1.413  16.371  1.00  0.00    -0.237 OA
ATOM     82  O   UNL     1      -0.603  -2.240  16.372  1.00  0.00    -0.744 OA
ENDBRANCH  75  79
ENDBRANCH  48  72
BRANCH  60  83
ATOM     83  C   UNL     1       6.107  -9.190  13.687  1.00  0.00     0.023 A 
ATOM     84  C   UNL     1       5.034 -10.095  13.624  1.00  0.00     0.031 A 
ATOM     85  C   UNL     1       7.041  -9.339  14.727  1.00  0.00     0.131 A 
ATOM     86  C   UNL     1       4.886 -11.071  14.620  1.00  0.00     0.055 A 
ATOM     87  C   UNL     1       6.924 -10.352  15.679  1.00  0.00     0.041 A 
ATOM     88  F   UNL     1       8.085  -8.501  14.834  1.00  0.00    -0.206 F 
ATOM     89  C   UNL     1       5.833 -11.216  15.637  1.00  0.00     0.022 A 
BRANCH  86  90
ATOM     90  S   UNL     1       3.383 -12.086  14.624  1.00  0.00     0.124 S 
ATOM     91  O   UNL     1       2.334 -11.076  14.720  1.00  0.00    -0.237 OA
ATOM     92  O   UNL     1       3.477 -12.789  13.349  1.00  0.00    -0.237 OA
ATOM     93  O   UNL     1       3.542 -12.929  15.808  1.00  0.00    -0.744 OA
ENDBRANCH  86  90
ENDBRANCH  60  83
ENDBRANCH  34  35
ENDBRANCH  26  29
ENDBRANCH  24  25
ENDBRANCH  23  24
ENDBRANCH   1  23
TORSDOF 18
