REMARK SMILES CCc1n[nH]c2cc(CCC(=O)NCCCCNC(=O)c3ccc(-c4c5nc(c(-c6cc(S(=O)(=O)[O-])ccc6F)c6ccc([nH]6)c(-c6cc(S(=O)(=O)[O-])ccc6F)c6nc(c(-c7cc(S(=O)(=O)[O-])ccc7F)c7ccc4[nH]7)C=C6)C=C5)cc3)ccc12
REMARK SMILES IDX 15 1 14 2 13 3 11 4 12 5 10 7 9 8 8 9 3 10 4 11 86 12 5 13
REMARK SMILES IDX 6 14 85 15 7 17 84 18 2 19 1 20 16 21 17 22 18 23 19 24
REMARK SMILES IDX 20 26 21 27 22 28 83 29 23 30 82 31 24 32 25 33 26 34 76 35
REMARK SMILES IDX 27 36 81 37 75 38 77 39 28 40 80 41 74 42 73 43 29 45 61 46
REMARK SMILES IDX 41 47 60 48 42 49 45 50 59 51 78 52 43 53 44 54 58 56 79 57
REMARK SMILES IDX 46 58 30 59 31 60 39 61 32 62 38 63 40 64 37 65 33 66 34 67
REMARK SMILES IDX 35 68 36 69 62 70 63 71 71 72 64 73 70 74 72 75 69 76 65 77
REMARK SMILES IDX 66 78 67 79 68 80 47 81 48 82 56 83 49 84 55 85 57 86 54 87
REMARK SMILES IDX 50 88 51 89 52 90 53 91
REMARK H PARENT 13 6 5 16 18 25 77 44 45 55
REMARK Flexibility Score: inf
ROOT
ATOM      1  C   UNL     1       2.600   5.172   0.659  1.00  0.00     0.023 C 
ENDROOT
BRANCH   1   2
ATOM      2  C   UNL     1       3.589   5.553  -0.432  1.00  0.00     0.116 C 
BRANCH   2   3
ATOM      3  N   UNL     1       4.471   6.602   0.047  1.00  0.00    -0.356 N 
ATOM      4  C   UNL     1       5.576   6.490   0.840  1.00  0.00     0.220 C 
ATOM      5  O   UNL     1       6.048   7.514   1.338  1.00  0.00    -0.275 OA
ATOM      6  H   UNL     1       4.241   7.516  -0.238  1.00  0.00     0.163 HD
BRANCH   4   7
ATOM      7  C   UNL     1       6.236   5.142   1.070  1.00  0.00     0.105 C 
BRANCH   7   8
ATOM      8  C   UNL     1       6.027   4.588   2.488  1.00  0.00     0.045 C 
BRANCH   8   9
ATOM      9  C   UNL     1       4.928   3.547   2.580  1.00  0.00    -0.045 A 
ATOM     10  C   UNL     1       1.427   1.233   2.465  1.00  0.00     0.070 A 
ATOM     11  N   UNL     1       0.631   1.970   3.254  1.00  0.00    -0.180 NA
ATOM     12  C   UNL     1       2.748   1.767   2.417  1.00  0.00     0.023 A 
ATOM     13  N   UNL     1       1.412   2.979   3.663  1.00  0.00    -0.278 N 
ATOM     14  C   UNL     1       2.697   2.917   3.199  1.00  0.00     0.066 A 
ATOM     15  C   UNL     1       3.963   1.445   1.786  1.00  0.00     0.012 A 
ATOM     16  H   UNL     1       1.088   3.702   4.247  1.00  0.00     0.190 HD
ATOM     17  C   UNL     1       3.776   3.801   3.344  1.00  0.00     0.032 A 
ATOM     18  C   UNL     1       5.033   2.348   1.862  1.00  0.00     0.004 A 
BRANCH  10  19
ATOM     19  C   UNL     1       0.845   0.030   1.786  1.00  0.00     0.055 C 
ATOM     20  C   UNL     1       1.290  -0.180   0.346  1.00  0.00     0.011 C 
ENDBRANCH  10  19
ENDBRANCH   8   9
ENDBRANCH   7   8
ENDBRANCH   4   7
ENDBRANCH   2   3
ENDBRANCH   1   2
BRANCH   1  21
ATOM     21  C   UNL     1       1.228   5.819   0.578  1.00  0.00     0.023 C 
BRANCH  21  22
ATOM     22  C   UNL     1       0.344   5.280  -0.534  1.00  0.00     0.116 C 
BRANCH  22  23
ATOM     23  N   UNL     1       0.094   3.845  -0.458  1.00  0.00    -0.352 N 
ATOM     24  C   UNL     1      -1.088   3.140  -0.558  1.00  0.00     0.251 C 
ATOM     25  H   UNL     1       0.896   3.292  -0.314  1.00  0.00     0.163 HD
ATOM     26  O   UNL     1      -1.094   1.924  -0.465  1.00  0.00    -0.269 OA
BRANCH  24  27
ATOM     27  C   UNL     1      -2.359   3.874  -0.735  1.00  0.00     0.039 A 
ATOM     28  C   UNL     1      -3.458   3.521   0.054  1.00  0.00     0.014 A 
ATOM     29  C   UNL     1      -2.449   4.936  -1.631  1.00  0.00     0.014 A 
ATOM     30  C   UNL     1      -4.616   4.300   0.010  1.00  0.00     0.010 A 
ATOM     31  C   UNL     1      -3.549   5.779  -1.580  1.00  0.00     0.010 A 
ATOM     32  C   UNL     1      -4.649   5.469  -0.765  1.00  0.00    -0.014 A 
BRANCH  32  33
ATOM     33  C   UNL     1      -5.820   6.383  -0.783  1.00  0.00     0.031 A 
ATOM     34  C   UNL     1      -6.485   6.688  -2.099  1.00  0.00     0.074 A 
ATOM     35  C   UNL     1      -6.201   7.021   0.342  1.00  0.00     0.049 A 
ATOM     36  N   UNL     1      -7.349   7.622  -2.399  1.00  0.00    -0.248 NA
ATOM     37  C   UNL     1      -6.064   5.869  -3.248  1.00  0.00     0.031 C 
ATOM     38  C   UNL     1      -5.604   6.840   1.668  1.00  0.00     0.029 A 
ATOM     39  N   UNL     1      -7.173   7.967   0.547  1.00  0.00    -0.354 N 
ATOM     40  C   UNL     1      -7.529   7.539  -3.776  1.00  0.00     0.074 A 
ATOM     41  C   UNL     1      -6.638   6.505  -4.256  1.00  0.00     0.031 C 
ATOM     42  C   UNL     1      -6.239   7.628   2.550  1.00  0.00     0.029 A 
ATOM     43  C   UNL     1      -7.248   8.412   1.847  1.00  0.00     0.049 A 
ATOM     44  H   UNL     1      -7.762   8.298  -0.170  1.00  0.00     0.167 HD
ATOM     45  C   UNL     1      -8.378   8.245  -4.563  1.00  0.00     0.034 A 
ATOM     46  C   UNL     1      -8.032   9.358   2.402  1.00  0.00     0.034 A 
ATOM     47  C   UNL     1      -9.305   9.222  -4.047  1.00  0.00     0.049 A 
ATOM     48  C   UNL     1      -9.004  10.095   1.517  1.00  0.00     0.074 A 
ATOM     49  C   UNL     1     -10.266   9.945  -4.729  1.00  0.00     0.029 A 
ATOM     50  N   UNL     1      -9.394   9.599  -2.713  1.00  0.00    -0.354 N 
ATOM     51  N   UNL     1      -9.182   9.991   0.219  1.00  0.00    -0.248 NA
ATOM     52  C   UNL     1      -9.886  11.071   2.170  1.00  0.00     0.031 C 
ATOM     53  C   UNL     1     -10.905  10.792  -3.817  1.00  0.00     0.029 A 
ATOM     54  C   UNL     1     -10.387  10.552  -2.554  1.00  0.00     0.049 A 
ATOM     55  H   UNL     1      -8.834   9.241  -1.986  1.00  0.00     0.167 HD
ATOM     56  C   UNL     1     -10.219  10.866  -0.092  1.00  0.00     0.074 A 
ATOM     57  C   UNL     1     -10.634  11.476   1.155  1.00  0.00     0.031 C 
ATOM     58  C   UNL     1     -10.781  11.141  -1.297  1.00  0.00     0.034 A 
BRANCH  45  59
ATOM     59  C   UNL     1      -8.323   7.992  -6.051  1.00  0.00     0.023 A 
ATOM     60  C   UNL     1      -8.610   6.729  -6.600  1.00  0.00     0.031 A 
ATOM     61  C   UNL     1      -7.935   9.016  -6.933  1.00  0.00     0.131 A 
ATOM     62  C   UNL     1      -8.414   6.498  -7.969  1.00  0.00     0.055 A 
ATOM     63  C   UNL     1      -7.830   8.803  -8.310  1.00  0.00     0.041 A 
ATOM     64  F   UNL     1      -7.629  10.239  -6.470  1.00  0.00    -0.206 F 
ATOM     65  C   UNL     1      -8.052   7.533  -8.833  1.00  0.00     0.022 A 
BRANCH  62  66
ATOM     66  S   UNL     1      -8.488   4.790  -8.576  1.00  0.00     0.124 S 
ATOM     67  O   UNL     1      -7.400   4.166  -7.826  1.00  0.00    -0.237 OA
ATOM     68  O   UNL     1      -9.837   4.381  -8.204  1.00  0.00    -0.237 OA
ATOM     69  O   UNL     1      -8.249   4.926 -10.011  1.00  0.00    -0.744 OA
ENDBRANCH  62  66
ENDBRANCH  45  59
BRANCH  46  70
ATOM     70  C   UNL     1      -7.937   9.669   3.858  1.00  0.00     0.023 A 
ATOM     71  C   UNL     1      -9.019   9.411   4.718  1.00  0.00     0.031 A 
ATOM     72  C   UNL     1      -6.788  10.264   4.405  1.00  0.00     0.131 A 
ATOM     73  C   UNL     1      -8.948   9.792   6.066  1.00  0.00     0.055 A 
ATOM     74  C   UNL     1      -6.704  10.595   5.761  1.00  0.00     0.041 A 
ATOM     75  F   UNL     1      -5.723  10.524   3.632  1.00  0.00    -0.206 F 
ATOM     76  C   UNL     1      -7.793  10.373   6.596  1.00  0.00     0.022 A 
BRANCH  73  77
ATOM     77  S   UNL     1     -10.426   9.600   7.100  1.00  0.00     0.124 S 
ATOM     78  O   UNL     1     -11.413  10.374   6.356  1.00  0.00    -0.237 OA
ATOM     79  O   UNL     1     -10.610   8.152   7.096  1.00  0.00    -0.237 OA
ATOM     80  O   UNL     1     -10.021  10.171   8.382  1.00  0.00    -0.744 OA
ENDBRANCH  73  77
ENDBRANCH  46  70
BRANCH  58  81
ATOM     81  C   UNL     1     -11.940  12.104  -1.301  1.00  0.00     0.023 A 
ATOM     82  C   UNL     1     -11.767  13.468  -1.016  1.00  0.00     0.031 A 
ATOM     83  C   UNL     1     -13.236  11.641  -1.588  1.00  0.00     0.131 A 
ATOM     84  C   UNL     1     -12.883  14.316  -0.971  1.00  0.00     0.055 A 
ATOM     85  C   UNL     1     -14.335  12.501  -1.597  1.00  0.00     0.041 A 
ATOM     86  F   UNL     1     -13.454  10.346  -1.868  1.00  0.00    -0.206 F 
ATOM     87  C   UNL     1     -14.163  13.844  -1.275  1.00  0.00     0.022 A 
BRANCH  84  88
ATOM     88  S   UNL     1     -12.651  16.030  -0.426  1.00  0.00     0.124 S 
ATOM     89  O   UNL     1     -12.096  15.851   0.911  1.00  0.00    -0.237 OA
ATOM     90  O   UNL     1     -11.734  16.555  -1.432  1.00  0.00    -0.237 OA
ATOM     91  O   UNL     1     -14.001  16.589  -0.468  1.00  0.00    -0.744 OA
ENDBRANCH  84  88
ENDBRANCH  58  81
ENDBRANCH  32  33
ENDBRANCH  24  27
ENDBRANCH  22  23
ENDBRANCH  21  22
ENDBRANCH   1  21
TORSDOF 17
