REMARK SMILES CCOC(=O)[C@@]1(C)C/C(=N/c2cccc(C(=O)NCCCCNC(=O)c3ccc(-c4c5nc(c(-c6cc(S(=O)(=O)[O-])ccc6F)c6ccc([nH]6)c(-c6cc(S(=O)(=O)[O-])ccc6F)c6nc(c(-c7cc(S(=O)(=O)[O-])ccc7F)c7ccc4[nH]7)C=C6)C=C5)cc3)c2)C(=O)N1c1ccccc1
REMARK SMILES IDX 20 1 19 2 18 3 16 4 17 5 15 7 11 8 12 9 89 10 13 11 14 12
REMARK SMILES IDX 10 13 6 14 7 15 8 16 92 17 9 18 90 19 91 20 4 21 5 22 3 23
REMARK SMILES IDX 2 24 1 25 93 26 94 27 98 28 95 29 97 30 96 31 21 32 22 33
REMARK SMILES IDX 23 34 24 35 25 37 26 38 27 39 88 40 28 41 87 42 29 43 30 44
REMARK SMILES IDX 31 45 81 46 32 47 86 48 80 49 82 50 33 51 85 52 79 53 78 54
REMARK SMILES IDX 34 56 66 57 46 58 65 59 47 60 50 61 64 62 83 63 48 64 49 65
REMARK SMILES IDX 63 67 84 68 51 69 35 70 36 71 44 72 37 73 43 74 45 75 42 76
REMARK SMILES IDX 38 77 39 78 40 79 41 80 67 81 68 82 76 83 69 84 75 85 77 86
REMARK SMILES IDX 74 87 70 88 71 89 72 90 73 91 52 92 53 93 61 94 54 95 60 96
REMARK SMILES IDX 62 97 59 98 55 99 56 100 57 101 58 102
REMARK H PARENT 18 6 23 36 82 55 50 66
REMARK Flexibility Score: inf
ROOT
ATOM      1  C   UNL     1       7.210   6.611  -2.792  1.00  0.00     0.023 C 
ENDROOT
BRANCH   1   2
ATOM      2  C   UNL     1       6.713   6.946  -1.389  1.00  0.00     0.116 C 
BRANCH   2   3
ATOM      3  N   UNL     1       7.613   7.777  -0.614  1.00  0.00    -0.352 N 
ATOM      4  C   UNL     1       7.353   8.635   0.430  1.00  0.00     0.251 C 
ATOM      5  O   UNL     1       8.286   9.278   0.910  1.00  0.00    -0.269 OA
ATOM      6  H   UNL     1       8.560   7.719  -0.876  1.00  0.00     0.163 HD
BRANCH   4   7
ATOM      7  C   UNL     1       5.980   8.849   0.963  1.00  0.00     0.041 A 
ATOM      8  C   UNL     1       3.724   8.089   1.490  1.00  0.00     0.064 A 
ATOM      9  C   UNL     1       3.402   9.376   1.919  1.00  0.00     0.028 A 
ATOM     10  C   UNL     1       5.024   7.834   1.032  1.00  0.00     0.042 A 
ATOM     11  C   UNL     1       4.363  10.389   1.910  1.00  0.00     0.003 A 
ATOM     12  C   UNL     1       5.648  10.126   1.432  1.00  0.00     0.014 A 
BRANCH   8  13
ATOM     13  N   UNL     1       2.701   7.141   1.348  1.00  0.00    -0.248 NA
ATOM     14  C   UNL     1       2.908   3.703   1.203  1.00  0.00     0.148 C 
ATOM     15  C   UNL     1       3.486   3.763  -0.228  1.00  0.00     0.048 C 
ATOM     16  C   UNL     1       1.891   4.860   1.387  1.00  0.00     0.103 C 
ATOM     17  N   UNL     1       3.956   3.976   2.218  1.00  0.00    -0.290 N 
ATOM     18  C   UNL     1       2.821   5.936   1.806  1.00  0.00     0.109 C 
ATOM     19  C   UNL     1       3.918   5.310   2.622  1.00  0.00     0.273 C 
ATOM     20  O   UNL     1       4.569   5.943   3.425  1.00  0.00    -0.267 OA
BRANCH  14  21
ATOM     21  C   UNL     1       2.067   2.429   1.443  1.00  0.00     0.332 C 
ATOM     22  O   UNL     1       2.098   1.733   2.448  1.00  0.00    -0.249 OA
BRANCH  21  23
ATOM     23  O   UNL     1       1.180   2.264   0.416  1.00  0.00    -0.464 OA
BRANCH  23  24
ATOM     24  C   UNL     1       0.250   1.175   0.526  1.00  0.00     0.229 C 
ATOM     25  C   UNL     1       0.679   0.073  -0.420  1.00  0.00     0.049 C 
ENDBRANCH  23  24
ENDBRANCH  21  23
ENDBRANCH  14  21
BRANCH  17  26
ATOM     26  C   UNL     1       4.938   3.039   2.667  1.00  0.00     0.045 A 
ATOM     27  C   UNL     1       5.674   3.277   3.838  1.00  0.00     0.026 A 
ATOM     28  C   UNL     1       5.221   1.859   1.964  1.00  0.00     0.026 A 
ATOM     29  C   UNL     1       6.662   2.389   4.281  1.00  0.00     0.002 A 
ATOM     30  C   UNL     1       6.224   0.979   2.392  1.00  0.00     0.002 A 
ATOM     31  C   UNL     1       6.945   1.243   3.550  1.00  0.00     0.000 A 
ENDBRANCH  17  26
ENDBRANCH   8  13
ENDBRANCH   4   7
ENDBRANCH   2   3
ENDBRANCH   1   2
BRANCH   1  32
ATOM     32  C   UNL     1       8.571   5.918  -2.895  1.00  0.00     0.023 C 
BRANCH  32  33
ATOM     33  C   UNL     1       8.836   4.766  -1.928  1.00  0.00     0.116 C 
BRANCH  33  34
ATOM     34  N   UNL     1       7.844   3.705  -1.997  1.00  0.00    -0.352 N 
ATOM     35  C   UNL     1       7.943   2.389  -2.381  1.00  0.00     0.251 C 
ATOM     36  H   UNL     1       6.940   3.978  -1.719  1.00  0.00     0.163 HD
ATOM     37  O   UNL     1       6.917   1.711  -2.420  1.00  0.00    -0.269 OA
BRANCH  35  38
ATOM     38  C   UNL     1       9.239   1.794  -2.786  1.00  0.00     0.039 A 
ATOM     39  C   UNL     1       9.270   0.981  -3.925  1.00  0.00     0.014 A 
ATOM     40  C   UNL     1      10.411   2.000  -2.054  1.00  0.00     0.014 A 
ATOM     41  C   UNL     1      10.485   0.458  -4.382  1.00  0.00     0.010 A 
ATOM     42  C   UNL     1      11.631   1.527  -2.542  1.00  0.00     0.010 A 
ATOM     43  C   UNL     1      11.683   0.767  -3.721  1.00  0.00    -0.014 A 
BRANCH  43  44
ATOM     44  C   UNL     1      13.001   0.346  -4.265  1.00  0.00     0.031 A 
ATOM     45  C   UNL     1      13.872  -0.613  -3.502  1.00  0.00     0.074 A 
ATOM     46  C   UNL     1      13.461   0.907  -5.400  1.00  0.00     0.049 A 
ATOM     47  N   UNL     1      15.116  -0.957  -3.723  1.00  0.00    -0.248 NA
ATOM     48  C   UNL     1      13.272  -1.242  -2.318  1.00  0.00     0.031 C 
ATOM     49  C   UNL     1      12.740   1.886  -6.217  1.00  0.00     0.029 A 
ATOM     50  N   UNL     1      14.661   0.754  -6.048  1.00  0.00    -0.354 N 
ATOM     51  C   UNL     1      15.466  -1.805  -2.679  1.00  0.00     0.074 A 
ATOM     52  C   UNL     1      14.300  -1.918  -1.825  1.00  0.00     0.031 C 
ATOM     53  C   UNL     1      13.512   2.246  -7.255  1.00  0.00     0.029 A 
ATOM     54  C   UNL     1      14.792   1.552  -7.158  1.00  0.00     0.049 A 
ATOM     55  H   UNL     1      15.361   0.131  -5.746  1.00  0.00     0.167 HD
ATOM     56  C   UNL     1      16.649  -2.428  -2.450  1.00  0.00     0.034 A 
ATOM     57  C   UNL     1      15.833   1.732  -7.990  1.00  0.00     0.034 A 
ATOM     58  C   UNL     1      17.794  -2.351  -3.322  1.00  0.00     0.049 A 
ATOM     59  C   UNL     1      17.116   0.992  -7.748  1.00  0.00     0.074 A 
ATOM     60  C   UNL     1      19.009  -3.010  -3.218  1.00  0.00     0.029 A 
ATOM     61  N   UNL     1      17.868  -1.566  -4.464  1.00  0.00    -0.354 N 
ATOM     62  N   UNL     1      17.429   0.193  -6.758  1.00  0.00    -0.248 NA
ATOM     63  C   UNL     1      18.185   1.187  -8.736  1.00  0.00     0.031 C 
ATOM     64  C   UNL     1      19.826  -2.600  -4.281  1.00  0.00     0.029 A 
ATOM     65  C   UNL     1      19.109  -1.712  -5.065  1.00  0.00     0.049 A 
ATOM     66  H   UNL     1      17.144  -0.989  -4.799  1.00  0.00     0.167 HD
ATOM     67  C   UNL     1      18.735  -0.213  -7.004  1.00  0.00     0.074 A 
ATOM     68  C   UNL     1      19.150   0.428  -8.236  1.00  0.00     0.031 C 
ATOM     69  C   UNL     1      19.517  -1.048  -6.277  1.00  0.00     0.034 A 
BRANCH  56  70
ATOM     70  C   UNL     1      16.767  -3.209  -1.169  1.00  0.00     0.023 A 
ATOM     71  C   UNL     1      16.066  -4.409  -0.969  1.00  0.00     0.031 A 
ATOM     72  C   UNL     1      17.549  -2.711  -0.113  1.00  0.00     0.131 A 
ATOM     73  C   UNL     1      16.108  -5.039   0.284  1.00  0.00     0.055 A 
ATOM     74  C   UNL     1      17.635  -3.373   1.112  1.00  0.00     0.041 A 
ATOM     75  F   UNL     1      18.221  -1.556  -0.248  1.00  0.00    -0.206 F 
ATOM     76  C   UNL     1      16.900  -4.537   1.321  1.00  0.00     0.022 A 
BRANCH  73  77
ATOM     77  S   UNL     1      15.006  -6.448   0.584  1.00  0.00     0.124 S 
ATOM     78  O   UNL     1      13.698  -5.874   0.278  1.00  0.00    -0.237 OA
ATOM     79  O   UNL     1      15.506  -7.442  -0.359  1.00  0.00    -0.237 OA
ATOM     80  O   UNL     1      15.225  -6.760   1.995  1.00  0.00    -0.744 OA
ENDBRANCH  73  77
ENDBRANCH  56  70
BRANCH  57  81
ATOM     81  C   UNL     1      15.723   2.698  -9.109  1.00  0.00     0.023 A 
ATOM     82  C   UNL     1      15.419   2.265 -10.407  1.00  0.00     0.031 A 
ATOM     83  C   UNL     1      15.917   4.070  -8.884  1.00  0.00     0.131 A 
ATOM     84  C   UNL     1      15.331   3.203 -11.445  1.00  0.00     0.055 A 
ATOM     85  C   UNL     1      15.816   5.001  -9.917  1.00  0.00     0.041 A 
ATOM     86  F   UNL     1      16.194   4.521  -7.651  1.00  0.00    -0.206 F 
ATOM     87  C   UNL     1      15.525   4.568 -11.209  1.00  0.00     0.022 A 
BRANCH  84  88
ATOM     88  S   UNL     1      14.952   2.615 -13.118  1.00  0.00     0.124 S 
ATOM     89  O   UNL     1      16.133   1.818 -13.431  1.00  0.00    -0.237 OA
ATOM     90  O   UNL     1      13.714   1.872 -12.907  1.00  0.00    -0.237 OA
ATOM     91  O   UNL     1      14.808   3.849 -13.888  1.00  0.00    -0.744 OA
ENDBRANCH  84  88
ENDBRANCH  57  81
BRANCH  69  92
ATOM     92  C   UNL     1      20.886  -1.325  -6.825  1.00  0.00     0.023 A 
ATOM     93  C   UNL     1      21.941  -0.415  -6.645  1.00  0.00     0.031 A 
ATOM     94  C   UNL     1      21.125  -2.495  -7.565  1.00  0.00     0.131 A 
ATOM     95  C   UNL     1      23.189  -0.678  -7.228  1.00  0.00     0.055 A 
ATOM     96  C   UNL     1      22.375  -2.761  -8.124  1.00  0.00     0.041 A 
ATOM     97  F   UNL     1      20.141  -3.385  -7.768  1.00  0.00    -0.206 F 
ATOM     98  C   UNL     1      23.414  -1.847  -7.962  1.00  0.00     0.022 A 
BRANCH  95  99
ATOM     99  S   UNL     1      24.511   0.552  -7.057  1.00  0.00     0.124 S 
ATOM    100  O   UNL     1      23.930   1.719  -7.714  1.00  0.00    -0.237 OA
ATOM    101  O   UNL     1      24.666   0.646  -5.609  1.00  0.00    -0.237 OA
ATOM    102  O   UNL     1      25.640  -0.056  -7.760  1.00  0.00    -0.744 OA
ENDBRANCH  95  99
ENDBRANCH  69  92
ENDBRANCH  43  44
ENDBRANCH  35  38
ENDBRANCH  33  34
ENDBRANCH  32  33
ENDBRANCH   1  32
TORSDOF 19
