REMARK SMILES O=C(NCCCCNC(=O)[C@H]1Cc2c([nH]c3ccccc23)[C@@H](c2ccc(OC(F)(F)F)cc2)[NH2+]1)c1ccc(-c2c3nc(c(-c4cc(S(=O)(=O)[O-])ccc4F)c4ccc([nH]4)c(-c4cc(S(=O)(=O)[O-])ccc4F)c4nc(c(-c5cc(S(=O)(=O)[O-])ccc5F)c5ccc2[nH]5)C=C4)C=C3)cc1
REMARK SMILES IDX 5 1 4 2 3 3 1 4 2 5 35 7 36 8 97 9 37 10 96 11 38 12 39 13
REMARK SMILES IDX 40 14 90 15 41 16 95 17 89 18 91 19 42 20 94 21 88 22 87 23
REMARK SMILES IDX 43 25 75 26 55 27 74 28 56 29 59 30 73 31 92 32 57 33 58 34
REMARK SMILES IDX 72 36 93 37 60 38 44 39 45 40 53 41 46 42 52 43 54 44 51 45
REMARK SMILES IDX 47 46 48 47 49 48 50 49 76 50 77 51 85 52 78 53 84 54 86 55
REMARK SMILES IDX 83 56 79 57 80 58 81 59 82 60 61 61 62 62 70 63 63 64 69 65
REMARK SMILES IDX 71 66 68 67 64 68 65 69 66 70 67 71 6 72 7 73 8 74 9 75
REMARK SMILES IDX 10 77 11 78 12 79 34 80 13 81 22 82 14 85 21 86 15 87 16 88
REMARK SMILES IDX 20 89 17 91 19 92 18 93 23 94 24 95 33 96 25 97 32 98 26 99
REMARK SMILES IDX 27 100 28 101 29 102 30 103 31 104
REMARK H PARENT 3 6 91 24 59 35 8 76 34 83 34 84 15 90
REMARK Flexibility Score: inf
ROOT
ATOM      1  C   UNL     1       4.874  -2.475  -1.291  1.00  0.00     0.023 C 
ENDROOT
BRANCH   1   2
ATOM      2  C   UNL     1       4.615  -1.030  -0.881  1.00  0.00     0.116 C 
BRANCH   2   3
ATOM      3  N   UNL     1       3.205  -0.667  -0.900  1.00  0.00    -0.352 N 
ATOM      4  O   UNL     1       1.277   0.191  -0.105  1.00  0.00    -0.269 OA
ATOM      5  C   UNL     1       2.493   0.069   0.020  1.00  0.00     0.251 C 
ATOM      6  H   UNL     1       2.693  -0.991  -1.676  1.00  0.00     0.163 HD
BRANCH   5   7
ATOM      7  C   UNL     1       3.191   0.679   1.174  1.00  0.00     0.039 A 
ATOM      8  C   UNL     1       4.388   1.376   0.997  1.00  0.00     0.014 A 
ATOM      9  C   UNL     1       2.650   0.530   2.454  1.00  0.00     0.014 A 
ATOM     10  C   UNL     1       5.118   1.786   2.107  1.00  0.00     0.010 A 
ATOM     11  C   UNL     1       3.348   1.016   3.565  1.00  0.00     0.010 A 
ATOM     12  C   UNL     1       4.609   1.610   3.405  1.00  0.00    -0.014 A 
BRANCH  12  13
ATOM     13  C   UNL     1       5.412   2.074   4.569  1.00  0.00     0.031 A 
ATOM     14  C   UNL     1       5.965   1.095   5.570  1.00  0.00     0.074 A 
ATOM     15  C   UNL     1       5.683   3.389   4.689  1.00  0.00     0.049 A 
ATOM     16  N   UNL     1       6.728   1.320   6.610  1.00  0.00    -0.248 NA
ATOM     17  C   UNL     1       5.603  -0.318   5.388  1.00  0.00     0.031 C 
ATOM     18  C   UNL     1       5.195   4.432   3.784  1.00  0.00     0.029 A 
ATOM     19  N   UNL     1       6.453   4.070   5.596  1.00  0.00    -0.354 N 
ATOM     20  C   UNL     1       6.923   0.084   7.219  1.00  0.00     0.074 A 
ATOM     21  C   UNL     1       6.166  -0.881   6.447  1.00  0.00     0.031 C 
ATOM     22  C   UNL     1       5.724   5.610   4.145  1.00  0.00     0.029 A 
ATOM     23  C   UNL     1       6.537   5.419   5.341  1.00  0.00     0.049 A 
ATOM     24  H   UNL     1       6.902   3.636   6.356  1.00  0.00     0.167 HD
ATOM     25  C   UNL     1       7.668  -0.218   8.313  1.00  0.00     0.034 A 
ATOM     26  C   UNL     1       7.189   6.397   5.998  1.00  0.00     0.034 A 
ATOM     27  C   UNL     1       8.427   0.756   9.064  1.00  0.00     0.049 A 
ATOM     28  C   UNL     1       7.993   6.039   7.218  1.00  0.00     0.074 A 
ATOM     29  C   UNL     1       9.252   0.552  10.158  1.00  0.00     0.029 A 
ATOM     30  N   UNL     1       8.450   2.121   8.805  1.00  0.00    -0.354 N 
ATOM     31  N   UNL     1       8.184   4.861   7.765  1.00  0.00    -0.248 NA
ATOM     32  C   UNL     1       8.669   7.144   7.907  1.00  0.00     0.031 C 
ATOM     33  C   UNL     1       9.719   1.796  10.598  1.00  0.00     0.029 A 
ATOM     34  C   UNL     1       9.245   2.773   9.737  1.00  0.00     0.049 A 
ATOM     35  H   UNL     1       7.971   2.563   8.067  1.00  0.00     0.167 HD
ATOM     36  C   UNL     1       9.021   5.083   8.854  1.00  0.00     0.074 A 
ATOM     37  C   UNL     1       9.313   6.503   8.871  1.00  0.00     0.031 C 
ATOM     38  C   UNL     1       9.508   4.194   9.757  1.00  0.00     0.034 A 
BRANCH  25  39
ATOM     39  C   UNL     1       7.655  -1.652   8.791  1.00  0.00     0.023 A 
ATOM     40  C   UNL     1       8.169  -2.703   8.011  1.00  0.00     0.031 A 
ATOM     41  C   UNL     1       7.092  -1.977  10.039  1.00  0.00     0.131 A 
ATOM     42  C   UNL     1       8.044  -4.030   8.452  1.00  0.00     0.055 A 
ATOM     43  C   UNL     1       7.041  -3.292  10.507  1.00  0.00     0.041 A 
ATOM     44  F   UNL     1       6.567  -1.020  10.821  1.00  0.00    -0.206 F 
ATOM     45  C   UNL     1       7.504  -4.330   9.704  1.00  0.00     0.022 A 
BRANCH  42  46
ATOM     46  S   UNL     1       8.462  -5.370   7.301  1.00  0.00     0.124 S 
ATOM     47  O   UNL     1       7.597  -5.065   6.164  1.00  0.00    -0.237 OA
ATOM     48  O   UNL     1       9.890  -5.170   7.089  1.00  0.00    -0.237 OA
ATOM     49  O   UNL     1       8.103  -6.580   8.038  1.00  0.00    -0.744 OA
ENDBRANCH  42  46
ENDBRANCH  25  39
BRANCH  26  50
ATOM     50  C   UNL     1       7.098   7.806   5.526  1.00  0.00     0.023 A 
ATOM     51  C   UNL     1       8.229   8.481   5.042  1.00  0.00     0.031 A 
ATOM     52  C   UNL     1       5.878   8.505   5.570  1.00  0.00     0.131 A 
ATOM     53  C   UNL     1       8.125   9.825   4.653  1.00  0.00     0.055 A 
ATOM     54  C   UNL     1       5.769   9.826   5.136  1.00  0.00     0.041 A 
ATOM     55  F   UNL     1       4.766   7.900   6.019  1.00  0.00    -0.206 F 
ATOM     56  C   UNL     1       6.901  10.498   4.684  1.00  0.00     0.022 A 
BRANCH  53  57
ATOM     57  S   UNL     1       9.633  10.707   4.164  1.00  0.00     0.124 S 
ATOM     58  O   UNL     1      10.456  10.576   5.361  1.00  0.00    -0.237 OA
ATOM     59  O   UNL     1      10.066   9.943   3.000  1.00  0.00    -0.237 OA
ATOM     60  O   UNL     1       9.158  12.059   3.877  1.00  0.00    -0.744 OA
ENDBRANCH  53  57
ENDBRANCH  26  50
BRANCH  38  61
ATOM     61  C   UNL     1      10.432   4.744  10.815  1.00  0.00     0.023 A 
ATOM     62  C   UNL     1       9.972   5.626  11.809  1.00  0.00     0.031 A 
ATOM     63  C   UNL     1      11.798   4.414  10.801  1.00  0.00     0.131 A 
ATOM     64  C   UNL     1      10.883   6.200  12.708  1.00  0.00     0.055 A 
ATOM     65  C   UNL     1      12.690   4.943  11.735  1.00  0.00     0.041 A 
ATOM     66  F   UNL     1      12.291   3.579   9.872  1.00  0.00    -0.206 F 
ATOM     67  C   UNL     1      12.237   5.853  12.686  1.00  0.00     0.022 A 
BRANCH  64  68
ATOM     68  S   UNL     1      10.294   7.488  13.842  1.00  0.00     0.124 S 
ATOM     69  O   UNL     1       9.750   8.479  12.919  1.00  0.00    -0.237 OA
ATOM     70  O   UNL     1       9.317   6.767  14.652  1.00  0.00    -0.237 OA
ATOM     71  O   UNL     1      11.503   7.900  14.552  1.00  0.00    -0.744 OA
ENDBRANCH  64  68
ENDBRANCH  38  61
ENDBRANCH  12  13
ENDBRANCH   5   7
ENDBRANCH   2   3
ENDBRANCH   1   2
BRANCH   1  72
ATOM     72  C   UNL     1       4.422  -2.859  -2.704  1.00  0.00     0.023 C 
BRANCH  72  73
ATOM     73  C   UNL     1       4.942  -1.951  -3.818  1.00  0.00     0.116 C 
BRANCH  73  74
ATOM     74  N   UNL     1       6.391  -1.943  -3.879  1.00  0.00    -0.351 N 
ATOM     75  C   UNL     1       7.243  -2.526  -4.772  1.00  0.00     0.278 C 
ATOM     76  H   UNL     1       6.832  -1.436  -3.159  1.00  0.00     0.163 HD
ATOM     77  O   UNL     1       8.452  -2.386  -4.578  1.00  0.00    -0.268 OA
BRANCH  75  78
ATOM     78  C   UNL     1       6.679  -3.301  -5.973  1.00  0.00     0.277 C 
ATOM     79  C   UNL     1       6.708  -2.360  -7.202  1.00  0.00     0.114 C 
ATOM     80  N   UNL     1       7.490  -4.521  -6.213  1.00  0.00    -0.325 N 
ATOM     81  C   UNL     1       6.367  -3.144  -8.422  1.00  0.00    -0.006 A 
ATOM     82  C   UNL     1       6.966  -5.380  -7.289  1.00  0.00     0.262 C 
ATOM     83  H   UNL     1       7.516  -5.065  -5.351  1.00  0.00     0.347 HD
ATOM     84  H   UNL     1       8.416  -4.210  -6.506  1.00  0.00     0.347 HD
ATOM     85  C   UNL     1       6.471  -4.522  -8.425  1.00  0.00     0.083 A 
ATOM     86  C   UNL     1       5.978  -2.730  -9.721  1.00  0.00     0.003 A 
ATOM     87  N   UNL     1       6.016  -4.968  -9.638  1.00  0.00    -0.353 N 
ATOM     88  C   UNL     1       5.763  -3.893 -10.466  1.00  0.00     0.046 A 
ATOM     89  C   UNL     1       5.804  -1.480 -10.344  1.00  0.00     0.010 A 
ATOM     90  H   UNL     1       5.887  -5.913  -9.882  1.00  0.00     0.166 HD
ATOM     91  C   UNL     1       5.375  -3.860 -11.812  1.00  0.00     0.026 A 
ATOM     92  C   UNL     1       5.432  -1.432 -11.692  1.00  0.00     0.001 A 
ATOM     93  C   UNL     1       5.219  -2.606 -12.412  1.00  0.00     0.002 A 
BRANCH  82  94
ATOM     94  C   UNL     1       8.058  -6.382  -7.665  1.00  0.00     0.016 A 
ATOM     95  C   UNL     1       8.869  -6.238  -8.801  1.00  0.00     0.014 A 
ATOM     96  C   UNL     1       8.346  -7.444  -6.789  1.00  0.00     0.014 A 
ATOM     97  C   UNL     1       9.903  -7.140  -9.065  1.00  0.00     0.047 A 
ATOM     98  C   UNL     1       9.406  -8.326  -7.035  1.00  0.00     0.047 A 
ATOM     99  C   UNL     1      10.192  -8.176  -8.177  1.00  0.00     0.129 A 
BRANCH  99 100
ATOM    100  O   UNL     1      11.252  -8.954  -8.541  1.00  0.00    -0.406 OA
BRANCH 100 101
ATOM    101  C   UNL     1      11.804  -9.809  -7.556  1.00  0.00     0.573 C 
ATOM    102  F   UNL     1      12.165  -9.125  -6.451  1.00  0.00    -0.132 F 
ATOM    103  F   UNL     1      10.935 -10.788  -7.222  1.00  0.00    -0.132 F 
ATOM    104  F   UNL     1      12.911 -10.395  -8.068  1.00  0.00    -0.132 F 
ENDBRANCH 100 101
ENDBRANCH  99 100
ENDBRANCH  82  94
ENDBRANCH  75  78
ENDBRANCH  73  74
ENDBRANCH  72  73
ENDBRANCH   1  72
TORSDOF 17
