REMARK SMILES Cc1ccc2c(=O)c3cccc(CC(=O)NCCCCNC(=O)c4ccc(-c5c6nc(c(-c7cc(S(=O)(=O)[O-])ccc7F)c7ccc([nH]7)c(-c7cc(S(=O)(=O)[O-])ccc7F)c7nc(c(-c8cc(S(=O)(=O)[O-])ccc8F)c8ccc5[nH]8)C=C7)C=C6)cc4)c3oc2c1C
REMARK SMILES IDX 19 1 18 2 17 3 16 4 14 5 15 6 13 8 12 9 1 10 2 11 3 12 90 13
REMARK SMILES IDX 4 14 89 15 91 16 5 17 88 18 6 19 87 20 7 21 8 22 9 23 11 24
REMARK SMILES IDX 10 25 20 26 21 27 22 28 23 30 24 31 25 32 86 33 26 34 85 35
REMARK SMILES IDX 27 36 28 37 29 38 79 39 30 40 84 41 78 42 80 43 31 44 83 45
REMARK SMILES IDX 77 46 76 47 32 49 64 50 44 51 63 52 45 53 48 54 62 55 81 56
REMARK SMILES IDX 46 57 47 58 61 60 82 61 49 62 33 63 34 64 42 65 35 66 41 67
REMARK SMILES IDX 43 68 40 69 36 70 37 71 38 72 39 73 65 74 66 75 74 76 67 77
REMARK SMILES IDX 73 78 75 79 72 80 68 81 69 82 70 83 71 84 50 85 51 86 59 87
REMARK SMILES IDX 52 88 58 89 60 90 57 91 53 92 54 93 55 94 56 95
REMARK H PARENT 16 7 21 29 80 48 48 59
REMARK Flexibility Score: inf
ROOT
ATOM      1  C   UNL     1       2.712   1.244   8.426  1.00  0.00     0.023 C 
ENDROOT
BRANCH   1   2
ATOM      2  C   UNL     1       1.202   1.098   8.620  1.00  0.00     0.023 C 
BRANCH   2   3
ATOM      3  C   UNL     1       0.410   2.402   8.529  1.00  0.00     0.116 C 
BRANCH   3   4
ATOM      4  N   UNL     1       0.419   2.963   7.192  1.00  0.00    -0.356 N 
ATOM      5  C   UNL     1      -0.537   2.898   6.219  1.00  0.00     0.224 C 
ATOM      6  O   UNL     1      -0.340   3.505   5.164  1.00  0.00    -0.275 OA
ATOM      7  H   UNL     1       1.232   3.464   6.951  1.00  0.00     0.163 HD
BRANCH   5   8
ATOM      8  C   UNL     1      -1.845   2.165   6.470  1.00  0.00     0.139 C 
BRANCH   8   9
ATOM      9  C   UNL     1      -1.722   0.670   6.670  1.00  0.00     0.005 A 
ATOM     10  C   UNL     1       1.072   0.099  -0.069  1.00  0.00     0.045 C 
ATOM     11  C   UNL     1       0.650  -0.505   1.244  1.00  0.00    -0.044 A 
ATOM     12  C   UNL     1       0.830  -1.889   1.419  1.00  0.00     0.005 A 
ATOM     13  C   UNL     1       0.137   0.268   2.311  1.00  0.00    -0.005 A 
ATOM     14  C   UNL     1       0.479  -2.512   2.614  1.00  0.00     0.016 A 
ATOM     15  C   UNL     1      -0.232  -0.377   3.513  1.00  0.00     0.141 A 
ATOM     16  C   UNL     1      -0.018   1.766   2.221  1.00  0.00     0.049 C 
ATOM     17  C   UNL     1      -0.058  -1.753   3.651  1.00  0.00     0.066 A 
ATOM     18  O   UNL     1      -0.759   0.413   4.512  1.00  0.00    -0.455 OA
ATOM     19  C   UNL     1      -0.455  -2.399   4.908  1.00  0.00     0.200 A 
ATOM     20  C   UNL     1      -1.162  -0.169   5.690  1.00  0.00     0.142 A 
ATOM     21  O   UNL     1      -0.327  -3.604   5.082  1.00  0.00    -0.288 OA
ATOM     22  C   UNL     1      -1.037  -1.536   5.943  1.00  0.00     0.066 A 
ATOM     23  C   UNL     1      -1.464  -2.086   7.156  1.00  0.00     0.016 A 
ATOM     24  C   UNL     1      -2.187   0.099   7.870  1.00  0.00     0.008 A 
ATOM     25  C   UNL     1      -2.046  -1.267   8.117  1.00  0.00     0.001 A 
ENDBRANCH   8   9
ENDBRANCH   5   8
ENDBRANCH   3   4
ENDBRANCH   2   3
ENDBRANCH   1   2
BRANCH   1  26
ATOM     26  C   UNL     1       3.412   2.173   9.410  1.00  0.00     0.116 C 
BRANCH  26  27
ATOM     27  N   UNL     1       3.266   1.769  10.801  1.00  0.00    -0.352 N 
ATOM     28  C   UNL     1       4.185   1.881  11.821  1.00  0.00     0.251 C 
ATOM     29  H   UNL     1       2.401   1.366  11.043  1.00  0.00     0.163 HD
ATOM     30  O   UNL     1       3.938   1.409  12.928  1.00  0.00    -0.269 OA
BRANCH  28  31
ATOM     31  C   UNL     1       5.489   2.524  11.549  1.00  0.00     0.039 A 
ATOM     32  C   UNL     1       5.548   3.748  10.880  1.00  0.00     0.014 A 
ATOM     33  C   UNL     1       6.664   1.853  11.896  1.00  0.00     0.014 A 
ATOM     34  C   UNL     1       6.770   4.210  10.402  1.00  0.00     0.010 A 
ATOM     35  C   UNL     1       7.899   2.361  11.481  1.00  0.00     0.010 A 
ATOM     36  C   UNL     1       7.957   3.512  10.679  1.00  0.00    -0.014 A 
BRANCH  36  37
ATOM     37  C   UNL     1       9.240   3.990  10.098  1.00  0.00     0.031 A 
ATOM     38  C   UNL     1       9.973   3.165   9.072  1.00  0.00     0.074 A 
ATOM     39  C   UNL     1       9.713   5.200  10.453  1.00  0.00     0.049 A 
ATOM     40  N   UNL     1      11.079   3.444   8.431  1.00  0.00    -0.248 NA
ATOM     41  C   UNL     1       9.393   1.859   8.718  1.00  0.00     0.031 C 
ATOM     42  C   UNL     1       9.077   6.092  11.423  1.00  0.00     0.029 A 
ATOM     43  N   UNL     1      10.812   5.902  10.026  1.00  0.00    -0.354 N 
ATOM     44  C   UNL     1      11.339   2.346   7.618  1.00  0.00     0.074 A 
ATOM     45  C   UNL     1      10.290   1.383   7.865  1.00  0.00     0.031 C 
ATOM     46  C   UNL     1       9.759   7.245  11.472  1.00  0.00     0.029 A 
ATOM     47  C   UNL     1      10.922   7.152  10.591  1.00  0.00     0.049 A 
ATOM     48  H   UNL     1      11.461   5.545   9.377  1.00  0.00     0.167 HD
ATOM     49  C   UNL     1      12.353   2.168   6.738  1.00  0.00     0.034 A 
ATOM     50  C   UNL     1      11.853   8.115  10.427  1.00  0.00     0.034 A 
ATOM     51  C   UNL     1      13.371   3.152   6.474  1.00  0.00     0.049 A 
ATOM     52  C   UNL     1      12.988   7.873   9.467  1.00  0.00     0.074 A 
ATOM     53  C   UNL     1      14.413   3.077   5.566  1.00  0.00     0.029 A 
ATOM     54  N   UNL     1      13.477   4.383   7.104  1.00  0.00    -0.354 N 
ATOM     55  N   UNL     1      13.193   6.848   8.674  1.00  0.00    -0.248 NA
ATOM     56  C   UNL     1      14.024   8.912   9.380  1.00  0.00     0.031 C 
ATOM     57  C   UNL     1      15.181   4.236   5.686  1.00  0.00     0.029 A 
ATOM     58  C   UNL     1      14.584   5.064   6.624  1.00  0.00     0.049 A 
ATOM     59  H   UNL     1      12.858   4.723   7.790  1.00  0.00     0.167 HD
ATOM     60  C   UNL     1      14.366   7.128   7.979  1.00  0.00     0.074 A 
ATOM     61  C   UNL     1      14.814   8.429   8.429  1.00  0.00     0.031 C 
ATOM     62  C   UNL     1      15.014   6.371   7.060  1.00  0.00     0.034 A 
BRANCH  49  63
ATOM     63  C   UNL     1      12.430   0.874   5.967  1.00  0.00     0.023 A 
ATOM     64  C   UNL     1      13.523   0.007   6.161  1.00  0.00     0.031 A 
ATOM     65  C   UNL     1      11.513   0.572   4.946  1.00  0.00     0.131 A 
ATOM     66  C   UNL     1      13.691  -1.099   5.319  1.00  0.00     0.055 A 
ATOM     67  C   UNL     1      11.666  -0.552   4.133  1.00  0.00     0.041 A 
ATOM     68  F   UNL     1      10.454   1.368   4.724  1.00  0.00    -0.206 F 
ATOM     69  C   UNL     1      12.766  -1.386   4.310  1.00  0.00     0.022 A 
BRANCH  66  70
ATOM     70  S   UNL     1      15.147  -2.172   5.460  1.00  0.00     0.124 S 
ATOM     71  O   UNL     1      14.534  -3.479   5.691  1.00  0.00    -0.237 OA
ATOM     72  O   UNL     1      15.779  -2.002   4.155  1.00  0.00    -0.237 OA
ATOM     73  O   UNL     1      15.880  -1.623   6.595  1.00  0.00    -0.744 OA
ENDBRANCH  66  70
ENDBRANCH  49  63
BRANCH  50  74
ATOM     74  C   UNL     1      11.704   9.408  11.157  1.00  0.00     0.023 A 
ATOM     75  C   UNL     1      11.689   9.453  12.563  1.00  0.00     0.031 A 
ATOM     76  C   UNL     1      11.474  10.603  10.456  1.00  0.00     0.131 A 
ATOM     77  C   UNL     1      11.377  10.650  13.220  1.00  0.00     0.055 A 
ATOM     78  C   UNL     1      11.234  11.810  11.115  1.00  0.00     0.041 A 
ATOM     79  F   UNL     1      11.468  10.609   9.114  1.00  0.00    -0.206 F 
ATOM     80  C   UNL     1      11.166  11.833  12.505  1.00  0.00     0.022 A 
BRANCH  77  81
ATOM     81  S   UNL     1      11.092  10.679  15.012  1.00  0.00     0.124 S 
ATOM     82  O   UNL     1      12.168  11.548  15.476  1.00  0.00    -0.237 OA
ATOM     83  O   UNL     1       9.746  11.241  15.093  1.00  0.00    -0.237 OA
ATOM     84  O   UNL     1      11.200   9.276  15.399  1.00  0.00    -0.744 OA
ENDBRANCH  77  81
ENDBRANCH  50  74
BRANCH  62  85
ATOM     85  C   UNL     1      16.284   6.907   6.446  1.00  0.00     0.023 A 
ATOM     86  C   UNL     1      16.340   7.172   5.064  1.00  0.00     0.031 A 
ATOM     87  C   UNL     1      17.471   6.999   7.192  1.00  0.00     0.131 A 
ATOM     88  C   UNL     1      17.568   7.473   4.463  1.00  0.00     0.055 A 
ATOM     89  C   UNL     1      18.684   7.343   6.596  1.00  0.00     0.041 A 
ATOM     90  F   UNL     1      17.468   6.746   8.511  1.00  0.00    -0.206 F 
ATOM     91  C   UNL     1      18.739   7.567   5.223  1.00  0.00     0.022 A 
BRANCH  88  92
ATOM     92  S   UNL     1      17.708   7.664   2.664  1.00  0.00     0.124 S 
ATOM     93  O   UNL     1      18.185   9.040   2.543  1.00  0.00    -0.237 OA
ATOM     94  O   UNL     1      18.684   6.633   2.320  1.00  0.00    -0.237 OA
ATOM     95  O   UNL     1      16.352   7.432   2.178  1.00  0.00    -0.744 OA
ENDBRANCH  88  92
ENDBRANCH  62  85
ENDBRANCH  36  37
ENDBRANCH  28  31
ENDBRANCH  26  27
ENDBRANCH   1  26
TORSDOF 15
