REMARK SMILES O=C(NCCCCNC(=O)[C@H]1CCCN(C(=O)c2c[nH]c3ccccc23)C1)c1ccc(-c2c3nc(c(-c4cc(S(=O)(=O)[O-])ccc4F)c4ccc([nH]4)c(-c4cc(S(=O)(=O)[O-])ccc4F)c4nc(c(-c5cc(S(=O)(=O)[O-])ccc5F)c5ccc2[nH]5)C=C4)C=C3)cc1
REMARK SMILES IDX 5 1 4 2 3 3 1 4 2 5 28 7 29 8 90 9 30 10 89 11 31 12 32 13
REMARK SMILES IDX 33 14 83 15 34 16 88 17 82 18 84 19 35 20 87 21 81 22 80 23
REMARK SMILES IDX 36 25 68 26 48 27 67 28 49 29 52 30 66 31 85 32 50 33 51 34
REMARK SMILES IDX 65 36 86 37 53 38 37 39 38 40 46 41 39 42 45 43 47 44 44 45
REMARK SMILES IDX 40 46 41 47 42 48 43 49 69 50 70 51 78 52 71 53 77 54 79 55
REMARK SMILES IDX 76 56 72 57 73 58 74 59 75 60 54 61 55 62 63 63 56 64 62 65
REMARK SMILES IDX 64 66 61 67 57 68 58 69 59 70 60 71 6 72 7 73 8 74 9 75
REMARK SMILES IDX 10 77 11 78 12 79 27 80 13 81 15 82 14 83 16 84 17 85 18 86
REMARK SMILES IDX 19 87 26 88 20 89 21 90 25 91 22 93 24 94 23 95
REMARK H PARENT 3 6 84 24 52 35 8 76 20 92
REMARK Flexibility Score: inf
ROOT
ATOM      1  C   UNL     1       4.158   0.916   2.281  1.00  0.00     0.023 C 
ENDROOT
BRANCH   1   2
ATOM      2  C   UNL     1       3.514   2.204   1.768  1.00  0.00     0.116 C 
BRANCH   2   3
ATOM      3  N   UNL     1       4.332   2.898   0.788  1.00  0.00    -0.352 N 
ATOM      4  O   UNL     1       4.782   4.082  -1.068  1.00  0.00    -0.269 OA
ATOM      5  C   UNL     1       3.938   3.671  -0.278  1.00  0.00     0.251 C 
ATOM      6  H   UNL     1       5.305   2.800   0.904  1.00  0.00     0.163 HD
BRANCH   5   7
ATOM      7  C   UNL     1       2.506   3.984  -0.496  1.00  0.00     0.039 A 
ATOM      8  C   UNL     1       1.683   4.420   0.547  1.00  0.00     0.014 A 
ATOM      9  C   UNL     1       1.990   3.878  -1.793  1.00  0.00     0.014 A 
ATOM     10  C   UNL     1       0.330   4.663   0.311  1.00  0.00     0.010 A 
ATOM     11  C   UNL     1       0.642   4.159  -2.036  1.00  0.00     0.010 A 
ATOM     12  C   UNL     1      -0.203   4.531  -0.981  1.00  0.00    -0.014 A 
BRANCH  12  13
ATOM     13  C   UNL     1      -1.642   4.807  -1.217  1.00  0.00     0.031 A 
ATOM     14  C   UNL     1      -2.604   3.683  -1.479  1.00  0.00     0.074 A 
ATOM     15  C   UNL     1      -2.084   6.078  -1.175  1.00  0.00     0.049 A 
ATOM     16  N   UNL     1      -3.897   3.731  -1.680  1.00  0.00    -0.248 NA
ATOM     17  C   UNL     1      -2.036   2.328  -1.530  1.00  0.00     0.031 C 
ATOM     18  C   UNL     1      -1.244   7.255  -0.945  1.00  0.00     0.029 A 
ATOM     19  N   UNL     1      -3.347   6.591  -1.317  1.00  0.00    -0.354 N 
ATOM     20  C   UNL     1      -4.300   2.417  -1.886  1.00  0.00     0.074 A 
ATOM     21  C   UNL     1      -3.106   1.599  -1.815  1.00  0.00     0.031 C 
ATOM     22  C   UNL     1      -2.020   8.351  -0.937  1.00  0.00     0.029 A 
ATOM     23  C   UNL     1      -3.402   7.958  -1.190  1.00  0.00     0.049 A 
ATOM     24  H   UNL     1      -4.139   6.033  -1.493  1.00  0.00     0.167 HD
ATOM     25  C   UNL     1      -5.549   1.936  -2.105  1.00  0.00     0.034 A 
ATOM     26  C   UNL     1      -4.449   8.801  -1.272  1.00  0.00     0.034 A 
ATOM     27  C   UNL     1      -6.734   2.756  -2.176  1.00  0.00     0.049 A 
ATOM     28  C   UNL     1      -5.821   8.247  -1.530  1.00  0.00     0.074 A 
ATOM     29  C   UNL     1      -8.049   2.364  -2.364  1.00  0.00     0.029 A 
ATOM     30  N   UNL     1      -6.746   4.141  -2.071  1.00  0.00    -0.354 N 
ATOM     31  N   UNL     1      -6.185   7.000  -1.713  1.00  0.00    -0.248 NA
ATOM     32  C   UNL     1      -6.922   9.217  -1.592  1.00  0.00     0.031 C 
ATOM     33  C   UNL     1      -8.849   3.513  -2.415  1.00  0.00     0.029 A 
ATOM     34  C   UNL     1      -8.040   4.619  -2.213  1.00  0.00     0.049 A 
ATOM     35  H   UNL     1      -5.951   4.701  -1.919  1.00  0.00     0.167 HD
ATOM     36  C   UNL     1      -7.561   7.035  -1.907  1.00  0.00     0.074 A 
ATOM     37  C   UNL     1      -7.963   8.424  -1.807  1.00  0.00     0.031 C 
ATOM     38  C   UNL     1      -8.417   6.009  -2.144  1.00  0.00     0.034 A 
BRANCH  25  39
ATOM     39  C   UNL     1      -5.682   0.451  -2.321  1.00  0.00     0.023 A 
ATOM     40  C   UNL     1      -5.459  -0.466  -1.280  1.00  0.00     0.031 A 
ATOM     41  C   UNL     1      -6.002  -0.054  -3.593  1.00  0.00     0.131 A 
ATOM     42  C   UNL     1      -5.502  -1.844  -1.542  1.00  0.00     0.055 A 
ATOM     43  C   UNL     1      -6.103  -1.426  -3.834  1.00  0.00     0.041 A 
ATOM     44  F   UNL     1      -6.206   0.778  -4.627  1.00  0.00    -0.206 F 
ATOM     45  C   UNL     1      -5.840  -2.330  -2.808  1.00  0.00     0.022 A 
BRANCH  42  46
ATOM     46  S   UNL     1      -4.994  -2.993  -0.234  1.00  0.00     0.124 S 
ATOM     47  O   UNL     1      -3.623  -2.560   0.025  1.00  0.00    -0.237 OA
ATOM     48  O   UNL     1      -5.962  -2.716   0.821  1.00  0.00    -0.237 OA
ATOM     49  O   UNL     1      -5.117  -4.306  -0.864  1.00  0.00    -0.744 OA
ENDBRANCH  42  46
ENDBRANCH  25  39
BRANCH  26  50
ATOM     50  C   UNL     1      -4.233  10.263  -1.130  1.00  0.00     0.023 A 
ATOM     51  C   UNL     1      -4.634  10.944   0.029  1.00  0.00     0.031 A 
ATOM     52  C   UNL     1      -3.622  10.997  -2.160  1.00  0.00     0.131 A 
ATOM     53  C   UNL     1      -4.436  12.329   0.123  1.00  0.00     0.055 A 
ATOM     54  C   UNL     1      -3.403  12.370  -2.051  1.00  0.00     0.041 A 
ATOM     55  F   UNL     1      -3.213  10.381  -3.280  1.00  0.00    -0.206 F 
ATOM     56  C   UNL     1      -3.817  13.045  -0.906  1.00  0.00     0.022 A 
BRANCH  53  57
ATOM     57  S   UNL     1      -5.022  13.193   1.605  1.00  0.00     0.124 S 
ATOM     58  O   UNL     1      -6.455  12.925   1.561  1.00  0.00    -0.237 OA
ATOM     59  O   UNL     1      -4.276  12.519   2.663  1.00  0.00    -0.237 OA
ATOM     60  O   UNL     1      -4.638  14.582   1.365  1.00  0.00    -0.744 OA
ENDBRANCH  53  57
ENDBRANCH  26  50
BRANCH  38  61
ATOM     61  C   UNL     1      -9.869   6.370  -2.295  1.00  0.00     0.023 A 
ATOM     62  C   UNL     1     -10.347   7.000  -3.456  1.00  0.00     0.031 A 
ATOM     63  C   UNL     1     -10.775   6.110  -1.253  1.00  0.00     0.131 A 
ATOM     64  C   UNL     1     -11.692   7.390  -3.532  1.00  0.00     0.055 A 
ATOM     65  C   UNL     1     -12.120   6.468  -1.349  1.00  0.00     0.041 A 
ATOM     66  F   UNL     1     -10.362   5.513  -0.123  1.00  0.00    -0.206 F 
ATOM     67  C   UNL     1     -12.583   7.120  -2.489  1.00  0.00     0.022 A 
BRANCH  64  68
ATOM     68  S   UNL     1     -12.251   8.315  -4.988  1.00  0.00     0.124 S 
ATOM     69  O   UNL     1     -11.405   9.503  -4.937  1.00  0.00    -0.237 OA
ATOM     70  O   UNL     1     -11.977   7.383  -6.076  1.00  0.00    -0.237 OA
ATOM     71  O   UNL     1     -13.669   8.553  -4.720  1.00  0.00    -0.744 OA
ENDBRANCH  64  68
ENDBRANCH  38  61
ENDBRANCH  12  13
ENDBRANCH   5   7
ENDBRANCH   2   3
ENDBRANCH   1   2
BRANCH   1  72
ATOM     72  C   UNL     1       5.524   1.076   2.963  1.00  0.00     0.023 C 
BRANCH  72  73
ATOM     73  C   UNL     1       5.553   2.057   4.135  1.00  0.00     0.116 C 
BRANCH  73  74
ATOM     74  N   UNL     1       4.694   1.632   5.224  1.00  0.00    -0.356 N 
ATOM     75  C   UNL     1       5.005   0.905   6.337  1.00  0.00     0.224 C 
ATOM     76  H   UNL     1       3.752   1.909   5.151  1.00  0.00     0.163 HD
ATOM     77  O   UNL     1       4.100   0.601   7.113  1.00  0.00    -0.275 OA
BRANCH  75  78
ATOM     78  C   UNL     1       6.457   0.565   6.620  1.00  0.00     0.098 C 
ATOM     79  C   UNL     1       7.126   1.749   7.343  1.00  0.00     0.017 C 
ATOM     80  C   UNL     1       6.542  -0.694   7.492  1.00  0.00     0.133 C 
ATOM     81  C   UNL     1       8.545   1.405   7.801  1.00  0.00     0.022 C 
ATOM     82  N   UNL     1       7.935  -0.961   7.855  1.00  0.00    -0.338 N 
ATOM     83  C   UNL     1       8.578   0.111   8.614  1.00  0.00     0.120 C 
BRANCH  82  84
ATOM     84  C   UNL     1       8.605  -2.016   7.238  1.00  0.00     0.256 C 
ATOM     85  O   UNL     1       8.107  -2.651   6.307  1.00  0.00    -0.269 OA
BRANCH  84  86
ATOM     86  C   UNL     1       9.951  -2.335   7.701  1.00  0.00     0.065 A 
ATOM     87  C   UNL     1      11.045  -2.473   6.866  1.00  0.00     0.097 A 
ATOM     88  C   UNL     1      10.405  -2.633   9.029  1.00  0.00     0.012 A 
ATOM     89  N   UNL     1      12.136  -2.780   7.630  1.00  0.00    -0.360 N 
ATOM     90  C   UNL     1      11.778  -2.882   8.954  1.00  0.00     0.046 A 
ATOM     91  C   UNL     1       9.777  -2.723  10.290  1.00  0.00     0.011 A 
ATOM     92  H   UNL     1      13.048  -2.909   7.282  1.00  0.00     0.166 HD
ATOM     93  C   UNL     1      12.555  -3.188  10.077  1.00  0.00     0.027 A 
ATOM     94  C   UNL     1      10.540  -3.029  11.422  1.00  0.00     0.001 A 
ATOM     95  C   UNL     1      11.910  -3.253  11.315  1.00  0.00     0.002 A 
ENDBRANCH  84  86
ENDBRANCH  82  84
ENDBRANCH  75  78
ENDBRANCH  73  74
ENDBRANCH  72  73
ENDBRANCH   1  72
TORSDOF 16
