REMARK SMILES N#C/C(=C/c1ccc(-c2cccc(C(=O)NCCCCNC(=O)c3ccc(-c4c5nc(c(-c6cc(S(=O)(=O)[O-])ccc6F)c6ccc([nH]6)c(-c6cc(S(=O)(=O)[O-])ccc6F)c6nc(c(-c7cc(S(=O)(=O)[O-])ccc7F)c7ccc4[nH]7)C=C6)C=C5)cc3)c2)o1)c1ccc(F)cc1
REMARK SMILES IDX 18 1 17 2 16 3 14 4 15 5 13 7 9 8 10 9 87 10 11 11 12 12
REMARK SMILES IDX 8 13 5 14 6 15 88 16 7 17 4 18 3 19 2 20 1 21 89 22 90 23
REMARK SMILES IDX 95 24 91 25 94 26 92 27 93 28 19 29 20 30 21 31 22 32 23 34
REMARK SMILES IDX 24 35 25 36 86 37 26 38 85 39 27 40 28 41 29 42 79 43 30 44
REMARK SMILES IDX 84 45 78 46 80 47 31 48 83 49 77 50 76 51 32 53 64 54 44 55
REMARK SMILES IDX 63 56 45 57 48 58 62 59 81 60 46 61 47 62 61 64 82 65 49 66
REMARK SMILES IDX 33 67 34 68 42 69 35 70 41 71 43 72 40 73 36 74 37 75 38 76
REMARK SMILES IDX 39 77 65 78 66 79 74 80 67 81 73 82 75 83 72 84 68 85 69 86
REMARK SMILES IDX 70 87 71 88 50 89 51 90 59 91 52 92 58 93 60 94 57 95 53 96
REMARK SMILES IDX 54 97 55 98 56 99
REMARK H PARENT 16 6 21 33 80 52 48 63
REMARK Flexibility Score: inf
ROOT
ATOM      1  C   UNL     1       9.849   4.191   4.087  1.00  0.00     0.023 C 
ENDROOT
BRANCH   1   2
ATOM      2  C   UNL     1      10.455   3.097   3.220  1.00  0.00     0.116 C 
BRANCH   2   3
ATOM      3  N   UNL     1      11.640   2.448   3.770  1.00  0.00    -0.352 N 
ATOM      4  C   UNL     1      11.968   1.110   3.893  1.00  0.00     0.251 C 
ATOM      5  O   UNL     1      13.037   0.793   4.409  1.00  0.00    -0.269 OA
ATOM      6  H   UNL     1      12.323   3.069   4.113  1.00  0.00     0.163 HD
BRANCH   4   7
ATOM      7  C   UNL     1      11.022   0.040   3.480  1.00  0.00     0.040 A 
ATOM      8  C   UNL     1       9.040  -0.577   2.233  1.00  0.00     0.018 A 
ATOM      9  C   UNL     1       8.889  -1.707   3.040  1.00  0.00     0.012 A 
ATOM     10  C   UNL     1      10.195   0.200   2.374  1.00  0.00     0.025 A 
ATOM     11  C   UNL     1       9.845  -2.002   4.019  1.00  0.00     0.002 A 
ATOM     12  C   UNL     1      10.888  -1.105   4.268  1.00  0.00     0.014 A 
BRANCH   8  13
ATOM     13  C   UNL     1       7.981  -0.049   1.383  1.00  0.00     0.134 A 
ATOM     14  C   UNL     1       5.853   0.463   0.981  1.00  0.00     0.128 A 
ATOM     15  C   UNL     1       6.647   1.193   0.102  1.00  0.00     0.051 A 
ATOM     16  O   UNL     1       6.694  -0.281   1.782  1.00  0.00    -0.457 OA
ATOM     17  C   UNL     1       7.988   0.828   0.322  1.00  0.00     0.051 A 
BRANCH  14  18
ATOM     18  C   UNL     1       4.428   0.398   1.044  1.00  0.00     0.067 C 
ATOM     19  C   UNL     1       3.708   0.054  -0.041  1.00  0.00     0.063 C 
BRANCH  19  20
ATOM     20  C   UNL     1       2.188   0.054  -0.041  1.00  0.00     0.100 C 
ATOM     21  N   UNL     1       0.927   0.054  -0.041  1.00  0.00    -0.192 NA
ENDBRANCH  19  20
BRANCH  19  22
ATOM     22  C   UNL     1       4.328  -0.386  -1.327  1.00  0.00    -0.007 A 
ATOM     23  C   UNL     1       5.229  -1.469  -1.359  1.00  0.00     0.012 A 
ATOM     24  C   UNL     1       4.051   0.296  -2.523  1.00  0.00     0.012 A 
ATOM     25  C   UNL     1       5.887  -1.815  -2.541  1.00  0.00     0.040 A 
ATOM     26  C   UNL     1       4.696  -0.066  -3.709  1.00  0.00     0.040 A 
ATOM     27  C   UNL     1       5.617  -1.108  -3.704  1.00  0.00     0.123 A 
ATOM     28  F   UNL     1       6.256  -1.431  -4.835  1.00  0.00    -0.207 F 
ENDBRANCH  19  22
ENDBRANCH  14  18
ENDBRANCH   8  13
ENDBRANCH   4   7
ENDBRANCH   2   3
ENDBRANCH   1   2
BRANCH   1  29
ATOM     29  C   UNL     1      10.695   5.438   4.302  1.00  0.00     0.023 C 
BRANCH  29  30
ATOM     30  C   UNL     1      11.268   6.089   3.049  1.00  0.00     0.116 C 
BRANCH  30  31
ATOM     31  N   UNL     1      10.269   6.443   2.051  1.00  0.00    -0.352 N 
ATOM     32  C   UNL     1      10.099   7.625   1.361  1.00  0.00     0.251 C 
ATOM     33  H   UNL     1       9.620   5.735   1.837  1.00  0.00     0.163 HD
ATOM     34  O   UNL     1       9.149   7.750   0.600  1.00  0.00    -0.269 OA
BRANCH  32  35
ATOM     35  C   UNL     1      11.036   8.752   1.584  1.00  0.00     0.039 A 
ATOM     36  C   UNL     1      10.514  10.030   1.803  1.00  0.00     0.014 A 
ATOM     37  C   UNL     1      12.417   8.547   1.614  1.00  0.00     0.014 A 
ATOM     38  C   UNL     1      11.372  11.081   2.143  1.00  0.00     0.010 A 
ATOM     39  C   UNL     1      13.259   9.572   2.034  1.00  0.00     0.010 A 
ATOM     40  C   UNL     1      12.747  10.851   2.307  1.00  0.00    -0.014 A 
BRANCH  40  41
ATOM     41  C   UNL     1      13.672  11.929   2.749  1.00  0.00     0.031 A 
ATOM     42  C   UNL     1      14.788  12.376   1.843  1.00  0.00     0.074 A 
ATOM     43  C   UNL     1      13.561  12.447   3.989  1.00  0.00     0.049 A 
ATOM     44  N   UNL     1      15.767  13.211   2.079  1.00  0.00    -0.248 NA
ATOM     45  C   UNL     1      14.826  11.769   0.504  1.00  0.00     0.031 C 
ATOM     46  C   UNL     1      12.550  12.066   4.979  1.00  0.00     0.029 A 
ATOM     47  N   UNL     1      14.313  13.397   4.636  1.00  0.00    -0.354 N 
ATOM     48  C   UNL     1      16.549  13.213   0.929  1.00  0.00     0.074 A 
ATOM     49  C   UNL     1      15.964  12.247   0.024  1.00  0.00     0.031 C 
ATOM     50  C   UNL     1      12.734  12.788   6.096  1.00  0.00     0.029 A 
ATOM     51  C   UNL     1      13.897  13.652   5.923  1.00  0.00     0.049 A 
ATOM     52  H   UNL     1      15.078  13.853   4.218  1.00  0.00     0.167 HD
ATOM     53  C   UNL     1      17.640  13.968   0.644  1.00  0.00     0.034 A 
ATOM     54  C   UNL     1      14.403  14.478   6.860  1.00  0.00     0.034 A 
ATOM     55  C   UNL     1      18.198  14.944   1.548  1.00  0.00     0.049 A 
ATOM     56  C   UNL     1      15.616  15.309   6.522  1.00  0.00     0.074 A 
ATOM     57  C   UNL     1      19.266  15.800   1.343  1.00  0.00     0.029 A 
ATOM     58  N   UNL     1      17.731  15.194   2.833  1.00  0.00    -0.354 N 
ATOM     59  N   UNL     1      16.319  15.331   5.412  1.00  0.00    -0.248 NA
ATOM     60  C   UNL     1      16.094  16.235   7.556  1.00  0.00     0.031 C 
ATOM     61  C   UNL     1      19.480  16.526   2.520  1.00  0.00     0.029 A 
ATOM     62  C   UNL     1      18.502  16.176   3.437  1.00  0.00     0.049 A 
ATOM     63  H   UNL     1      16.965  14.741   3.253  1.00  0.00     0.167 HD
ATOM     64  C   UNL     1      17.300  16.300   5.606  1.00  0.00     0.074 A 
ATOM     65  C   UNL     1      17.091  16.845   6.931  1.00  0.00     0.031 C 
ATOM     66  C   UNL     1      18.282  16.707   4.761  1.00  0.00     0.034 A 
BRANCH  53  67
ATOM     67  C   UNL     1      18.306  13.743  -0.694  1.00  0.00     0.023 A 
ATOM     68  C   UNL     1      17.629  13.982  -1.903  1.00  0.00     0.031 A 
ATOM     69  C   UNL     1      19.619  13.245  -0.763  1.00  0.00     0.131 A 
ATOM     70  C   UNL     1      18.231  13.640  -3.123  1.00  0.00     0.055 A 
ATOM     71  C   UNL     1      20.246  12.991  -1.985  1.00  0.00     0.041 A 
ATOM     72  F   UNL     1      20.310  12.979   0.356  1.00  0.00    -0.206 F 
ATOM     73  C   UNL     1      19.545  13.171  -3.175  1.00  0.00     0.022 A 
BRANCH  70  74
ATOM     74  S   UNL     1      17.215  13.671  -4.625  1.00  0.00     0.124 S 
ATOM     75  O   UNL     1      16.162  12.716  -4.287  1.00  0.00    -0.237 OA
ATOM     76  O   UNL     1      16.810  15.069  -4.704  1.00  0.00    -0.237 OA
ATOM     77  O   UNL     1      18.136  13.227  -5.670  1.00  0.00    -0.744 OA
ENDBRANCH  70  74
ENDBRANCH  53  67
BRANCH  54  78
ATOM     78  C   UNL     1      13.776  14.568   8.210  1.00  0.00     0.023 A 
ATOM     79  C   UNL     1      13.164  15.755   8.644  1.00  0.00     0.031 A 
ATOM     80  C   UNL     1      13.818  13.483   9.104  1.00  0.00     0.131 A 
ATOM     81  C   UNL     1      12.664  15.847   9.952  1.00  0.00     0.055 A 
ATOM     82  C   UNL     1      13.273  13.563  10.386  1.00  0.00     0.041 A 
ATOM     83  F   UNL     1      14.384  12.323   8.736  1.00  0.00    -0.206 F 
ATOM     84  C   UNL     1      12.703  14.755  10.822  1.00  0.00     0.022 A 
BRANCH  81  85
ATOM     85  S   UNL     1      12.032  17.446  10.529  1.00  0.00     0.124 S 
ATOM     86  O   UNL     1      13.193  18.309  10.343  1.00  0.00    -0.237 OA
ATOM     87  O   UNL     1      10.911  17.673   9.623  1.00  0.00    -0.237 OA
ATOM     88  O   UNL     1      11.664  17.185  11.919  1.00  0.00    -0.744 OA
ENDBRANCH  81  85
ENDBRANCH  54  78
BRANCH  66  89
ATOM     89  C   UNL     1      19.165  17.837   5.231  1.00  0.00     0.023 A 
ATOM     90  C   UNL     1      20.066  17.682   6.298  1.00  0.00     0.031 A 
ATOM     91  C   UNL     1      19.092  19.093   4.601  1.00  0.00     0.131 A 
ATOM     92  C   UNL     1      20.821  18.780   6.739  1.00  0.00     0.055 A 
ATOM     93  C   UNL     1      19.887  20.165   5.008  1.00  0.00     0.041 A 
ATOM     94  F   UNL     1      18.247  19.296   3.578  1.00  0.00    -0.206 F 
ATOM     95  C   UNL     1      20.748  20.016   6.091  1.00  0.00     0.022 A 
BRANCH  92  96
ATOM     96  S   UNL     1      21.837  18.596   8.230  1.00  0.00     0.124 S 
ATOM     97  O   UNL     1      20.846  18.211   9.229  1.00  0.00    -0.237 OA
ATOM     98  O   UNL     1      22.783  17.556   7.836  1.00  0.00    -0.237 OA
ATOM     99  O   UNL     1      22.420  19.924   8.414  1.00  0.00    -0.744 OA
ENDBRANCH  92  96
ENDBRANCH  66  89
ENDBRANCH  40  41
ENDBRANCH  32  35
ENDBRANCH  30  31
ENDBRANCH  29  30
ENDBRANCH   1  29
TORSDOF 18
