REMARK SMILES CCCN(CC(=O)OC)C(=O)N1CC[C@H](C(=O)NCCCCNC(=O)c2ccc(-c3c4nc(c(-c5cc(S(=O)(=O)[O-])ccc5F)c5ccc([nH]5)c(-c5cc(S(=O)(=O)[O-])ccc5F)c5nc(c(-c6cc(S(=O)(=O)[O-])ccc6F)c6ccc3[nH]6)C=C5)C=C4)cc2)[C@H]1C
REMARK SMILES IDX 19 1 18 2 16 3 17 4 15 6 12 7 13 8 89 9 14 10 90 11 10 12
REMARK SMILES IDX 11 13 4 14 3 15 2 16 1 17 5 18 6 19 7 20 8 21 9 22 20 23
REMARK SMILES IDX 21 24 22 25 23 26 24 27 25 29 26 30 27 31 88 32 28 33 87 34
REMARK SMILES IDX 29 35 30 36 31 37 81 38 32 39 86 40 80 41 82 42 33 43 85 44
REMARK SMILES IDX 79 45 78 46 34 48 66 49 46 50 65 51 47 52 50 53 64 54 83 55
REMARK SMILES IDX 48 56 49 57 63 59 84 60 51 61 35 62 36 63 44 64 37 65 43 66
REMARK SMILES IDX 45 67 42 68 38 69 39 70 40 71 41 72 67 73 68 74 76 75 69 76
REMARK SMILES IDX 75 77 77 78 74 79 70 80 71 81 72 82 73 83 52 84 53 85 61 86
REMARK SMILES IDX 54 87 60 88 62 89 59 90 55 91 56 92 57 93 58 94
REMARK H PARENT 18 5 23 28 82 47 50 58
REMARK Flexibility Score: inf
ROOT
ATOM      1  C   UNL     1       2.083  -6.938   3.245  1.00  0.00     0.116 C 
ENDROOT
BRANCH   1   2
ATOM      2  N   UNL     1       2.119  -5.809   4.151  1.00  0.00    -0.356 N 
ATOM      3  C   UNL     1       1.235  -4.793   4.336  1.00  0.00     0.225 C 
ATOM      4  O   UNL     1       1.548  -3.910   5.137  1.00  0.00    -0.275 OA
ATOM      5  H   UNL     1       2.916  -5.771   4.727  1.00  0.00     0.163 HD
BRANCH   3   6
ATOM      6  C   UNL     1      -0.143  -4.845   3.687  1.00  0.00     0.102 C 
ATOM      7  N   UNL     1      -0.228  -3.348   1.818  1.00  0.00    -0.321 N 
ATOM      8  C   UNL     1      -0.548  -2.595   3.031  1.00  0.00     0.122 C 
ATOM      9  C   UNL     1      -0.167  -4.782   2.145  1.00  0.00     0.096 C 
ATOM     10  C   UNL     1      -0.987  -3.621   4.061  1.00  0.00     0.037 C 
ATOM     11  C   UNL     1      -1.414  -5.554   1.680  1.00  0.00     0.032 C 
BRANCH   7  12
ATOM     12  C   UNL     1       0.720  -2.754   0.991  1.00  0.00     0.320 C 
ATOM     13  O   UNL     1       1.623  -2.059   1.458  1.00  0.00    -0.248 OA
BRANCH  12  14
ATOM     14  N   UNL     1       0.523  -2.843  -0.376  1.00  0.00    -0.314 N 
BRANCH  14  15
ATOM     15  C   UNL     1       1.296  -1.950  -1.242  1.00  0.00     0.122 C 
BRANCH  15  16
ATOM     16  C   UNL     1       0.597  -0.596  -1.442  1.00  0.00     0.018 C 
ATOM     17  C   UNL     1       0.752   0.351  -0.258  1.00  0.00     0.006 C 
ENDBRANCH  15  16
ENDBRANCH  14  15
BRANCH  14  18
ATOM     18  C   UNL     1      -0.425  -3.729  -1.045  1.00  0.00     0.243 C 
BRANCH  18  19
ATOM     19  C   UNL     1       0.126  -5.128  -1.348  1.00  0.00     0.325 C 
ATOM     20  O   UNL     1      -0.559  -6.025  -1.830  1.00  0.00    -0.250 OA
BRANCH  19  21
ATOM     21  O   UNL     1       1.446  -5.256  -1.039  1.00  0.00    -0.468 OA
ATOM     22  C   UNL     1       2.000  -6.550  -1.281  1.00  0.00     0.282 C 
ENDBRANCH  19  21
ENDBRANCH  18  19
ENDBRANCH  14  18
ENDBRANCH  12  14
ENDBRANCH   7  12
ENDBRANCH   3   6
ENDBRANCH   1   2
BRANCH   1  23
ATOM     23  C   UNL     1       3.103  -6.754   2.122  1.00  0.00     0.023 C 
BRANCH  23  24
ATOM     24  C   UNL     1       4.563  -6.821   2.577  1.00  0.00     0.023 C 
BRANCH  24  25
ATOM     25  C   UNL     1       4.974  -8.149   3.200  1.00  0.00     0.116 C 
BRANCH  25  26
ATOM     26  N   UNL     1       4.799  -9.273   2.293  1.00  0.00    -0.352 N 
ATOM     27  C   UNL     1       5.663 -10.309   2.019  1.00  0.00     0.251 C 
ATOM     28  H   UNL     1       3.943  -9.296   1.807  1.00  0.00     0.163 HD
ATOM     29  O   UNL     1       5.416 -11.080   1.104  1.00  0.00    -0.269 OA
BRANCH  27  30
ATOM     30  C   UNL     1       6.899 -10.452   2.821  1.00  0.00     0.039 A 
ATOM     31  C   UNL     1       8.107 -10.703   2.167  1.00  0.00     0.014 A 
ATOM     32  C   UNL     1       6.866 -10.311   4.210  1.00  0.00     0.014 A 
ATOM     33  C   UNL     1       9.294 -10.744   2.903  1.00  0.00     0.010 A 
ATOM     34  C   UNL     1       8.055 -10.267   4.928  1.00  0.00     0.010 A 
ATOM     35  C   UNL     1       9.282 -10.489   4.284  1.00  0.00    -0.014 A 
BRANCH  35  36
ATOM     36  C   UNL     1      10.534 -10.476   5.084  1.00  0.00     0.031 A 
ATOM     37  C   UNL     1      10.721 -11.476   6.192  1.00  0.00     0.074 A 
ATOM     38  C   UNL     1      11.463  -9.525   4.864  1.00  0.00     0.049 A 
ATOM     39  N   UNL     1      11.685 -11.573   7.071  1.00  0.00    -0.248 NA
ATOM     40  C   UNL     1       9.657 -12.477   6.355  1.00  0.00     0.031 C 
ATOM     41  C   UNL     1      11.376  -8.476   3.846  1.00  0.00     0.029 A 
ATOM     42  N   UNL     1      12.660  -9.282   5.488  1.00  0.00    -0.354 N 
ATOM     43  C   UNL     1      11.335 -12.633   7.901  1.00  0.00     0.074 A 
ATOM     44  C   UNL     1      10.032 -13.090   7.466  1.00  0.00     0.031 C 
ATOM     45  C   UNL     1      12.487  -7.724   3.894  1.00  0.00     0.029 A 
ATOM     46  C   UNL     1      13.342  -8.204   4.974  1.00  0.00     0.049 A 
ATOM     47  H   UNL     1      12.998  -9.827   6.235  1.00  0.00     0.167 HD
ATOM     48  C   UNL     1      12.046 -13.193   8.912  1.00  0.00     0.034 A 
ATOM     49  C   UNL     1      14.521  -7.661   5.339  1.00  0.00     0.034 A 
ATOM     50  C   UNL     1      13.348 -12.729   9.323  1.00  0.00     0.049 A 
ATOM     51  C   UNL     1      15.284  -8.279   6.483  1.00  0.00     0.074 A 
ATOM     52  C   UNL     1      14.180 -13.241  10.304  1.00  0.00     0.029 A 
ATOM     53  N   UNL     1      14.010 -11.634   8.778  1.00  0.00    -0.354 N 
ATOM     54  N   UNL     1      14.959  -9.306   7.235  1.00  0.00    -0.248 NA
ATOM     55  C   UNL     1      16.577  -7.671   6.819  1.00  0.00     0.031 C 
ATOM     56  C   UNL     1      15.311 -12.422  10.395  1.00  0.00     0.029 A 
ATOM     57  C   UNL     1      15.225 -11.442   9.418  1.00  0.00     0.049 A 
ATOM     58  H   UNL     1      13.665 -11.076   8.043  1.00  0.00     0.167 HD
ATOM     59  C   UNL     1      16.027  -9.487   8.110  1.00  0.00     0.074 A 
ATOM     60  C   UNL     1      17.006  -8.470   7.784  1.00  0.00     0.031 C 
ATOM     61  C   UNL     1      16.188 -10.416   9.088  1.00  0.00     0.034 A 
BRANCH  48  62
ATOM     62  C   UNL     1      11.405 -14.351   9.644  1.00  0.00     0.023 A 
ATOM     63  C   UNL     1      11.046 -15.536   8.975  1.00  0.00     0.031 A 
ATOM     64  C   UNL     1      11.086 -14.249  11.009  1.00  0.00     0.131 A 
ATOM     65  C   UNL     1      10.299 -16.519   9.640  1.00  0.00     0.055 A 
ATOM     66  C   UNL     1      10.429 -15.276  11.691  1.00  0.00     0.041 A 
ATOM     67  F   UNL     1      11.383 -13.137  11.701  1.00  0.00    -0.206 F 
ATOM     68  C   UNL     1      10.011 -16.410  11.001  1.00  0.00     0.022 A 
BRANCH  65  69
ATOM     69  S   UNL     1       9.551 -17.846   8.654  1.00  0.00     0.124 S 
ATOM     70  O   UNL     1       8.740 -17.086   7.705  1.00  0.00    -0.237 OA
ATOM     71  O   UNL     1      10.717 -18.523   8.099  1.00  0.00    -0.237 OA
ATOM     72  O   UNL     1       8.789 -18.615   9.636  1.00  0.00    -0.744 OA
ENDBRANCH  65  69
ENDBRANCH  48  62
BRANCH  49  73
ATOM     73  C   UNL     1      15.062  -6.478   4.612  1.00  0.00     0.023 A 
ATOM     74  C   UNL     1      16.239  -6.578   3.853  1.00  0.00     0.031 A 
ATOM     75  C   UNL     1      14.429  -5.225   4.688  1.00  0.00     0.131 A 
ATOM     76  C   UNL     1      16.770  -5.437   3.233  1.00  0.00     0.055 A 
ATOM     77  C   UNL     1      14.935  -4.103   4.028  1.00  0.00     0.041 A 
ATOM     78  F   UNL     1      13.297  -5.077   5.394  1.00  0.00    -0.206 F 
ATOM     79  C   UNL     1      16.120  -4.203   3.304  1.00  0.00     0.022 A 
BRANCH  76  80
ATOM     80  S   UNL     1      18.367  -5.576   2.384  1.00  0.00     0.124 S 
ATOM     81  O   UNL     1      19.243  -6.009   3.466  1.00  0.00    -0.237 OA
ATOM     82  O   UNL     1      18.078  -6.569   1.355  1.00  0.00    -0.237 OA
ATOM     83  O   UNL     1      18.608  -4.222   1.889  1.00  0.00    -0.744 OA
ENDBRANCH  76  80
ENDBRANCH  49  73
BRANCH  61  84
ATOM     84  C   UNL     1      17.499 -10.402   9.835  1.00  0.00     0.023 A 
ATOM     85  C   UNL     1      17.861  -9.341  10.683  1.00  0.00     0.031 A 
ATOM     86  C   UNL     1      18.405 -11.468   9.685  1.00  0.00     0.131 A 
ATOM     87  C   UNL     1      19.119  -9.341  11.303  1.00  0.00     0.055 A 
ATOM     88  C   UNL     1      19.629 -11.491  10.353  1.00  0.00     0.041 A 
ATOM     89  F   UNL     1      18.112 -12.507   8.886  1.00  0.00    -0.206 F 
ATOM     90  C   UNL     1      19.998 -10.417  11.158  1.00  0.00     0.022 A 
BRANCH  87  91
ATOM     91  S   UNL     1      19.634  -7.870  12.232  1.00  0.00     0.124 S 
ATOM     92  O   UNL     1      19.550  -6.825  11.216  1.00  0.00    -0.237 OA
ATOM     93  O   UNL     1      18.636  -7.807  13.295  1.00  0.00    -0.237 OA
ATOM     94  O   UNL     1      20.988  -8.199  12.673  1.00  0.00    -0.744 OA
ENDBRANCH  87  91
ENDBRANCH  61  84
ENDBRANCH  35  36
ENDBRANCH  27  30
ENDBRANCH  25  26
ENDBRANCH  24  25
ENDBRANCH  23  24
ENDBRANCH   1  23
TORSDOF 21
