REMARK SMILES Cc1ccc2oc(CCCC(=O)NCCCCNC(=O)c3ccc(-c4c5nc(c(-c6cc(S(=O)(=O)[O-])ccc6F)c6ccc([nH]6)c(-c6cc(S(=O)(=O)[O-])ccc6F)c6nc(c(-c7cc(S(=O)(=O)[O-])ccc7F)c7ccc4[nH]7)C=C6)C=C5)cc3)cc(=O)c2c1
REMARK SMILES IDX 15 1 14 2 13 3 11 4 12 5 10 7 9 8 8 9 7 10 1 11 2 12 3 13
REMARK SMILES IDX 88 14 4 15 87 16 5 17 85 18 6 19 84 20 86 21 16 22 17 23
REMARK SMILES IDX 18 24 19 25 20 27 21 28 22 29 83 30 23 31 82 32 24 33 25 34
REMARK SMILES IDX 26 35 76 36 27 37 81 38 75 39 77 40 28 41 80 42 74 43 73 44
REMARK SMILES IDX 29 46 61 47 41 48 60 49 42 50 45 51 59 52 78 53 43 54 44 55
REMARK SMILES IDX 58 57 79 58 46 59 30 60 31 61 39 62 32 63 38 64 40 65 37 66
REMARK SMILES IDX 33 67 34 68 35 69 36 70 62 71 63 72 71 73 64 74 70 75 72 76
REMARK SMILES IDX 69 77 65 78 66 79 67 80 68 81 47 82 48 83 56 84 49 85 55 86
REMARK SMILES IDX 57 87 54 88 50 89 51 90 52 91 53 92
REMARK H PARENT 13 6 18 26 77 45 45 56
REMARK Flexibility Score: inf
ROOT
ATOM      1  C   UNL     1       3.750  -2.322  -2.358  1.00  0.00     0.023 C 
ENDROOT
BRANCH   1   2
ATOM      2  C   UNL     1       2.639  -3.196  -1.775  1.00  0.00     0.116 C 
BRANCH   2   3
ATOM      3  N   UNL     1       3.200  -4.394  -1.182  1.00  0.00    -0.356 N 
ATOM      4  C   UNL     1       3.379  -4.708   0.130  1.00  0.00     0.220 C 
ATOM      5  O   UNL     1       4.019  -5.721   0.415  1.00  0.00    -0.275 OA
ATOM      6  H   UNL     1       3.494  -5.082  -1.823  1.00  0.00     0.163 HD
BRANCH   4   7
ATOM      7  C   UNL     1       2.758  -3.853   1.216  1.00  0.00     0.100 C 
BRANCH   7   8
ATOM      8  C   UNL     1       3.666  -2.765   1.801  1.00  0.00     0.018 C 
BRANCH   8   9
ATOM      9  C   UNL     1       3.760  -1.406   1.084  1.00  0.00     0.076 C 
BRANCH   9  10
ATOM     10  C   UNL     1       2.501  -0.584   0.909  1.00  0.00     0.108 A 
ATOM     11  C   UNL     1      -3.666   1.082  -0.262  1.00  0.00     0.044 C 
ATOM     12  C   UNL     1      -2.334   0.461   0.041  1.00  0.00    -0.050 A 
ATOM     13  C   UNL     1      -2.229  -0.912   0.303  1.00  0.00     0.007 A 
ATOM     14  C   UNL     1      -1.180   1.259   0.084  1.00  0.00     0.019 A 
ATOM     15  C   UNL     1      -0.994  -1.479   0.620  1.00  0.00     0.048 A 
ATOM     16  C   UNL     1       0.056   0.682   0.396  1.00  0.00     0.065 A 
ATOM     17  C   UNL     1       0.143  -0.677   0.672  1.00  0.00     0.138 A 
ATOM     18  C   UNL     1       1.291   1.480   0.433  1.00  0.00     0.192 A 
ATOM     19  O   UNL     1       1.318  -1.291   1.011  1.00  0.00    -0.461 OA
ATOM     20  C   UNL     1       2.547   0.733   0.652  1.00  0.00     0.095 A 
ATOM     21  O   UNL     1       1.297   2.693   0.276  1.00  0.00    -0.289 OA
ENDBRANCH   9  10
ENDBRANCH   8   9
ENDBRANCH   7   8
ENDBRANCH   4   7
ENDBRANCH   2   3
ENDBRANCH   1   2
BRANCH   1  22
ATOM     22  C   UNL     1       4.123  -2.664  -3.796  1.00  0.00     0.023 C 
BRANCH  22  23
ATOM     23  C   UNL     1       3.040  -2.349  -4.818  1.00  0.00     0.116 C 
BRANCH  23  24
ATOM     24  N   UNL     1       2.701  -0.933  -4.886  1.00  0.00    -0.352 N 
ATOM     25  C   UNL     1       2.430  -0.180  -6.007  1.00  0.00     0.251 C 
ATOM     26  H   UNL     1       2.662  -0.457  -4.026  1.00  0.00     0.163 HD
ATOM     27  O   UNL     1       2.253   1.030  -5.917  1.00  0.00    -0.269 OA
BRANCH  25  28
ATOM     28  C   UNL     1       2.410  -0.855  -7.320  1.00  0.00     0.039 A 
ATOM     29  C   UNL     1       3.232  -0.374  -8.341  1.00  0.00     0.014 A 
ATOM     30  C   UNL     1       1.663  -2.023  -7.495  1.00  0.00     0.014 A 
ATOM     31  C   UNL     1       3.380  -1.122  -9.510  1.00  0.00     0.010 A 
ATOM     32  C   UNL     1       1.873  -2.803  -8.625  1.00  0.00     0.010 A 
ATOM     33  C   UNL     1       2.744  -2.368  -9.638  1.00  0.00    -0.014 A 
BRANCH  33  34
ATOM     34  C   UNL     1       2.977  -3.247 -10.812  1.00  0.00     0.031 A 
ATOM     35  C   UNL     1       1.828  -3.607 -11.710  1.00  0.00     0.074 A 
ATOM     36  C   UNL     1       4.192  -3.798 -11.005  1.00  0.00     0.049 A 
ATOM     37  N   UNL     1       1.780  -4.471 -12.690  1.00  0.00    -0.248 NA
ATOM     38  C   UNL     1       0.550  -2.930 -11.440  1.00  0.00     0.031 C 
ATOM     39  C   UNL     1       5.374  -3.561 -10.172  1.00  0.00     0.029 A 
ATOM     40  N   UNL     1       4.631  -4.689 -11.953  1.00  0.00    -0.354 N 
ATOM     41  C   UNL     1       0.464  -4.460 -13.139  1.00  0.00     0.074 A 
ATOM     42  C   UNL     1      -0.264  -3.547 -12.282  1.00  0.00     0.031 C 
ATOM     43  C   UNL     1       6.404  -4.274 -10.656  1.00  0.00     0.029 A 
ATOM     44  C   UNL     1       5.949  -5.056 -11.800  1.00  0.00     0.049 A 
ATOM     45  H   UNL     1       4.057  -5.033 -12.675  1.00  0.00     0.167 HD
ATOM     46  C   UNL     1      -0.082  -5.133 -14.182  1.00  0.00     0.034 A 
ATOM     47  C   UNL     1       6.697  -5.939 -12.491  1.00  0.00     0.034 A 
ATOM     48  C   UNL     1       0.666  -6.017 -15.040  1.00  0.00     0.049 A 
ATOM     49  C   UNL     1       6.066  -6.688 -13.636  1.00  0.00     0.074 A 
ATOM     50  C   UNL     1       0.235  -6.690 -16.171  1.00  0.00     0.029 A 
ATOM     51  N   UNL     1       2.000  -6.358 -14.860  1.00  0.00    -0.354 N 
ATOM     52  N   UNL     1       4.831  -6.630 -14.079  1.00  0.00    -0.248 NA
ATOM     53  C   UNL     1       6.929  -7.619 -14.375  1.00  0.00     0.031 C 
ATOM     54  C   UNL     1       1.291  -7.482 -16.639  1.00  0.00     0.029 A 
ATOM     55  C   UNL     1       2.400  -7.255 -15.839  1.00  0.00     0.049 A 
ATOM     56  H   UNL     1       2.579  -6.013 -14.142  1.00  0.00     0.167 HD
ATOM     57  C   UNL     1       4.776  -7.503 -15.161  1.00  0.00     0.074 A 
ATOM     58  C   UNL     1       6.105  -8.061 -15.313  1.00  0.00     0.031 C 
ATOM     59  C   UNL     1       3.725  -7.815 -15.961  1.00  0.00     0.034 A 
BRANCH  46  60
ATOM     60  C   UNL     1      -1.559  -4.947 -14.427  1.00  0.00     0.023 A 
ATOM     61  C   UNL     1      -2.098  -3.693 -14.765  1.00  0.00     0.031 A 
ATOM     62  C   UNL     1      -2.447  -6.026 -14.280  1.00  0.00     0.131 A 
ATOM     63  C   UNL     1      -3.487  -3.530 -14.860  1.00  0.00     0.055 A 
ATOM     64  C   UNL     1      -3.824  -5.875 -14.459  1.00  0.00     0.041 A 
ATOM     65  F   UNL     1      -1.994  -7.243 -13.939  1.00  0.00    -0.206 F 
ATOM     66  C   UNL     1      -4.353  -4.618 -14.733  1.00  0.00     0.022 A 
BRANCH  63  67
ATOM     67  S   UNL     1      -4.152  -1.848 -15.000  1.00  0.00     0.124 S 
ATOM     68  O   UNL     1      -3.648  -1.230 -13.775  1.00  0.00    -0.237 OA
ATOM     69  O   UNL     1      -3.558  -1.377 -16.245  1.00  0.00    -0.237 OA
ATOM     70  O   UNL     1      -5.598  -2.053 -15.036  1.00  0.00    -0.744 OA
ENDBRANCH  63  67
ENDBRANCH  46  60
BRANCH  47  71
ATOM     71  C   UNL     1       8.117  -6.187 -12.112  1.00  0.00     0.023 A 
ATOM     72  C   UNL     1       9.166  -5.831 -12.975  1.00  0.00     0.031 A 
ATOM     73  C   UNL     1       8.445  -6.820 -10.900  1.00  0.00     0.131 A 
ATOM     74  C   UNL     1      10.490  -6.149 -12.635  1.00  0.00     0.055 A 
ATOM     75  C   UNL     1       9.767  -7.092 -10.545  1.00  0.00     0.041 A 
ATOM     76  F   UNL     1       7.480  -7.174 -10.037  1.00  0.00    -0.206 F 
ATOM     77  C   UNL     1      10.799  -6.767 -11.421  1.00  0.00     0.022 A 
BRANCH  74  78
ATOM     78  S   UNL     1      11.802  -5.808 -13.840  1.00  0.00     0.124 S 
ATOM     79  O   UNL     1      11.357  -6.584 -14.992  1.00  0.00    -0.237 OA
ATOM     80  O   UNL     1      11.719  -4.357 -13.973  1.00  0.00    -0.237 OA
ATOM     81  O   UNL     1      13.008  -6.303 -13.180  1.00  0.00    -0.744 OA
ENDBRANCH  74  78
ENDBRANCH  47  71
BRANCH  59  82
ATOM     82  C   UNL     1       3.988  -8.782 -17.086  1.00  0.00     0.023 A 
ATOM     83  C   UNL     1       4.251 -10.140 -16.840  1.00  0.00     0.031 A 
ATOM     84  C   UNL     1       3.981  -8.336 -18.419  1.00  0.00     0.131 A 
ATOM     85  C   UNL     1       4.542 -10.998 -17.912  1.00  0.00     0.055 A 
ATOM     86  C   UNL     1       4.220  -9.204 -19.484  1.00  0.00     0.041 A 
ATOM     87  F   UNL     1       3.737  -7.047 -18.706  1.00  0.00    -0.206 F 
ATOM     88  C   UNL     1       4.513 -10.542 -19.232  1.00  0.00     0.022 A 
BRANCH  85  89
ATOM     89  S   UNL     1       5.028 -12.708 -17.552  1.00  0.00     0.124 S 
ATOM     90  O   UNL     1       6.243 -12.518 -16.765  1.00  0.00    -0.237 OA
ATOM     91  O   UNL     1       3.870 -13.216 -16.824  1.00  0.00    -0.237 OA
ATOM     92  O   UNL     1       5.232 -13.293 -18.876  1.00  0.00    -0.744 OA
ENDBRANCH  85  89
ENDBRANCH  59  82
ENDBRANCH  33  34
ENDBRANCH  25  28
ENDBRANCH  23  24
ENDBRANCH  22  23
ENDBRANCH   1  22
TORSDOF 17
