REMARK SMILES CCCCCC(=O)N[C@H](C)C(=O)NCCCCNC(=O)c1ccc(-c2c3nc(c(-c4cc(S(=O)(=O)[O-])ccc4F)c4ccc([nH]4)c(-c4cc(S(=O)(=O)[O-])ccc4F)c4nc(c(-c5cc(S(=O)(=O)[O-])ccc5F)c5ccc2[nH]5)C=C4)C=C3)cc1
REMARK SMILES IDX 14 1 13 2 11 3 12 4 9 6 10 7 8 8 6 9 7 10 5 12 4 13 3 14
REMARK SMILES IDX 2 15 1 16 15 17 16 18 17 19 18 20 19 21 20 23 21 24 22 25
REMARK SMILES IDX 83 26 23 27 82 28 24 29 25 30 26 31 76 32 27 33 81 34 75 35
REMARK SMILES IDX 77 36 28 37 80 38 74 39 73 40 29 42 61 43 41 44 60 45 42 46
REMARK SMILES IDX 45 47 59 48 78 49 43 50 44 51 58 53 79 54 46 55 30 56 31 57
REMARK SMILES IDX 39 58 32 59 38 60 40 61 37 62 33 63 34 64 35 65 36 66 62 67
REMARK SMILES IDX 63 68 71 69 64 70 70 71 72 72 69 73 65 74 66 75 67 76 68 77
REMARK SMILES IDX 47 78 48 79 56 80 49 81 55 82 57 83 54 84 50 85 51 86 52 87
REMARK SMILES IDX 53 88
REMARK H PARENT 13 5 8 11 18 22 77 41 45 52
REMARK Flexibility Score: inf
ROOT
ATOM      1  C   UNL     1      -1.613   2.796  -5.571  1.00  0.00     0.116 C 
ENDROOT
BRANCH   1   2
ATOM      2  N   UNL     1      -2.098   2.492  -4.241  1.00  0.00    -0.354 N 
ATOM      3  C   UNL     1      -1.676   1.552  -3.355  1.00  0.00     0.242 C 
ATOM      4  O   UNL     1      -2.482   1.192  -2.492  1.00  0.00    -0.273 OA
ATOM      5  H   UNL     1      -2.846   3.052  -3.931  1.00  0.00     0.163 HD
BRANCH   3   6
ATOM      6  C   UNL     1      -0.317   0.843  -3.504  1.00  0.00     0.168 C 
ATOM      7  C   UNL     1      -0.543  -0.434  -4.307  1.00  0.00     0.041 C 
BRANCH   6   8
ATOM      8  N   UNL     1       0.734   1.656  -4.115  1.00  0.00    -0.345 N 
ATOM      9  C   UNL     1       1.571   2.577  -3.575  1.00  0.00     0.220 C 
ATOM     10  O   UNL     1       2.325   3.181  -4.341  1.00  0.00    -0.275 OA
ATOM     11  H   UNL     1       0.855   1.510  -5.082  1.00  0.00     0.164 HD
BRANCH   9  12
ATOM     12  C   UNL     1       1.614   2.830  -2.084  1.00  0.00     0.100 C 
BRANCH  12  13
ATOM     13  C   UNL     1       0.796   4.038  -1.624  1.00  0.00     0.010 C 
BRANCH  13  14
ATOM     14  C   UNL     1      -0.601   3.762  -1.059  1.00  0.00     0.000 C 
BRANCH  14  15
ATOM     15  C   UNL     1      -0.663   2.614  -0.047  1.00  0.00    -0.003 C 
ATOM     16  C   UNL     1      -1.572   2.929   1.127  1.00  0.00     0.004 C 
ENDBRANCH  14  15
ENDBRANCH  13  14
ENDBRANCH  12  13
ENDBRANCH   9  12
ENDBRANCH   6   8
ENDBRANCH   3   6
ENDBRANCH   1   2
BRANCH   1  17
ATOM     17  C   UNL     1      -2.791   3.010  -6.518  1.00  0.00     0.023 C 
BRANCH  17  18
ATOM     18  C   UNL     1      -3.597   4.281  -6.241  1.00  0.00     0.023 C 
BRANCH  18  19
ATOM     19  C   UNL     1      -2.785   5.570  -6.327  1.00  0.00     0.116 C 
BRANCH  19  20
ATOM     20  N   UNL     1      -2.172   5.721  -7.638  1.00  0.00    -0.352 N 
ATOM     21  C   UNL     1      -2.448   6.644  -8.616  1.00  0.00     0.251 C 
ATOM     22  H   UNL     1      -1.463   5.073  -7.852  1.00  0.00     0.163 HD
ATOM     23  O   UNL     1      -2.079   6.439  -9.767  1.00  0.00    -0.269 OA
BRANCH  21  24
ATOM     24  C   UNL     1      -3.192   7.871  -8.268  1.00  0.00     0.039 A 
ATOM     25  C   UNL     1      -4.209   8.315  -9.114  1.00  0.00     0.014 A 
ATOM     26  C   UNL     1      -2.873   8.587  -7.109  1.00  0.00     0.014 A 
ATOM     27  C   UNL     1      -4.941   9.452  -8.768  1.00  0.00     0.010 A 
ATOM     28  C   UNL     1      -3.653   9.674  -6.729  1.00  0.00     0.010 A 
ATOM     29  C   UNL     1      -4.691  10.122  -7.559  1.00  0.00    -0.014 A 
BRANCH  29  30
ATOM     30  C   UNL     1      -5.510  11.292  -7.152  1.00  0.00     0.031 A 
ATOM     31  C   UNL     1      -4.879  12.651  -7.018  1.00  0.00     0.074 A 
ATOM     32  C   UNL     1      -6.815  11.116  -6.866  1.00  0.00     0.049 A 
ATOM     33  N   UNL     1      -5.425  13.783  -6.656  1.00  0.00    -0.248 NA
ATOM     34  C   UNL     1      -3.439  12.742  -7.300  1.00  0.00     0.031 C 
ATOM     35  C   UNL     1      -7.523   9.834  -6.916  1.00  0.00     0.029 A 
ATOM     36  N   UNL     1      -7.779  12.010  -6.477  1.00  0.00    -0.354 N 
ATOM     37  C   UNL     1      -4.397  14.720  -6.664  1.00  0.00     0.074 A 
ATOM     38  C   UNL     1      -3.183  14.006  -7.000  1.00  0.00     0.031 C 
ATOM     39  C   UNL     1      -8.814  10.032  -6.606  1.00  0.00     0.029 A 
ATOM     40  C   UNL     1      -9.018  11.442  -6.290  1.00  0.00     0.049 A 
ATOM     41  H   UNL     1      -7.602  12.970  -6.345  1.00  0.00     0.167 HD
ATOM     42  C   UNL     1      -4.465  16.056  -6.438  1.00  0.00     0.034 A 
ATOM     43  C   UNL     1     -10.185  11.993  -5.901  1.00  0.00     0.034 A 
ATOM     44  C   UNL     1      -5.687  16.749  -6.107  1.00  0.00     0.049 A 
ATOM     45  C   UNL     1     -10.229  13.475  -5.627  1.00  0.00     0.074 A 
ATOM     46  C   UNL     1      -5.882  18.105  -5.910  1.00  0.00     0.029 A 
ATOM     47  N   UNL     1      -6.921  16.140  -5.912  1.00  0.00    -0.354 N 
ATOM     48  N   UNL     1      -9.260  14.358  -5.701  1.00  0.00    -0.248 NA
ATOM     49  C   UNL     1     -11.527  14.034  -5.232  1.00  0.00     0.031 C 
ATOM     50  C   UNL     1      -7.212  18.306  -5.523  1.00  0.00     0.029 A 
ATOM     51  C   UNL     1      -7.871  17.087  -5.560  1.00  0.00     0.049 A 
ATOM     52  H   UNL     1      -7.095  15.176  -6.009  1.00  0.00     0.167 HD
ATOM     53  C   UNL     1      -9.841  15.584  -5.386  1.00  0.00     0.074 A 
ATOM     54  C   UNL     1     -11.246  15.326  -5.147  1.00  0.00     0.031 C 
ATOM     55  C   UNL     1      -9.266  16.812  -5.305  1.00  0.00     0.034 A 
BRANCH  42  56
ATOM     56  C   UNL     1      -3.176  16.842  -6.516  1.00  0.00     0.023 A 
ATOM     57  C   UNL     1      -2.433  16.927  -7.707  1.00  0.00     0.031 A 
ATOM     58  C   UNL     1      -2.671  17.499  -5.380  1.00  0.00     0.131 A 
ATOM     59  C   UNL     1      -1.193  17.584  -7.716  1.00  0.00     0.055 A 
ATOM     60  C   UNL     1      -1.478  18.224  -5.418  1.00  0.00     0.041 A 
ATOM     61  F   UNL     1      -3.322  17.438  -4.208  1.00  0.00    -0.206 F 
ATOM     62  C   UNL     1      -0.723  18.257  -6.587  1.00  0.00     0.022 A 
BRANCH  59  63
ATOM     63  S   UNL     1      -0.138  17.423  -9.183  1.00  0.00     0.124 S 
ATOM     64  O   UNL     1       0.026  15.974  -9.270  1.00  0.00    -0.237 OA
ATOM     65  O   UNL     1      -0.951  18.038 -10.226  1.00  0.00    -0.237 OA
ATOM     66  O   UNL     1       1.071  18.159  -8.818  1.00  0.00    -0.744 OA
ENDBRANCH  59  63
ENDBRANCH  42  56
BRANCH  43  67
ATOM     67  C   UNL     1     -11.403  11.148  -5.739  1.00  0.00     0.023 A 
ATOM     68  C   UNL     1     -12.537  11.351  -6.543  1.00  0.00     0.031 A 
ATOM     69  C   UNL     1     -11.468  10.151  -4.750  1.00  0.00     0.131 A 
ATOM     70  C   UNL     1     -13.702  10.603  -6.311  1.00  0.00     0.055 A 
ATOM     71  C   UNL     1     -12.609   9.370  -4.561  1.00  0.00     0.041 A 
ATOM     72  F   UNL     1     -10.411   9.912  -3.957  1.00  0.00    -0.206 F 
ATOM     73  C   UNL     1     -13.741   9.604  -5.336  1.00  0.00     0.022 A 
BRANCH  70  74
ATOM     74  S   UNL     1     -15.200  11.018  -7.246  1.00  0.00     0.124 S 
ATOM     75  O   UNL     1     -15.384  12.424  -6.902  1.00  0.00    -0.237 OA
ATOM     76  O   UNL     1     -14.787  10.741  -8.617  1.00  0.00    -0.237 OA
ATOM     77  O   UNL     1     -16.203  10.105  -6.702  1.00  0.00    -0.744 OA
ENDBRANCH  70  74
ENDBRANCH  43  67
BRANCH  55  78
ATOM     78  C   UNL     1     -10.177  17.971  -4.974  1.00  0.00     0.023 A 
ATOM     79  C   UNL     1     -10.823  18.070  -3.729  1.00  0.00     0.031 A 
ATOM     80  C   UNL     1     -10.419  18.976  -5.926  1.00  0.00     0.131 A 
ATOM     81  C   UNL     1     -11.731  19.114  -3.494  1.00  0.00     0.055 A 
ATOM     82  C   UNL     1     -11.270  20.050  -5.661  1.00  0.00     0.041 A 
ATOM     83  F   UNL     1      -9.832  18.931  -7.133  1.00  0.00    -0.206 F 
ATOM     84  C   UNL     1     -11.944  20.115  -4.446  1.00  0.00     0.022 A 
BRANCH  81  85
ATOM     85  S   UNL     1     -12.713  19.086  -1.970  1.00  0.00     0.124 S 
ATOM     86  O   UNL     1     -13.395  17.800  -2.072  1.00  0.00    -0.237 OA
ATOM     87  O   UNL     1     -11.688  19.184  -0.936  1.00  0.00    -0.237 OA
ATOM     88  O   UNL     1     -13.578  20.258  -2.097  1.00  0.00    -0.744 OA
ENDBRANCH  81  85
ENDBRANCH  55  78
ENDBRANCH  29  30
ENDBRANCH  21  24
ENDBRANCH  19  20
ENDBRANCH  18  19
ENDBRANCH  17  18
ENDBRANCH   1  17
TORSDOF 19
