REMARK SMILES O=C(C[C@@H](C(=O)NCCCCNC(=O)c1ccc(-c2c3nc(c(-c4cc(S(=O)(=O)[O-])ccc4F)c4ccc([nH]4)c(-c4cc(S(=O)(=O)[O-])ccc4F)c4nc(c(-c5cc(S(=O)(=O)[O-])ccc5F)c5ccc2[nH]5)C=C4)C=C3)cc1)c1ccccc1)Nc1cc(C(F)(F)F)ccc1-n1cncn1
REMARK SMILES IDX 9 1 8 2 7 3 5 4 6 5 4 7 3 8 2 9 1 10 84 11 85 13 86 14 94 15
REMARK SMILES IDX 87 16 93 17 92 18 95 19 96 20 99 21 97 22 98 23 88 24 89 25
REMARK SMILES IDX 90 26 91 27 78 28 79 29 83 30 80 31 82 32 81 33 10 34 11 35
REMARK SMILES IDX 12 36 13 37 14 39 15 40 16 41 77 42 17 43 76 44 18 45 19 46
REMARK SMILES IDX 20 47 70 48 21 49 75 50 69 51 71 52 22 53 74 54 68 55 67 56
REMARK SMILES IDX 23 58 55 59 35 60 54 61 36 62 39 63 53 64 72 65 37 66 38 67
REMARK SMILES IDX 52 69 73 70 40 71 24 72 25 73 33 74 26 75 32 76 34 77 31 78
REMARK SMILES IDX 27 79 28 80 29 81 30 82 56 83 57 84 65 85 58 86 64 87 66 88
REMARK SMILES IDX 63 89 59 90 60 91 61 92 62 93 41 94 42 95 50 96 43 97 49 98
REMARK SMILES IDX 51 99 48 100 44 101 45 102 46 103 47 104
REMARK H PARENT 7 6 84 12 12 38 71 57 39 68
REMARK Flexibility Score: inf
ROOT
ATOM      1  C   UNL     1       3.752   2.754  -0.284  1.00  0.00     0.023 C 
ENDROOT
BRANCH   1   2
ATOM      2  C   UNL     1       4.112   2.284  -1.693  1.00  0.00     0.116 C 
BRANCH   2   3
ATOM      3  N   UNL     1       5.194   1.323  -1.579  1.00  0.00    -0.356 N 
ATOM      4  C   UNL     1       5.038   0.065  -1.060  1.00  0.00     0.228 C 
ATOM      5  O   UNL     1       5.873  -0.337  -0.247  1.00  0.00    -0.274 OA
ATOM      6  H   UNL     1       6.088   1.591  -1.891  1.00  0.00     0.163 HD
BRANCH   4   7
ATOM      7  C   UNL     1       3.876  -0.820  -1.550  1.00  0.00     0.118 C 
BRANCH   7   8
ATOM      8  C   UNL     1       3.074  -1.255  -0.306  1.00  0.00     0.118 C 
BRANCH   8   9
ATOM      9  C   UNL     1       2.213  -0.164   0.303  1.00  0.00     0.225 C 
ATOM     10  O   UNL     1       1.204   0.241  -0.266  1.00  0.00    -0.275 OA
ATOM     11  N   UNL     1       2.661   0.296   1.535  1.00  0.00    -0.324 N 
ATOM     12  H   UNL     1       3.550   0.004   1.843  1.00  0.00     0.170 HD
BRANCH  11  13
ATOM     13  C   UNL     1       1.913   1.162   2.379  1.00  0.00     0.067 A 
ATOM     14  C   UNL     1       2.611   2.244   2.932  1.00  0.00     0.041 A 
ATOM     15  C   UNL     1       0.539   1.041   2.658  1.00  0.00     0.090 A 
ATOM     16  C   UNL     1       1.952   3.259   3.648  1.00  0.00     0.058 A 
ATOM     17  C   UNL     1      -0.139   2.076   3.331  1.00  0.00     0.031 A 
ATOM     18  C   UNL     1       0.566   3.179   3.819  1.00  0.00     0.015 A 
BRANCH  15  19
ATOM     19  N   UNL     1      -0.155  -0.180   2.469  1.00  0.00    -0.219 N 
ATOM     20  C   UNL     1       0.366  -1.454   2.523  1.00  0.00     0.226 A 
ATOM     21  N   UNL     1      -1.509  -0.268   2.416  1.00  0.00    -0.155 NA
ATOM     22  N   UNL     1      -0.575  -2.353   2.355  1.00  0.00    -0.223 NA
ATOM     23  C   UNL     1      -1.694  -1.581   2.269  1.00  0.00     0.246 A 
ENDBRANCH  15  19
BRANCH  16  24
ATOM     24  C   UNL     1       2.757   4.408   4.207  1.00  0.00     0.416 C 
ATOM     25  F   UNL     1       3.730   3.973   5.056  1.00  0.00    -0.166 F 
ATOM     26  F   UNL     1       3.408   5.100   3.235  1.00  0.00    -0.166 F 
ATOM     27  F   UNL     1       2.023   5.312   4.907  1.00  0.00    -0.166 F 
ENDBRANCH  16  24
ENDBRANCH  11  13
ENDBRANCH   8   9
ENDBRANCH   7   8
BRANCH   7  28
ATOM     28  C   UNL     1       4.481  -1.994  -2.351  1.00  0.00    -0.035 A 
ATOM     29  C   UNL     1       4.040  -3.321  -2.225  1.00  0.00     0.004 A 
ATOM     30  C   UNL     1       5.548  -1.751  -3.242  1.00  0.00     0.004 A 
ATOM     31  C   UNL     1       4.693  -4.366  -2.888  1.00  0.00     0.000 A 
ATOM     32  C   UNL     1       6.209  -2.797  -3.892  1.00  0.00     0.000 A 
ATOM     33  C   UNL     1       5.790  -4.108  -3.703  1.00  0.00     0.000 A 
ENDBRANCH   7  28
ENDBRANCH   4   7
ENDBRANCH   2   3
ENDBRANCH   1   2
BRANCH   1  34
ATOM     34  C   UNL     1       4.326   4.108   0.091  1.00  0.00     0.023 C 
BRANCH  34  35
ATOM     35  C   UNL     1       3.537   5.258  -0.509  1.00  0.00     0.116 C 
BRANCH  35  36
ATOM     36  N   UNL     1       2.161   5.339  -0.023  1.00  0.00    -0.352 N 
ATOM     37  C   UNL     1       1.513   6.158   0.880  1.00  0.00     0.251 C 
ATOM     38  H   UNL     1       1.569   4.663  -0.425  1.00  0.00     0.163 HD
ATOM     39  O   UNL     1       0.349   5.907   1.162  1.00  0.00    -0.269 OA
BRANCH  37  40
ATOM     40  C   UNL     1       2.210   7.272   1.570  1.00  0.00     0.039 A 
ATOM     41  C   UNL     1       1.812   7.634   2.865  1.00  0.00     0.014 A 
ATOM     42  C   UNL     1       3.269   7.946   0.984  1.00  0.00     0.014 A 
ATOM     43  C   UNL     1       2.558   8.566   3.601  1.00  0.00     0.010 A 
ATOM     44  C   UNL     1       4.099   8.740   1.757  1.00  0.00     0.010 A 
ATOM     45  C   UNL     1       3.740   9.089   3.068  1.00  0.00    -0.014 A 
BRANCH  45  46
ATOM     46  C   UNL     1       4.576  10.115   3.748  1.00  0.00     0.031 A 
ATOM     47  C   UNL     1       4.827  11.409   3.013  1.00  0.00     0.074 A 
ATOM     48  C   UNL     1       5.203   9.862   4.912  1.00  0.00     0.049 A 
ATOM     49  N   UNL     1       5.766  12.300   3.188  1.00  0.00    -0.248 NA
ATOM     50  C   UNL     1       3.945  11.681   1.864  1.00  0.00     0.031 C 
ATOM     51  C   UNL     1       5.062   8.648   5.717  1.00  0.00     0.029 A 
ATOM     52  N   UNL     1       6.118  10.615   5.608  1.00  0.00    -0.354 N 
ATOM     53  C   UNL     1       5.623  13.199   2.135  1.00  0.00     0.074 A 
ATOM     54  C   UNL     1       4.571  12.691   1.284  1.00  0.00     0.031 C 
ATOM     55  C   UNL     1       5.856   8.743   6.799  1.00  0.00     0.029 A 
ATOM     56  C   UNL     1       6.603   9.996   6.737  1.00  0.00     0.049 A 
ATOM     57  H   UNL     1       6.400  11.514   5.324  1.00  0.00     0.167 HD
ATOM     58  C   UNL     1       6.281  14.364   1.918  1.00  0.00     0.034 A 
ATOM     59  C   UNL     1       7.560  10.391   7.603  1.00  0.00     0.034 A 
ATOM     60  C   UNL     1       7.269  14.892   2.820  1.00  0.00     0.049 A 
ATOM     61  C   UNL     1       8.260  11.711   7.359  1.00  0.00     0.074 A 
ATOM     62  C   UNL     1       7.975  16.078   2.733  1.00  0.00     0.029 A 
ATOM     63  N   UNL     1       7.667  14.276   4.000  1.00  0.00    -0.354 N 
ATOM     64  N   UNL     1       8.121  12.552   6.359  1.00  0.00    -0.248 NA
ATOM     65  C   UNL     1       9.237  12.142   8.369  1.00  0.00     0.031 C 
ATOM     66  C   UNL     1       8.823  16.164   3.841  1.00  0.00     0.029 A 
ATOM     67  C   UNL     1       8.600  15.062   4.653  1.00  0.00     0.049 A 
ATOM     68  H   UNL     1       7.334  13.408   4.324  1.00  0.00     0.167 HD
ATOM     69  C   UNL     1       8.954  13.630   6.650  1.00  0.00     0.074 A 
ATOM     70  C   UNL     1       9.582  13.339   7.920  1.00  0.00     0.031 C 
ATOM     71  C   UNL     1       9.183  14.762   5.937  1.00  0.00     0.034 A 
BRANCH  58  72
ATOM     72  C   UNL     1       5.934  15.133   0.667  1.00  0.00     0.023 A 
ATOM     73  C   UNL     1       4.633  15.618   0.444  1.00  0.00     0.031 A 
ATOM     74  C   UNL     1       6.895  15.346  -0.336  1.00  0.00     0.131 A 
ATOM     75  C   UNL     1       4.304  16.202  -0.787  1.00  0.00     0.055 A 
ATOM     76  C   UNL     1       6.585  16.017  -1.521  1.00  0.00     0.041 A 
ATOM     77  F   UNL     1       8.149  14.888  -0.191  1.00  0.00    -0.206 F 
ATOM     78  C   UNL     1       5.278  16.434  -1.760  1.00  0.00     0.022 A 
BRANCH  75  79
ATOM     79  S   UNL     1       2.556  16.511  -1.153  1.00  0.00     0.124 S 
ATOM     80  O   UNL     1       2.014  15.154  -1.145  1.00  0.00    -0.237 OA
ATOM     81  O   UNL     1       2.146  17.368  -0.046  1.00  0.00    -0.237 OA
ATOM     82  O   UNL     1       2.589  17.155  -2.464  1.00  0.00    -0.744 OA
ENDBRANCH  75  79
ENDBRANCH  58  72
BRANCH  59  83
ATOM     83  C   UNL     1       7.937   9.547   8.777  1.00  0.00     0.023 A 
ATOM     84  C   UNL     1       7.767  10.026  10.087  1.00  0.00     0.031 A 
ATOM     85  C   UNL     1       8.559   8.298   8.612  1.00  0.00     0.131 A 
ATOM     86  C   UNL     1       8.286   9.303  11.172  1.00  0.00     0.055 A 
ATOM     87  C   UNL     1       9.013   7.549   9.701  1.00  0.00     0.041 A 
ATOM     88  F   UNL     1       8.744   7.787   7.384  1.00  0.00    -0.206 F 
ATOM     89  C   UNL     1       8.897   8.062  10.990  1.00  0.00     0.022 A 
BRANCH  86  90
ATOM     90  S   UNL     1       8.272  10.079  12.813  1.00  0.00     0.124 S 
ATOM     91  O   UNL     1       8.967  11.334  12.552  1.00  0.00    -0.237 OA
ATOM     92  O   UNL     1       6.843  10.181  13.087  1.00  0.00    -0.237 OA
ATOM     93  O   UNL     1       8.999   9.124  13.646  1.00  0.00    -0.744 OA
ENDBRANCH  86  90
ENDBRANCH  59  83
BRANCH  71  94
ATOM     94  C   UNL     1      10.075  15.806   6.561  1.00  0.00     0.023 A 
ATOM     95  C   UNL     1      11.449  15.592   6.758  1.00  0.00     0.031 A 
ATOM     96  C   UNL     1       9.532  17.042   6.956  1.00  0.00     0.131 A 
ATOM     97  C   UNL     1      12.225  16.580   7.383  1.00  0.00     0.055 A 
ATOM     98  C   UNL     1      10.320  18.044   7.522  1.00  0.00     0.041 A 
ATOM     99  F   UNL     1       8.224  17.299   6.787  1.00  0.00    -0.206 F 
ATOM    100  C   UNL     1      11.672  17.810   7.751  1.00  0.00     0.022 A 
BRANCH  97 101
ATOM    101  S   UNL     1      13.952  16.204   7.787  1.00  0.00     0.124 S 
ATOM    102  O   UNL     1      13.817  15.021   8.631  1.00  0.00    -0.237 OA
ATOM    103  O   UNL     1      14.539  15.982   6.469  1.00  0.00    -0.237 OA
ATOM    104  O   UNL     1      14.414  17.408   8.475  1.00  0.00    -0.744 OA
ENDBRANCH  97 101
ENDBRANCH  71  94
ENDBRANCH  45  46
ENDBRANCH  37  40
ENDBRANCH  35  36
ENDBRANCH  34  35
ENDBRANCH   1  34
TORSDOF 20
