REMARK SMILES COc1ccc(-c2cc(=O)oc3cc(OCC(=O)N[C@@H](C)C(=O)NCCCCNC(=O)c4ccc(-c5c6nc(c(-c7cc(S(=O)(=O)[O-])ccc7F)c7ccc([nH]7)c(-c7cc(S(=O)(=O)[O-])ccc7F)c7nc(c(-c8cc(S(=O)(=O)[O-])ccc8F)c8ccc5[nH]8)C=C7)C=C6)cc4)ccc23)cc1
REMARK SMILES IDX 25 1 24 2 22 3 23 4 20 6 21 7 19 8 17 9 18 10 16 12 15 13
REMARK SMILES IDX 14 14 7 15 8 16 97 17 9 18 12 19 96 20 10 21 11 22 13 23
REMARK SMILES IDX 95 24 6 25 3 26 4 27 99 28 5 29 98 30 2 31 1 32 26 33 27 34
REMARK SMILES IDX 28 35 29 36 30 37 31 39 32 40 33 41 94 42 34 43 93 44 35 45
REMARK SMILES IDX 36 46 37 47 87 48 38 49 92 50 86 51 88 52 39 53 91 54 85 55
REMARK SMILES IDX 84 56 40 58 72 59 52 60 71 61 53 62 56 63 70 64 89 65 54 66
REMARK SMILES IDX 55 67 69 69 90 70 57 71 41 72 42 73 50 74 43 75 49 76 51 77
REMARK SMILES IDX 48 78 44 79 45 80 46 81 47 82 73 83 74 84 82 85 75 86 81 87
REMARK SMILES IDX 83 88 80 89 76 90 77 91 78 92 79 93 58 94 59 95 67 96 60 97
REMARK SMILES IDX 66 98 68 99 65 100 61 101 62 102 63 103 64 104
REMARK H PARENT 24 5 19 11 29 38 88 57 56 68
REMARK Flexibility Score: inf
ROOT
ATOM      1  C   UNL     1      10.527   4.000  -1.468  1.00  0.00     0.116 C 
ENDROOT
BRANCH   1   2
ATOM      2  N   UNL     1       9.591   4.064  -2.581  1.00  0.00    -0.354 N 
ATOM      3  C   UNL     1       8.299   3.624  -2.679  1.00  0.00     0.242 C 
ATOM      4  O   UNL     1       7.647   3.930  -3.680  1.00  0.00    -0.273 OA
ATOM      5  H   UNL     1       9.944   4.493  -3.394  1.00  0.00     0.163 HD
BRANCH   3   6
ATOM      6  C   UNL     1       7.648   2.856  -1.520  1.00  0.00     0.168 C 
ATOM      7  C   UNL     1       7.410   3.813  -0.348  1.00  0.00     0.041 C 
BRANCH   6   8
ATOM      8  N   UNL     1       8.479   1.688  -1.199  1.00  0.00    -0.342 N 
ATOM      9  C   UNL     1       8.103   0.442  -0.791  1.00  0.00     0.258 C 
ATOM     10  O   UNL     1       8.958  -0.440  -0.699  1.00  0.00    -0.271 OA
ATOM     11  H   UNL     1       9.450   1.825  -1.292  1.00  0.00     0.164 HD
BRANCH   9  12
ATOM     12  C   UNL     1       6.648   0.172  -0.471  1.00  0.00     0.329 C 
BRANCH  12  13
ATOM     13  O   UNL     1       6.307   1.136   0.510  1.00  0.00    -0.484 OA
BRANCH  13  14
ATOM     14  C   UNL     1       5.973   0.708   1.757  1.00  0.00     0.123 A 
ATOM     15  C   UNL     1       3.377   1.258   4.709  1.00  0.00    -0.000 A 
ATOM     16  C   UNL     1       3.580   2.162   5.678  1.00  0.00     0.103 A 
ATOM     17  C   UNL     1       4.577   0.633   4.104  1.00  0.00     0.026 A 
ATOM     18  C   UNL     1       4.958   2.571   6.027  1.00  0.00     0.336 A 
ATOM     19  C   UNL     1       5.648   1.504   3.990  1.00  0.00     0.142 A 
ATOM     20  C   UNL     1       4.415  -0.415   3.189  1.00  0.00     0.016 A 
ATOM     21  O   UNL     1       5.205   3.137   7.086  1.00  0.00    -0.246 OA
ATOM     22  O   UNL     1       5.897   2.443   5.002  1.00  0.00    -0.423 OA
ATOM     23  C   UNL     1       6.336   1.575   2.794  1.00  0.00     0.094 A 
ATOM     24  C   UNL     1       5.104  -0.359   1.984  1.00  0.00     0.047 A 
BRANCH  15  25
ATOM     25  C   UNL     1       2.139   1.374   3.896  1.00  0.00    -0.017 A 
ATOM     26  C   UNL     1       0.195   1.151   1.919  1.00  0.00     0.118 A 
ATOM     27  C   UNL     1      -0.033   0.617   3.191  1.00  0.00     0.047 A 
ATOM     28  C   UNL     1       1.326   1.910   1.660  1.00  0.00     0.047 A 
ATOM     29  C   UNL     1       0.949   0.714   4.185  1.00  0.00     0.012 A 
ATOM     30  C   UNL     1       2.290   2.026   2.650  1.00  0.00     0.012 A 
BRANCH  26  31
ATOM     31  O   UNL     1      -0.715   0.909   0.925  1.00  0.00    -0.497 OA
ATOM     32  C   UNL     1      -0.157   0.004  -0.036  1.00  0.00     0.278 C 
ENDBRANCH  26  31
ENDBRANCH  15  25
ENDBRANCH  13  14
ENDBRANCH  12  13
ENDBRANCH   9  12
ENDBRANCH   6   8
ENDBRANCH   3   6
ENDBRANCH   1   2
BRANCH   1  33
ATOM     33  C   UNL     1      11.732   3.119  -1.784  1.00  0.00     0.023 C 
BRANCH  33  34
ATOM     34  C   UNL     1      12.611   3.638  -2.920  1.00  0.00     0.023 C 
BRANCH  34  35
ATOM     35  C   UNL     1      13.096   5.071  -2.748  1.00  0.00     0.116 C 
BRANCH  35  36
ATOM     36  N   UNL     1      13.862   5.269  -1.526  1.00  0.00    -0.352 N 
ATOM     37  C   UNL     1      15.020   5.995  -1.366  1.00  0.00     0.251 C 
ATOM     38  H   UNL     1      13.509   4.831  -0.718  1.00  0.00     0.163 HD
ATOM     39  O   UNL     1      15.625   5.980  -0.300  1.00  0.00    -0.269 OA
BRANCH  37  40
ATOM     40  C   UNL     1      15.532   6.755  -2.522  1.00  0.00     0.039 A 
ATOM     41  C   UNL     1      16.821   6.495  -2.989  1.00  0.00     0.014 A 
ATOM     42  C   UNL     1      14.689   7.641  -3.198  1.00  0.00     0.014 A 
ATOM     43  C   UNL     1      17.242   7.066  -4.191  1.00  0.00     0.010 A 
ATOM     44  C   UNL     1      15.087   8.155  -4.426  1.00  0.00     0.010 A 
ATOM     45  C   UNL     1      16.362   7.864  -4.940  1.00  0.00    -0.014 A 
BRANCH  45  46
ATOM     46  C   UNL     1      16.736   8.412  -6.269  1.00  0.00     0.031 A 
ATOM     47  C   UNL     1      16.812   9.900  -6.457  1.00  0.00     0.074 A 
ATOM     48  C   UNL     1      16.895   7.582  -7.319  1.00  0.00     0.049 A 
ATOM     49  N   UNL     1      16.935  10.592  -7.559  1.00  0.00    -0.248 NA
ATOM     50  C   UNL     1      16.694  10.717  -5.239  1.00  0.00     0.031 C 
ATOM     51  C   UNL     1      16.820   6.121  -7.265  1.00  0.00     0.029 A 
ATOM     52  N   UNL     1      17.131   7.852  -8.644  1.00  0.00    -0.354 N 
ATOM     53  C   UNL     1      16.877  11.927  -7.173  1.00  0.00     0.074 A 
ATOM     54  C   UNL     1      16.662  11.942  -5.742  1.00  0.00     0.031 C 
ATOM     55  C   UNL     1      17.016   5.624  -8.497  1.00  0.00     0.029 A 
ATOM     56  C   UNL     1      17.177   6.729  -9.437  1.00  0.00     0.049 A 
ATOM     57  H   UNL     1      17.255   8.764  -8.994  1.00  0.00     0.167 HD
ATOM     58  C   UNL     1      17.006  13.036  -7.943  1.00  0.00     0.034 A 
ATOM     59  C   UNL     1      17.310   6.606 -10.773  1.00  0.00     0.034 A 
ATOM     60  C   UNL     1      17.250  13.000  -9.363  1.00  0.00     0.049 A 
ATOM     61  C   UNL     1      17.433   7.853 -11.612  1.00  0.00     0.074 A 
ATOM     62  C   UNL     1      17.465  14.058 -10.229  1.00  0.00     0.029 A 
ATOM     63  N   UNL     1      17.308  11.842 -10.129  1.00  0.00    -0.354 N 
ATOM     64  N   UNL     1      17.407   9.109 -11.230  1.00  0.00    -0.248 NA
ATOM     65  C   UNL     1      17.603   7.667 -13.059  1.00  0.00     0.031 C 
ATOM     66  C   UNL     1      17.596  13.545 -11.524  1.00  0.00     0.029 A 
ATOM     67  C   UNL     1      17.529  12.162 -11.459  1.00  0.00     0.049 A 
ATOM     68  H   UNL     1      17.207  10.928  -9.778  1.00  0.00     0.167 HD
ATOM     69  C   UNL     1      17.595   9.860 -12.387  1.00  0.00     0.074 A 
ATOM     70  C   UNL     1      17.730   8.917 -13.479  1.00  0.00     0.031 C 
ATOM     71  C   UNL     1      17.662  11.207 -12.533  1.00  0.00     0.034 A 
BRANCH  58  72
ATOM     72  C   UNL     1      16.853  14.373  -7.261  1.00  0.00     0.023 A 
ATOM     73  C   UNL     1      17.743  14.799  -6.260  1.00  0.00     0.031 A 
ATOM     74  C   UNL     1      15.777  15.218  -7.588  1.00  0.00     0.131 A 
ATOM     75  C   UNL     1      17.496  15.991  -5.565  1.00  0.00     0.055 A 
ATOM     76  C   UNL     1      15.585  16.444  -6.950  1.00  0.00     0.041 A 
ATOM     77  F   UNL     1      14.883  14.855  -8.522  1.00  0.00    -0.206 F 
ATOM     78  C   UNL     1      16.437  16.830  -5.920  1.00  0.00     0.022 A 
BRANCH  75  79
ATOM     79  S   UNL     1      18.490  16.354  -4.092  1.00  0.00     0.124 S 
ATOM     80  O   UNL     1      18.203  15.194  -3.251  1.00  0.00    -0.237 OA
ATOM     81  O   UNL     1      19.841  16.432  -4.635  1.00  0.00    -0.237 OA
ATOM     82  O   UNL     1      17.937  17.617  -3.608  1.00  0.00    -0.744 OA
ENDBRANCH  75  79
ENDBRANCH  58  72
BRANCH  59  83
ATOM     83  C   UNL     1      17.318   5.260 -11.411  1.00  0.00     0.023 A 
ATOM     84  C   UNL     1      18.471   4.771 -12.044  1.00  0.00     0.031 A 
ATOM     85  C   UNL     1      16.163   4.458 -11.432  1.00  0.00     0.131 A 
ATOM     86  C   UNL     1      18.435   3.535 -12.707  1.00  0.00     0.055 A 
ATOM     87  C   UNL     1      16.145   3.208 -12.053  1.00  0.00     0.041 A 
ATOM     88  F   UNL     1      15.035   4.876 -10.835  1.00  0.00    -0.206 F 
ATOM     89  C   UNL     1      17.283   2.745 -12.707  1.00  0.00     0.022 A 
BRANCH  86  90
ATOM     90  S   UNL     1      19.900   3.006 -13.637  1.00  0.00     0.124 S 
ATOM     91  O   UNL     1      20.058   4.099 -14.589  1.00  0.00    -0.237 OA
ATOM     92  O   UNL     1      20.909   2.918 -12.586  1.00  0.00    -0.237 OA
ATOM     93  O   UNL     1      19.492   1.727 -14.214  1.00  0.00    -0.744 OA
ENDBRANCH  86  90
ENDBRANCH  59  83
BRANCH  71  94
ATOM     94  C   UNL     1      17.957  11.735 -13.912  1.00  0.00     0.023 A 
ATOM     95  C   UNL     1      17.008  11.679 -14.947  1.00  0.00     0.031 A 
ATOM     96  C   UNL     1      19.207  12.318 -14.185  1.00  0.00     0.131 A 
ATOM     97  C   UNL     1      17.339  12.166 -16.220  1.00  0.00     0.055 A 
ATOM     98  C   UNL     1      19.514  12.844 -15.440  1.00  0.00     0.041 A 
ATOM     99  F   UNL     1      20.147  12.395 -13.229  1.00  0.00    -0.206 F 
ATOM    100  C   UNL     1      18.579  12.762 -16.468  1.00  0.00     0.022 A 
BRANCH  97 101
ATOM    101  S   UNL     1      16.143  11.969 -17.570  1.00  0.00     0.124 S 
ATOM    102  O   UNL     1      16.038  10.517 -17.672  1.00  0.00    -0.237 OA
ATOM    103  O   UNL     1      14.966  12.658 -17.050  1.00  0.00    -0.237 OA
ATOM    104  O   UNL     1      16.793  12.626 -18.703  1.00  0.00    -0.744 OA
ENDBRANCH  97 101
ENDBRANCH  71  94
ENDBRANCH  45  46
ENDBRANCH  37  40
ENDBRANCH  35  36
ENDBRANCH  34  35
ENDBRANCH  33  34
ENDBRANCH   1  33
TORSDOF 20
