REMARK SMILES Cc1c(NC(=O)c2cccc(-c3cc4ccccc4oc3=O)c2)cccc1C(=O)NCCCCNC(=O)c1ccc(-c2c3nc(c(-c4cc(S(=O)(=O)[O-])ccc4F)c4ccc([nH]4)c(-c4cc(S(=O)(=O)[O-])ccc4F)c4nc(c(-c5cc(S(=O)(=O)[O-])ccc5F)c5ccc2[nH]5)C=C4)C=C3)cc1
REMARK SMILES IDX 32 1 31 2 30 3 28 4 29 5 27 7 1 8 2 9 3 10 24 11 26 12 25 13
REMARK SMILES IDX 4 14 5 15 6 17 7 18 8 19 23 20 9 21 11 22 10 23 12 24 13 25
REMARK SMILES IDX 21 26 14 27 20 28 22 29 15 30 19 31 16 32 18 33 17 34 33 35
REMARK SMILES IDX 34 36 35 37 36 38 37 40 38 41 39 42 100 43 40 44 99 45 41 46
REMARK SMILES IDX 42 47 43 48 93 49 44 50 98 51 92 52 94 53 45 54 97 55 91 56
REMARK SMILES IDX 90 57 46 59 78 60 58 61 77 62 59 63 62 64 76 65 95 66 60 67
REMARK SMILES IDX 61 68 75 70 96 71 63 72 47 73 48 74 56 75 49 76 55 77 57 78
REMARK SMILES IDX 54 79 50 80 51 81 52 82 53 83 79 84 80 85 88 86 81 87 87 88
REMARK SMILES IDX 89 89 86 90 82 91 83 92 84 93 85 94 64 95 65 96 73 97 66 98
REMARK SMILES IDX 72 99 74 100 71 101 67 102 68 103 69 104 70 105
REMARK H PARENT 30 6 4 16 35 39 94 58 62 69
REMARK Flexibility Score: inf
ROOT
ATOM      1  C   UNL     1       4.216   1.233  -0.954  1.00  0.00     0.023 C 
ENDROOT
BRANCH   1   2
ATOM      2  C   UNL     1       3.672   1.752   0.392  1.00  0.00     0.116 C 
BRANCH   2   3
ATOM      3  N   UNL     1       2.389   2.416   0.233  1.00  0.00    -0.352 N 
ATOM      4  C   UNL     1       1.059   2.114   0.330  1.00  0.00     0.251 C 
ATOM      5  O   UNL     1       0.343   3.094   0.060  1.00  0.00    -0.269 OA
ATOM      6  H   UNL     1       2.514   3.360  -0.017  1.00  0.00     0.163 HD
BRANCH   4   7
ATOM      7  C   UNL     1       0.342   0.819   0.673  1.00  0.00     0.044 A 
ATOM      8  C   UNL     1       2.168  -0.961   0.343  1.00  0.00     0.047 C 
ATOM      9  C   UNL     1       0.768  -0.534   0.659  1.00  0.00    -0.015 A 
ATOM     10  C   UNL     1      -0.185  -1.578   0.880  1.00  0.00     0.045 A 
ATOM     11  C   UNL     1      -1.531  -1.294   1.113  1.00  0.00     0.026 A 
ATOM     12  C   UNL     1      -1.039   1.045   0.934  1.00  0.00     0.014 A 
ATOM     13  C   UNL     1      -1.960   0.019   1.141  1.00  0.00     0.003 A 
BRANCH  10  14
ATOM     14  N   UNL     1       0.250  -2.919   0.896  1.00  0.00    -0.322 N 
ATOM     15  C   UNL     1      -0.365  -4.086   0.509  1.00  0.00     0.255 C 
ATOM     16  H   UNL     1       1.161  -3.042   1.249  1.00  0.00     0.170 HD
ATOM     17  O   UNL     1       0.066  -5.160   0.932  1.00  0.00    -0.269 OA
BRANCH  15  18
ATOM     18  C   UNL     1      -1.462  -4.124  -0.503  1.00  0.00     0.040 A 
ATOM     19  C   UNL     1      -2.258  -5.276  -0.548  1.00  0.00     0.014 A 
ATOM     20  C   UNL     1      -1.636  -3.142  -1.488  1.00  0.00     0.022 A 
ATOM     21  C   UNL     1      -3.235  -5.426  -1.531  1.00  0.00     0.001 A 
ATOM     22  C   UNL     1      -2.630  -3.270  -2.476  1.00  0.00    -0.010 A 
ATOM     23  C   UNL     1      -3.425  -4.425  -2.483  1.00  0.00     0.009 A 
BRANCH  22  24
ATOM     24  C   UNL     1      -2.809  -2.304  -3.591  1.00  0.00     0.068 A 
ATOM     25  C   UNL     1      -2.660  -0.968  -3.446  1.00  0.00     0.028 A 
ATOM     26  C   UNL     1      -2.235  -2.756  -4.899  1.00  0.00     0.344 A 
ATOM     27  C   UNL     1      -1.244  -0.549  -3.549  1.00  0.00     0.018 A 
ATOM     28  O   UNL     1      -0.888  -2.429  -5.058  1.00  0.00    -0.422 OA
ATOM     29  O   UNL     1      -2.874  -3.417  -5.708  1.00  0.00    -0.246 OA
ATOM     30  C   UNL     1      -0.751   0.579  -2.903  1.00  0.00     0.012 A 
ATOM     31  C   UNL     1      -0.374  -1.363  -4.288  1.00  0.00     0.138 A 
ATOM     32  C   UNL     1       0.618   0.847  -2.959  1.00  0.00     0.001 A 
ATOM     33  C   UNL     1       0.993  -1.130  -4.310  1.00  0.00     0.048 A 
ATOM     34  C   UNL     1       1.488  -0.020  -3.630  1.00  0.00     0.004 A 
ENDBRANCH  22  24
ENDBRANCH  15  18
ENDBRANCH  10  14
ENDBRANCH   4   7
ENDBRANCH   2   3
ENDBRANCH   1   2
BRANCH   1  35
ATOM     35  C   UNL     1       4.995   2.241  -1.797  1.00  0.00     0.023 C 
BRANCH  35  36
ATOM     36  C   UNL     1       6.376   2.529  -1.236  1.00  0.00     0.116 C 
BRANCH  36  37
ATOM     37  N   UNL     1       7.476   1.764  -1.814  1.00  0.00    -0.352 N 
ATOM     38  C   UNL     1       8.801   1.745  -1.405  1.00  0.00     0.251 C 
ATOM     39  H   UNL     1       7.251   1.195  -2.585  1.00  0.00     0.163 HD
ATOM     40  O   UNL     1       9.675   1.181  -2.061  1.00  0.00    -0.269 OA
BRANCH  38  41
ATOM     41  C   UNL     1       9.135   2.324  -0.077  1.00  0.00     0.039 A 
ATOM     42  C   UNL     1       9.688   1.460   0.872  1.00  0.00     0.014 A 
ATOM     43  C   UNL     1       8.598   3.548   0.301  1.00  0.00     0.014 A 
ATOM     44  C   UNL     1       9.450   1.703   2.222  1.00  0.00     0.010 A 
ATOM     45  C   UNL     1       8.247   3.716   1.625  1.00  0.00     0.010 A 
ATOM     46  C   UNL     1       8.609   2.757   2.579  1.00  0.00    -0.014 A 
BRANCH  46  47
ATOM     47  C   UNL     1       7.921   2.819   3.868  1.00  0.00     0.031 A 
ATOM     48  C   UNL     1       8.183   3.919   4.819  1.00  0.00     0.074 A 
ATOM     49  C   UNL     1       6.978   1.899   4.172  1.00  0.00     0.049 A 
ATOM     50  N   UNL     1       7.972   3.853   6.091  1.00  0.00    -0.248 NA
ATOM     51  C   UNL     1       8.768   5.187   4.406  1.00  0.00     0.031 C 
ATOM     52  C   UNL     1       6.008   1.948   5.263  1.00  0.00     0.029 A 
ATOM     53  N   UNL     1       6.877   0.599   3.683  1.00  0.00    -0.354 N 
ATOM     54  C   UNL     1       8.081   5.127   6.603  1.00  0.00     0.074 A 
ATOM     55  C   UNL     1       8.668   5.896   5.533  1.00  0.00     0.031 C 
ATOM     56  C   UNL     1       5.599   0.700   5.539  1.00  0.00     0.029 A 
ATOM     57  C   UNL     1       6.386  -0.206   4.724  1.00  0.00     0.049 A 
ATOM     58  H   UNL     1       7.108   0.300   2.775  1.00  0.00     0.167 HD
ATOM     59  C   UNL     1       7.521   5.409   7.816  1.00  0.00     0.034 A 
ATOM     60  C   UNL     1       7.110  -1.264   5.194  1.00  0.00     0.034 A 
ATOM     61  C   UNL     1       7.017   4.194   8.469  1.00  0.00     0.049 A 
ATOM     62  C   UNL     1       7.505  -1.129   6.648  1.00  0.00     0.074 A 
ATOM     63  C   UNL     1       5.745   3.673   8.650  1.00  0.00     0.029 A 
ATOM     64  N   UNL     1       7.905   3.179   8.817  1.00  0.00    -0.354 N 
ATOM     65  N   UNL     1       7.398  -0.024   7.335  1.00  0.00    -0.248 NA
ATOM     66  C   UNL     1       8.067  -2.219   7.439  1.00  0.00     0.031 C 
ATOM     67  C   UNL     1       5.877   2.314   9.040  1.00  0.00     0.029 A 
ATOM     68  C   UNL     1       7.225   2.016   9.129  1.00  0.00     0.049 A 
ATOM     69  H   UNL     1       8.884   3.276   8.838  1.00  0.00     0.167 HD
ATOM     70  C   UNL     1       7.887  -0.215   8.603  1.00  0.00     0.074 A 
ATOM     71  C   UNL     1       8.263  -1.618   8.627  1.00  0.00     0.031 C 
ATOM     72  C   UNL     1       7.950   0.808   9.511  1.00  0.00     0.034 A 
BRANCH  59  73
ATOM     73  C   UNL     1       7.135   6.810   8.268  1.00  0.00     0.023 A 
ATOM     74  C   UNL     1       6.075   6.970   9.187  1.00  0.00     0.031 A 
ATOM     75  C   UNL     1       7.691   8.017   7.797  1.00  0.00     0.131 A 
ATOM     76  C   UNL     1       5.542   8.238   9.493  1.00  0.00     0.055 A 
ATOM     77  C   UNL     1       7.127   9.275   8.053  1.00  0.00     0.041 A 
ATOM     78  F   UNL     1       8.844   8.052   7.121  1.00  0.00    -0.206 F 
ATOM     79  C   UNL     1       6.034   9.391   8.893  1.00  0.00     0.022 A 
BRANCH  76  80
ATOM     80  S   UNL     1       4.187   8.365  10.693  1.00  0.00     0.124 S 
ATOM     81  O   UNL     1       3.148   7.550  10.074  1.00  0.00    -0.237 OA
ATOM     82  O   UNL     1       4.798   7.828  11.904  1.00  0.00    -0.237 OA
ATOM     83  O   UNL     1       3.903   9.800  10.732  1.00  0.00    -0.744 OA
ENDBRANCH  76  80
ENDBRANCH  59  73
BRANCH  60  84
ATOM     84  C   UNL     1       7.887  -1.951   4.125  1.00  0.00     0.023 A 
ATOM     85  C   UNL     1       7.142  -2.463   3.040  1.00  0.00     0.031 A 
ATOM     86  C   UNL     1       9.259  -1.743   3.939  1.00  0.00     0.131 A 
ATOM     87  C   UNL     1       7.723  -2.568   1.770  1.00  0.00     0.055 A 
ATOM     88  C   UNL     1       9.856  -1.931   2.684  1.00  0.00     0.041 A 
ATOM     89  F   UNL     1      10.011  -1.224   4.920  1.00  0.00    -0.206 F 
ATOM     90  C   UNL     1       9.079  -2.297   1.582  1.00  0.00     0.022 A 
BRANCH  87  91
ATOM     91  S   UNL     1       6.622  -2.766   0.334  1.00  0.00     0.124 S 
ATOM     92  O   UNL     1       6.530  -4.216   0.218  1.00  0.00    -0.237 OA
ATOM     93  O   UNL     1       5.400  -2.082   0.760  1.00  0.00    -0.237 OA
ATOM     94  O   UNL     1       7.339  -2.086  -0.741  1.00  0.00    -0.744 OA
ENDBRANCH  87  91
ENDBRANCH  60  84
BRANCH  72  95
ATOM     95  C   UNL     1       8.625   0.755  10.869  1.00  0.00     0.023 A 
ATOM     96  C   UNL     1       9.567  -0.217  11.236  1.00  0.00     0.031 A 
ATOM     97  C   UNL     1       8.382   1.762  11.838  1.00  0.00     0.131 A 
ATOM     98  C   UNL     1      10.153  -0.222  12.517  1.00  0.00     0.055 A 
ATOM     99  C   UNL     1       9.025   1.802  13.080  1.00  0.00     0.041 A 
ATOM    100  F   UNL     1       7.511   2.759  11.620  1.00  0.00    -0.206 F 
ATOM    101  C   UNL     1       9.906   0.795  13.434  1.00  0.00     0.022 A 
BRANCH  98 102
ATOM    102  S   UNL     1      11.200  -1.627  12.980  1.00  0.00     0.124 S 
ATOM    103  O   UNL     1      10.260  -2.741  12.899  1.00  0.00    -0.237 OA
ATOM    104  O   UNL     1      12.238  -1.597  11.954  1.00  0.00    -0.237 OA
ATOM    105  O   UNL     1      11.651  -1.293  14.330  1.00  0.00    -0.744 OA
ENDBRANCH  98 102
ENDBRANCH  72  95
ENDBRANCH  46  47
ENDBRANCH  38  41
ENDBRANCH  36  37
ENDBRANCH  35  36
ENDBRANCH   1  35
TORSDOF 17
