REMARK SMILES COC(=O)[C@@H](NC(=O)CCC(=O)NCCCCNC(=O)c1ccc(-c2c3nc(c(-c4cc(S(=O)(=O)[O-])ccc4F)c4ccc([nH]4)c(-c4cc(S(=O)(=O)[O-])ccc4F)c4nc(c(-c5cc(S(=O)(=O)[O-])ccc5F)c5ccc2[nH]5)C=C4)C=C3)cc1)c1cccc2ccccc12
REMARK SMILES IDX 14 1 13 2 11 3 12 4 10 6 9 7 7 8 6 9 8 11 5 12 3 13 4 14
REMARK SMILES IDX 2 15 1 16 84 17 85 18 93 19 86 20 88 21 92 22 87 23 89 24
REMARK SMILES IDX 91 25 90 26 15 27 16 28 17 29 18 30 19 31 20 33 21 34 22 35
REMARK SMILES IDX 83 36 23 37 82 38 24 39 25 40 26 41 76 42 27 43 81 44 75 45
REMARK SMILES IDX 77 46 28 47 80 48 74 49 73 50 29 52 61 53 41 54 60 55 42 56
REMARK SMILES IDX 45 57 59 58 78 59 43 60 44 61 58 63 79 64 46 65 30 66 31 67
REMARK SMILES IDX 39 68 32 69 38 70 40 71 37 72 33 73 34 74 35 75 36 76 62 77
REMARK SMILES IDX 63 78 71 79 64 80 70 81 72 82 69 83 65 84 66 85 67 86 68 87
REMARK SMILES IDX 47 88 48 89 56 90 49 91 55 92 57 93 54 94 50 95 51 96 52 97
REMARK SMILES IDX 53 98
REMARK H PARENT 13 5 6 10 18 32 77 51 45 62
REMARK Flexibility Score: inf
ROOT
ATOM      1  C   UNL     1       2.031  -3.235  -2.310  1.00  0.00     0.116 C 
ENDROOT
BRANCH   1   2
ATOM      2  N   UNL     1       0.992  -2.423  -1.717  1.00  0.00    -0.356 N 
ATOM      3  C   UNL     1      -0.320  -2.709  -1.511  1.00  0.00     0.220 C 
ATOM      4  O   UNL     1      -1.055  -1.921  -0.917  1.00  0.00    -0.275 OA
ATOM      5  H   UNL     1       1.278  -1.529  -1.419  1.00  0.00     0.163 HD
BRANCH   3   6
ATOM      6  C   UNL     1      -0.862  -3.989  -2.046  1.00  0.00     0.110 C 
BRANCH   6   7
ATOM      7  C   UNL     1      -1.041  -4.025  -3.551  1.00  0.00     0.110 C 
BRANCH   7   8
ATOM      8  C   UNL     1      -0.486  -2.968  -4.481  1.00  0.00     0.221 C 
ATOM      9  N   UNL     1      -0.623  -1.638  -4.507  1.00  0.00    -0.339 N 
ATOM     10  H   UNL     1      -0.122  -1.343  -5.301  1.00  0.00     0.164 HD
ATOM     11  O   UNL     1       0.174  -3.401  -5.445  1.00  0.00    -0.275 OA
BRANCH   9  12
ATOM     12  C   UNL     1      -1.180  -0.377  -3.900  1.00  0.00     0.224 C 
BRANCH  12  13
ATOM     13  C   UNL     1      -0.309   0.627  -3.040  1.00  0.00     0.333 C 
ATOM     14  O   UNL     1      -0.226   1.825  -3.312  1.00  0.00    -0.249 OA
BRANCH  13  15
ATOM     15  O   UNL     1       0.333   0.101  -1.977  1.00  0.00    -0.467 OA
ATOM     16  C   UNL     1       0.910   1.050  -1.062  1.00  0.00     0.282 C 
ENDBRANCH  13  15
ENDBRANCH  12  13
BRANCH  12  17
ATOM     17  C   UNL     1      -2.704  -0.060  -3.911  1.00  0.00    -0.007 A 
ATOM     18  C   UNL     1      -3.029   1.294  -4.193  1.00  0.00     0.007 A 
ATOM     19  C   UNL     1      -3.802  -0.959  -3.778  1.00  0.00    -0.013 A 
ATOM     20  C   UNL     1      -4.327   1.732  -4.407  1.00  0.00     0.001 A 
ATOM     21  C   UNL     1      -5.107  -0.532  -4.152  1.00  0.00    -0.018 A 
ATOM     22  C   UNL     1      -3.736  -2.253  -3.247  1.00  0.00     0.009 A 
ATOM     23  C   UNL     1      -5.353   0.809  -4.444  1.00  0.00     0.009 A 
ATOM     24  C   UNL     1      -6.183  -1.434  -4.202  1.00  0.00     0.009 A 
ATOM     25  C   UNL     1      -4.818  -3.146  -3.253  1.00  0.00     0.001 A 
ATOM     26  C   UNL     1      -6.035  -2.748  -3.781  1.00  0.00     0.001 A 
ENDBRANCH  12  17
ENDBRANCH   9  12
ENDBRANCH   7   8
ENDBRANCH   6   7
ENDBRANCH   3   6
ENDBRANCH   1   2
BRANCH   1  27
ATOM     27  C   UNL     1       2.712  -2.589  -3.519  1.00  0.00     0.023 C 
BRANCH  27  28
ATOM     28  C   UNL     1       3.369  -1.234  -3.294  1.00  0.00     0.023 C 
BRANCH  28  29
ATOM     29  C   UNL     1       4.208  -1.168  -2.034  1.00  0.00     0.116 C 
BRANCH  29  30
ATOM     30  N   UNL     1       5.120  -2.305  -1.945  1.00  0.00    -0.352 N 
ATOM     31  C   UNL     1       6.470  -2.352  -2.139  1.00  0.00     0.251 C 
ATOM     32  H   UNL     1       4.699  -3.163  -1.710  1.00  0.00     0.163 HD
ATOM     33  O   UNL     1       7.025  -3.433  -2.354  1.00  0.00    -0.269 OA
BRANCH  31  34
ATOM     34  C   UNL     1       7.231  -1.101  -2.089  1.00  0.00     0.039 A 
ATOM     35  C   UNL     1       8.253  -0.870  -3.008  1.00  0.00     0.014 A 
ATOM     36  C   UNL     1       6.888  -0.139  -1.137  1.00  0.00     0.014 A 
ATOM     37  C   UNL     1       8.906   0.358  -2.992  1.00  0.00     0.010 A 
ATOM     38  C   UNL     1       7.429   1.127  -1.224  1.00  0.00     0.010 A 
ATOM     39  C   UNL     1       8.478   1.371  -2.118  1.00  0.00    -0.014 A 
BRANCH  39  40
ATOM     40  C   UNL     1       9.165   2.678  -2.046  1.00  0.00     0.031 A 
ATOM     41  C   UNL     1       9.781   3.102  -0.740  1.00  0.00     0.074 A 
ATOM     42  C   UNL     1       9.162   3.491  -3.117  1.00  0.00     0.049 A 
ATOM     43  N   UNL     1      10.330   4.242  -0.413  1.00  0.00    -0.248 NA
ATOM     44  C   UNL     1       9.714   2.133   0.368  1.00  0.00     0.031 C 
ATOM     45  C   UNL     1       8.537   3.192  -4.408  1.00  0.00     0.029 A 
ATOM     46  N   UNL     1       9.704   4.736  -3.291  1.00  0.00    -0.354 N 
ATOM     47  C   UNL     1      10.639   4.133   0.939  1.00  0.00     0.074 A 
ATOM     48  C   UNL     1      10.122   2.863   1.391  1.00  0.00     0.031 C 
ATOM     49  C   UNL     1       8.776   4.205  -5.256  1.00  0.00     0.029 A 
ATOM     50  C   UNL     1       9.523   5.243  -4.556  1.00  0.00     0.049 A 
ATOM     51  H   UNL     1      10.178   5.222  -2.579  1.00  0.00     0.167 HD
ATOM     52  C   UNL     1      11.331   4.997   1.719  1.00  0.00     0.034 A 
ATOM     53  C   UNL     1       9.919   6.417  -5.081  1.00  0.00     0.034 A 
ATOM     54  C   UNL     1      11.867   6.238   1.221  1.00  0.00     0.049 A 
ATOM     55  C   UNL     1      10.693   7.364  -4.201  1.00  0.00     0.074 A 
ATOM     56  C   UNL     1      12.643   7.172   1.881  1.00  0.00     0.029 A 
ATOM     57  N   UNL     1      11.680   6.715  -0.072  1.00  0.00    -0.354 N 
ATOM     58  N   UNL     1      11.032   7.229  -2.938  1.00  0.00    -0.248 NA
ATOM     59  C   UNL     1      11.149   8.613  -4.819  1.00  0.00     0.031 C 
ATOM     60  C   UNL     1      12.866   8.244   1.011  1.00  0.00     0.029 A 
ATOM     61  C   UNL     1      12.300   7.944  -0.220  1.00  0.00     0.049 A 
ATOM     62  H   UNL     1      11.180   6.247  -0.779  1.00  0.00     0.167 HD
ATOM     63  C   UNL     1      11.767   8.366  -2.618  1.00  0.00     0.074 A 
ATOM     64  C   UNL     1      11.835   9.164  -3.827  1.00  0.00     0.031 C 
ATOM     65  C   UNL     1      12.339   8.721  -1.438  1.00  0.00     0.034 A 
BRANCH  52  66
ATOM     66  C   UNL     1      11.518   4.624   3.172  1.00  0.00     0.023 A 
ATOM     67  C   UNL     1      12.167   3.434   3.554  1.00  0.00     0.031 A 
ATOM     68  C   UNL     1      10.979   5.428   4.191  1.00  0.00     0.131 A 
ATOM     69  C   UNL     1      12.163   3.030   4.897  1.00  0.00     0.055 A 
ATOM     70  C   UNL     1      11.069   5.070   5.538  1.00  0.00     0.041 A 
ATOM     71  F   UNL     1      10.326   6.562   3.894  1.00  0.00    -0.206 F 
ATOM     72  C   UNL     1      11.644   3.854   5.897  1.00  0.00     0.022 A 
BRANCH  69  73
ATOM     73  S   UNL     1      12.675   1.334   5.291  1.00  0.00     0.124 S 
ATOM     74  O   UNL     1      11.735   0.551   4.491  1.00  0.00    -0.237 OA
ATOM     75  O   UNL     1      14.063   1.312   4.848  1.00  0.00    -0.237 OA
ATOM     76  O   UNL     1      12.476   1.243   6.736  1.00  0.00    -0.744 OA
ENDBRANCH  69  73
ENDBRANCH  52  66
BRANCH  53  77
ATOM     77  C   UNL     1       9.611   6.750  -6.501  1.00  0.00     0.023 A 
ATOM     78  C   UNL     1      10.639   6.891  -7.446  1.00  0.00     0.031 A 
ATOM     79  C   UNL     1       8.287   6.942  -6.933  1.00  0.00     0.131 A 
ATOM     80  C   UNL     1      10.332   7.255  -8.766  1.00  0.00     0.055 A 
ATOM     81  C   UNL     1       7.982   7.255  -8.259  1.00  0.00     0.041 A 
ATOM     82  F   UNL     1       7.265   6.809  -6.073  1.00  0.00    -0.206 F 
ATOM     83  C   UNL     1       9.010   7.425  -9.182  1.00  0.00     0.022 A 
BRANCH  80  84
ATOM     84  S   UNL     1      11.696   7.578  -9.917  1.00  0.00     0.124 S 
ATOM     85  O   UNL     1      12.416   8.646  -9.232  1.00  0.00    -0.237 OA
ATOM     86  O   UNL     1      12.364   6.282  -9.966  1.00  0.00    -0.237 OA
ATOM     87  O   UNL     1      11.015   7.973 -11.148  1.00  0.00    -0.744 OA
ENDBRANCH  80  84
ENDBRANCH  53  77
BRANCH  65  88
ATOM     88  C   UNL     1      13.118  10.011  -1.422  1.00  0.00     0.023 A 
ATOM     89  C   UNL     1      12.489  11.255  -1.594  1.00  0.00     0.031 A 
ATOM     90  C   UNL     1      14.512   9.991  -1.234  1.00  0.00     0.131 A 
ATOM     91  C   UNL     1      13.260  12.425  -1.634  1.00  0.00     0.055 A 
ATOM     92  C   UNL     1      15.264  11.165  -1.206  1.00  0.00     0.041 A 
ATOM     93  F   UNL     1      15.163   8.829  -1.067  1.00  0.00    -0.206 F 
ATOM     94  C   UNL     1      14.640  12.390  -1.421  1.00  0.00     0.022 A 
BRANCH  91  95
ATOM     95  S   UNL     1      12.446  13.986  -2.069  1.00  0.00     0.124 S 
ATOM     96  O   UNL     1      11.888  13.680  -3.382  1.00  0.00    -0.237 OA
ATOM     97  O   UNL     1      11.479  14.146  -0.988  1.00  0.00    -0.237 OA
ATOM     98  O   UNL     1      13.540  14.954  -2.071  1.00  0.00    -0.744 OA
ENDBRANCH  91  95
ENDBRANCH  65  88
ENDBRANCH  39  40
ENDBRANCH  31  34
ENDBRANCH  29  30
ENDBRANCH  28  29
ENDBRANCH  27  28
ENDBRANCH   1  27
TORSDOF 20
