REMARK SMILES O=C(NCCCCNC(=O)c1ccc(CNC(=O)c2ccc(F)cc2Br)o1)c1ccc(-c2c3nc(c(-c4cc(S(=O)(=O)[O-])ccc4F)c4ccc([nH]4)c(-c4cc(S(=O)(=O)[O-])ccc4F)c4nc(c(-c5cc(S(=O)(=O)[O-])ccc5F)c5ccc2[nH]5)C=C4)C=C3)cc1
REMARK SMILES IDX 5 1 4 2 3 3 1 4 2 5 28 7 29 8 90 9 30 10 89 11 31 12 32 13
REMARK SMILES IDX 33 14 83 15 34 16 88 17 82 18 84 19 35 20 87 21 81 22 80 23
REMARK SMILES IDX 36 25 68 26 48 27 67 28 49 29 52 30 66 31 85 32 50 33 51 34
REMARK SMILES IDX 65 36 86 37 53 38 37 39 38 40 46 41 39 42 45 43 47 44 44 45
REMARK SMILES IDX 40 46 41 47 42 48 43 49 69 50 70 51 78 52 71 53 77 54 79 55
REMARK SMILES IDX 76 56 72 57 73 58 74 59 75 60 54 61 55 62 63 63 56 64 62 65
REMARK SMILES IDX 64 66 61 67 57 68 58 69 59 70 60 71 6 72 7 73 8 74 9 75
REMARK SMILES IDX 10 77 11 78 12 79 27 80 13 81 14 82 15 83 16 84 17 85 18 87
REMARK SMILES IDX 19 88 20 89 25 90 21 91 24 92 26 93 22 94 23 95
REMARK H PARENT 3 6 84 24 52 35 8 76 16 86
REMARK Flexibility Score: inf
ROOT
ATOM      1  C   UNL     1       4.894  -2.881  -0.301  1.00  0.00     0.023 C 
ENDROOT
BRANCH   1   2
ATOM      2  C   UNL     1       4.676  -1.373  -0.378  1.00  0.00     0.116 C 
BRANCH   2   3
ATOM      3  N   UNL     1       3.283  -0.996  -0.568  1.00  0.00    -0.352 N 
ATOM      4  O   UNL     1       1.370   0.137  -0.201  1.00  0.00    -0.269 OA
ATOM      5  C   UNL     1       2.572   0.025   0.021  1.00  0.00     0.251 C 
ATOM      6  H   UNL     1       2.778  -1.549  -1.208  1.00  0.00     0.163 HD
BRANCH   5   7
ATOM      7  C   UNL     1       3.248   0.959   0.951  1.00  0.00     0.039 A 
ATOM      8  C   UNL     1       4.479   1.533   0.627  1.00  0.00     0.014 A 
ATOM      9  C   UNL     1       2.642   1.247   2.178  1.00  0.00     0.014 A 
ATOM     10  C   UNL     1       5.170   2.269   1.586  1.00  0.00     0.010 A 
ATOM     11  C   UNL     1       3.310   2.040   3.116  1.00  0.00     0.010 A 
ATOM     12  C   UNL     1       4.602   2.515   2.846  1.00  0.00    -0.014 A 
BRANCH  12  13
ATOM     13  C   UNL     1       5.392   3.254   3.865  1.00  0.00     0.031 A 
ATOM     14  C   UNL     1       5.900   2.554   5.098  1.00  0.00     0.074 A 
ATOM     15  C   UNL     1       5.700   4.546   3.649  1.00  0.00     0.049 A 
ATOM     16  N   UNL     1       6.669   3.015   6.053  1.00  0.00    -0.248 NA
ATOM     17  C   UNL     1       5.479   1.159   5.290  1.00  0.00     0.031 C 
ATOM     18  C   UNL     1       5.248   5.339   2.503  1.00  0.00     0.029 A 
ATOM     19  N   UNL     1       6.486   5.412   4.364  1.00  0.00    -0.354 N 
ATOM     20  C   UNL     1       6.807   1.978   6.969  1.00  0.00     0.074 A 
ATOM     21  C   UNL     1       6.017   0.872   6.467  1.00  0.00     0.031 C 
ATOM     22  C   UNL     1       5.805   6.558   2.567  1.00  0.00     0.029 A 
ATOM     23  C   UNL     1       6.624   6.645   3.772  1.00  0.00     0.049 A 
ATOM     24  H   UNL     1       6.912   5.174   5.219  1.00  0.00     0.167 HD
ATOM     25  C   UNL     1       7.530   1.946   8.117  1.00  0.00     0.034 A 
ATOM     26  C   UNL     1       7.336   7.723   4.151  1.00  0.00     0.034 A 
ATOM     27  C   UNL     1       8.331   3.045   8.599  1.00  0.00     0.049 A 
ATOM     28  C   UNL     1       8.158   7.652   5.407  1.00  0.00     0.074 A 
ATOM     29  C   UNL     1       9.129   3.105   9.730  1.00  0.00     0.029 A 
ATOM     30  N   UNL     1       8.438   4.282   7.976  1.00  0.00    -0.354 N 
ATOM     31  N   UNL     1       8.289   6.657   6.251  1.00  0.00    -0.248 NA
ATOM     32  C   UNL     1       8.934   8.849   5.753  1.00  0.00     0.031 C 
ATOM     33  C   UNL     1       9.683   4.389   9.812  1.00  0.00     0.029 A 
ATOM     34  C   UNL     1       9.272   5.115   8.706  1.00  0.00     0.049 A 
ATOM     35  H   UNL     1       7.987   4.530   7.137  1.00  0.00     0.167 HD
ATOM     36  C   UNL     1       9.171   7.106   7.228  1.00  0.00     0.074 A 
ATOM     37  C   UNL     1       9.554   8.454   6.856  1.00  0.00     0.031 C 
ATOM     38  C   UNL     1       9.623   6.463   8.334  1.00  0.00     0.034 A 
BRANCH  25  39
ATOM     39  C   UNL     1       7.444   0.691   8.949  1.00  0.00     0.023 A 
ATOM     40  C   UNL     1       7.972  -0.532   8.501  1.00  0.00     0.031 A 
ATOM     41  C   UNL     1       6.791   0.712  10.194  1.00  0.00     0.131 A 
ATOM     42  C   UNL     1       7.779  -1.697   9.261  1.00  0.00     0.055 A 
ATOM     43  C   UNL     1       6.662  -0.437  10.977  1.00  0.00     0.041 A 
ATOM     44  F   UNL     1       6.251   1.849  10.663  1.00  0.00    -0.206 F 
ATOM     45  C   UNL     1       7.145  -1.654  10.505  1.00  0.00     0.022 A 
BRANCH  42  46
ATOM     46  S   UNL     1       8.250  -3.292   8.537  1.00  0.00     0.124 S 
ATOM     47  O   UNL     1       7.459  -3.306   7.309  1.00  0.00    -0.237 OA
ATOM     48  O   UNL     1       9.691  -3.147   8.367  1.00  0.00    -0.237 OA
ATOM     49  O   UNL     1       7.835  -4.263   9.547  1.00  0.00    -0.744 OA
ENDBRANCH  42  46
ENDBRANCH  25  39
BRANCH  26  50
ATOM     50  C   UNL     1       7.301   8.961   3.330  1.00  0.00     0.023 A 
ATOM     51  C   UNL     1       8.418   9.368   2.588  1.00  0.00     0.031 A 
ATOM     52  C   UNL     1       6.143   9.757   3.286  1.00  0.00     0.131 A 
ATOM     53  C   UNL     1       8.365  10.559   1.848  1.00  0.00     0.055 A 
ATOM     54  C   UNL     1       6.084  10.923   2.523  1.00  0.00     0.041 A 
ATOM     55  F   UNL     1       5.046   9.398   3.971  1.00  0.00    -0.206 F 
ATOM     56  C   UNL     1       7.203  11.334   1.804  1.00  0.00     0.022 A 
BRANCH  53  57
ATOM     57  S   UNL     1       9.855  11.103   0.970  1.00  0.00     0.124 S 
ATOM     58  O   UNL     1      10.814  11.238   2.061  1.00  0.00    -0.237 OA
ATOM     59  O   UNL     1      10.084   9.996   0.048  1.00  0.00    -0.237 OA
ATOM     60  O   UNL     1       9.442  12.357   0.343  1.00  0.00    -0.744 OA
ENDBRANCH  53  57
ENDBRANCH  26  50
BRANCH  38  61
ATOM     61  C   UNL     1      10.598   7.218   9.197  1.00  0.00     0.023 A 
ATOM     62  C   UNL     1      10.186   8.308   9.983  1.00  0.00     0.031 A 
ATOM     63  C   UNL     1      11.958   6.865   9.204  1.00  0.00     0.131 A 
ATOM     64  C   UNL     1      11.137   9.042  10.707  1.00  0.00     0.055 A 
ATOM     65  C   UNL     1      12.893   7.574   9.958  1.00  0.00     0.041 A 
ATOM     66  F   UNL     1      12.399   5.833   8.467  1.00  0.00    -0.206 F 
ATOM     67  C   UNL     1      12.486   8.677  10.706  1.00  0.00     0.022 A 
BRANCH  64  68
ATOM     68  S   UNL     1      10.600  10.537  11.584  1.00  0.00     0.124 S 
ATOM     69  O   UNL     1       9.997  11.322  10.510  1.00  0.00    -0.237 OA
ATOM     70  O   UNL     1       9.675   9.999  12.576  1.00  0.00    -0.237 OA
ATOM     71  O   UNL     1      11.843  11.082  12.126  1.00  0.00    -0.744 OA
ENDBRANCH  64  68
ENDBRANCH  38  61
ENDBRANCH  12  13
ENDBRANCH   5   7
ENDBRANCH   2   3
ENDBRANCH   1   2
BRANCH   1  72
ATOM     72  C   UNL     1       4.412  -3.691  -1.507  1.00  0.00     0.023 C 
BRANCH  72  73
ATOM     73  C   UNL     1       4.915  -3.207  -2.866  1.00  0.00     0.116 C 
BRANCH  73  74
ATOM     74  N   UNL     1       6.359  -3.291  -2.986  1.00  0.00    -0.349 N 
ATOM     75  C   UNL     1       7.103  -4.046  -3.864  1.00  0.00     0.286 C 
ATOM     76  H   UNL     1       6.873  -2.736  -2.356  1.00  0.00     0.163 HD
ATOM     77  O   UNL     1       8.328  -4.030  -3.762  1.00  0.00    -0.266 OA
BRANCH  75  78
ATOM     78  C   UNL     1       6.398  -4.807  -4.865  1.00  0.00     0.191 A 
ATOM     79  C   UNL     1       5.713  -4.426  -6.004  1.00  0.00     0.056 A 
ATOM     80  O   UNL     1       6.325  -6.162  -4.717  1.00  0.00    -0.454 OA
ATOM     81  C   UNL     1       5.182  -5.610  -6.572  1.00  0.00     0.048 A 
ATOM     82  C   UNL     1       5.576  -6.644  -5.748  1.00  0.00     0.124 A 
BRANCH  82  83
ATOM     83  C   UNL     1       5.317  -8.100  -5.734  1.00  0.00     0.191 C 
BRANCH  83  84
ATOM     84  N   UNL     1       6.372  -8.791  -6.446  1.00  0.00    -0.345 N 
ATOM     85  C   UNL     1       7.070  -9.905  -6.058  1.00  0.00     0.252 C 
ATOM     86  H   UNL     1       6.620  -8.412  -7.320  1.00  0.00     0.164 HD
ATOM     87  O   UNL     1       7.909 -10.415  -6.792  1.00  0.00    -0.269 OA
BRANCH  85  88
ATOM     88  C   UNL     1       6.767 -10.523  -4.754  1.00  0.00     0.054 A 
ATOM     89  C   UNL     1       5.533 -11.176  -4.602  1.00  0.00     0.018 A 
ATOM     90  C   UNL     1       7.681 -10.482  -3.693  1.00  0.00     0.033 A 
ATOM     91  C   UNL     1       5.204 -11.756  -3.378  1.00  0.00     0.040 A 
ATOM     92  C   UNL     1       7.347 -11.074  -2.471  1.00  0.00     0.055 A 
ATOM     93  Br  UNL     1       9.364  -9.618  -3.822  1.00  0.00    -0.050 Br
ATOM     94  C   UNL     1       6.113 -11.698  -2.327  1.00  0.00     0.124 A 
ATOM     95  F   UNL     1       5.791 -12.259  -1.154  1.00  0.00    -0.207 F 
ENDBRANCH  85  88
ENDBRANCH  83  84
ENDBRANCH  82  83
ENDBRANCH  75  78
ENDBRANCH  73  74
ENDBRANCH  72  73
ENDBRANCH   1  72
TORSDOF 17
