REMARK SMILES COc1ccc(-n2c(SCc3cn(-c4ccc(C(=O)NCCCCNC(=O)c5ccc(-c6c7nc(c(-c8cc(S(=O)(=O)[O-])ccc8F)c8ccc([nH]8)c(-c8cc(S(=O)(=O)[O-])ccc8F)c8nc(c(-c9cc(S(=O)(=O)[O-])ccc9F)c9ccc6[nH]9)C=C8)C=C7)cc5)cc4)nn3)nc3ccccc3c2=O)cc1
REMARK SMILES IDX 21 1 20 2 18 3 19 4 17 6 14 7 15 8 92 9 16 10 91 11 13 12
REMARK SMILES IDX 11 13 12 14 94 15 93 16 10 17 9 18 8 19 7 20 102 21 95 22
REMARK SMILES IDX 101 23 103 24 96 25 100 26 97 27 99 28 98 29 6 30 3 31 4 32
REMARK SMILES IDX 105 33 5 34 104 35 2 36 1 37 22 38 23 39 24 40 25 41 26 42
REMARK SMILES IDX 27 44 28 45 29 46 90 47 30 48 89 49 31 50 32 51 33 52 83 53
REMARK SMILES IDX 34 54 88 55 82 56 84 57 35 58 87 59 81 60 80 61 36 63 68 64
REMARK SMILES IDX 48 65 67 66 49 67 52 68 66 69 85 70 50 71 51 72 65 74 86 75
REMARK SMILES IDX 53 76 37 77 38 78 46 79 39 80 45 81 47 82 44 83 40 84 41 85
REMARK SMILES IDX 42 86 43 87 69 88 70 89 78 90 71 91 77 92 79 93 76 94 72 95
REMARK SMILES IDX 73 96 74 97 75 98 54 99 55 100 63 101 56 102 62 103 64 104
REMARK SMILES IDX 61 105 57 106 58 107 59 108 60 109
REMARK H PARENT 20 5 25 43 84 62 52 73
REMARK Flexibility Score: inf
ROOT
ATOM      1  C   UNL     1      -0.068  -2.376   6.795  1.00  0.00     0.116 C 
ENDROOT
BRANCH   1   2
ATOM      2  N   UNL     1      -1.442  -1.924   6.644  1.00  0.00    -0.352 N 
ATOM      3  C   UNL     1      -2.011  -0.910   5.912  1.00  0.00     0.251 C 
ATOM      4  O   UNL     1      -3.232  -0.774   5.954  1.00  0.00    -0.269 OA
ATOM      5  H   UNL     1      -2.090  -2.447   7.168  1.00  0.00     0.163 HD
BRANCH   3   6
ATOM      6  C   UNL     1      -1.216  -0.005   5.044  1.00  0.00     0.039 A 
ATOM      7  C   UNL     1       0.229   1.545   3.279  1.00  0.00     0.066 A 
ATOM      8  C   UNL     1      -1.153   1.491   3.127  1.00  0.00     0.029 A 
ATOM      9  C   UNL     1       0.890   0.918   4.325  1.00  0.00     0.029 A 
ATOM     10  C   UNL     1      -1.870   0.670   3.997  1.00  0.00     0.016 A 
ATOM     11  C   UNL     1       0.147   0.209   5.236  1.00  0.00     0.016 A 
BRANCH   7  12
ATOM     12  N   UNL     1       1.012   2.370   2.487  1.00  0.00    -0.220 N 
ATOM     13  C   UNL     1       2.891   3.297   1.981  1.00  0.00     0.093 A 
ATOM     14  C   UNL     1       2.282   2.078   2.062  1.00  0.00     0.141 A 
ATOM     15  N   UNL     1       1.985   4.264   2.335  1.00  0.00    -0.134 NA
ATOM     16  N   UNL     1       0.815   3.696   2.541  1.00  0.00    -0.062 NA
BRANCH  13  17
ATOM     17  C   UNL     1       4.270   3.599   1.573  1.00  0.00     0.138 C 
BRANCH  17  18
ATOM     18  S   UNL     1       4.727   5.302   1.820  1.00  0.00    -0.081 SA
BRANCH  18  19
ATOM     19  C   UNL     1       3.293   6.228   1.194  1.00  0.00     0.176 A 
ATOM     20  N   UNL     1       3.146   6.136  -0.180  1.00  0.00    -0.255 N 
ATOM     21  C   UNL     1       3.730   7.156  -0.920  1.00  0.00     0.266 A 
ATOM     22  N   UNL     1       3.124   7.384   1.767  1.00  0.00    -0.223 NA
ATOM     23  C   UNL     1       4.502   8.130  -0.079  1.00  0.00     0.066 A 
ATOM     24  O   UNL     1       3.699   7.290  -2.138  1.00  0.00    -0.268 OA
ATOM     25  C   UNL     1       4.089   8.274   1.261  1.00  0.00     0.079 A 
ATOM     26  C   UNL     1       5.736   8.624  -0.485  1.00  0.00     0.016 A 
ATOM     27  C   UNL     1       4.861   8.995   2.169  1.00  0.00     0.029 A 
ATOM     28  C   UNL     1       6.551   9.261   0.458  1.00  0.00     0.001 A 
ATOM     29  C   UNL     1       6.107   9.467   1.771  1.00  0.00     0.002 A 
BRANCH  20  30
ATOM     30  C   UNL     1       2.305   5.139  -0.749  1.00  0.00     0.052 A 
ATOM     31  C   UNL     1       0.834   2.783  -1.199  1.00  0.00     0.119 A 
ATOM     32  C   UNL     1       0.204   3.905  -0.665  1.00  0.00     0.048 A 
ATOM     33  C   UNL     1       2.151   2.886  -1.645  1.00  0.00     0.048 A 
ATOM     34  C   UNL     1       0.945   5.070  -0.410  1.00  0.00     0.030 A 
ATOM     35  C   UNL     1       2.876   4.073  -1.452  1.00  0.00     0.030 A 
BRANCH  31  36
ATOM     36  O   UNL     1       0.096   1.638  -1.320  1.00  0.00    -0.497 OA
ATOM     37  C   UNL     1       0.665   0.493  -0.676  1.00  0.00     0.278 C 
ENDBRANCH  31  36
ENDBRANCH  20  30
ENDBRANCH  18  19
ENDBRANCH  17  18
ENDBRANCH  13  17
ENDBRANCH   7  12
ENDBRANCH   3   6
ENDBRANCH   1   2
BRANCH   1  38
ATOM     38  C   UNL     1       0.629  -1.705   7.992  1.00  0.00     0.023 C 
BRANCH  38  39
ATOM     39  C   UNL     1       0.234  -2.243   9.368  1.00  0.00     0.023 C 
BRANCH  39  40
ATOM     40  C   UNL     1       0.692  -3.667   9.653  1.00  0.00     0.116 C 
BRANCH  40  41
ATOM     41  N   UNL     1       2.151  -3.811   9.658  1.00  0.00    -0.352 N 
ATOM     42  C   UNL     1       2.891  -4.979   9.524  1.00  0.00     0.251 C 
ATOM     43  H   UNL     1       2.668  -2.981   9.769  1.00  0.00     0.163 HD
ATOM     44  O   UNL     1       4.021  -5.063   9.971  1.00  0.00    -0.269 OA
BRANCH  42  45
ATOM     45  C   UNL     1       2.273  -6.099   8.788  1.00  0.00     0.039 A 
ATOM     46  C   UNL     1       2.361  -7.429   9.202  1.00  0.00     0.014 A 
ATOM     47  C   UNL     1       1.523  -5.746   7.674  1.00  0.00     0.014 A 
ATOM     48  C   UNL     1       1.611  -8.386   8.515  1.00  0.00     0.010 A 
ATOM     49  C   UNL     1       0.626  -6.635   7.157  1.00  0.00     0.010 A 
ATOM     50  C   UNL     1       0.730  -7.973   7.501  1.00  0.00    -0.014 A 
BRANCH  50  51
ATOM     51  C   UNL     1      -0.191  -8.888   6.839  1.00  0.00     0.031 A 
ATOM     52  C   UNL     1      -1.071  -9.637   7.769  1.00  0.00     0.074 A 
ATOM     53  C   UNL     1      -0.409  -8.868   5.503  1.00  0.00     0.049 A 
ATOM     54  N   UNL     1      -0.984 -10.883   8.091  1.00  0.00    -0.248 NA
ATOM     55  C   UNL     1      -2.041  -8.886   8.584  1.00  0.00     0.031 C 
ATOM     56  C   UNL     1       0.153  -7.962   4.493  1.00  0.00     0.029 A 
ATOM     57  N   UNL     1      -1.287  -9.601   4.771  1.00  0.00    -0.354 N 
ATOM     58  C   UNL     1      -2.064 -11.135   8.928  1.00  0.00     0.074 A 
ATOM     59  C   UNL     1      -2.507  -9.846   9.386  1.00  0.00     0.031 C 
ATOM     60  C   UNL     1      -0.573  -8.037   3.355  1.00  0.00     0.029 A 
ATOM     61  C   UNL     1      -1.536  -9.115   3.488  1.00  0.00     0.049 A 
ATOM     62  H   UNL     1      -1.716 -10.415   5.120  1.00  0.00     0.167 HD
ATOM     63  C   UNL     1      -2.664 -12.359   8.942  1.00  0.00     0.034 A 
ATOM     64  C   UNL     1      -2.480  -9.554   2.609  1.00  0.00     0.034 A 
ATOM     65  C   UNL     1      -1.836 -13.341   8.268  1.00  0.00     0.049 A 
ATOM     66  C   UNL     1      -2.807 -10.945   3.023  1.00  0.00     0.074 A 
ATOM     67  C   UNL     1      -0.533 -13.777   8.430  1.00  0.00     0.029 A 
ATOM     68  N   UNL     1      -2.186 -13.714   6.987  1.00  0.00    -0.354 N 
ATOM     69  N   UNL     1      -1.933 -11.918   2.990  1.00  0.00    -0.248 NA
ATOM     70  C   UNL     1      -3.898 -11.132   3.969  1.00  0.00     0.031 C 
ATOM     71  C   UNL     1      -0.017 -13.872   7.103  1.00  0.00     0.029 A 
ATOM     72  C   UNL     1      -1.057 -13.607   6.208  1.00  0.00     0.049 A 
ATOM     73  H   UNL     1      -3.077 -14.003   6.685  1.00  0.00     0.167 HD
ATOM     74  C   UNL     1      -2.103 -12.599   4.187  1.00  0.00     0.074 A 
ATOM     75  C   UNL     1      -3.386 -12.121   4.710  1.00  0.00     0.031 C 
ATOM     76  C   UNL     1      -1.067 -13.251   4.798  1.00  0.00     0.034 A 
BRANCH  63  77
ATOM     77  C   UNL     1      -4.134 -12.607   9.206  1.00  0.00     0.023 A 
ATOM     78  C   UNL     1      -4.567 -13.946   9.174  1.00  0.00     0.031 A 
ATOM     79  C   UNL     1      -5.158 -11.633   9.198  1.00  0.00     0.131 A 
ATOM     80  C   UNL     1      -5.926 -14.264   9.015  1.00  0.00     0.055 A 
ATOM     81  C   UNL     1      -6.516 -11.957   9.112  1.00  0.00     0.041 A 
ATOM     82  F   UNL     1      -4.915 -10.319   9.177  1.00  0.00    -0.206 F 
ATOM     83  C   UNL     1      -6.906 -13.278   8.982  1.00  0.00     0.022 A 
BRANCH  80  84
ATOM     84  S   UNL     1      -6.362 -15.984   8.655  1.00  0.00     0.124 S 
ATOM     85  O   UNL     1      -5.520 -16.261   7.496  1.00  0.00    -0.237 OA
ATOM     86  O   UNL     1      -5.991 -16.653   9.897  1.00  0.00    -0.237 OA
ATOM     87  O   UNL     1      -7.796 -15.919   8.384  1.00  0.00    -0.744 OA
ENDBRANCH  80  84
ENDBRANCH  63  77
BRANCH  64  88
ATOM     88  C   UNL     1      -3.337  -8.714   1.714  1.00  0.00     0.023 A 
ATOM     89  C   UNL     1      -4.065  -9.227   0.614  1.00  0.00     0.031 A 
ATOM     90  C   UNL     1      -3.635  -7.383   2.092  1.00  0.00     0.131 A 
ATOM     91  C   UNL     1      -5.028  -8.421  -0.050  1.00  0.00     0.055 A 
ATOM     92  C   UNL     1      -4.586  -6.596   1.437  1.00  0.00     0.041 A 
ATOM     93  F   UNL     1      -3.067  -6.823   3.171  1.00  0.00    -0.206 F 
ATOM     94  C   UNL     1      -5.294  -7.115   0.367  1.00  0.00     0.022 A 
BRANCH  91  95
ATOM     95  S   UNL     1      -6.019  -9.083  -1.435  1.00  0.00     0.124 S 
ATOM     96  O   UNL     1      -5.014  -9.265  -2.476  1.00  0.00    -0.237 OA
ATOM     97  O   UNL     1      -6.589 -10.296  -0.863  1.00  0.00    -0.237 OA
ATOM     98  O   UNL     1      -6.989  -8.019  -1.702  1.00  0.00    -0.744 OA
ENDBRANCH  91  95
ENDBRANCH  64  88
BRANCH  76  99
ATOM     99  C   UNL     1       0.234 -13.448   4.036  1.00  0.00     0.023 A 
ATOM    100  C   UNL     1       1.028 -12.413   3.487  1.00  0.00     0.031 A 
ATOM    101  C   UNL     1       0.757 -14.754   3.996  1.00  0.00     0.131 A 
ATOM    102  C   UNL     1       2.289 -12.710   2.924  1.00  0.00     0.055 A 
ATOM    103  C   UNL     1       2.013 -15.039   3.462  1.00  0.00     0.041 A 
ATOM    104  F   UNL     1       0.067 -15.780   4.522  1.00  0.00    -0.206 F 
ATOM    105  C   UNL     1       2.782 -14.018   2.919  1.00  0.00     0.022 A 
BRANCH 102 106
ATOM    106  S   UNL     1       3.313 -11.401   2.170  1.00  0.00     0.124 S 
ATOM    107  O   UNL     1       2.382 -10.699   1.296  1.00  0.00    -0.237 OA
ATOM    108  O   UNL     1       3.784 -10.653   3.333  1.00  0.00    -0.237 OA
ATOM    109  O   UNL     1       4.359 -12.149   1.468  1.00  0.00    -0.744 OA
ENDBRANCH 102 106
ENDBRANCH  76  99
ENDBRANCH  50  51
ENDBRANCH  42  45
ENDBRANCH  40  41
ENDBRANCH  39  40
ENDBRANCH  38  39
ENDBRANCH   1  38
TORSDOF 20
