REMARK SMILES Cc1ccccc1C(=O)Nc1cc(NC(=O)c2ccccc2C)cc(C(=O)NCCCCNC(=O)c2ccc(-c3c4nc(c(-c5cc(S(=O)(=O)[O-])ccc5F)c5ccc([nH]5)c(-c5cc(S(=O)(=O)[O-])ccc5F)c5nc(c(-c6cc(S(=O)(=O)[O-])ccc6F)c6ccc3[nH]6)C=C5)C=C4)cc2)c1
REMARK SMILES IDX 31 1 30 2 29 3 28 4 26 5 27 6 25 8 11 9 12 10 99 11 13 12
REMARK SMILES IDX 24 13 10 14 8 15 9 16 7 18 1 19 2 20 3 21 4 22 6 23 5 24
REMARK SMILES IDX 14 25 15 26 16 28 17 29 18 30 22 31 19 32 21 33 23 34 20 35
REMARK SMILES IDX 32 36 33 37 34 38 35 40 36 41 37 42 98 43 38 44 97 45 39 46
REMARK SMILES IDX 40 47 41 48 91 49 42 50 96 51 90 52 92 53 43 54 95 55 89 56
REMARK SMILES IDX 88 57 44 59 76 60 56 61 75 62 57 63 60 64 74 65 93 66 58 67
REMARK SMILES IDX 59 68 73 70 94 71 61 72 45 73 46 74 54 75 47 76 53 77 55 78
REMARK SMILES IDX 52 79 48 80 49 81 50 82 51 83 77 84 78 85 86 86 79 87 85 88
REMARK SMILES IDX 87 89 84 90 80 91 81 92 82 93 83 94 62 95 63 96 71 97 64 98
REMARK SMILES IDX 70 99 72 100 69 101 65 102 66 103 67 104 68 105
REMARK H PARENT 28 7 10 17 14 27 33 39 92 58 60 69
REMARK Flexibility Score: inf
ROOT
ATOM      1  C   UNL     1       9.412  -2.949   0.021  1.00  0.00     0.023 C 
ENDROOT
BRANCH   1   2
ATOM      2  C   UNL     1       7.951  -2.825  -0.427  1.00  0.00     0.023 C 
BRANCH   2   3
ATOM      3  C   UNL     1       6.940  -2.857   0.727  1.00  0.00     0.116 C 
BRANCH   3   4
ATOM      4  N   UNL     1       6.884  -1.591   1.449  1.00  0.00    -0.352 N 
ATOM      5  C   UNL     1       6.100  -0.469   1.422  1.00  0.00     0.251 C 
ATOM      6  O   UNL     1       6.412   0.427   2.213  1.00  0.00    -0.269 OA
ATOM      7  H   UNL     1       7.592  -1.527   2.131  1.00  0.00     0.163 HD
BRANCH   5   8
ATOM      8  C   UNL     1       4.923  -0.236   0.532  1.00  0.00     0.043 A 
ATOM      9  C   UNL     1       3.066   1.245  -0.017  1.00  0.00     0.044 A 
ATOM     10  C   UNL     1       2.625   0.353  -0.994  1.00  0.00     0.052 A 
ATOM     11  C   UNL     1       4.268   1.003   0.657  1.00  0.00     0.040 A 
ATOM     12  C   UNL     1       3.287  -0.858  -1.165  1.00  0.00     0.044 A 
ATOM     13  C   UNL     1       4.380  -1.165  -0.350  1.00  0.00     0.040 A 
BRANCH   9  14
ATOM     14  N   UNL     1       2.289   2.327   0.428  1.00  0.00    -0.322 N 
ATOM     15  C   UNL     1       0.917   2.410   0.584  1.00  0.00     0.255 C 
ATOM     16  O   UNL     1       0.409   3.494   0.875  1.00  0.00    -0.269 OA
ATOM     17  H   UNL     1       2.791   3.141   0.662  1.00  0.00     0.170 HD
BRANCH  15  18
ATOM     18  C   UNL     1       0.029   1.218   0.449  1.00  0.00     0.043 A 
ATOM     19  C   UNL     1       1.313  -0.324   2.082  1.00  0.00     0.045 C 
ATOM     20  C   UNL     1       0.240  -0.033   1.069  1.00  0.00    -0.038 A 
ATOM     21  C   UNL     1      -0.620  -1.099   0.746  1.00  0.00     0.004 A 
ATOM     22  C   UNL     1      -1.724  -0.908  -0.084  1.00  0.00     0.000 A 
ATOM     23  C   UNL     1      -1.116   1.409  -0.345  1.00  0.00     0.014 A 
ATOM     24  C   UNL     1      -1.992   0.353  -0.603  1.00  0.00     0.001 A 
ENDBRANCH  15  18
ENDBRANCH   9  14
BRANCH  12  25
ATOM     25  N   UNL     1       2.908  -1.848  -2.085  1.00  0.00    -0.322 N 
ATOM     26  C   UNL     1       2.260  -1.760  -3.291  1.00  0.00     0.255 C 
ATOM     27  H   UNL     1       3.149  -2.764  -1.819  1.00  0.00     0.170 HD
ATOM     28  O   UNL     1       1.850  -2.772  -3.855  1.00  0.00    -0.269 OA
BRANCH  26  29
ATOM     29  C   UNL     1       2.089  -0.465  -3.983  1.00  0.00     0.043 A 
ATOM     30  C   UNL     1       0.781  -0.181  -4.405  1.00  0.00     0.014 A 
ATOM     31  C   UNL     1       3.144   0.419  -4.283  1.00  0.00    -0.038 A 
ATOM     32  C   UNL     1       0.499   1.009  -5.068  1.00  0.00     0.001 A 
ATOM     33  C   UNL     1       2.831   1.630  -4.923  1.00  0.00     0.004 A 
ATOM     34  C   UNL     1       4.587   0.153  -3.950  1.00  0.00     0.045 C 
ATOM     35  C   UNL     1       1.522   1.921  -5.312  1.00  0.00     0.000 A 
ENDBRANCH  26  29
ENDBRANCH  12  25
ENDBRANCH   5   8
ENDBRANCH   3   4
ENDBRANCH   2   3
ENDBRANCH   1   2
BRANCH   1  36
ATOM     36  C   UNL     1       9.741  -4.260   0.727  1.00  0.00     0.116 C 
BRANCH  36  37
ATOM     37  N   UNL     1      10.068  -5.390  -0.122  1.00  0.00    -0.352 N 
ATOM     38  C   UNL     1      10.327  -6.709   0.238  1.00  0.00     0.251 C 
ATOM     39  H   UNL     1      10.113  -5.197  -1.087  1.00  0.00     0.163 HD
ATOM     40  O   UNL     1      10.825  -7.479  -0.563  1.00  0.00    -0.269 OA
BRANCH  38  41
ATOM     41  C   UNL     1       9.888  -7.212   1.573  1.00  0.00     0.039 A 
ATOM     42  C   UNL     1       9.252  -8.462   1.623  1.00  0.00     0.014 A 
ATOM     43  C   UNL     1       9.899  -6.401   2.700  1.00  0.00     0.014 A 
ATOM     44  C   UNL     1       8.424  -8.773   2.702  1.00  0.00     0.010 A 
ATOM     45  C   UNL     1       8.982  -6.642   3.700  1.00  0.00     0.010 A 
ATOM     46  C   UNL     1       8.203  -7.801   3.671  1.00  0.00    -0.014 A 
BRANCH  46  47
ATOM     47  C   UNL     1       7.118  -7.830   4.643  1.00  0.00     0.031 A 
ATOM     48  C   UNL     1       7.413  -7.994   6.078  1.00  0.00     0.074 A 
ATOM     49  C   UNL     1       5.873  -7.504   4.234  1.00  0.00     0.049 A 
ATOM     50  N   UNL     1       6.534  -8.249   6.983  1.00  0.00    -0.248 NA
ATOM     51  C   UNL     1       8.769  -7.928   6.606  1.00  0.00     0.031 C 
ATOM     52  C   UNL     1       4.738  -7.095   5.056  1.00  0.00     0.029 A 
ATOM     53  N   UNL     1       5.324  -7.735   2.975  1.00  0.00    -0.354 N 
ATOM     54  C   UNL     1       7.128  -8.066   8.211  1.00  0.00     0.074 A 
ATOM     55  C   UNL     1       8.536  -7.967   7.919  1.00  0.00     0.031 C 
ATOM     56  C   UNL     1       3.604  -7.347   4.384  1.00  0.00     0.029 A 
ATOM     57  C   UNL     1       3.975  -8.074   3.184  1.00  0.00     0.049 A 
ATOM     58  H   UNL     1       5.789  -7.673   2.109  1.00  0.00     0.167 HD
ATOM     59  C   UNL     1       6.328  -7.877   9.301  1.00  0.00     0.034 A 
ATOM     60  C   UNL     1       3.521  -9.319   2.856  1.00  0.00     0.034 A 
ATOM     61  C   UNL     1       4.921  -8.140   8.967  1.00  0.00     0.049 A 
ATOM     62  C   UNL     1       2.985 -10.096   4.037  1.00  0.00     0.074 A 
ATOM     63  C   UNL     1       3.822  -7.328   8.740  1.00  0.00     0.029 A 
ATOM     64  N   UNL     1       4.557  -9.413   8.533  1.00  0.00    -0.354 N 
ATOM     65  N   UNL     1       3.237  -9.815   5.288  1.00  0.00    -0.248 NA
ATOM     66  C   UNL     1       2.106 -11.247   3.892  1.00  0.00     0.031 C 
ATOM     67  C   UNL     1       2.816  -8.115   8.111  1.00  0.00     0.029 A 
ATOM     68  C   UNL     1       3.288  -9.411   7.986  1.00  0.00     0.049 A 
ATOM     69  H   UNL     1       5.129 -10.211   8.607  1.00  0.00     0.167 HD
ATOM     70  C   UNL     1       2.585 -10.706   6.108  1.00  0.00     0.074 A 
ATOM     71  C   UNL     1       1.877 -11.570   5.176  1.00  0.00     0.031 C 
ATOM     72  C   UNL     1       2.696 -10.646   7.474  1.00  0.00     0.034 A 
BRANCH  59  73
ATOM     73  C   UNL     1       6.762  -7.182  10.584  1.00  0.00     0.023 A 
ATOM     74  C   UNL     1       5.778  -6.580  11.401  1.00  0.00     0.031 A 
ATOM     75  C   UNL     1       8.087  -6.997  11.030  1.00  0.00     0.131 A 
ATOM     76  C   UNL     1       6.121  -5.777  12.509  1.00  0.00     0.055 A 
ATOM     77  C   UNL     1       8.432  -6.169  12.108  1.00  0.00     0.041 A 
ATOM     78  F   UNL     1       9.122  -7.645  10.491  1.00  0.00    -0.206 F 
ATOM     79  C   UNL     1       7.448  -5.542  12.848  1.00  0.00     0.022 A 
BRANCH  76  80
ATOM     80  S   UNL     1       4.803  -5.029  13.506  1.00  0.00     0.124 S 
ATOM     81  O   UNL     1       4.126  -4.178  12.533  1.00  0.00    -0.237 OA
ATOM     82  O   UNL     1       4.065  -6.198  13.971  1.00  0.00    -0.237 OA
ATOM     83  O   UNL     1       5.534  -4.310  14.549  1.00  0.00    -0.744 OA
ENDBRANCH  76  80
ENDBRANCH  59  73
BRANCH  60  84
ATOM     84  C   UNL     1       4.213  -9.886   1.661  1.00  0.00     0.023 A 
ATOM     85  C   UNL     1       4.157  -9.112   0.480  1.00  0.00     0.031 A 
ATOM     86  C   UNL     1       5.232 -10.841   1.770  1.00  0.00     0.131 A 
ATOM     87  C   UNL     1       5.211  -9.155  -0.442  1.00  0.00     0.055 A 
ATOM     88  C   UNL     1       6.233 -10.948   0.793  1.00  0.00     0.041 A 
ATOM     89  F   UNL     1       5.358 -11.584   2.879  1.00  0.00    -0.206 F 
ATOM     90  C   UNL     1       6.255 -10.068  -0.292  1.00  0.00     0.022 A 
BRANCH  87  91
ATOM     91  S   UNL     1       5.334  -7.801  -1.651  1.00  0.00     0.124 S 
ATOM     92  O   UNL     1       4.365  -8.210  -2.661  1.00  0.00    -0.237 OA
ATOM     93  O   UNL     1       4.972  -6.627  -0.855  1.00  0.00    -0.237 OA
ATOM     94  O   UNL     1       6.733  -7.835  -2.068  1.00  0.00    -0.744 OA
ENDBRANCH  87  91
ENDBRANCH  60  84
BRANCH  72  95
ATOM     95  C   UNL     1       2.205 -11.685   8.479  1.00  0.00     0.023 A 
ATOM     96  C   UNL     1       1.610 -12.903   8.125  1.00  0.00     0.031 A 
ATOM     97  C   UNL     1       2.370 -11.492   9.877  1.00  0.00     0.131 A 
ATOM     98  C   UNL     1       1.157 -13.820   9.095  1.00  0.00     0.055 A 
ATOM     99  C   UNL     1       1.978 -12.430  10.840  1.00  0.00     0.041 A 
ATOM    100  F   UNL     1       2.937 -10.387  10.383  1.00  0.00    -0.206 F 
ATOM    101  C   UNL     1       1.353 -13.601  10.453  1.00  0.00     0.022 A 
BRANCH  98 102
ATOM    102  S   UNL     1       0.258 -15.288   8.527  1.00  0.00     0.124 S 
ATOM    103  O   UNL     1      -0.906 -14.694   7.874  1.00  0.00    -0.237 OA
ATOM    104  O   UNL     1       1.226 -15.921   7.637  1.00  0.00    -0.237 OA
ATOM    105  O   UNL     1      -0.025 -16.019   9.759  1.00  0.00    -0.744 OA
ENDBRANCH  98 102
ENDBRANCH  72  95
ENDBRANCH  46  47
ENDBRANCH  38  41
ENDBRANCH  36  37
ENDBRANCH   1  36
TORSDOF 18
