REMARK SMILES Nc1nc2ccccc2nc1N1CCC(C(=O)NCCCCNC(=O)c2ccc(-c3c4nc(c(-c5cc(S(=O)(=O)[O-])ccc5F)c5ccc([nH]5)c(-c5cc(S(=O)(=O)[O-])ccc5F)c5nc(c(-c6cc(S(=O)(=O)[O-])ccc6F)c6ccc3[nH]6)C=C5)C=C4)cc2)CC1
REMARK SMILES IDX 21 1 20 2 19 3 18 4 16 5 17 6 15 8 12 9 13 10 90 11 14 12
REMARK SMILES IDX 89 13 11 14 2 15 3 16 4 17 10 18 5 19 9 20 6 21 8 22 7 23
REMARK SMILES IDX 1 24 22 27 23 28 24 29 25 31 26 32 27 33 88 34 28 35 87 36
REMARK SMILES IDX 29 37 30 38 31 39 81 40 32 41 86 42 80 43 82 44 33 45 85 46
REMARK SMILES IDX 79 47 78 48 34 50 66 51 46 52 65 53 47 54 50 55 64 56 83 57
REMARK SMILES IDX 48 58 49 59 63 61 84 62 51 63 35 64 36 65 44 66 37 67 43 68
REMARK SMILES IDX 45 69 42 70 38 71 39 72 40 73 41 74 67 75 68 76 76 77 69 78
REMARK SMILES IDX 75 79 77 80 74 81 70 82 71 83 72 84 73 85 52 86 53 87 61 88
REMARK SMILES IDX 54 89 60 90 62 91 59 92 55 93 56 94 57 95 58 96
REMARK H PARENT 18 7 1 25 1 26 23 30 82 49 50 60
REMARK Flexibility Score: inf
ROOT
ATOM      1  C   UNL     1       0.728  -7.745   4.064  1.00  0.00     0.023 C 
ENDROOT
BRANCH   1   2
ATOM      2  C   UNL     1       0.885  -6.518   3.172  1.00  0.00     0.023 C 
BRANCH   2   3
ATOM      3  C   UNL     1       0.929  -5.184   3.914  1.00  0.00     0.116 C 
BRANCH   3   4
ATOM      4  N   UNL     1       2.116  -5.048   4.745  1.00  0.00    -0.356 N 
ATOM      5  C   UNL     1       3.190  -4.217   4.632  1.00  0.00     0.223 C 
ATOM      6  O   UNL     1       4.071  -4.286   5.493  1.00  0.00    -0.275 OA
ATOM      7  H   UNL     1       2.149  -5.658   5.517  1.00  0.00     0.163 HD
BRANCH   5   8
ATOM      8  C   UNL     1       3.311  -3.211   3.496  1.00  0.00     0.082 C 
ATOM      9  N   UNL     1       2.105  -2.048   1.196  1.00  0.00    -0.353 N 
ATOM     10  C   UNL     1       3.190  -2.976   0.956  1.00  0.00     0.119 C 
ATOM     11  C   UNL     1       2.151  -1.225   2.392  1.00  0.00     0.119 C 
ATOM     12  C   UNL     1       3.382  -3.913   2.134  1.00  0.00     0.035 C 
ATOM     13  C   UNL     1       2.253  -2.105   3.631  1.00  0.00     0.035 C 
BRANCH   9  14
ATOM     14  C   UNL     1       0.922  -2.158   0.479  1.00  0.00     0.172 A 
ATOM     15  C   UNL     1       0.351  -1.017  -0.148  1.00  0.00     0.167 A 
ATOM     16  N   UNL     1      -0.780  -1.073  -0.875  1.00  0.00    -0.226 NA
ATOM     17  C   UNL     1      -1.350  -2.281  -0.999  1.00  0.00     0.091 A 
ATOM     18  N   UNL     1       0.350  -3.376   0.328  1.00  0.00    -0.225 NA
ATOM     19  C   UNL     1      -2.514  -2.393  -1.749  1.00  0.00     0.031 A 
ATOM     20  C   UNL     1      -0.792  -3.436  -0.394  1.00  0.00     0.091 A 
ATOM     21  C   UNL     1      -3.161  -3.617  -1.910  1.00  0.00     0.002 A 
ATOM     22  C   UNL     1      -1.454  -4.650  -0.558  1.00  0.00     0.031 A 
ATOM     23  C   UNL     1      -2.631  -4.750  -1.306  1.00  0.00     0.002 A 
BRANCH  15  24
ATOM     24  N   UNL     1       0.943   0.240  -0.058  1.00  0.00    -0.381 N 
ATOM     25  H   UNL     1       0.526   1.013  -0.503  1.00  0.00     0.158 HD
ATOM     26  H   UNL     1       1.778   0.356   0.450  1.00  0.00     0.158 HD
ENDBRANCH  15  24
ENDBRANCH   9  14
ENDBRANCH   5   8
ENDBRANCH   3   4
ENDBRANCH   2   3
ENDBRANCH   1   2
BRANCH   1  27
ATOM     27  C   UNL     1      -0.471  -7.716   5.001  1.00  0.00     0.116 C 
BRANCH  27  28
ATOM     28  N   UNL     1      -1.748  -7.572   4.314  1.00  0.00    -0.352 N 
ATOM     29  C   UNL     1      -2.936  -8.221   4.574  1.00  0.00     0.251 C 
ATOM     30  H   UNL     1      -1.764  -6.930   3.568  1.00  0.00     0.163 HD
ATOM     31  O   UNL     1      -3.903  -8.064   3.835  1.00  0.00    -0.269 OA
BRANCH  29  32
ATOM     32  C   UNL     1      -3.006  -9.146   5.726  1.00  0.00     0.039 A 
ATOM     33  C   UNL     1      -2.500  -8.758   6.967  1.00  0.00     0.014 A 
ATOM     34  C   UNL     1      -3.495 -10.442   5.539  1.00  0.00     0.014 A 
ATOM     35  C   UNL     1      -2.296  -9.717   7.950  1.00  0.00     0.010 A 
ATOM     36  C   UNL     1      -3.378 -11.382   6.569  1.00  0.00     0.010 A 
ATOM     37  C   UNL     1      -2.719 -11.045   7.761  1.00  0.00    -0.014 A 
BRANCH  37  38
ATOM     38  C   UNL     1      -2.442 -12.041   8.832  1.00  0.00     0.031 A 
ATOM     39  C   UNL     1      -1.501 -13.196   8.601  1.00  0.00     0.074 A 
ATOM     40  C   UNL     1      -2.960 -11.830  10.059  1.00  0.00     0.049 A 
ATOM     41  N   UNL     1      -1.044 -14.066   9.465  1.00  0.00    -0.248 NA
ATOM     42  C   UNL     1      -1.011 -13.406   7.229  1.00  0.00     0.031 C 
ATOM     43  C   UNL     1      -3.883 -10.745  10.395  1.00  0.00     0.029 A 
ATOM     44  N   UNL     1      -2.748 -12.469  11.254  1.00  0.00    -0.354 N 
ATOM     45  C   UNL     1      -0.221 -14.928   8.746  1.00  0.00     0.074 A 
ATOM     46  C   UNL     1      -0.273 -14.501   7.366  1.00  0.00     0.031 C 
ATOM     47  C   UNL     1      -4.080 -10.733  11.720  1.00  0.00     0.029 A 
ATOM     48  C   UNL     1      -3.356 -11.849  12.322  1.00  0.00     0.049 A 
ATOM     49  H   UNL     1      -2.214 -13.291  11.340  1.00  0.00     0.167 HD
ATOM     50  C   UNL     1       0.523 -15.965   9.200  1.00  0.00     0.034 A 
ATOM     51  C   UNL     1      -3.325 -12.133  13.640  1.00  0.00     0.034 A 
ATOM     52  C   UNL     1       0.583 -16.372  10.582  1.00  0.00     0.049 A 
ATOM     53  C   UNL     1      -2.501 -13.302  14.111  1.00  0.00     0.074 A 
ATOM     54  C   UNL     1       1.312 -17.408  11.139  1.00  0.00     0.029 A 
ATOM     55  N   UNL     1      -0.097 -15.760  11.626  1.00  0.00    -0.354 N 
ATOM     56  N   UNL     1      -1.706 -14.084  13.419  1.00  0.00    -0.248 NA
ATOM     57  C   UNL     1      -2.572 -13.632  15.541  1.00  0.00     0.031 C 
ATOM     58  C   UNL     1       1.040 -17.452  12.507  1.00  0.00     0.029 A 
ATOM     59  C   UNL     1       0.183 -16.409  12.818  1.00  0.00     0.049 A 
ATOM     60  H   UNL     1      -0.690 -14.980  11.533  1.00  0.00     0.167 HD
ATOM     61  C   UNL     1      -1.179 -14.995  14.331  1.00  0.00     0.074 A 
ATOM     62  C   UNL     1      -1.709 -14.635  15.630  1.00  0.00     0.031 C 
ATOM     63  C   UNL     1      -0.348 -16.043  14.109  1.00  0.00     0.034 A 
BRANCH  50  64
ATOM     64  C   UNL     1       1.365 -16.738   8.214  1.00  0.00     0.023 A 
ATOM     65  C   UNL     1       1.095 -18.096   7.963  1.00  0.00     0.031 A 
ATOM     66  C   UNL     1       2.513 -16.169   7.634  1.00  0.00     0.131 A 
ATOM     67  C   UNL     1       1.982 -18.850   7.183  1.00  0.00     0.055 A 
ATOM     68  C   UNL     1       3.374 -16.915   6.828  1.00  0.00     0.041 A 
ATOM     69  F   UNL     1       2.811 -14.876   7.842  1.00  0.00    -0.206 F 
ATOM     70  C   UNL     1       3.117 -18.265   6.610  1.00  0.00     0.022 A 
BRANCH  67  71
ATOM     71  S   UNL     1       1.731 -20.628   6.925  1.00  0.00     0.124 S 
ATOM     72  O   UNL     1       1.717 -20.721   5.466  1.00  0.00    -0.237 OA
ATOM     73  O   UNL     1       2.906 -21.199   7.575  1.00  0.00    -0.237 OA
ATOM     74  O   UNL     1       0.453 -20.899   7.575  1.00  0.00    -0.744 OA
ENDBRANCH  67  71
ENDBRANCH  50  64
BRANCH  51  75
ATOM     75  C   UNL     1      -4.052 -11.251  14.600  1.00  0.00     0.023 A 
ATOM     76  C   UNL     1      -5.444 -11.073  14.515  1.00  0.00     0.031 A 
ATOM     77  C   UNL     1      -3.348 -10.502  15.559  1.00  0.00     0.131 A 
ATOM     78  C   UNL     1      -6.077 -10.122  15.325  1.00  0.00     0.055 A 
ATOM     79  C   UNL     1      -3.994  -9.609  16.416  1.00  0.00     0.041 A 
ATOM     80  F   UNL     1      -2.017 -10.627  15.671  1.00  0.00    -0.206 F 
ATOM     81  C   UNL     1      -5.364  -9.401  16.287  1.00  0.00     0.022 A 
BRANCH  78  82
ATOM     82  S   UNL     1      -7.817  -9.685  15.050  1.00  0.00     0.124 S 
ATOM     83  O   UNL     1      -8.449 -10.181  16.268  1.00  0.00    -0.237 OA
ATOM     84  O   UNL     1      -7.747  -8.231  14.921  1.00  0.00    -0.237 OA
ATOM     85  O   UNL     1      -8.158 -10.396  13.822  1.00  0.00    -0.744 OA
ENDBRANCH  78  82
ENDBRANCH  51  75
BRANCH  63  86
ATOM     86  C   UNL     1       0.037 -16.906  15.286  1.00  0.00     0.023 A 
ATOM     87  C   UNL     1       1.379 -16.987  15.702  1.00  0.00     0.031 A 
ATOM     88  C   UNL     1      -0.907 -17.734  15.918  1.00  0.00     0.131 A 
ATOM     89  C   UNL     1       1.742 -17.891  16.709  1.00  0.00     0.055 A 
ATOM     90  C   UNL     1      -0.548 -18.603  16.948  1.00  0.00     0.041 A 
ATOM     91  F   UNL     1      -2.198 -17.701  15.548  1.00  0.00    -0.206 F 
ATOM     92  C   UNL     1       0.785 -18.693  17.339  1.00  0.00     0.022 A 
BRANCH  89  93
ATOM     93  S   UNL     1       3.479 -18.121  17.181  1.00  0.00     0.124 S 
ATOM     94  O   UNL     1       3.484 -17.625  18.555  1.00  0.00    -0.237 OA
ATOM     95  O   UNL     1       3.651 -19.564  17.038  1.00  0.00    -0.237 OA
ATOM     96  O   UNL     1       4.215 -17.306  16.221  1.00  0.00    -0.744 OA
ENDBRANCH  89  93
ENDBRANCH  63  86
ENDBRANCH  37  38
ENDBRANCH  29  32
ENDBRANCH  27  28
ENDBRANCH   1  27
TORSDOF 16
