REMARK SMILES CC[C@@]1(CC(=O)NCCCCNC(=O)c2ccc(-c3c4nc(c(-c5cc(S(=O)(=O)[O-])ccc5F)c5ccc([nH]5)c(-c5cc(S(=O)(=O)[O-])ccc5F)c5nc(c(-c6cc(S(=O)(=O)[O-])ccc6F)c6ccc3[nH]6)C=C5)C=C4)cc2)OC[C@H](Cc2ccccc2)c2c1[nH]c1ccccc21
REMARK SMILES IDX 9 1 8 2 7 3 5 4 6 5 4 7 3 8 78 9 89 10 79 11 88 12 90 13
REMARK SMILES IDX 80 14 96 15 91 16 95 18 92 19 94 20 93 21 2 22 1 23 81 24
REMARK SMILES IDX 82 25 83 26 87 27 84 28 86 29 85 30 10 31 11 32 12 33 13 34
REMARK SMILES IDX 14 36 15 37 16 38 77 39 17 40 76 41 18 42 19 43 20 44 70 45
REMARK SMILES IDX 21 46 75 47 69 48 71 49 22 50 74 51 68 52 67 53 23 55 55 56
REMARK SMILES IDX 35 57 54 58 36 59 39 60 53 61 72 62 37 63 38 64 52 66 73 67
REMARK SMILES IDX 40 68 24 69 25 70 33 71 26 72 32 73 34 74 31 75 27 76 28 77
REMARK SMILES IDX 29 78 30 79 56 80 57 81 65 82 58 83 64 84 66 85 63 86 59 87
REMARK SMILES IDX 60 88 61 89 62 90 41 91 42 92 50 93 43 94 49 95 51 96 48 97
REMARK SMILES IDX 44 98 45 99 46 100 47 101
REMARK H PARENT 7 6 90 17 12 35 71 54 39 65
REMARK Flexibility Score: inf
ROOT
ATOM      1  C   UNL     1      -2.359   2.327   1.251  1.00  0.00     0.023 C 
ENDROOT
BRANCH   1   2
ATOM      2  C   UNL     1      -2.249   0.994   0.524  1.00  0.00     0.116 C 
BRANCH   2   3
ATOM      3  N   UNL     1      -1.007   0.923  -0.228  1.00  0.00    -0.356 N 
ATOM      4  C   UNL     1       0.167   0.284   0.043  1.00  0.00     0.223 C 
ATOM      5  O   UNL     1       1.102   0.488  -0.733  1.00  0.00    -0.275 OA
ATOM      6  H   UNL     1      -1.014   1.422  -1.077  1.00  0.00     0.163 HD
BRANCH   4   7
ATOM      7  C   UNL     1       0.289  -0.714   1.187  1.00  0.00     0.142 C 
BRANCH   7   8
ATOM      8  C   UNL     1       0.974  -0.259   2.499  1.00  0.00     0.117 C 
ATOM      9  O   UNL     1       0.670  -1.231   3.557  1.00  0.00    -0.368 OA
ATOM     10  C   UNL     1       0.459   1.041   3.046  1.00  0.00     0.052 A 
ATOM     11  C   UNL     1      -0.695  -1.302   4.000  1.00  0.00     0.170 C 
ATOM     12  C   UNL     1      -0.561   1.200   3.971  1.00  0.00    -0.011 A 
ATOM     13  N   UNL     1       0.945   2.285   2.741  1.00  0.00    -0.356 N 
ATOM     14  C   UNL     1      -1.282   0.019   4.569  1.00  0.00     0.052 C 
ATOM     15  C   UNL     1      -0.755   2.606   4.158  1.00  0.00     0.003 A 
ATOM     16  C   UNL     1       0.180   3.256   3.348  1.00  0.00     0.046 A 
ATOM     17  H   UNL     1       1.728   2.460   2.171  1.00  0.00     0.166 HD
ATOM     18  C   UNL     1      -1.677   3.399   4.874  1.00  0.00     0.010 A 
ATOM     19  C   UNL     1       0.222   4.648   3.198  1.00  0.00     0.026 A 
ATOM     20  C   UNL     1      -1.677   4.790   4.700  1.00  0.00     0.001 A 
ATOM     21  C   UNL     1      -0.743   5.402   3.870  1.00  0.00     0.002 A 
BRANCH   8  22
ATOM     22  C   UNL     1       2.530  -0.308   2.462  1.00  0.00     0.039 C 
ATOM     23  C   UNL     1       3.243   0.215   1.226  1.00  0.00     0.007 C 
ENDBRANCH   8  22
BRANCH  14  24
ATOM     24  C   UNL     1      -2.809   0.077   4.327  1.00  0.00     0.046 C 
BRANCH  24  25
ATOM     25  C   UNL     1      -3.611  -1.105   4.817  1.00  0.00    -0.047 A 
ATOM     26  C   UNL     1      -3.874  -1.266   6.181  1.00  0.00     0.004 A 
ATOM     27  C   UNL     1      -4.150  -2.026   3.905  1.00  0.00     0.004 A 
ATOM     28  C   UNL     1      -4.667  -2.327   6.624  1.00  0.00     0.000 A 
ATOM     29  C   UNL     1      -4.938  -3.087   4.350  1.00  0.00     0.000 A 
ATOM     30  C   UNL     1      -5.198  -3.236   5.710  1.00  0.00     0.000 A 
ENDBRANCH  24  25
ENDBRANCH  14  24
ENDBRANCH   7   8
ENDBRANCH   4   7
ENDBRANCH   2   3
ENDBRANCH   1   2
BRANCH   1  31
ATOM     31  C   UNL     1      -3.326   3.355   0.678  1.00  0.00     0.023 C 
BRANCH  31  32
ATOM     32  C   UNL     1      -4.813   3.009   0.803  1.00  0.00     0.116 C 
BRANCH  32  33
ATOM     33  N   UNL     1      -5.206   2.467   2.091  1.00  0.00    -0.352 N 
ATOM     34  C   UNL     1      -5.888   2.977   3.164  1.00  0.00     0.251 C 
ATOM     35  H   UNL     1      -4.922   1.534   2.221  1.00  0.00     0.163 HD
ATOM     36  O   UNL     1      -6.301   2.156   3.986  1.00  0.00    -0.269 OA
BRANCH  34  37
ATOM     37  C   UNL     1      -6.115   4.422   3.422  1.00  0.00     0.039 A 
ATOM     38  C   UNL     1      -5.332   5.438   2.879  1.00  0.00     0.014 A 
ATOM     39  C   UNL     1      -7.071   4.754   4.399  1.00  0.00     0.014 A 
ATOM     40  C   UNL     1      -5.436   6.740   3.358  1.00  0.00     0.010 A 
ATOM     41  C   UNL     1      -7.189   6.060   4.873  1.00  0.00     0.010 A 
ATOM     42  C   UNL     1      -6.329   7.042   4.391  1.00  0.00    -0.014 A 
BRANCH  42  43
ATOM     43  C   UNL     1      -6.312   8.409   4.912  1.00  0.00     0.031 A 
ATOM     44  C   UNL     1      -6.666   9.485   3.942  1.00  0.00     0.074 A 
ATOM     45  C   UNL     1      -6.076   8.716   6.202  1.00  0.00     0.049 A 
ATOM     46  N   UNL     1      -5.935  10.460   3.502  1.00  0.00    -0.248 NA
ATOM     47  C   UNL     1      -7.991   9.396   3.316  1.00  0.00     0.031 C 
ATOM     48  C   UNL     1      -6.028   7.811   7.354  1.00  0.00     0.029 A 
ATOM     49  N   UNL     1      -5.925   9.948   6.768  1.00  0.00    -0.354 N 
ATOM     50  C   UNL     1      -6.763  11.216   2.668  1.00  0.00     0.074 A 
ATOM     51  C   UNL     1      -7.964  10.439   2.486  1.00  0.00     0.031 C 
ATOM     52  C   UNL     1      -6.087   8.539   8.492  1.00  0.00     0.029 A 
ATOM     53  C   UNL     1      -6.012   9.949   8.149  1.00  0.00     0.049 A 
ATOM     54  H   UNL     1      -5.769  10.764   6.240  1.00  0.00     0.167 HD
ATOM     55  C   UNL     1      -6.485  12.506   2.318  1.00  0.00     0.034 A 
ATOM     56  C   UNL     1      -6.100  11.032   8.957  1.00  0.00     0.034 A 
ATOM     57  C   UNL     1      -5.113  12.845   2.565  1.00  0.00     0.049 A 
ATOM     58  C   UNL     1      -5.612  12.215   8.211  1.00  0.00     0.074 A 
ATOM     59  C   UNL     1      -3.895  12.440   2.061  1.00  0.00     0.029 A 
ATOM     60  N   UNL     1      -4.830  13.559   3.701  1.00  0.00    -0.354 N 
ATOM     61  N   UNL     1      -4.372  12.409   7.861  1.00  0.00    -0.248 NA
ATOM     62  C   UNL     1      -6.591  13.036   7.518  1.00  0.00     0.031 C 
ATOM     63  C   UNL     1      -2.987  12.543   3.153  1.00  0.00     0.029 A 
ATOM     64  C   UNL     1      -3.698  13.023   4.256  1.00  0.00     0.049 A 
ATOM     65  H   UNL     1      -5.347  14.319   4.054  1.00  0.00     0.167 HD
ATOM     66  C   UNL     1      -4.449  13.040   6.629  1.00  0.00     0.074 A 
ATOM     67  C   UNL     1      -5.825  13.517   6.537  1.00  0.00     0.031 C 
ATOM     68  C   UNL     1      -3.476  12.880   5.683  1.00  0.00     0.034 A 
BRANCH  55  69
ATOM     69  C   UNL     1      -7.537  13.555   2.027  1.00  0.00     0.023 A 
ATOM     70  C   UNL     1      -8.897  13.369   2.334  1.00  0.00     0.031 A 
ATOM     71  C   UNL     1      -7.173  14.863   1.641  1.00  0.00     0.131 A 
ATOM     72  C   UNL     1      -9.828  14.410   2.233  1.00  0.00     0.055 A 
ATOM     73  C   UNL     1      -8.091  15.923   1.607  1.00  0.00     0.041 A 
ATOM     74  F   UNL     1      -5.901  15.168   1.339  1.00  0.00    -0.206 F 
ATOM     75  C   UNL     1      -9.429  15.699   1.901  1.00  0.00     0.022 A 
BRANCH  72  76
ATOM     76  S   UNL     1     -11.588  14.090   2.534  1.00  0.00     0.124 S 
ATOM     77  O   UNL     1     -11.835  14.886   3.730  1.00  0.00    -0.237 OA
ATOM     78  O   UNL     1     -12.197  14.586   1.303  1.00  0.00    -0.237 OA
ATOM     79  O   UNL     1     -11.643  12.639   2.706  1.00  0.00    -0.744 OA
ENDBRANCH  72  76
ENDBRANCH  55  69
BRANCH  56  80
ATOM     80  C   UNL     1      -7.017  11.153  10.113  1.00  0.00     0.023 A 
ATOM     81  C   UNL     1      -8.249  10.470  10.091  1.00  0.00     0.031 A 
ATOM     82  C   UNL     1      -6.840  12.140  11.094  1.00  0.00     0.131 A 
ATOM     83  C   UNL     1      -9.263  10.798  10.998  1.00  0.00     0.055 A 
ATOM     84  C   UNL     1      -7.851  12.459  12.009  1.00  0.00     0.041 A 
ATOM     85  F   UNL     1      -5.705  12.854  11.144  1.00  0.00    -0.206 F 
ATOM     86  C   UNL     1      -9.074  11.795  11.956  1.00  0.00     0.022 A 
BRANCH  83  87
ATOM     87  S   UNL     1     -10.879   9.982  10.902  1.00  0.00     0.124 S 
ATOM     88  O   UNL     1     -11.096   9.567  12.286  1.00  0.00    -0.237 OA
ATOM     89  O   UNL     1     -11.733  11.066  10.430  1.00  0.00    -0.237 OA
ATOM     90  O   UNL     1     -10.657   8.889   9.959  1.00  0.00    -0.744 OA
ENDBRANCH  83  87
ENDBRANCH  56  80
BRANCH  68  91
ATOM     91  C   UNL     1      -2.165  12.236   6.080  1.00  0.00     0.023 A 
ATOM     92  C   UNL     1      -0.978  12.885   5.693  1.00  0.00     0.031 A 
ATOM     93  C   UNL     1      -2.054  10.926   6.584  1.00  0.00     0.131 A 
ATOM     94  C   UNL     1       0.251  12.216   5.766  1.00  0.00     0.055 A 
ATOM     95  C   UNL     1      -0.816  10.290   6.726  1.00  0.00     0.041 A 
ATOM     96  F   UNL     1      -3.137  10.191   6.865  1.00  0.00    -0.206 F 
ATOM     97  C   UNL     1       0.342  10.928   6.299  1.00  0.00     0.022 A 
BRANCH  94  98
ATOM     98  S   UNL     1       1.735  12.937   5.017  1.00  0.00     0.124 S 
ATOM     99  O   UNL     1       2.634  13.057   6.161  1.00  0.00    -0.237 OA
ATOM    100  O   UNL     1       2.106  11.921   4.033  1.00  0.00    -0.237 OA
ATOM    101  O   UNL     1       1.270  14.201   4.453  1.00  0.00    -0.744 OA
ENDBRANCH  94  98
ENDBRANCH  68  91
ENDBRANCH  42  43
ENDBRANCH  34  37
ENDBRANCH  32  33
ENDBRANCH  31  32
ENDBRANCH   1  31
TORSDOF 18
