REMARK SMILES CN(C)Nc1ncnc(Nc2ccc(C(=O)NCCCCNC(=O)c3ccc(-c4c5nc(c(-c6cc(S(=O)(=O)[O-])ccc6F)c6ccc([nH]6)c(-c6cc(S(=O)(=O)[O-])ccc6F)c6nc(c(-c7cc(S(=O)(=O)[O-])ccc7F)c7ccc4[nH]7)C=C6)C=C5)cc3)cc2)c1[N+](=O)[O-]
REMARK SMILES IDX 19 1 18 2 17 3 15 4 16 5 14 7 11 8 12 9 89 10 13 11 88 12
REMARK SMILES IDX 10 13 9 15 5 16 6 17 90 18 7 19 8 20 4 21 2 23 1 24 3 25
REMARK SMILES IDX 91 26 92 27 93 28 20 29 21 30 22 31 23 32 24 34 25 35 26 36
REMARK SMILES IDX 87 37 27 38 86 39 28 40 29 41 30 42 80 43 31 44 85 45 79 46
REMARK SMILES IDX 81 47 32 48 84 49 78 50 77 51 33 53 65 54 45 55 64 56 46 57
REMARK SMILES IDX 49 58 63 59 82 60 47 61 48 62 62 64 83 65 50 66 34 67 35 68
REMARK SMILES IDX 43 69 36 70 42 71 44 72 41 73 37 74 38 75 39 76 40 77 66 78
REMARK SMILES IDX 67 79 75 80 68 81 74 82 76 83 73 84 69 85 70 86 71 87 72 88
REMARK SMILES IDX 51 89 52 90 60 91 53 92 59 93 61 94 58 95 54 96 55 97 56 98
REMARK SMILES IDX 57 99
REMARK H PARENT 17 6 10 14 4 22 22 33 81 52 49 63
REMARK Flexibility Score: inf
ROOT
ATOM      1  C   UNL     1       5.567  -1.271   8.985  1.00  0.00     0.023 C 
ENDROOT
BRANCH   1   2
ATOM      2  C   UNL     1       6.183   0.071   8.584  1.00  0.00     0.116 C 
BRANCH   2   3
ATOM      3  N   UNL     1       7.537  -0.116   8.100  1.00  0.00    -0.352 N 
ATOM      4  C   UNL     1       8.065  -0.188   6.836  1.00  0.00     0.251 C 
ATOM      5  O   UNL     1       9.282  -0.343   6.730  1.00  0.00    -0.269 OA
ATOM      6  H   UNL     1       8.206  -0.210   8.816  1.00  0.00     0.163 HD
BRANCH   4   7
ATOM      7  C   UNL     1       7.254  -0.026   5.597  1.00  0.00     0.039 A 
ATOM      8  C   UNL     1       5.843   0.498   3.206  1.00  0.00     0.040 A 
ATOM      9  C   UNL     1       7.210   0.757   3.286  1.00  0.00     0.027 A 
ATOM     10  C   UNL     1       5.217  -0.135   4.287  1.00  0.00     0.027 A 
ATOM     11  C   UNL     1       7.904   0.519   4.478  1.00  0.00     0.016 A 
ATOM     12  C   UNL     1       5.920  -0.411   5.465  1.00  0.00     0.016 A 
BRANCH   8  13
ATOM     13  N   UNL     1       5.141   0.771   2.015  1.00  0.00    -0.334 N 
ATOM     14  H   UNL     1       5.512   0.420   1.173  1.00  0.00     0.168 HD
BRANCH  13  15
ATOM     15  C   UNL     1       3.943   1.511   1.947  1.00  0.00     0.215 A 
ATOM     16  C   UNL     1       1.925   2.214   0.909  1.00  0.00     0.225 A 
ATOM     17  N   UNL     1       1.639   3.000   1.969  1.00  0.00    -0.212 NA
ATOM     18  C   UNL     1       3.122   1.531   0.831  1.00  0.00     0.354 A 
ATOM     19  C   UNL     1       2.516   3.001   2.974  1.00  0.00     0.227 A 
ATOM     20  N   UNL     1       3.629   2.268   3.023  1.00  0.00    -0.212 NA
BRANCH  16  21
ATOM     21  N   UNL     1       0.838   2.099   0.036  1.00  0.00    -0.298 N 
ATOM     22  H   UNL     1       0.318   2.913  -0.154  1.00  0.00     0.184 HD
BRANCH  21  23
ATOM     23  N   UNL     1       0.430   0.897  -0.598  1.00  0.00    -0.228 NA
ATOM     24  C   UNL     1       0.304  -0.209   0.369  1.00  0.00     0.130 C 
ATOM     25  C   UNL     1      -0.906   1.148  -1.173  1.00  0.00     0.130 C 
ENDBRANCH  21  23
ENDBRANCH  16  21
BRANCH  18  26
ATOM     26  N   UNL     1       3.528   0.881  -0.378  1.00  0.00     0.070 N 
ATOM     27  O   UNL     1       3.878  -0.307  -0.289  1.00  0.00    -0.258 OA
ATOM     28  O   UNL     1       3.609   1.570  -1.404  1.00  0.00    -0.258 OA
ENDBRANCH  18  26
ENDBRANCH  13  15
ENDBRANCH   8  13
ENDBRANCH   4   7
ENDBRANCH   2   3
ENDBRANCH   1   2
BRANCH   1  29
ATOM     29  C   UNL     1       6.082  -1.824  10.319  1.00  0.00     0.023 C 
BRANCH  29  30
ATOM     30  C   UNL     1       5.732  -0.983  11.543  1.00  0.00     0.116 C 
BRANCH  30  31
ATOM     31  N   UNL     1       4.299  -0.811  11.723  1.00  0.00    -0.352 N 
ATOM     32  C   UNL     1       3.591  -0.692  12.898  1.00  0.00     0.251 C 
ATOM     33  H   UNL     1       3.765  -0.776  10.897  1.00  0.00     0.163 HD
ATOM     34  O   UNL     1       2.369  -0.674  12.876  1.00  0.00    -0.269 OA
BRANCH  32  35
ATOM     35  C   UNL     1       4.327  -0.633  14.180  1.00  0.00     0.039 A 
ATOM     36  C   UNL     1       3.934  -1.478  15.220  1.00  0.00     0.014 A 
ATOM     37  C   UNL     1       5.417   0.227  14.341  1.00  0.00     0.014 A 
ATOM     38  C   UNL     1       4.679  -1.511  16.401  1.00  0.00     0.010 A 
ATOM     39  C   UNL     1       6.195   0.145  15.492  1.00  0.00     0.010 A 
ATOM     40  C   UNL     1       5.836  -0.726  16.532  1.00  0.00    -0.014 A 
BRANCH  40  41
ATOM     41  C   UNL     1       6.684  -0.802  17.749  1.00  0.00     0.031 A 
ATOM     42  C   UNL     1       6.824   0.397  18.644  1.00  0.00     0.074 A 
ATOM     43  C   UNL     1       7.378  -1.928  18.008  1.00  0.00     0.049 A 
ATOM     44  N   UNL     1       7.571   0.557  19.706  1.00  0.00    -0.248 NA
ATOM     45  C   UNL     1       6.040   1.585  18.274  1.00  0.00     0.031 C 
ATOM     46  C   UNL     1       7.354  -3.143  17.191  1.00  0.00     0.029 A 
ATOM     47  N   UNL     1       8.245  -2.232  19.027  1.00  0.00    -0.354 N 
ATOM     48  C   UNL     1       7.356   1.866  20.126  1.00  0.00     0.074 A 
ATOM     49  C   UNL     1       6.462   2.472  19.161  1.00  0.00     0.031 C 
ATOM     50  C   UNL     1       8.146  -4.069  17.755  1.00  0.00     0.029 A 
ATOM     51  C   UNL     1       8.769  -3.502  18.947  1.00  0.00     0.049 A 
ATOM     52  H   UNL     1       8.471  -1.601  19.748  1.00  0.00     0.167 HD
ATOM     53  C   UNL     1       7.840   2.495  21.227  1.00  0.00     0.034 A 
ATOM     54  C   UNL     1       9.657  -4.133  19.741  1.00  0.00     0.034 A 
ATOM     55  C   UNL     1       8.726   1.872  22.180  1.00  0.00     0.049 A 
ATOM     56  C   UNL     1      10.208  -3.404  20.939  1.00  0.00     0.074 A 
ATOM     57  C   UNL     1       9.238   2.395  23.354  1.00  0.00     0.029 A 
ATOM     58  N   UNL     1       9.241   0.586  22.064  1.00  0.00    -0.354 N 
ATOM     59  N   UNL     1       9.957  -2.182  21.352  1.00  0.00    -0.248 NA
ATOM     60  C   UNL     1      11.155  -4.143  21.784  1.00  0.00     0.031 C 
ATOM     61  C   UNL     1      10.110   1.453  23.913  1.00  0.00     0.029 A 
ATOM     62  C   UNL     1      10.087   0.312  23.128  1.00  0.00     0.049 A 
ATOM     63  H   UNL     1       9.036  -0.039  21.331  1.00  0.00     0.167 HD
ATOM     64  C   UNL     1      10.691  -2.021  22.524  1.00  0.00     0.074 A 
ATOM     65  C   UNL     1      11.383  -3.272  22.756  1.00  0.00     0.031 C 
ATOM     66  C   UNL     1      10.780  -0.938  23.339  1.00  0.00     0.034 A 
BRANCH  53  67
ATOM     67  C   UNL     1       7.433   3.936  21.431  1.00  0.00     0.023 A 
ATOM     68  C   UNL     1       6.086   4.303  21.603  1.00  0.00     0.031 A 
ATOM     69  C   UNL     1       8.393   4.962  21.406  1.00  0.00     0.131 A 
ATOM     70  C   UNL     1       5.728   5.658  21.646  1.00  0.00     0.055 A 
ATOM     71  C   UNL     1       8.039   6.306  21.541  1.00  0.00     0.041 A 
ATOM     72  F   UNL     1       9.693   4.678  21.226  1.00  0.00    -0.206 F 
ATOM     73  C   UNL     1       6.697   6.663  21.642  1.00  0.00     0.022 A 
BRANCH  70  74
ATOM     74  S   UNL     1       3.969   6.091  21.538  1.00  0.00     0.124 S 
ATOM     75  O   UNL     1       3.591   5.470  20.270  1.00  0.00    -0.237 OA
ATOM     76  O   UNL     1       3.418   5.476  22.739  1.00  0.00    -0.237 OA
ATOM     77  O   UNL     1       3.975   7.552  21.530  1.00  0.00    -0.744 OA
ENDBRANCH  70  74
ENDBRANCH  53  67
BRANCH  54  78
ATOM     78  C   UNL     1      10.084  -5.528  19.437  1.00  0.00     0.023 A 
ATOM     79  C   UNL     1       9.768  -6.582  20.309  1.00  0.00     0.031 A 
ATOM     80  C   UNL     1      10.848  -5.823  18.294  1.00  0.00     0.131 A 
ATOM     81  C   UNL     1      10.251  -7.873  20.049  1.00  0.00     0.055 A 
ATOM     82  C   UNL     1      11.284  -7.119  18.014  1.00  0.00     0.041 A 
ATOM     83  F   UNL     1      11.172  -4.852  17.425  1.00  0.00    -0.206 F 
ATOM     84  C   UNL     1      10.997  -8.152  18.902  1.00  0.00     0.022 A 
BRANCH  81  85
ATOM     85  S   UNL     1       9.954  -9.174  21.278  1.00  0.00     0.124 S 
ATOM     86  O   UNL     1      10.585  -8.610  22.466  1.00  0.00    -0.237 OA
ATOM     87  O   UNL     1       8.496  -9.244  21.298  1.00  0.00    -0.237 OA
ATOM     88  O   UNL     1      10.624 -10.340  20.708  1.00  0.00    -0.744 OA
ENDBRANCH  81  85
ENDBRANCH  54  78
BRANCH  66  89
ATOM     89  C   UNL     1      11.621  -1.088  24.582  1.00  0.00     0.023 A 
ATOM     90  C   UNL     1      13.018  -1.239  24.519  1.00  0.00     0.031 A 
ATOM     91  C   UNL     1      11.011  -1.096  25.850  1.00  0.00     0.131 A 
ATOM     92  C   UNL     1      13.752  -1.448  25.696  1.00  0.00     0.055 A 
ATOM     93  C   UNL     1      11.754  -1.245  27.021  1.00  0.00     0.041 A 
ATOM     94  F   UNL     1       9.681  -0.958  25.968  1.00  0.00    -0.206 F 
ATOM     95  C   UNL     1      13.130  -1.436  26.948  1.00  0.00     0.022 A 
BRANCH  92  96
ATOM     96  S   UNL     1      15.521  -1.825  25.565  1.00  0.00     0.124 S 
ATOM     97  O   UNL     1      15.514  -3.034  24.747  1.00  0.00    -0.237 OA
ATOM     98  O   UNL     1      16.050  -0.625  24.925  1.00  0.00    -0.237 OA
ATOM     99  O   UNL     1      15.935  -2.019  26.954  1.00  0.00    -0.744 OA
ENDBRANCH  92  96
ENDBRANCH  66  89
ENDBRANCH  40  41
ENDBRANCH  32  35
ENDBRANCH  30  31
ENDBRANCH  29  30
ENDBRANCH   1  29
TORSDOF 19
