REMARK SMILES Cc1nonc1CSCC(=O)NCCCCNC(=O)c1ccc(-c2c3nc(c(-c4cc(S(=O)(=O)[O-])ccc4F)c4ccc([nH]4)c(-c4cc(S(=O)(=O)[O-])ccc4F)c4nc(c(-c5cc(S(=O)(=O)[O-])ccc5F)c5ccc2[nH]5)C=C4)C=C3)cc1
REMARK SMILES IDX 14 1 13 2 12 3 10 4 11 5 9 7 8 8 7 9 6 10 1 11 2 12 3 13
REMARK SMILES IDX 4 14 5 15 15 16 16 17 17 18 18 19 19 21 20 22 21 23 82 24
REMARK SMILES IDX 22 25 81 26 23 27 24 28 25 29 75 30 26 31 80 32 74 33 76 34
REMARK SMILES IDX 27 35 79 36 73 37 72 38 28 40 60 41 40 42 59 43 41 44 44 45
REMARK SMILES IDX 58 46 77 47 42 48 43 49 57 51 78 52 45 53 29 54 30 55 38 56
REMARK SMILES IDX 31 57 37 58 39 59 36 60 32 61 33 62 34 63 35 64 61 65 62 66
REMARK SMILES IDX 70 67 63 68 69 69 71 70 68 71 64 72 65 73 66 74 67 75 46 76
REMARK SMILES IDX 47 77 55 78 48 79 54 80 56 81 53 82 49 83 50 84 51 85 52 86
REMARK H PARENT 12 6 17 20 76 39 44 50
REMARK Flexibility Score: inf
ROOT
ATOM      1  C   UNL     1       1.572   6.104  -1.855  1.00  0.00     0.023 C 
ENDROOT
BRANCH   1   2
ATOM      2  C   UNL     1       1.385   5.292  -3.138  1.00  0.00     0.116 C 
BRANCH   2   3
ATOM      3  N   UNL     1       2.049   4.004  -3.043  1.00  0.00    -0.355 N 
ATOM      4  C   UNL     1       1.503   2.778  -2.804  1.00  0.00     0.230 C 
ATOM      5  O   UNL     1       2.260   1.830  -2.585  1.00  0.00    -0.274 OA
ATOM      6  H   UNL     1       3.026   4.019  -3.168  1.00  0.00     0.163 HD
BRANCH   4   7
ATOM      7  C   UNL     1      -0.003   2.588  -2.819  1.00  0.00     0.169 C 
BRANCH   7   8
ATOM      8  S   UNL     1      -0.822   3.277  -1.347  1.00  0.00    -0.145 SA
BRANCH   8   9
ATOM      9  C   UNL     1       0.110   2.442  -0.017  1.00  0.00     0.132 C 
BRANCH   9  10
ATOM     10  C   UNL     1      -0.088   0.971   0.029  1.00  0.00     0.117 A 
ATOM     11  C   UNL     1       2.344  -0.010  -0.023  1.00  0.00     0.073 C 
ATOM     12  C   UNL     1       0.868  -0.065   0.032  1.00  0.00     0.106 A 
ATOM     13  N   UNL     1       0.244  -1.243   0.118  1.00  0.00    -0.055 NA
ATOM     14  O   UNL     1      -1.108  -0.935   0.175  1.00  0.00    -0.244 OA
ATOM     15  N   UNL     1      -1.311   0.438   0.140  1.00  0.00    -0.054 NA
ENDBRANCH   9  10
ENDBRANCH   8   9
ENDBRANCH   7   8
ENDBRANCH   4   7
ENDBRANCH   2   3
ENDBRANCH   1   2
BRANCH   1  16
ATOM     16  C   UNL     1       3.010   6.563  -1.594  1.00  0.00     0.023 C 
BRANCH  16  17
ATOM     17  C   UNL     1       3.623   7.437  -2.683  1.00  0.00     0.116 C 
BRANCH  17  18
ATOM     18  N   UNL     1       2.865   8.654  -2.923  1.00  0.00    -0.352 N 
ATOM     19  C   UNL     1       3.322   9.937  -3.107  1.00  0.00     0.251 C 
ATOM     20  H   UNL     1       1.887   8.544  -2.958  1.00  0.00     0.163 HD
ATOM     21  O   UNL     1       2.518  10.865  -3.155  1.00  0.00    -0.269 OA
BRANCH  19  22
ATOM     22  C   UNL     1       4.775  10.198  -3.207  1.00  0.00     0.039 A 
ATOM     23  C   UNL     1       5.321  11.258  -2.479  1.00  0.00     0.014 A 
ATOM     24  C   UNL     1       5.598   9.397  -4.004  1.00  0.00     0.014 A 
ATOM     25  C   UNL     1       6.701  11.471  -2.494  1.00  0.00     0.010 A 
ATOM     26  C   UNL     1       6.980   9.568  -3.963  1.00  0.00     0.010 A 
ATOM     27  C   UNL     1       7.547  10.605  -3.205  1.00  0.00    -0.014 A 
BRANCH  27  28
ATOM     28  C   UNL     1       9.025  10.764  -3.165  1.00  0.00     0.031 A 
ATOM     29  C   UNL     1       9.785  11.093  -4.421  1.00  0.00     0.074 A 
ATOM     30  C   UNL     1       9.688  10.546  -2.011  1.00  0.00     0.049 A 
ATOM     31  N   UNL     1      11.076  11.187  -4.608  1.00  0.00    -0.248 NA
ATOM     32  C   UNL     1       8.983  11.316  -5.633  1.00  0.00     0.031 C 
ATOM     33  C   UNL     1       9.067  10.182  -0.736  1.00  0.00     0.029 A 
ATOM     34  N   UNL     1      11.030  10.587  -1.725  1.00  0.00    -0.354 N 
ATOM     35  C   UNL     1      11.245  11.469  -5.960  1.00  0.00     0.074 A 
ATOM     36  C   UNL     1       9.924  11.467  -6.554  1.00  0.00     0.031 C 
ATOM     37  C   UNL     1      10.023  10.054   0.199  1.00  0.00     0.029 A 
ATOM     38  C   UNL     1      11.327  10.279  -0.417  1.00  0.00     0.049 A 
ATOM     39  H   UNL     1      11.716  10.815  -2.393  1.00  0.00     0.167 HD
ATOM     40  C   UNL     1      12.391  11.729  -6.637  1.00  0.00     0.034 A 
ATOM     41  C   UNL     1      12.514  10.175   0.212  1.00  0.00     0.034 A 
ATOM     42  C   UNL     1      13.699  11.737  -6.027  1.00  0.00     0.049 A 
ATOM     43  C   UNL     1      13.778  10.442  -0.566  1.00  0.00     0.074 A 
ATOM     44  C   UNL     1      14.920  12.036  -6.608  1.00  0.00     0.029 A 
ATOM     45  N   UNL     1      13.961  11.424  -4.699  1.00  0.00    -0.354 N 
ATOM     46  N   UNL     1      13.916  10.754  -1.834  1.00  0.00    -0.248 NA
ATOM     47  C   UNL     1      15.043  10.354   0.174  1.00  0.00     0.031 C 
ATOM     48  C   UNL     1      15.922  11.839  -5.652  1.00  0.00     0.029 A 
ATOM     49  C   UNL     1      15.324  11.493  -4.451  1.00  0.00     0.049 A 
ATOM     50  H   UNL     1      13.278  11.187  -4.030  1.00  0.00     0.167 HD
ATOM     51  C   UNL     1      15.283  10.930  -2.034  1.00  0.00     0.074 A 
ATOM     52  C   UNL     1      15.922  10.704  -0.754  1.00  0.00     0.031 C 
ATOM     53  C   UNL     1      15.950  11.254  -3.171  1.00  0.00     0.034 A 
BRANCH  40  54
ATOM     54  C   UNL     1      12.276  11.999  -8.119  1.00  0.00     0.023 A 
ATOM     55  C   UNL     1      11.556  13.101  -8.614  1.00  0.00     0.031 A 
ATOM     56  C   UNL     1      12.868  11.130  -9.052  1.00  0.00     0.131 A 
ATOM     57  C   UNL     1      11.379  13.260  -9.997  1.00  0.00     0.055 A 
ATOM     58  C   UNL     1      12.760  11.341 -10.428  1.00  0.00     0.041 A 
ATOM     59  F   UNL     1      13.551  10.049  -8.642  1.00  0.00    -0.206 F 
ATOM     60  C   UNL     1      11.998  12.402 -10.908  1.00  0.00     0.022 A 
BRANCH  57  61
ATOM     61  S   UNL     1      10.204  14.512 -10.580  1.00  0.00     0.124 S 
ATOM     62  O   UNL     1       8.967  14.078  -9.935  1.00  0.00    -0.237 OA
ATOM     63  O   UNL     1      10.787  15.750 -10.075  1.00  0.00    -0.237 OA
ATOM     64  O   UNL     1      10.229  14.356 -12.033  1.00  0.00    -0.744 OA
ENDBRANCH  57  61
ENDBRANCH  40  54
BRANCH  41  65
ATOM     65  C   UNL     1      12.576   9.789   1.652  1.00  0.00     0.023 A 
ATOM     66  C   UNL     1      13.066  10.679   2.619  1.00  0.00     0.031 A 
ATOM     67  C   UNL     1      12.183   8.506   2.075  1.00  0.00     0.131 A 
ATOM     68  C   UNL     1      13.198  10.260   3.953  1.00  0.00     0.055 A 
ATOM     69  C   UNL     1      12.265   8.112   3.411  1.00  0.00     0.041 A 
ATOM     70  F   UNL     1      11.701   7.617   1.191  1.00  0.00    -0.206 F 
ATOM     71  C   UNL     1      12.789   8.988   4.357  1.00  0.00     0.022 A 
BRANCH  68  72
ATOM     72  S   UNL     1      13.995  11.378   5.139  1.00  0.00     0.124 S 
ATOM     73  O   UNL     1      15.297  11.591   4.518  1.00  0.00    -0.237 OA
ATOM     74  O   UNL     1      13.086  12.520   5.134  1.00  0.00    -0.237 OA
ATOM     75  O   UNL     1      14.011  10.603   6.377  1.00  0.00    -0.744 OA
ENDBRANCH  68  72
ENDBRANCH  41  65
BRANCH  53  76
ATOM     76  C   UNL     1      17.445  11.428  -3.063  1.00  0.00     0.023 A 
ATOM     77  C   UNL     1      18.299  10.348  -2.780  1.00  0.00     0.031 A 
ATOM     78  C   UNL     1      18.022  12.700  -3.235  1.00  0.00     0.131 A 
ATOM     79  C   UNL     1      19.676  10.569  -2.622  1.00  0.00     0.055 A 
ATOM     80  C   UNL     1      19.399  12.903  -3.137  1.00  0.00     0.041 A 
ATOM     81  F   UNL     1      17.253  13.768  -3.504  1.00  0.00    -0.206 F 
ATOM     82  C   UNL     1      20.233  11.836  -2.816  1.00  0.00     0.022 A 
BRANCH  79  83
ATOM     83  S   UNL     1      20.722   9.193  -2.070  1.00  0.00     0.124 S 
ATOM     84  O   UNL     1      20.105   8.836  -0.796  1.00  0.00    -0.237 OA
ATOM     85  O   UNL     1      20.560   8.225  -3.150  1.00  0.00    -0.237 OA
ATOM     86  O   UNL     1      22.052   9.792  -1.969  1.00  0.00    -0.744 OA
ENDBRANCH  79  83
ENDBRANCH  53  76
ENDBRANCH  27  28
ENDBRANCH  19  22
ENDBRANCH  17  18
ENDBRANCH  16  17
ENDBRANCH   1  16
TORSDOF 17
