REMARK SMILES Cc1ccc(NC(=O)C[C@H]2C(=O)NCCN2C(=O)CCC(=O)NCCCCNC(=O)c2ccc(-c3c4nc(c(-c5cc(S(=O)(=O)[O-])ccc5F)c5ccc([nH]5)c(-c5cc(S(=O)(=O)[O-])ccc5F)c5nc(c(-c6cc(S(=O)(=O)[O-])ccc6F)c6ccc3[nH]6)C=C5)C=C4)cc2)c(C)c1
REMARK SMILES IDX 24 1 23 2 21 3 22 4 20 6 19 7 17 8 18 9 16 10 10 11 11 12
REMARK SMILES IDX 12 13 13 14 15 15 14 16 9 18 7 19 6 20 8 22 5 23 1 24 2 25
REMARK SMILES IDX 3 26 96 27 4 28 94 29 95 30 25 31 26 32 27 33 28 34 29 35
REMARK SMILES IDX 30 37 31 38 32 39 93 40 33 41 92 42 34 43 35 44 36 45 86 46
REMARK SMILES IDX 37 47 91 48 85 49 87 50 38 51 90 52 84 53 83 54 39 56 71 57
REMARK SMILES IDX 51 58 70 59 52 60 55 61 69 62 88 63 53 64 54 65 68 67 89 68
REMARK SMILES IDX 56 69 40 70 41 71 49 72 42 73 48 74 50 75 47 76 43 77 44 78
REMARK SMILES IDX 45 79 46 80 72 81 73 82 81 83 74 84 80 85 82 86 79 87 75 88
REMARK SMILES IDX 76 89 77 90 78 91 57 92 58 93 66 94 59 95 65 96 67 97 64 98
REMARK SMILES IDX 60 99 61 100 62 101 63 102
REMARK H PARENT 23 5 13 17 6 21 28 36 87 55 55 66
REMARK Flexibility Score: inf
ROOT
ATOM      1  C   UNL     1      -3.163   2.985   0.481  1.00  0.00     0.116 C 
ENDROOT
BRANCH   1   2
ATOM      2  N   UNL     1      -2.516   1.824  -0.177  1.00  0.00    -0.356 N 
ATOM      3  C   UNL     1      -2.856   0.982  -1.202  1.00  0.00     0.220 C 
ATOM      4  O   UNL     1      -2.078   0.119  -1.559  1.00  0.00    -0.275 OA
ATOM      5  H   UNL     1      -1.638   1.610   0.213  1.00  0.00     0.163 HD
BRANCH   3   6
ATOM      6  C   UNL     1      -4.208   1.107  -1.820  1.00  0.00     0.110 C 
BRANCH   6   7
ATOM      7  C   UNL     1      -5.233   0.475  -0.911  1.00  0.00     0.110 C 
BRANCH   7   8
ATOM      8  C   UNL     1      -5.467   1.292   0.322  1.00  0.00     0.223 C 
ATOM      9  O   UNL     1      -6.290   2.217   0.227  1.00  0.00    -0.275 OA
BRANCH   8  10
ATOM     10  N   UNL     1      -4.771   1.064   1.524  1.00  0.00    -0.328 N 
ATOM     11  C   UNL     1      -3.519   0.169   1.798  1.00  0.00     0.183 C 
ATOM     12  C   UNL     1      -3.831  -0.735   3.035  1.00  0.00     0.243 C 
ATOM     13  O   UNL     1      -3.185  -1.756   3.267  1.00  0.00    -0.273 OA
ATOM     14  N   UNL     1      -4.782  -0.357   3.942  1.00  0.00    -0.353 N 
ATOM     15  C   UNL     1      -5.606   1.571   2.631  1.00  0.00     0.141 C 
ATOM     16  C   UNL     1      -5.473   0.902   3.978  1.00  0.00     0.137 C 
ATOM     17  H   UNL     1      -5.016  -1.012   4.639  1.00  0.00     0.163 HD
BRANCH  11  18
ATOM     18  C   UNL     1      -1.811   0.519   1.858  1.00  0.00     0.135 C 
BRANCH  18  19
ATOM     19  C   UNL     1      -0.468   1.570   1.801  1.00  0.00     0.227 C 
ATOM     20  N   UNL     1      -0.001   2.721   1.183  1.00  0.00    -0.326 N 
ATOM     21  H   UNL     1       0.920   2.872   1.496  1.00  0.00     0.169 HD
ATOM     22  O   UNL     1       0.454   1.162   2.557  1.00  0.00    -0.275 OA
BRANCH  20  23
ATOM     23  C   UNL     1      -0.326   3.783   0.267  1.00  0.00     0.044 A 
ATOM     24  C   UNL     1      -3.115   6.282  -1.762  1.00  0.00     0.044 C 
ATOM     25  C   UNL     1      -1.851   5.673  -1.202  1.00  0.00    -0.051 A 
ATOM     26  C   UNL     1      -1.420   5.972   0.093  1.00  0.00     0.005 A 
ATOM     27  C   UNL     1      -1.238   4.591  -1.848  1.00  0.00     0.009 A 
ATOM     28  C   UNL     1      -0.582   5.068   0.791  1.00  0.00     0.026 A 
ATOM     29  C   UNL     1      -0.456   3.647  -1.124  1.00  0.00    -0.027 A 
ATOM     30  C   UNL     1       0.221   2.552  -1.892  1.00  0.00     0.046 C 
ENDBRANCH  20  23
ENDBRANCH  18  19
ENDBRANCH  11  18
ENDBRANCH   8  10
ENDBRANCH   7   8
ENDBRANCH   6   7
ENDBRANCH   3   6
ENDBRANCH   1   2
BRANCH   1  31
ATOM     31  C   UNL     1      -3.008   3.521   2.001  1.00  0.00     0.023 C 
BRANCH  31  32
ATOM     32  C   UNL     1      -2.882   2.860   3.407  1.00  0.00     0.023 C 
BRANCH  32  33
ATOM     33  C   UNL     1      -1.613   3.053   4.274  1.00  0.00     0.116 C 
BRANCH  33  34
ATOM     34  N   UNL     1      -1.618   4.280   5.042  1.00  0.00    -0.352 N 
ATOM     35  C   UNL     1      -1.356   4.511   6.374  1.00  0.00     0.251 C 
ATOM     36  H   UNL     1      -1.848   5.085   4.525  1.00  0.00     0.163 HD
ATOM     37  O   UNL     1      -1.525   5.655   6.796  1.00  0.00    -0.269 OA
BRANCH  35  38
ATOM     38  C   UNL     1      -0.930   3.439   7.321  1.00  0.00     0.039 A 
ATOM     39  C   UNL     1      -1.429   3.490   8.630  1.00  0.00     0.014 A 
ATOM     40  C   UNL     1      -0.016   2.434   6.993  1.00  0.00     0.014 A 
ATOM     41  C   UNL     1      -1.056   2.526   9.577  1.00  0.00     0.010 A 
ATOM     42  C   UNL     1       0.301   1.428   7.923  1.00  0.00     0.010 A 
ATOM     43  C   UNL     1      -0.208   1.460   9.232  1.00  0.00    -0.014 A 
BRANCH  43  44
ATOM     44  C   UNL     1       0.127   0.408  10.246  1.00  0.00     0.031 A 
ATOM     45  C   UNL     1       1.550   0.180  10.700  1.00  0.00     0.074 A 
ATOM     46  C   UNL     1      -0.858  -0.353  10.770  1.00  0.00     0.049 A 
ATOM     47  N   UNL     1       2.007  -0.627  11.628  1.00  0.00    -0.248 NA
ATOM     48  C   UNL     1       2.599   0.931   9.999  1.00  0.00     0.031 C 
ATOM     49  C   UNL     1      -2.266  -0.302  10.367  1.00  0.00     0.029 A 
ATOM     50  N   UNL     1      -0.840  -1.305  11.763  1.00  0.00    -0.354 N 
ATOM     51  C   UNL     1       3.393  -0.486  11.613  1.00  0.00     0.074 A 
ATOM     52  C   UNL     1       3.701   0.424  10.531  1.00  0.00     0.031 C 
ATOM     53  C   UNL     1      -2.980  -1.136  11.140  1.00  0.00     0.029 A 
ATOM     54  C   UNL     1      -2.084  -1.806  12.078  1.00  0.00     0.049 A 
ATOM     55  H   UNL     1      -0.013  -1.602  12.208  1.00  0.00     0.167 HD
ATOM     56  C   UNL     1       4.322  -1.033  12.441  1.00  0.00     0.034 A 
ATOM     57  C   UNL     1      -2.469  -2.687  13.025  1.00  0.00     0.034 A 
ATOM     58  C   UNL     1       4.005  -1.933  13.526  1.00  0.00     0.049 A 
ATOM     59  C   UNL     1      -1.428  -3.252  13.960  1.00  0.00     0.074 A 
ATOM     60  C   UNL     1       4.857  -2.504  14.456  1.00  0.00     0.029 A 
ATOM     61  N   UNL     1       2.729  -2.396  13.825  1.00  0.00    -0.354 N 
ATOM     62  N   UNL     1      -0.133  -3.038  13.983  1.00  0.00    -0.248 NA
ATOM     63  C   UNL     1      -1.908  -4.155  15.013  1.00  0.00     0.031 C 
ATOM     64  C   UNL     1       4.109  -3.357  15.277  1.00  0.00     0.029 A 
ATOM     65  C   UNL     1       2.776  -3.259  14.912  1.00  0.00     0.049 A 
ATOM     66  H   UNL     1       1.911  -2.149  13.338  1.00  0.00     0.167 HD
ATOM     67  C   UNL     1       0.350  -3.758  15.073  1.00  0.00     0.074 A 
ATOM     68  C   UNL     1      -0.797  -4.384  15.696  1.00  0.00     0.031 C 
ATOM     69  C   UNL     1       1.627  -3.890  15.519  1.00  0.00     0.034 A 
BRANCH  56  70
ATOM     70  C   UNL     1       5.773  -0.676  12.188  1.00  0.00     0.023 A 
ATOM     71  C   UNL     1       6.228   0.654  12.265  1.00  0.00     0.031 A 
ATOM     72  C   UNL     1       6.707  -1.665  11.831  1.00  0.00     0.131 A 
ATOM     73  C   UNL     1       7.544   0.971  11.898  1.00  0.00     0.055 A 
ATOM     74  C   UNL     1       8.042  -1.354  11.554  1.00  0.00     0.041 A 
ATOM     75  F   UNL     1       6.338  -2.951  11.727  1.00  0.00    -0.206 F 
ATOM     76  C   UNL     1       8.463  -0.027  11.567  1.00  0.00     0.022 A 
BRANCH  73  77
ATOM     77  S   UNL     1       7.992   2.718  11.705  1.00  0.00     0.124 S 
ATOM     78  O   UNL     1       7.046   3.152  10.679  1.00  0.00    -0.237 OA
ATOM     79  O   UNL     1       7.770   3.252  13.044  1.00  0.00    -0.237 OA
ATOM     80  O   UNL     1       9.387   2.670  11.274  1.00  0.00    -0.744 OA
ENDBRANCH  73  77
ENDBRANCH  56  70
BRANCH  57  81
ATOM     81  C   UNL     1      -3.906  -3.073  13.168  1.00  0.00     0.023 A 
ATOM     82  C   UNL     1      -4.632  -2.756  14.329  1.00  0.00     0.031 A 
ATOM     83  C   UNL     1      -4.562  -3.807  12.164  1.00  0.00     0.131 A 
ATOM     84  C   UNL     1      -5.952  -3.213  14.479  1.00  0.00     0.055 A 
ATOM     85  C   UNL     1      -5.892  -4.213  12.295  1.00  0.00     0.041 A 
ATOM     86  F   UNL     1      -3.920  -4.131  11.031  1.00  0.00    -0.206 F 
ATOM     87  C   UNL     1      -6.590  -3.929  13.465  1.00  0.00     0.022 A 
BRANCH  84  88
ATOM     88  S   UNL     1      -6.799  -2.930  16.059  1.00  0.00     0.124 S 
ATOM     89  O   UNL     1      -5.896  -3.579  17.003  1.00  0.00    -0.237 OA
ATOM     90  O   UNL     1      -6.851  -1.473  16.117  1.00  0.00    -0.237 OA
ATOM     91  O   UNL     1      -8.091  -3.589  15.875  1.00  0.00    -0.744 OA
ENDBRANCH  84  88
ENDBRANCH  57  81
BRANCH  69  92
ATOM     92  C   UNL     1       1.831  -4.715  16.769  1.00  0.00     0.023 A 
ATOM     93  C   UNL     1       1.536  -6.090  16.805  1.00  0.00     0.031 A 
ATOM     94  C   UNL     1       2.286  -4.108  17.953  1.00  0.00     0.131 A 
ATOM     95  C   UNL     1       1.618  -6.792  18.017  1.00  0.00     0.055 A 
ATOM     96  C   UNL     1       2.436  -4.829  19.139  1.00  0.00     0.041 A 
ATOM     97  F   UNL     1       2.582  -2.799  17.980  1.00  0.00    -0.206 F 
ATOM     98  C   UNL     1       2.082  -6.174  19.180  1.00  0.00     0.022 A 
BRANCH  95  99
ATOM     99  S   UNL     1       0.982  -8.490  18.082  1.00  0.00     0.124 S 
ATOM    100  O   UNL     1      -0.382  -8.322  17.591  1.00  0.00    -0.237 OA
ATOM    101  O   UNL     1       1.897  -9.200  17.194  1.00  0.00    -0.237 OA
ATOM    102  O   UNL     1       1.092  -8.843  19.497  1.00  0.00    -0.744 OA
ENDBRANCH  95  99
ENDBRANCH  69  92
ENDBRANCH  43  44
ENDBRANCH  35  38
ENDBRANCH  33  34
ENDBRANCH  32  33
ENDBRANCH  31  32
ENDBRANCH   1  31
TORSDOF 20
