REMARK SMILES Cn1c(=O)c2c(-c3ccc(Cl)cc3)n(CC(=O)NCCCCNC(=O)c3ccc(-c4c5nc(c(-c6cc(S(=O)(=O)[O-])ccc6F)c6ccc([nH]6)c(-c6cc(S(=O)(=O)[O-])ccc6F)c6nc(c(-c7cc(S(=O)(=O)[O-])ccc7F)c7ccc4[nH]7)C=C6)C=C5)cc3)cc2n(C)c1=O
REMARK SMILES IDX 21 1 20 2 19 3 18 4 16 5 17 6 15 8 14 9 1 10 2 11 3 12 93 13
REMARK SMILES IDX 4 14 5 15 91 16 94 17 6 18 90 19 92 20 89 21 7 22 8 23 13 24
REMARK SMILES IDX 9 25 12 26 10 27 11 28 22 29 23 30 24 31 25 33 26 34 27 35
REMARK SMILES IDX 88 36 28 37 87 38 29 39 30 40 31 41 81 42 32 43 86 44 80 45
REMARK SMILES IDX 82 46 33 47 85 48 79 49 78 50 34 52 66 53 46 54 65 55 47 56
REMARK SMILES IDX 50 57 64 58 83 59 48 60 49 61 63 63 84 64 51 65 35 66 36 67
REMARK SMILES IDX 44 68 37 69 43 70 45 71 42 72 38 73 39 74 40 75 41 76 67 77
REMARK SMILES IDX 68 78 76 79 69 80 75 81 77 82 74 83 70 84 71 85 72 86 73 87
REMARK SMILES IDX 52 88 53 89 61 90 54 91 60 92 62 93 59 94 55 95 56 96 57 97
REMARK SMILES IDX 58 98
REMARK H PARENT 18 7 23 32 82 51 50 62
REMARK Flexibility Score: inf
ROOT
ATOM      1  C   UNL     1       0.774   4.383   5.931  1.00  0.00     0.023 C 
ENDROOT
BRANCH   1   2
ATOM      2  C   UNL     1      -0.338   3.923   4.979  1.00  0.00     0.023 C 
BRANCH   2   3
ATOM      3  C   UNL     1      -1.708   4.562   5.236  1.00  0.00     0.116 C 
BRANCH   3   4
ATOM      4  N   UNL     1      -1.741   5.952   4.824  1.00  0.00    -0.355 N 
ATOM      5  C   UNL     1      -2.244   6.486   3.671  1.00  0.00     0.239 C 
ATOM      6  O   UNL     1      -2.098   7.694   3.469  1.00  0.00    -0.273 OA
ATOM      7  H   UNL     1      -1.349   6.595   5.458  1.00  0.00     0.163 HD
BRANCH   5   8
ATOM      8  C   UNL     1      -3.007   5.615   2.688  1.00  0.00     0.222 C 
BRANCH   8   9
ATOM      9  N   UNL     1      -2.163   4.655   1.982  1.00  0.00    -0.335 N 
ATOM     10  C   UNL     1       0.942   0.019   0.037  1.00  0.00     0.158 C 
ATOM     11  N   UNL     1       0.449   1.351   0.323  1.00  0.00    -0.263 N 
ATOM     12  C   UNL     1      -0.788   1.428   0.982  1.00  0.00     0.265 A 
ATOM     13  C   UNL     1       1.222   2.432  -0.138  1.00  0.00     0.330 A 
ATOM     14  O   UNL     1      -1.455   0.450   1.282  1.00  0.00    -0.268 OA
ATOM     15  C   UNL     1      -1.198   2.785   1.268  1.00  0.00     0.090 A 
ATOM     16  N   UNL     1       0.766   3.721   0.160  1.00  0.00    -0.295 N 
ATOM     17  O   UNL     1       2.257   2.246  -0.787  1.00  0.00    -0.248 OA
ATOM     18  C   UNL     1      -2.320   3.272   1.933  1.00  0.00     0.064 A 
ATOM     19  C   UNL     1      -0.421   3.875   0.856  1.00  0.00     0.076 A 
ATOM     20  C   UNL     1       1.551   4.872  -0.259  1.00  0.00     0.155 C 
ATOM     21  C   UNL     1      -1.043   5.024   1.266  1.00  0.00     0.114 A 
BRANCH  18  22
ATOM     22  C   UNL     1      -3.425   2.539   2.563  1.00  0.00    -0.001 A 
ATOM     23  C   UNL     1      -4.752   2.768   2.178  1.00  0.00     0.012 A 
ATOM     24  C   UNL     1      -3.166   1.609   3.581  1.00  0.00     0.012 A 
ATOM     25  C   UNL     1      -5.800   2.102   2.820  1.00  0.00     0.021 A 
ATOM     26  C   UNL     1      -4.212   0.945   4.226  1.00  0.00     0.021 A 
ATOM     27  C   UNL     1      -5.526   1.196   3.843  1.00  0.00     0.041 A 
ATOM     28  Cl  UNL     1      -6.818   0.378   4.630  1.00  0.00    -0.084 Cl
ENDBRANCH  18  22
ENDBRANCH   8   9
ENDBRANCH   5   8
ENDBRANCH   3   4
ENDBRANCH   2   3
ENDBRANCH   1   2
BRANCH   1  29
ATOM     29  C   UNL     1       0.536   4.001   7.385  1.00  0.00     0.116 C 
BRANCH  29  30
ATOM     30  N   UNL     1       0.547   2.556   7.591  1.00  0.00    -0.352 N 
ATOM     31  C   UNL     1       0.439   1.884   8.793  1.00  0.00     0.251 C 
ATOM     32  H   UNL     1       0.641   2.000   6.784  1.00  0.00     0.163 HD
ATOM     33  O   UNL     1       0.858   0.739   8.903  1.00  0.00    -0.269 OA
BRANCH  31  34
ATOM     34  C   UNL     1      -0.203   2.572   9.928  1.00  0.00     0.039 A 
ATOM     35  C   UNL     1       0.321   2.485  11.222  1.00  0.00     0.014 A 
ATOM     36  C   UNL     1      -1.354   3.318   9.669  1.00  0.00     0.014 A 
ATOM     37  C   UNL     1      -0.285   3.213  12.243  1.00  0.00     0.010 A 
ATOM     38  C   UNL     1      -1.886   4.117  10.649  1.00  0.00     0.010 A 
ATOM     39  C   UNL     1      -1.381   4.037  11.944  1.00  0.00    -0.014 A 
BRANCH  39  40
ATOM     40  C   UNL     1      -1.924   4.960  12.935  1.00  0.00     0.031 A 
ATOM     41  C   UNL     1      -0.957   6.008  13.374  1.00  0.00     0.074 A 
ATOM     42  C   UNL     1      -3.249   5.022  13.197  1.00  0.00     0.049 A 
ATOM     43  N   UNL     1      -0.476   6.202  14.556  1.00  0.00    -0.248 NA
ATOM     44  C   UNL     1      -0.323   6.852  12.342  1.00  0.00     0.031 C 
ATOM     45  C   UNL     1      -4.327   4.235  12.590  1.00  0.00     0.029 A 
ATOM     46  N   UNL     1      -3.936   5.896  13.981  1.00  0.00    -0.354 N 
ATOM     47  C   UNL     1       0.328   7.335  14.466  1.00  0.00     0.074 A 
ATOM     48  C   UNL     1       0.555   7.550  13.064  1.00  0.00     0.031 C 
ATOM     49  C   UNL     1      -5.519   4.822  12.842  1.00  0.00     0.029 A 
ATOM     50  C   UNL     1      -5.311   5.942  13.745  1.00  0.00     0.049 A 
ATOM     51  H   UNL     1      -3.497   6.453  14.663  1.00  0.00     0.167 HD
ATOM     52  C   UNL     1       0.531   8.147  15.542  1.00  0.00     0.034 A 
ATOM     53  C   UNL     1      -6.203   6.856  14.226  1.00  0.00     0.034 A 
ATOM     54  C   UNL     1       0.162   7.479  16.768  1.00  0.00     0.049 A 
ATOM     55  C   UNL     1      -5.564   7.441  15.436  1.00  0.00     0.074 A 
ATOM     56  C   UNL     1       0.581   6.319  17.392  1.00  0.00     0.029 A 
ATOM     57  N   UNL     1      -1.070   7.768  17.312  1.00  0.00    -0.354 N 
ATOM     58  N   UNL     1      -5.263   6.732  16.495  1.00  0.00    -0.248 NA
ATOM     59  C   UNL     1      -4.783   8.658  15.263  1.00  0.00     0.031 C 
ATOM     60  C   UNL     1      -0.620   5.706  17.856  1.00  0.00     0.029 A 
ATOM     61  C   UNL     1      -1.685   6.570  17.586  1.00  0.00     0.049 A 
ATOM     62  H   UNL     1      -1.441   8.665  17.475  1.00  0.00     0.167 HD
ATOM     63  C   UNL     1      -4.000   7.166  16.871  1.00  0.00     0.074 A 
ATOM     64  C   UNL     1      -3.787   8.405  16.119  1.00  0.00     0.031 C 
ATOM     65  C   UNL     1      -3.118   6.344  17.516  1.00  0.00     0.034 A 
BRANCH  52  66
ATOM     66  C   UNL     1       0.726   9.644  15.471  1.00  0.00     0.023 A 
ATOM     67  C   UNL     1       1.003  10.330  16.670  1.00  0.00     0.031 A 
ATOM     68  C   UNL     1       0.394  10.457  14.362  1.00  0.00     0.131 A 
ATOM     69  C   UNL     1       0.879  11.729  16.749  1.00  0.00     0.055 A 
ATOM     70  C   UNL     1       0.332  11.852  14.431  1.00  0.00     0.041 A 
ATOM     71  F   UNL     1       0.016   9.953  13.182  1.00  0.00    -0.206 F 
ATOM     72  C   UNL     1       0.549  12.495  15.635  1.00  0.00     0.022 A 
BRANCH  69  73
ATOM     73  S   UNL     1       1.024  12.523  18.371  1.00  0.00     0.124 S 
ATOM     74  O   UNL     1      -0.039  11.861  19.119  1.00  0.00    -0.237 OA
ATOM     75  O   UNL     1       2.390  12.182  18.753  1.00  0.00    -0.237 OA
ATOM     76  O   UNL     1       0.795  13.936  18.078  1.00  0.00    -0.744 OA
ENDBRANCH  69  73
ENDBRANCH  52  66
BRANCH  53  77
ATOM     77  C   UNL     1      -7.359   7.475  13.494  1.00  0.00     0.023 A 
ATOM     78  C   UNL     1      -8.373   8.239  14.126  1.00  0.00     0.031 A 
ATOM     79  C   UNL     1      -7.356   7.510  12.079  1.00  0.00     0.131 A 
ATOM     80  C   UNL     1      -9.315   8.971  13.352  1.00  0.00     0.055 A 
ATOM     81  C   UNL     1      -8.288   8.228  11.324  1.00  0.00     0.041 A 
ATOM     82  F   UNL     1      -6.387   6.912  11.369  1.00  0.00    -0.206 F 
ATOM     83  C   UNL     1      -9.269   8.969  11.957  1.00  0.00     0.022 A 
BRANCH  80  84
ATOM     84  S   UNL     1     -10.574  10.034  14.146  1.00  0.00     0.124 S 
ATOM     85  O   UNL     1     -11.500   9.054  14.701  1.00  0.00    -0.237 OA
ATOM     86  O   UNL     1      -9.785  10.798  15.105  1.00  0.00    -0.237 OA
ATOM     87  O   UNL     1     -11.109  10.821  13.033  1.00  0.00    -0.744 OA
ENDBRANCH  80  84
ENDBRANCH  53  77
BRANCH  65  88
ATOM     88  C   UNL     1      -3.596   4.999  18.033  1.00  0.00     0.023 A 
ATOM     89  C   UNL     1      -3.992   3.909  17.221  1.00  0.00     0.031 A 
ATOM     90  C   UNL     1      -3.419   4.758  19.407  1.00  0.00     0.131 A 
ATOM     91  C   UNL     1      -4.178   2.633  17.798  1.00  0.00     0.055 A 
ATOM     92  C   UNL     1      -3.580   3.492  19.966  1.00  0.00     0.041 A 
ATOM     93  F   UNL     1      -3.009   5.746  20.220  1.00  0.00    -0.206 F 
ATOM     94  C   UNL     1      -3.957   2.423  19.163  1.00  0.00     0.022 A 
BRANCH  91  95
ATOM     95  S   UNL     1      -4.658   1.201  16.770  1.00  0.00     0.124 S 
ATOM     96  O   UNL     1      -5.957   1.597  16.239  1.00  0.00    -0.237 OA
ATOM     97  O   UNL     1      -3.567   1.113  15.804  1.00  0.00    -0.237 OA
ATOM     98  O   UNL     1      -4.706   0.093  17.727  1.00  0.00    -0.744 OA
ENDBRANCH  91  95
ENDBRANCH  65  88
ENDBRANCH  39  40
ENDBRANCH  31  34
ENDBRANCH  29  30
ENDBRANCH   1  29
TORSDOF 16
