REMARK SMILES CC[C@@H](C)N1C(=O)c2ccc(C(=O)NCCCCNC(=O)c3ccc(-c4c5nc(c(-c6cc(S(=O)(=O)[O-])ccc6F)c6ccc([nH]6)c(-c6cc(S(=O)(=O)[O-])ccc6F)c6nc(c(-c7cc(S(=O)(=O)[O-])ccc7F)c7ccc4[nH]7)C=C6)C=C5)cc3)cc2S1(=O)=O
REMARK SMILES IDX 17 1 16 2 15 3 14 4 12 5 13 6 11 8 5 9 6 10 87 11 7 12 8 13
REMARK SMILES IDX 86 14 88 15 89 16 9 17 85 18 10 19 3 20 4 21 2 22 1 23 18 24
REMARK SMILES IDX 19 25 20 26 21 28 22 29 23 30 84 31 24 32 83 33 25 34 26 35
REMARK SMILES IDX 27 36 77 37 28 38 82 39 76 40 78 41 29 42 81 43 75 44 74 45
REMARK SMILES IDX 30 47 62 48 42 49 61 50 43 51 46 52 60 53 79 54 44 55 45 56
REMARK SMILES IDX 59 58 80 59 47 60 31 61 32 62 40 63 33 64 39 65 41 66 38 67
REMARK SMILES IDX 34 68 35 69 36 70 37 71 63 72 64 73 72 74 65 75 71 76 73 77
REMARK SMILES IDX 70 78 66 79 67 80 68 81 69 82 48 83 49 84 57 85 50 86 56 87
REMARK SMILES IDX 58 88 55 89 51 90 52 91 53 92 54 93
REMARK H PARENT 14 7 19 27 78 46 46 57
REMARK Flexibility Score: inf
ROOT
ATOM      1  C   UNL     1      -3.968  -1.015 -12.088  1.00  0.00     0.023 C 
ENDROOT
BRANCH   1   2
ATOM      2  C   UNL     1      -3.155  -1.429 -10.860  1.00  0.00     0.023 C 
BRANCH   2   3
ATOM      3  C   UNL     1      -1.714  -0.914 -10.872  1.00  0.00     0.116 C 
BRANCH   3   4
ATOM      4  N   UNL     1      -1.657   0.449 -10.382  1.00  0.00    -0.352 N 
ATOM      5  C   UNL     1      -1.409   0.983  -9.145  1.00  0.00     0.251 C 
ATOM      6  O   UNL     1      -1.411   2.210  -9.043  1.00  0.00    -0.269 OA
ATOM      7  H   UNL     1      -1.831   1.125 -11.076  1.00  0.00     0.163 HD
BRANCH   5   8
ATOM      8  C   UNL     1      -1.094   0.172  -7.931  1.00  0.00     0.041 A 
ATOM      9  N   UNL     1       0.405  -0.766  -3.446  1.00  0.00    -0.229 N 
ATOM     10  C   UNL     1      -0.004  -1.804  -4.328  1.00  0.00     0.269 C 
ATOM     11  S   UNL     1       0.506   0.737  -4.244  1.00  0.00     0.267 S 
ATOM     12  O   UNL     1      -0.044  -2.997  -4.102  1.00  0.00    -0.268 OA
ATOM     13  C   UNL     1      -0.400  -1.230  -5.619  1.00  0.00     0.061 A 
ATOM     14  C   UNL     1      -0.139   0.121  -5.734  1.00  0.00     0.101 A 
ATOM     15  O   UNL     1      -0.468   1.644  -3.685  1.00  0.00    -0.201 OA
ATOM     16  O   UNL     1       1.896   1.071  -4.440  1.00  0.00    -0.201 OA
ATOM     17  C   UNL     1      -1.050  -1.909  -6.630  1.00  0.00     0.016 A 
ATOM     18  C   UNL     1      -0.459   0.845  -6.870  1.00  0.00     0.037 A 
ATOM     19  C   UNL     1      -1.430  -1.188  -7.767  1.00  0.00     0.015 A 
BRANCH   9  20
ATOM     20  C   UNL     1       0.987  -0.906  -2.079  1.00  0.00     0.100 C 
ATOM     21  C   UNL     1       0.659  -2.280  -1.481  1.00  0.00     0.032 C 
BRANCH  20  22
ATOM     22  C   UNL     1       0.489   0.224  -1.153  1.00  0.00     0.023 C 
ATOM     23  C   UNL     1       0.972   0.127   0.289  1.00  0.00     0.006 C 
ENDBRANCH  20  22
ENDBRANCH   9  20
ENDBRANCH   5   8
ENDBRANCH   3   4
ENDBRANCH   2   3
ENDBRANCH   1   2
BRANCH   1  24
ATOM     24  C   UNL     1      -3.428  -1.539 -13.414  1.00  0.00     0.116 C 
BRANCH  24  25
ATOM     25  N   UNL     1      -3.305  -2.990 -13.451  1.00  0.00    -0.352 N 
ATOM     26  C   UNL     1      -3.531  -3.829 -14.518  1.00  0.00     0.251 C 
ATOM     27  H   UNL     1      -3.027  -3.423 -12.611  1.00  0.00     0.163 HD
ATOM     28  O   UNL     1      -3.498  -5.046 -14.373  1.00  0.00    -0.269 OA
BRANCH  26  29
ATOM     29  C   UNL     1      -3.861  -3.224 -15.822  1.00  0.00     0.039 A 
ATOM     30  C   UNL     1      -5.064  -3.567 -16.441  1.00  0.00     0.014 A 
ATOM     31  C   UNL     1      -3.038  -2.228 -16.355  1.00  0.00     0.014 A 
ATOM     32  C   UNL     1      -5.490  -2.838 -17.552  1.00  0.00     0.010 A 
ATOM     33  C   UNL     1      -3.500  -1.459 -17.416  1.00  0.00     0.010 A 
ATOM     34  C   UNL     1      -4.741  -1.741 -18.009  1.00  0.00    -0.014 A 
BRANCH  34  35
ATOM     35  C   UNL     1      -5.256  -0.842 -19.073  1.00  0.00     0.031 A 
ATOM     36  C   UNL     1      -4.514  -0.716 -20.373  1.00  0.00     0.074 A 
ATOM     37  C   UNL     1      -6.341  -0.078 -18.830  1.00  0.00     0.049 A 
ATOM     38  N   UNL     1      -4.731   0.100 -21.371  1.00  0.00    -0.248 NA
ATOM     39  C   UNL     1      -3.360  -1.608 -20.561  1.00  0.00     0.031 C 
ATOM     40  C   UNL     1      -7.127  -0.096 -17.593  1.00  0.00     0.029 A 
ATOM     41  N   UNL     1      -6.963   0.872 -19.600  1.00  0.00    -0.354 N 
ATOM     42  C   UNL     1      -3.739  -0.175 -22.306  1.00  0.00     0.074 A 
ATOM     43  C   UNL     1      -2.886  -1.191 -21.726  1.00  0.00     0.031 C 
ATOM     44  C   UNL     1      -8.135   0.784 -17.699  1.00  0.00     0.029 A 
ATOM     45  C   UNL     1      -8.035   1.475 -18.980  1.00  0.00     0.049 A 
ATOM     46  H   UNL     1      -6.671   1.101 -20.512  1.00  0.00     0.167 HD
ATOM     47  C   UNL     1      -3.572   0.357 -23.541  1.00  0.00     0.034 A 
ATOM     48  C   UNL     1      -8.827   2.489 -19.384  1.00  0.00     0.034 A 
ATOM     49  C   UNL     1      -4.434   1.368 -24.101  1.00  0.00     0.049 A 
ATOM     50  C   UNL     1      -8.569   3.118 -20.731  1.00  0.00     0.074 A 
ATOM     51  C   UNL     1      -4.386   1.936 -25.362  1.00  0.00     0.029 A 
ATOM     52  N   UNL     1      -5.489   1.976 -23.432  1.00  0.00    -0.354 N 
ATOM     53  N   UNL     1      -7.661   2.806 -21.627  1.00  0.00    -0.248 NA
ATOM     54  C   UNL     1      -9.438   4.236 -21.121  1.00  0.00     0.031 C 
ATOM     55  C   UNL     1      -5.355   2.942 -25.426  1.00  0.00     0.029 A 
ATOM     56  C   UNL     1      -6.065   2.946 -24.236  1.00  0.00     0.049 A 
ATOM     57  H   UNL     1      -5.783   1.750 -22.520  1.00  0.00     0.167 HD
ATOM     58  C   UNL     1      -7.867   3.676 -22.694  1.00  0.00     0.074 A 
ATOM     59  C   UNL     1      -8.998   4.508 -22.340  1.00  0.00     0.031 C 
ATOM     60  C   UNL     1      -7.184   3.779 -23.862  1.00  0.00     0.034 A 
BRANCH  47  61
ATOM     61  C   UNL     1      -2.398  -0.127 -24.356  1.00  0.00     0.023 A 
ATOM     62  C   UNL     1      -2.291  -1.466 -24.771  1.00  0.00     0.031 A 
ATOM     63  C   UNL     1      -1.368   0.758 -24.720  1.00  0.00     0.131 A 
ATOM     64  C   UNL     1      -1.151  -1.895 -25.465  1.00  0.00     0.055 A 
ATOM     65  C   UNL     1      -0.275   0.343 -25.482  1.00  0.00     0.041 A 
ATOM     66  F   UNL     1      -1.403   2.043 -24.333  1.00  0.00    -0.206 F 
ATOM     67  C   UNL     1      -0.155  -0.994 -25.848  1.00  0.00     0.022 A 
BRANCH  64  68
ATOM     68  S   UNL     1      -0.924  -3.673 -25.738  1.00  0.00     0.124 S 
ATOM     69  O   UNL     1      -0.938  -4.186 -24.370  1.00  0.00    -0.237 OA
ATOM     70  O   UNL     1      -2.078  -4.016 -26.560  1.00  0.00    -0.237 OA
ATOM     71  O   UNL     1       0.370  -3.754 -26.412  1.00  0.00    -0.744 OA
ENDBRANCH  64  68
ENDBRANCH  47  61
BRANCH  48  72
ATOM     72  C   UNL     1      -9.914   3.006 -18.500  1.00  0.00     0.023 A 
ATOM     73  C   UNL     1     -11.257   2.956 -18.904  1.00  0.00     0.031 A 
ATOM     74  C   UNL     1      -9.621   3.616 -17.267  1.00  0.00     0.131 A 
ATOM     75  C   UNL     1     -12.250   3.552 -18.111  1.00  0.00     0.055 A 
ATOM     76  C   UNL     1     -10.620   4.151 -16.451  1.00  0.00     0.041 A 
ATOM     77  F   UNL     1      -8.353   3.696 -16.831  1.00  0.00    -0.206 F 
ATOM     78  C   UNL     1     -11.943   4.135 -16.879  1.00  0.00     0.022 A 
BRANCH  75  79
ATOM     79  S   UNL     1     -13.938   3.653 -18.767  1.00  0.00     0.124 S 
ATOM     80  O   UNL     1     -13.726   4.376 -20.016  1.00  0.00    -0.237 OA
ATOM     81  O   UNL     1     -14.298   2.245 -18.893  1.00  0.00    -0.237 OA
ATOM     82  O   UNL     1     -14.661   4.391 -17.734  1.00  0.00    -0.744 OA
ENDBRANCH  75  79
ENDBRANCH  48  72
BRANCH  60  83
ATOM     83  C   UNL     1      -7.659   4.815 -24.851  1.00  0.00     0.023 A 
ATOM     84  C   UNL     1      -7.543   6.191 -24.587  1.00  0.00     0.031 A 
ATOM     85  C   UNL     1      -8.217   4.420 -26.080  1.00  0.00     0.131 A 
ATOM     86  C   UNL     1      -8.017   7.123 -25.522  1.00  0.00     0.055 A 
ATOM     87  C   UNL     1      -8.630   5.353 -27.032  1.00  0.00     0.041 A 
ATOM     88  F   UNL     1      -8.355   3.119 -26.381  1.00  0.00    -0.206 F 
ATOM     89  C   UNL     1      -8.539   6.713 -26.752  1.00  0.00     0.022 A 
BRANCH  86  90
ATOM     90  S   UNL     1      -8.004   8.882 -25.081  1.00  0.00     0.124 S 
ATOM     91  O   UNL     1      -8.875   8.906 -23.911  1.00  0.00    -0.237 OA
ATOM     92  O   UNL     1      -6.589   9.132 -24.828  1.00  0.00    -0.237 OA
ATOM     93  O   UNL     1      -8.544   9.537 -26.271  1.00  0.00    -0.744 OA
ENDBRANCH  86  90
ENDBRANCH  60  83
ENDBRANCH  34  35
ENDBRANCH  26  29
ENDBRANCH  24  25
ENDBRANCH   1  24
TORSDOF 16
