REMARK SMILES CCCc1nn(-c2ccc(OC)cc2)c2sc(C(=O)NCCCCNC(=O)c3ccc(-c4c5nc(c(-c6cc(S(=O)(=O)[O-])ccc6F)c6ccc([nH]6)c(-c6cc(S(=O)(=O)[O-])ccc6F)c6nc(c(-c7cc(S(=O)(=O)[O-])ccc7F)c7ccc4[nH]7)C=C6)C=C5)cc3)cc12
REMARK SMILES IDX 23 1 22 2 21 3 20 4 18 5 19 6 17 8 4 9 5 10 92 11 6 12 15 13
REMARK SMILES IDX 91 14 16 15 3 16 2 17 1 18 7 19 8 20 14 21 9 22 13 23 10 24
REMARK SMILES IDX 11 25 12 26 24 27 25 28 26 29 27 31 28 32 29 33 90 34 30 35
REMARK SMILES IDX 89 36 31 37 32 38 33 39 83 40 34 41 88 42 82 43 84 44 35 45
REMARK SMILES IDX 87 46 81 47 80 48 36 50 68 51 48 52 67 53 49 54 52 55 66 56
REMARK SMILES IDX 85 57 50 58 51 59 65 61 86 62 53 63 37 64 38 65 46 66 39 67
REMARK SMILES IDX 45 68 47 69 44 70 40 71 41 72 42 73 43 74 69 75 70 76 78 77
REMARK SMILES IDX 71 78 77 79 79 80 76 81 72 82 73 83 74 84 75 85 54 86 55 87
REMARK SMILES IDX 63 88 56 89 62 90 64 91 61 92 57 93 58 94 59 95 60 96
REMARK H PARENT 20 7 25 30 84 49 52 60
REMARK Flexibility Score: inf
ROOT
ATOM      1  C   UNL     1      -2.505  -8.588   6.510  1.00  0.00     0.023 C 
ENDROOT
BRANCH   1   2
ATOM      2  C   UNL     1      -1.925  -7.288   5.941  1.00  0.00     0.023 C 
BRANCH   2   3
ATOM      3  C   UNL     1      -0.426  -7.328   5.597  1.00  0.00     0.116 C 
BRANCH   3   4
ATOM      4  N   UNL     1      -0.145  -7.951   4.302  1.00  0.00    -0.351 N 
ATOM      5  C   UNL     1       0.082  -7.436   3.034  1.00  0.00     0.261 C 
ATOM      6  O   UNL     1       0.460  -8.247   2.185  1.00  0.00    -0.268 OA
ATOM      7  H   UNL     1      -0.109  -8.934   4.339  1.00  0.00     0.163 HD
BRANCH   5   8
ATOM      8  C   UNL     1      -0.086  -6.022   2.708  1.00  0.00     0.095 A 
ATOM      9  C   UNL     1       0.302  -2.705   1.111  1.00  0.00     0.072 A 
ATOM     10  N   UNL     1      -0.228  -1.715   1.887  1.00  0.00    -0.171 NA
ATOM     11  C   UNL     1       0.131  -3.942   1.747  1.00  0.00     0.035 A 
ATOM     12  N   UNL     1      -0.604  -2.352   3.031  1.00  0.00    -0.223 N 
ATOM     13  C   UNL     1      -0.531  -3.686   2.867  1.00  0.00     0.128 A 
ATOM     14  C   UNL     1       0.422  -5.304   1.597  1.00  0.00     0.038 A 
ATOM     15  S   UNL     1      -1.102  -5.002   3.664  1.00  0.00    -0.110 S 
BRANCH   9  16
ATOM     16  C   UNL     1       0.914  -2.402  -0.221  1.00  0.00     0.058 C 
BRANCH  16  17
ATOM     17  C   UNL     1       0.460  -1.089  -0.877  1.00  0.00     0.003 C 
ATOM     18  C   UNL     1       1.101   0.159  -0.279  1.00  0.00     0.004 C 
ENDBRANCH  16  17
ENDBRANCH   9  16
BRANCH  12  19
ATOM     19  C   UNL     1      -0.963  -1.734   4.240  1.00  0.00     0.066 A 
ATOM     20  C   UNL     1      -0.337  -2.185   5.415  1.00  0.00     0.032 A 
ATOM     21  C   UNL     1      -2.101  -0.938   4.294  1.00  0.00     0.032 A 
ATOM     22  C   UNL     1      -0.892  -1.883   6.651  1.00  0.00     0.048 A 
ATOM     23  C   UNL     1      -2.670  -0.669   5.546  1.00  0.00     0.048 A 
ATOM     24  C   UNL     1      -2.078  -1.154   6.722  1.00  0.00     0.119 A 
BRANCH  24  25
ATOM     25  O   UNL     1      -2.559  -1.008   7.992  1.00  0.00    -0.497 OA
ATOM     26  C   UNL     1      -3.808  -0.353   8.136  1.00  0.00     0.278 C 
ENDBRANCH  24  25
ENDBRANCH  12  19
ENDBRANCH   5   8
ENDBRANCH   3   4
ENDBRANCH   2   3
ENDBRANCH   1   2
BRANCH   1  27
ATOM     27  C   UNL     1      -1.994  -8.971   7.896  1.00  0.00     0.116 C 
BRANCH  27  28
ATOM     28  N   UNL     1      -2.364  -8.006   8.928  1.00  0.00    -0.352 N 
ATOM     29  C   UNL     1      -1.867  -7.920  10.212  1.00  0.00     0.251 C 
ATOM     30  H   UNL     1      -3.047  -7.342   8.680  1.00  0.00     0.163 HD
ATOM     31  O   UNL     1      -2.539  -7.399  11.103  1.00  0.00    -0.269 OA
BRANCH  29  32
ATOM     32  C   UNL     1      -0.524  -8.454  10.501  1.00  0.00     0.039 A 
ATOM     33  C   UNL     1      -0.284  -9.208  11.653  1.00  0.00     0.014 A 
ATOM     34  C   UNL     1       0.501  -8.209   9.586  1.00  0.00     0.014 A 
ATOM     35  C   UNL     1       0.967  -9.798  11.826  1.00  0.00     0.010 A 
ATOM     36  C   UNL     1       1.711  -8.860   9.714  1.00  0.00     0.010 A 
ATOM     37  C   UNL     1       1.956  -9.647  10.838  1.00  0.00    -0.014 A 
BRANCH  37  38
ATOM     38  C   UNL     1       3.173 -10.463  10.885  1.00  0.00     0.031 A 
ATOM     39  C   UNL     1       2.922 -11.931  10.929  1.00  0.00     0.074 A 
ATOM     40  C   UNL     1       4.420  -9.989  10.669  1.00  0.00     0.049 A 
ATOM     41  N   UNL     1       3.143 -12.739  11.911  1.00  0.00    -0.248 NA
ATOM     42  C   UNL     1       2.197 -12.553   9.809  1.00  0.00     0.031 C 
ATOM     43  C   UNL     1       4.808  -8.624  10.307  1.00  0.00     0.029 A 
ATOM     44  N   UNL     1       5.606 -10.662  10.616  1.00  0.00    -0.354 N 
ATOM     45  C   UNL     1       2.819 -14.013  11.450  1.00  0.00     0.074 A 
ATOM     46  C   UNL     1       2.051 -13.804  10.252  1.00  0.00     0.031 C 
ATOM     47  C   UNL     1       6.081  -8.623   9.852  1.00  0.00     0.029 A 
ATOM     48  C   UNL     1       6.650  -9.949  10.028  1.00  0.00     0.049 A 
ATOM     49  H   UNL     1       5.715 -11.577  10.964  1.00  0.00     0.167 HD
ATOM     50  C   UNL     1       3.418 -15.123  11.969  1.00  0.00     0.034 A 
ATOM     51  C   UNL     1       7.883 -10.412   9.679  1.00  0.00     0.034 A 
ATOM     52  C   UNL     1       4.114 -14.796  13.197  1.00  0.00     0.049 A 
ATOM     53  C   UNL     1       8.131 -11.632  10.485  1.00  0.00     0.074 A 
ATOM     54  C   UNL     1       3.739 -14.245  14.407  1.00  0.00     0.029 A 
ATOM     55  N   UNL     1       5.487 -14.679  13.149  1.00  0.00    -0.354 N 
ATOM     56  N   UNL     1       8.280 -11.614  11.780  1.00  0.00    -0.248 NA
ATOM     57  C   UNL     1       7.734 -12.918   9.930  1.00  0.00     0.031 C 
ATOM     58  C   UNL     1       4.815 -13.379  14.763  1.00  0.00     0.029 A 
ATOM     59  C   UNL     1       5.826 -13.525  13.811  1.00  0.00     0.049 A 
ATOM     60  H   UNL     1       6.111 -15.307  12.719  1.00  0.00     0.167 HD
ATOM     61  C   UNL     1       7.565 -12.709  12.236  1.00  0.00     0.074 A 
ATOM     62  C   UNL     1       7.347 -13.536  11.050  1.00  0.00     0.031 C 
ATOM     63  C   UNL     1       6.968 -12.699  13.466  1.00  0.00     0.034 A 
BRANCH  50  64
ATOM     64  C   UNL     1       3.717 -16.407  11.216  1.00  0.00     0.023 A 
ATOM     65  C   UNL     1       4.426 -17.402  11.920  1.00  0.00     0.031 A 
ATOM     66  C   UNL     1       3.628 -16.600   9.820  1.00  0.00     0.131 A 
ATOM     67  C   UNL     1       5.123 -18.417  11.243  1.00  0.00     0.055 A 
ATOM     68  C   UNL     1       4.263 -17.657   9.157  1.00  0.00     0.041 A 
ATOM     69  F   UNL     1       3.003 -15.745   9.005  1.00  0.00    -0.206 F 
ATOM     70  C   UNL     1       5.050 -18.549   9.862  1.00  0.00     0.022 A 
BRANCH  67  71
ATOM     71  S   UNL     1       6.288 -19.428  12.192  1.00  0.00     0.124 S 
ATOM     72  O   UNL     1       7.152 -18.404  12.769  1.00  0.00    -0.237 OA
ATOM     73  O   UNL     1       5.399 -20.120  13.118  1.00  0.00    -0.237 OA
ATOM     74  O   UNL     1       6.909 -20.272  11.174  1.00  0.00    -0.744 OA
ENDBRANCH  67  71
ENDBRANCH  50  64
BRANCH  51  75
ATOM     75  C   UNL     1       8.735 -10.007   8.523  1.00  0.00     0.023 A 
ATOM     76  C   UNL     1      10.117 -10.295   8.446  1.00  0.00     0.031 A 
ATOM     77  C   UNL     1       8.123  -9.537   7.339  1.00  0.00     0.131 A 
ATOM     78  C   UNL     1      10.819 -10.117   7.228  1.00  0.00     0.055 A 
ATOM     79  C   UNL     1       8.821  -9.361   6.141  1.00  0.00     0.041 A 
ATOM     80  F   UNL     1       6.800  -9.319   7.279  1.00  0.00    -0.206 F 
ATOM     81  C   UNL     1      10.171  -9.661   6.078  1.00  0.00     0.022 A 
BRANCH  78  82
ATOM     82  S   UNL     1      12.578 -10.582   7.085  1.00  0.00     0.124 S 
ATOM     83  O   UNL     1      13.240  -9.542   7.863  1.00  0.00    -0.237 OA
ATOM     84  O   UNL     1      12.596 -11.928   7.647  1.00  0.00    -0.237 OA
ATOM     85  O   UNL     1      12.830 -10.523   5.644  1.00  0.00    -0.744 OA
ENDBRANCH  78  82
ENDBRANCH  51  75
BRANCH  63  86
ATOM     86  C   UNL     1       7.373 -11.631  14.465  1.00  0.00     0.023 A 
ATOM     87  C   UNL     1       7.362 -10.238  14.222  1.00  0.00     0.031 A 
ATOM     88  C   UNL     1       7.694 -12.058  15.767  1.00  0.00     0.131 A 
ATOM     89  C   UNL     1       7.685  -9.338  15.256  1.00  0.00     0.055 A 
ATOM     90  C   UNL     1       7.985 -11.164  16.795  1.00  0.00     0.041 A 
ATOM     91  F   UNL     1       7.702 -13.366  16.073  1.00  0.00    -0.206 F 
ATOM     92  C   UNL     1       7.992  -9.799  16.541  1.00  0.00     0.022 A 
BRANCH  89  93
ATOM     93  S   UNL     1       7.755  -7.543  14.946  1.00  0.00     0.124 S 
ATOM     94  O   UNL     1       8.437  -7.440  13.662  1.00  0.00    -0.237 OA
ATOM     95  O   UNL     1       6.343  -7.169  14.951  1.00  0.00    -0.237 OA
ATOM     96  O   UNL     1       8.521  -7.034  16.085  1.00  0.00    -0.744 OA
ENDBRANCH  89  93
ENDBRANCH  63  86
ENDBRANCH  37  38
ENDBRANCH  29  32
ENDBRANCH  27  28
ENDBRANCH   1  27
TORSDOF 18
