REMARK SMILES Cc1ccc(-c2cc(Cl)cc3c2O[C@H](C(F)(F)F)C(C(=O)NCCCCNC(=O)c2ccc(-c4c5nc(c(-c6cc(S(=O)(=O)[O-])ccc6F)c6ccc([nH]6)c(-c6cc(S(=O)(=O)[O-])ccc6F)c6nc(c(-c7cc(S(=O)(=O)[O-])ccc7F)c7ccc4[nH]7)C=C6)C=C5)cc2)=C3)cc1F
REMARK SMILES IDX 25 1 24 2 23 3 22 4 20 5 21 6 19 8 6 9 7 10 12 11 8 12 11 13
REMARK SMILES IDX 13 14 9 15 10 16 93 17 14 18 5 19 1 20 2 21 3 22 95 23 4 24
REMARK SMILES IDX 94 25 96 26 15 27 16 28 17 29 18 30 26 31 27 32 28 33 29 35
REMARK SMILES IDX 30 36 31 37 92 38 32 39 91 40 33 41 34 42 35 43 85 44 36 45
REMARK SMILES IDX 90 46 84 47 86 48 37 49 89 50 83 51 82 52 38 54 70 55 50 56
REMARK SMILES IDX 69 57 51 58 54 59 68 60 87 61 52 62 53 63 67 65 88 66 55 67
REMARK SMILES IDX 39 68 40 69 48 70 41 71 47 72 49 73 46 74 42 75 43 76 44 77
REMARK SMILES IDX 45 78 71 79 72 80 80 81 73 82 79 83 81 84 78 85 74 86 75 87
REMARK SMILES IDX 76 88 77 89 56 90 57 91 65 92 58 93 64 94 66 95 63 96 59 97
REMARK SMILES IDX 60 98 61 99 62 100
REMARK H PARENT 22 7 27 34 86 53 54 64
REMARK Flexibility Score: inf
ROOT
ATOM      1  C   UNL     1      -0.874  -5.598   7.367  1.00  0.00     0.023 C 
ENDROOT
BRANCH   1   2
ATOM      2  C   UNL     1      -1.214  -4.469   6.422  1.00  0.00     0.023 C 
BRANCH   2   3
ATOM      3  C   UNL     1      -1.395  -5.071   5.057  1.00  0.00     0.116 C 
BRANCH   3   4
ATOM      4  N   UNL     1      -2.772  -5.499   4.857  1.00  0.00    -0.352 N 
ATOM      5  C   UNL     1      -3.729  -5.328   3.919  1.00  0.00     0.251 C 
ATOM      6  O   UNL     1      -4.773  -5.971   4.049  1.00  0.00    -0.270 OA
ATOM      7  H   UNL     1      -3.089  -6.060   5.601  1.00  0.00     0.163 HD
BRANCH   5   8
ATOM      8  C   UNL     1      -3.575  -4.409   2.760  1.00  0.00     0.067 C 
ATOM      9  C   UNL     1      -3.174  -1.645  -0.353  1.00  0.00     0.026 A 
ATOM     10  C   UNL     1      -4.106  -1.659  -1.394  1.00  0.00     0.033 A 
ATOM     11  C   UNL     1      -3.396  -2.518   0.724  1.00  0.00     0.135 A 
ATOM     12  C   UNL     1      -5.205  -2.527  -1.347  1.00  0.00     0.042 A 
ATOM     13  C   UNL     1      -4.475  -3.408   0.769  1.00  0.00     0.019 A 
ATOM     14  O   UNL     1      -2.526  -2.408   1.771  1.00  0.00    -0.475 OA
ATOM     15  Cl  UNL     1      -6.346  -2.516  -2.636  1.00  0.00    -0.084 Cl
ATOM     16  C   UNL     1      -5.393  -3.404  -0.276  1.00  0.00     0.032 A 
ATOM     17  C   UNL     1      -4.616  -4.301   1.915  1.00  0.00     0.025 C 
ATOM     18  C   UNL     1      -2.333  -3.608   2.538  1.00  0.00     0.314 C 
BRANCH   9  19
ATOM     19  C   UNL     1      -1.989  -0.767  -0.360  1.00  0.00    -0.012 A 
ATOM     20  C   UNL     1       1.514   1.752   0.014  1.00  0.00     0.047 C 
ATOM     21  C   UNL     1       0.293   0.896  -0.128  1.00  0.00    -0.015 A 
ATOM     22  C   UNL     1      -0.992   1.449  -0.145  1.00  0.00     0.007 A 
ATOM     23  C   UNL     1       0.423  -0.488  -0.228  1.00  0.00     0.126 A 
ATOM     24  C   UNL     1      -2.120   0.625  -0.260  1.00  0.00     0.009 A 
ATOM     25  C   UNL     1      -0.693  -1.311  -0.351  1.00  0.00     0.048 A 
ATOM     26  F   UNL     1       1.641  -1.047  -0.191  1.00  0.00    -0.207 F 
ENDBRANCH   9  19
BRANCH  18  27
ATOM     27  C   UNL     1      -1.184  -4.439   1.924  1.00  0.00     0.429 C 
ATOM     28  F   UNL     1       0.011  -3.839   2.151  1.00  0.00    -0.167 F 
ATOM     29  F   UNL     1      -1.092  -5.689   2.435  1.00  0.00    -0.167 F 
ATOM     30  F   UNL     1      -1.308  -4.586   0.584  1.00  0.00    -0.167 F 
ENDBRANCH  18  27
ENDBRANCH   5   8
ENDBRANCH   3   4
ENDBRANCH   2   3
ENDBRANCH   1   2
BRANCH   1  31
ATOM     31  C   UNL     1       0.533  -6.166   7.264  1.00  0.00     0.116 C 
BRANCH  31  32
ATOM     32  N   UNL     1       1.617  -5.194   7.212  1.00  0.00    -0.352 N 
ATOM     33  C   UNL     1       2.615  -4.833   8.081  1.00  0.00     0.251 C 
ATOM     34  H   UNL     1       1.637  -4.685   6.370  1.00  0.00     0.163 HD
ATOM     35  O   UNL     1       3.563  -4.198   7.608  1.00  0.00    -0.269 OA
BRANCH  33  36
ATOM     36  C   UNL     1       2.513  -4.979   9.553  1.00  0.00     0.039 A 
ATOM     37  C   UNL     1       1.743  -5.927  10.218  1.00  0.00     0.014 A 
ATOM     38  C   UNL     1       3.095  -3.941  10.292  1.00  0.00     0.014 A 
ATOM     39  C   UNL     1       1.284  -5.664  11.506  1.00  0.00     0.010 A 
ATOM     40  C   UNL     1       2.678  -3.704  11.589  1.00  0.00     0.010 A 
ATOM     41  C   UNL     1       1.665  -4.489  12.139  1.00  0.00    -0.014 A 
BRANCH  41  42
ATOM     42  C   UNL     1       1.081  -4.041  13.395  1.00  0.00     0.031 A 
ATOM     43  C   UNL     1       1.138  -4.915  14.591  1.00  0.00     0.074 A 
ATOM     44  C   UNL     1       0.523  -2.805  13.461  1.00  0.00     0.049 A 
ATOM     45  N   UNL     1       0.373  -4.774  15.619  1.00  0.00    -0.248 NA
ATOM     46  C   UNL     1       2.026  -6.074  14.701  1.00  0.00     0.031 C 
ATOM     47  C   UNL     1       0.306  -2.018  14.662  1.00  0.00     0.029 A 
ATOM     48  N   UNL     1      -0.067  -2.027  12.452  1.00  0.00    -0.354 N 
ATOM     49  C   UNL     1       0.865  -5.586  16.618  1.00  0.00     0.074 A 
ATOM     50  C   UNL     1       1.789  -6.474  15.956  1.00  0.00     0.031 C 
ATOM     51  C   UNL     1      -0.523  -1.000  14.384  1.00  0.00     0.029 A 
ATOM     52  C   UNL     1      -1.054  -1.217  13.049  1.00  0.00     0.049 A 
ATOM     53  H   UNL     1       0.167  -2.044  11.496  1.00  0.00     0.167 HD
ATOM     54  C   UNL     1       0.568  -5.280  17.914  1.00  0.00     0.034 A 
ATOM     55  C   UNL     1      -2.388  -1.124  12.728  1.00  0.00     0.034 A 
ATOM     56  C   UNL     1      -0.403  -4.186  17.967  1.00  0.00     0.049 A 
ATOM     57  C   UNL     1      -3.287  -1.423  13.908  1.00  0.00     0.074 A 
ATOM     58  C   UNL     1      -0.237  -2.819  18.109  1.00  0.00     0.029 A 
ATOM     59  N   UNL     1      -1.710  -4.387  17.538  1.00  0.00    -0.354 N 
ATOM     60  N   UNL     1      -2.863  -1.967  15.007  1.00  0.00    -0.248 NA
ATOM     61  C   UNL     1      -4.738  -1.264  13.885  1.00  0.00     0.031 C 
ATOM     62  C   UNL     1      -1.439  -2.190  17.709  1.00  0.00     0.029 A 
ATOM     63  C   UNL     1      -2.353  -3.171  17.360  1.00  0.00     0.049 A 
ATOM     64  H   UNL     1      -2.122  -5.268  17.383  1.00  0.00     0.167 HD
ATOM     65  C   UNL     1      -3.927  -2.345  15.774  1.00  0.00     0.074 A 
ATOM     66  C   UNL     1      -5.076  -1.819  15.061  1.00  0.00     0.031 C 
ATOM     67  C   UNL     1      -3.741  -3.100  16.896  1.00  0.00     0.034 A 
BRANCH  54  68
ATOM     68  C   UNL     1       1.373  -5.725  19.127  1.00  0.00     0.023 A 
ATOM     69  C   UNL     1       2.354  -6.742  19.122  1.00  0.00     0.031 A 
ATOM     70  C   UNL     1       1.237  -5.036  20.356  1.00  0.00     0.131 A 
ATOM     71  C   UNL     1       3.176  -6.988  20.243  1.00  0.00     0.055 A 
ATOM     72  C   UNL     1       2.042  -5.292  21.474  1.00  0.00     0.041 A 
ATOM     73  F   UNL     1       0.345  -4.048  20.517  1.00  0.00    -0.206 F 
ATOM     74  C   UNL     1       3.028  -6.262  21.419  1.00  0.00     0.022 A 
BRANCH  71  75
ATOM     75  S   UNL     1       4.508  -8.226  20.185  1.00  0.00     0.124 S 
ATOM     76  O   UNL     1       5.693  -7.420  20.475  1.00  0.00    -0.237 OA
ATOM     77  O   UNL     1       4.118  -9.158  21.239  1.00  0.00    -0.237 OA
ATOM     78  O   UNL     1       4.441  -8.755  18.826  1.00  0.00    -0.744 OA
ENDBRANCH  71  75
ENDBRANCH  54  68
BRANCH  55  79
ATOM     79  C   UNL     1      -2.788  -1.597  11.370  1.00  0.00     0.023 A 
ATOM     80  C   UNL     1      -3.110  -2.957  11.302  1.00  0.00     0.031 A 
ATOM     81  C   UNL     1      -2.169  -0.982  10.276  1.00  0.00     0.131 A 
ATOM     82  C   UNL     1      -2.370  -3.755  10.441  1.00  0.00     0.055 A 
ATOM     83  C   UNL     1      -1.440  -1.762   9.398  1.00  0.00     0.041 A 
ATOM     84  F   UNL     1      -2.042   0.353  10.219  1.00  0.00    -0.206 F 
ATOM     85  C   UNL     1      -1.432  -3.145   9.596  1.00  0.00     0.022 A 
BRANCH  82  86
ATOM     86  S   UNL     1      -2.559  -5.560  10.663  1.00  0.00     0.124 S 
ATOM     87  O   UNL     1      -3.682  -5.828   9.771  1.00  0.00    -0.237 OA
ATOM     88  O   UNL     1      -1.287  -6.132  10.230  1.00  0.00    -0.237 OA
ATOM     89  O   UNL     1      -2.816  -5.698  12.085  1.00  0.00    -0.744 OA
ENDBRANCH  82  86
ENDBRANCH  55  79
BRANCH  67  90
ATOM     90  C   UNL     1      -4.826  -3.745  17.725  1.00  0.00     0.023 A 
ATOM     91  C   UNL     1      -4.489  -4.206  19.020  1.00  0.00     0.031 A 
ATOM     92  C   UNL     1      -6.136  -4.021  17.300  1.00  0.00     0.131 A 
ATOM     93  C   UNL     1      -5.415  -4.878  19.825  1.00  0.00     0.055 A 
ATOM     94  C   UNL     1      -7.089  -4.610  18.139  1.00  0.00     0.041 A 
ATOM     95  F   UNL     1      -6.541  -3.792  16.044  1.00  0.00    -0.206 F 
ATOM     96  C   UNL     1      -6.730  -5.048  19.405  1.00  0.00     0.022 A 
BRANCH  93  97
ATOM     97  S   UNL     1      -4.893  -5.671  21.369  1.00  0.00     0.124 S 
ATOM     98  O   UNL     1      -5.417  -4.745  22.369  1.00  0.00    -0.237 OA
ATOM     99  O   UNL     1      -5.573  -6.963  21.298  1.00  0.00    -0.237 OA
ATOM    100  O   UNL     1      -3.441  -5.731  21.256  1.00  0.00    -0.744 OA
ENDBRANCH  93  97
ENDBRANCH  67  90
ENDBRANCH  41  42
ENDBRANCH  33  36
ENDBRANCH  31  32
ENDBRANCH   1  31
TORSDOF 16
