REMARK SMILES CC(C)(C)c1cc(Nc2ccccc2C(=O)NCCCCNC(=O)c2ccc(-c3c4nc(c(-c5cc(S(=O)(=O)[O-])ccc5F)c5ccc([nH]5)c(-c5cc(S(=O)(=O)[O-])ccc5F)c5nc(c(-c6cc(S(=O)(=O)[O-])ccc6F)c6ccc3[nH]6)C=C5)C=C4)cc2)cc2c1OCC2(C)C
REMARK SMILES IDX 19 1 18 2 17 3 15 4 16 5 14 7 9 8 10 9 11 10 13 11 12 12
REMARK SMILES IDX 8 13 7 15 5 16 6 17 90 18 89 19 91 20 88 21 93 22 92 23
REMARK SMILES IDX 94 24 95 25 2 26 1 27 3 28 4 29 20 30 21 31 22 32 23 33
REMARK SMILES IDX 24 35 25 36 26 37 87 38 27 39 86 40 28 41 29 42 30 43 80 44
REMARK SMILES IDX 31 45 85 46 79 47 81 48 32 49 84 50 78 51 77 52 33 54 65 55
REMARK SMILES IDX 45 56 64 57 46 58 49 59 63 60 82 61 47 62 48 63 62 65 83 66
REMARK SMILES IDX 50 67 34 68 35 69 43 70 36 71 42 72 44 73 41 74 37 75 38 76
REMARK SMILES IDX 39 77 40 78 66 79 67 80 75 81 68 82 74 83 76 84 73 85 69 86
REMARK SMILES IDX 70 87 71 88 72 89 51 90 52 91 60 92 53 93 59 94 61 95 58 96
REMARK SMILES IDX 54 97 55 98 56 99 57 100
REMARK H PARENT 17 6 8 14 22 34 81 53 49 64
REMARK Flexibility Score: inf
ROOT
ATOM      1  C   UNL     1       3.441   2.430  -1.726  1.00  0.00     0.023 C 
ENDROOT
BRANCH   1   2
ATOM      2  C   UNL     1       2.685   2.953  -2.935  1.00  0.00     0.116 C 
BRANCH   2   3
ATOM      3  N   UNL     1       3.020   4.265  -3.403  1.00  0.00    -0.352 N 
ATOM      4  C   UNL     1       2.753   4.847  -4.618  1.00  0.00     0.253 C 
ATOM      5  O   UNL     1       3.103   6.025  -4.744  1.00  0.00    -0.269 OA
ATOM      6  H   UNL     1       3.511   4.830  -2.764  1.00  0.00     0.163 HD
BRANCH   4   7
ATOM      7  C   UNL     1       2.144   4.168  -5.815  1.00  0.00     0.063 A 
ATOM      8  C   UNL     1       1.079   3.243  -5.898  1.00  0.00     0.051 A 
ATOM      9  C   UNL     1       0.586   2.894  -7.182  1.00  0.00     0.027 A 
ATOM     10  C   UNL     1       1.174   3.352  -8.358  1.00  0.00     0.002 A 
ATOM     11  C   UNL     1       2.728   4.611  -7.031  1.00  0.00     0.016 A 
ATOM     12  C   UNL     1       2.267   4.195  -8.283  1.00  0.00     0.001 A 
BRANCH   8  13
ATOM     13  N   UNL     1       0.491   2.550  -4.813  1.00  0.00    -0.355 N 
ATOM     14  H   UNL     1      -0.083   3.068  -4.204  1.00  0.00     0.167 HD
BRANCH  13  15
ATOM     15  C   UNL     1       0.661   1.166  -4.530  1.00  0.00     0.039 A 
ATOM     16  C   UNL     1       0.631  -0.702  -2.869  1.00  0.00     0.002 A 
ATOM     17  C   UNL     1       0.283   0.621  -3.279  1.00  0.00     0.034 A 
ATOM     18  C   UNL     1       1.320  -1.462  -3.812  1.00  0.00     0.127 A 
ATOM     19  C   UNL     1       1.658  -0.962  -5.058  1.00  0.00     0.006 A 
ATOM     20  O   UNL     1       1.759  -2.745  -3.635  1.00  0.00    -0.492 OA
ATOM     21  C   UNL     1       1.347   0.336  -5.421  1.00  0.00     0.034 A 
ATOM     22  C   UNL     1       2.393  -1.974  -5.867  1.00  0.00     0.028 C 
ATOM     23  C   UNL     1       2.370  -3.151  -4.878  1.00  0.00     0.240 C 
ATOM     24  C   UNL     1       1.634  -2.301  -7.157  1.00  0.00     0.020 C 
ATOM     25  C   UNL     1       3.824  -1.530  -6.186  1.00  0.00     0.020 C 
BRANCH  16  26
ATOM     26  C   UNL     1       0.300  -1.190  -1.442  1.00  0.00    -0.009 C 
ATOM     27  C   UNL     1       1.102  -0.357  -0.423  1.00  0.00     0.016 C 
ATOM     28  C   UNL     1       0.645  -2.665  -1.134  1.00  0.00     0.016 C 
ATOM     29  C   UNL     1      -1.208  -1.019  -1.164  1.00  0.00     0.016 C 
ENDBRANCH  16  26
ENDBRANCH  13  15
ENDBRANCH   8  13
ENDBRANCH   4   7
ENDBRANCH   2   3
ENDBRANCH   1   2
BRANCH   1  30
ATOM     30  C   UNL     1       3.315   3.206  -0.415  1.00  0.00     0.023 C 
BRANCH  30  31
ATOM     31  C   UNL     1       2.033   3.997  -0.163  1.00  0.00     0.116 C 
BRANCH  31  32
ATOM     32  N   UNL     1       0.838   3.196   0.085  1.00  0.00    -0.352 N 
ATOM     33  C   UNL     1       0.242   2.776   1.258  1.00  0.00     0.251 C 
ATOM     34  H   UNL     1       0.373   2.901  -0.731  1.00  0.00     0.163 HD
ATOM     35  O   UNL     1      -0.724   2.016   1.212  1.00  0.00    -0.269 OA
BRANCH  33  36
ATOM     36  C   UNL     1       0.792   3.198   2.561  1.00  0.00     0.039 A 
ATOM     37  C   UNL     1       1.153   4.524   2.755  1.00  0.00     0.014 A 
ATOM     38  C   UNL     1       0.996   2.263   3.582  1.00  0.00     0.014 A 
ATOM     39  C   UNL     1       1.969   4.854   3.825  1.00  0.00     0.010 A 
ATOM     40  C   UNL     1       1.692   2.639   4.738  1.00  0.00     0.010 A 
ATOM     41  C   UNL     1       2.258   3.918   4.833  1.00  0.00    -0.014 A 
BRANCH  41  42
ATOM     42  C   UNL     1       3.161   4.338   5.944  1.00  0.00     0.031 A 
ATOM     43  C   UNL     1       4.478   3.647   6.187  1.00  0.00     0.074 A 
ATOM     44  C   UNL     1       2.844   5.448   6.643  1.00  0.00     0.049 A 
ATOM     45  N   UNL     1       5.441   3.985   7.007  1.00  0.00    -0.248 NA
ATOM     46  C   UNL     1       4.754   2.417   5.427  1.00  0.00     0.031 C 
ATOM     47  C   UNL     1       1.592   6.192   6.492  1.00  0.00     0.029 A 
ATOM     48  N   UNL     1       3.558   6.185   7.555  1.00  0.00    -0.354 N 
ATOM     49  C   UNL     1       6.420   3.005   6.880  1.00  0.00     0.074 A 
ATOM     50  C   UNL     1       5.923   2.039   5.928  1.00  0.00     0.031 C 
ATOM     51  C   UNL     1       1.675   7.335   7.181  1.00  0.00     0.029 A 
ATOM     52  C   UNL     1       2.940   7.365   7.909  1.00  0.00     0.049 A 
ATOM     53  H   UNL     1       4.426   5.899   7.920  1.00  0.00     0.167 HD
ATOM     54  C   UNL     1       7.626   2.928   7.492  1.00  0.00     0.034 A 
ATOM     55  C   UNL     1       3.339   8.363   8.723  1.00  0.00     0.034 A 
ATOM     56  C   UNL     1       8.119   3.918   8.417  1.00  0.00     0.049 A 
ATOM     57  C   UNL     1       4.688   8.258   9.382  1.00  0.00     0.074 A 
ATOM     58  C   UNL     1       9.331   3.934   9.085  1.00  0.00     0.029 A 
ATOM     59  N   UNL     1       7.443   5.071   8.793  1.00  0.00    -0.354 N 
ATOM     60  N   UNL     1       5.604   7.331   9.233  1.00  0.00    -0.248 NA
ATOM     61  C   UNL     1       5.059   9.324  10.321  1.00  0.00     0.031 C 
ATOM     62  C   UNL     1       9.364   5.063   9.905  1.00  0.00     0.029 A 
ATOM     63  C   UNL     1       8.205   5.793   9.697  1.00  0.00     0.049 A 
ATOM     64  H   UNL     1       6.553   5.335   8.466  1.00  0.00     0.167 HD
ATOM     65  C   UNL     1       6.662   7.704  10.056  1.00  0.00     0.074 A 
ATOM     66  C   UNL     1       6.287   8.962  10.668  1.00  0.00     0.031 C 
ATOM     67  C   UNL     1       7.829   7.053  10.292  1.00  0.00     0.034 A 
BRANCH  54  68
ATOM     68  C   UNL     1       8.521   1.748   7.194  1.00  0.00     0.023 A 
ATOM     69  C   UNL     1       8.870   0.852   8.223  1.00  0.00     0.031 A 
ATOM     70  C   UNL     1       9.130   1.584   5.938  1.00  0.00     0.131 A 
ATOM     71  C   UNL     1       9.829  -0.142   7.988  1.00  0.00     0.055 A 
ATOM     72  C   UNL     1      10.055   0.566   5.697  1.00  0.00     0.041 A 
ATOM     73  F   UNL     1       8.831   2.410   4.922  1.00  0.00    -0.206 F 
ATOM     74  C   UNL     1      10.418  -0.294   6.729  1.00  0.00     0.022 A 
BRANCH  71  75
ATOM     75  S   UNL     1      10.399  -1.232   9.322  1.00  0.00     0.124 S 
ATOM     76  O   UNL     1      10.061  -2.552   8.794  1.00  0.00    -0.237 OA
ATOM     77  O   UNL     1      11.827  -0.930   9.374  1.00  0.00    -0.237 OA
ATOM     78  O   UNL     1       9.621  -0.808  10.480  1.00  0.00    -0.744 OA
ENDBRANCH  71  75
ENDBRANCH  54  68
BRANCH  55  79
ATOM     79  C   UNL     1       2.452   9.552   8.905  1.00  0.00     0.023 A 
ATOM     80  C   UNL     1       1.142   9.403   9.397  1.00  0.00     0.031 A 
ATOM     81  C   UNL     1       2.849  10.827   8.469  1.00  0.00     0.131 A 
ATOM     82  C   UNL     1       0.249  10.481   9.349  1.00  0.00     0.055 A 
ATOM     83  C   UNL     1       1.982  11.921   8.505  1.00  0.00     0.041 A 
ATOM     84  F   UNL     1       4.085  11.021   7.982  1.00  0.00    -0.206 F 
ATOM     85  C   UNL     1       0.666  11.745   8.923  1.00  0.00     0.022 A 
BRANCH  82  86
ATOM     86  S   UNL     1      -1.520  10.230   9.668  1.00  0.00     0.124 S 
ATOM     87  O   UNL     1      -1.736  11.061  10.848  1.00  0.00    -0.237 OA
ATOM     88  O   UNL     1      -2.121  10.721   8.430  1.00  0.00    -0.237 OA
ATOM     89  O   UNL     1      -1.630   8.790   9.878  1.00  0.00    -0.744 OA
ENDBRANCH  82  86
ENDBRANCH  55  79
BRANCH  67  90
ATOM     90  C   UNL     1       8.811   7.670  11.259  1.00  0.00     0.023 A 
ATOM     91  C   UNL     1      10.087   8.061  10.811  1.00  0.00     0.031 A 
ATOM     92  C   UNL     1       8.540   7.728  12.637  1.00  0.00     0.131 A 
ATOM     93  C   UNL     1      11.058   8.458  11.739  1.00  0.00     0.055 A 
ATOM     94  C   UNL     1       9.497   8.168  13.552  1.00  0.00     0.041 A 
ATOM     95  F   UNL     1       7.342   7.353  13.113  1.00  0.00    -0.206 F 
ATOM     96  C   UNL     1      10.767   8.521  13.105  1.00  0.00     0.022 A 
BRANCH  93  97
ATOM     97  S   UNL     1      12.758   8.816  11.218  1.00  0.00     0.124 S 
ATOM     98  O   UNL     1      12.899  10.221  11.595  1.00  0.00    -0.237 OA
ATOM     99  O   UNL     1      13.532   7.874  12.022  1.00  0.00    -0.237 OA
ATOM    100  O   UNL     1      12.750   8.556   9.782  1.00  0.00    -0.744 OA
ENDBRANCH  93  97
ENDBRANCH  67  90
ENDBRANCH  41  42
ENDBRANCH  33  36
ENDBRANCH  31  32
ENDBRANCH  30  31
ENDBRANCH   1  30
TORSDOF 17
