REMARK SMILES Cc1c(Cl)cccc1NC(=O)C[C@](C)(C(=O)NCCCCNC(=O)c1ccc(-c2c3nc(c(-c4cc(S(=O)(=O)[O-])ccc4F)c4ccc([nH]4)c(-c4cc(S(=O)(=O)[O-])ccc4F)c4nc(c(-c5cc(S(=O)(=O)[O-])ccc5F)c5ccc2[nH]5)C=C4)C=C3)cc1)c1ccccc1
REMARK SMILES IDX 19 1 18 2 17 3 15 4 16 5 13 7 14 8 12 9 10 10 9 11 11 13
REMARK SMILES IDX 8 14 1 15 2 16 3 17 4 18 5 19 7 20 6 21 88 22 89 23 93 24
REMARK SMILES IDX 90 25 92 26 91 27 20 28 21 29 22 30 23 31 24 33 25 34 26 35
REMARK SMILES IDX 87 36 27 37 86 38 28 39 29 40 30 41 80 42 31 43 85 44 79 45
REMARK SMILES IDX 81 46 32 47 84 48 78 49 77 50 33 52 65 53 45 54 64 55 46 56
REMARK SMILES IDX 49 57 63 58 82 59 47 60 48 61 62 63 83 64 50 65 34 66 35 67
REMARK SMILES IDX 43 68 36 69 42 70 44 71 41 72 37 73 38 74 39 75 40 76 66 77
REMARK SMILES IDX 67 78 75 79 68 80 74 81 76 82 73 83 69 84 70 85 71 86 72 87
REMARK SMILES IDX 51 88 52 89 60 90 53 91 59 92 61 93 58 94 54 95 55 96 56 97
REMARK SMILES IDX 57 98
REMARK H PARENT 17 6 9 12 22 32 81 51 49 62
REMARK Flexibility Score: inf
ROOT
ATOM      1  C   UNL     1      -4.902  -1.822   3.366  1.00  0.00     0.023 C 
ENDROOT
BRANCH   1   2
ATOM      2  C   UNL     1      -4.417  -2.070   1.727  1.00  0.00     0.116 C 
BRANCH   2   3
ATOM      3  N   UNL     1      -5.207  -1.380  -0.083  1.00  0.00    -0.355 N 
ATOM      4  C   UNL     1      -5.204  -0.553  -1.257  1.00  0.00     0.230 C 
ATOM      5  O   UNL     1      -6.170  -0.869  -1.977  1.00  0.00    -0.274 OA
ATOM      6  H   UNL     1      -6.028  -1.913  -0.186  1.00  0.00     0.163 HD
BRANCH   4   7
ATOM      7  C   UNL     1      -4.250   0.684  -1.698  1.00  0.00     0.080 C 
ATOM      8  C   UNL     1      -4.577   1.877  -0.722  1.00  0.00     0.027 C 
BRANCH   7   9
ATOM      9  C   UNL     1      -2.712   0.380  -1.802  1.00  0.00     0.121 C 
BRANCH   9  10
ATOM     10  C   UNL     1      -2.243  -1.036  -2.078  1.00  0.00     0.225 C 
ATOM     11  N   UNL     1      -2.368  -2.013  -1.135  1.00  0.00    -0.326 N 
ATOM     12  H   UNL     1      -1.780  -2.800  -1.201  1.00  0.00     0.169 HD
ATOM     13  O   UNL     1      -1.694  -1.323  -3.145  1.00  0.00    -0.275 OA
BRANCH  11  14
ATOM     14  C   UNL     1      -3.280  -1.960  -0.083  1.00  0.00     0.045 A 
ATOM     15  C   UNL     1      -4.057  -4.704  -0.489  1.00  0.00     0.048 C 
ATOM     16  C   UNL     1      -4.474  -3.322  -0.073  1.00  0.00    -0.009 A 
ATOM     17  C   UNL     1      -6.054  -3.111   0.771  1.00  0.00     0.046 A 
ATOM     18  Cl  UNL     1      -7.168  -4.414   0.886  1.00  0.00    -0.084 Cl
ATOM     19  C   UNL     1      -6.498  -1.525   1.497  1.00  0.00     0.021 A 
ATOM     20  C   UNL     1      -3.661  -0.382   0.768  1.00  0.00     0.026 A 
ATOM     21  C   UNL     1      -5.298  -0.163   1.525  1.00  0.00     0.004 A 
ENDBRANCH  11  14
ENDBRANCH   9  10
ENDBRANCH   7   9
BRANCH   7  22
ATOM     22  C   UNL     1      -4.574   1.358  -3.097  1.00  0.00    -0.032 A 
ATOM     23  C   UNL     1      -4.079   2.675  -3.334  1.00  0.00     0.005 A 
ATOM     24  C   UNL     1      -5.319   0.779  -4.125  1.00  0.00     0.005 A 
ATOM     25  C   UNL     1      -4.430   3.421  -4.455  1.00  0.00     0.000 A 
ATOM     26  C   UNL     1      -5.659   1.524  -5.266  1.00  0.00     0.000 A 
ATOM     27  C   UNL     1      -5.241   2.846  -5.418  1.00  0.00     0.000 A 
ENDBRANCH   7  22
ENDBRANCH   4   7
ENDBRANCH   2   3
ENDBRANCH   1   2
BRANCH   1  28
ATOM     28  C   UNL     1      -5.580  -3.021   4.029  1.00  0.00     0.023 C 
BRANCH  28  29
ATOM     29  C   UNL     1      -4.817  -4.321   3.909  1.00  0.00     0.116 C 
BRANCH  29  30
ATOM     30  N   UNL     1      -3.519  -4.252   4.565  1.00  0.00    -0.352 N 
ATOM     31  C   UNL     1      -2.999  -5.230   5.380  1.00  0.00     0.251 C 
ATOM     32  H   UNL     1      -2.974  -3.447   4.413  1.00  0.00     0.163 HD
ATOM     33  O   UNL     1      -2.014  -5.043   6.077  1.00  0.00    -0.269 OA
BRANCH  31  34
ATOM     34  C   UNL     1      -3.732  -6.505   5.364  1.00  0.00     0.039 A 
ATOM     35  C   UNL     1      -4.489  -6.862   6.478  1.00  0.00     0.014 A 
ATOM     36  C   UNL     1      -3.894  -7.144   4.128  1.00  0.00     0.014 A 
ATOM     37  C   UNL     1      -5.422  -7.886   6.348  1.00  0.00     0.010 A 
ATOM     38  C   UNL     1      -4.905  -8.080   3.980  1.00  0.00     0.010 A 
ATOM     39  C   UNL     1      -5.645  -8.495   5.098  1.00  0.00    -0.014 A 
BRANCH  39  40
ATOM     40  C   UNL     1      -6.572  -9.646   4.980  1.00  0.00     0.031 A 
ATOM     41  C   UNL     1      -6.011 -10.985   4.580  1.00  0.00     0.074 A 
ATOM     42  C   UNL     1      -7.882  -9.502   5.257  1.00  0.00     0.049 A 
ATOM     43  N   UNL     1      -6.622 -12.134   4.456  1.00  0.00    -0.248 NA
ATOM     44  C   UNL     1      -4.576 -11.035   4.251  1.00  0.00     0.031 C 
ATOM     45  C   UNL     1      -8.538  -8.245   5.625  1.00  0.00     0.029 A 
ATOM     46  N   UNL     1      -8.895 -10.427   5.295  1.00  0.00    -0.354 N 
ATOM     47  C   UNL     1      -5.647 -13.033   4.038  1.00  0.00     0.074 A 
ATOM     48  C   UNL     1      -4.432 -12.281   3.835  1.00  0.00     0.031 C 
ATOM     49  C   UNL     1      -9.828  -8.490   5.908  1.00  0.00     0.029 A 
ATOM     50  C   UNL     1     -10.107  -9.907   5.691  1.00  0.00     0.049 A 
ATOM     51  H   UNL     1      -8.768 -11.374   5.060  1.00  0.00     0.167 HD
ATOM     52  C   UNL     1      -5.743 -14.374   3.879  1.00  0.00     0.034 A 
ATOM     53  C   UNL     1     -11.302 -10.508   5.856  1.00  0.00     0.034 A 
ATOM     54  C   UNL     1      -6.961 -15.108   4.094  1.00  0.00     0.049 A 
ATOM     55  C   UNL     1     -11.401 -11.995   5.606  1.00  0.00     0.074 A 
ATOM     56  C   UNL     1      -7.171 -16.471   3.990  1.00  0.00     0.029 A 
ATOM     57  N   UNL     1      -8.179 -14.540   4.444  1.00  0.00    -0.354 N 
ATOM     58  N   UNL     1     -10.456 -12.840   5.258  1.00  0.00    -0.248 NA
ATOM     59  C   UNL     1     -12.722 -12.610   5.780  1.00  0.00     0.031 C 
ATOM     60  C   UNL     1      -8.533 -16.715   4.188  1.00  0.00     0.029 A 
ATOM     61  C   UNL     1      -9.154 -15.521   4.519  1.00  0.00     0.049 A 
ATOM     62  H   UNL     1      -8.327 -13.582   4.614  1.00  0.00     0.167 HD
ATOM     63  C   UNL     1     -11.066 -14.091   5.208  1.00  0.00     0.074 A 
ATOM     64  C   UNL     1     -12.451 -13.890   5.580  1.00  0.00     0.031 C 
ATOM     65  C   UNL     1     -10.533 -15.298   4.886  1.00  0.00     0.034 A 
BRANCH  52  66
ATOM     66  C   UNL     1      -4.505 -15.110   3.428  1.00  0.00     0.023 A 
ATOM     67  C   UNL     1      -3.328 -15.120   4.198  1.00  0.00     0.031 A 
ATOM     68  C   UNL     1      -4.489 -15.783   2.194  1.00  0.00     0.131 A 
ATOM     69  C   UNL     1      -2.165 -15.720   3.692  1.00  0.00     0.055 A 
ATOM     70  C   UNL     1      -3.356 -16.459   1.740  1.00  0.00     0.041 A 
ATOM     71  F   UNL     1      -5.572 -15.780   1.400  1.00  0.00    -0.206 F 
ATOM     72  C   UNL     1      -2.180 -16.417   2.483  1.00  0.00     0.022 A 
BRANCH  69  73
ATOM     73  S   UNL     1      -0.597 -15.434   4.558  1.00  0.00     0.124 S 
ATOM     74  O   UNL     1      -0.505 -13.975   4.525  1.00  0.00    -0.237 OA
ATOM     75  O   UNL     1      -0.845 -16.029   5.865  1.00  0.00    -0.237 OA
ATOM     76  O   UNL     1       0.384 -16.131   3.728  1.00  0.00    -0.744 OA
ENDBRANCH  69  73
ENDBRANCH  52  66
BRANCH  53  77
ATOM     77  C   UNL     1     -12.505  -9.722   6.261  1.00  0.00     0.023 A 
ATOM     78  C   UNL     1     -13.203 -10.014   7.445  1.00  0.00     0.031 A 
ATOM     79  C   UNL     1     -13.018  -8.706   5.434  1.00  0.00     0.131 A 
ATOM     80  C   UNL     1     -14.403  -9.345   7.735  1.00  0.00     0.055 A 
ATOM     81  C   UNL     1     -14.174  -7.995   5.762  1.00  0.00     0.041 A 
ATOM     82  F   UNL     1     -12.398  -8.386   4.287  1.00  0.00    -0.206 F 
ATOM     83  C   UNL     1     -14.883  -8.325   6.912  1.00  0.00     0.022 A 
BRANCH  80  84
ATOM     84  S   UNL     1     -15.396  -9.914   9.144  1.00  0.00     0.124 S 
ATOM     85  O   UNL     1     -15.611 -11.316   8.807  1.00  0.00    -0.237 OA
ATOM     86  O   UNL     1     -14.503  -9.653  10.268  1.00  0.00    -0.237 OA
ATOM     87  O   UNL     1     -16.585  -9.067   9.085  1.00  0.00    -0.744 OA
ENDBRANCH  80  84
ENDBRANCH  53  77
BRANCH  65  88
ATOM     88  C   UNL     1     -11.441 -16.501   4.974  1.00  0.00     0.023 A 
ATOM     89  C   UNL     1     -12.561 -16.648   4.139  1.00  0.00     0.031 A 
ATOM     90  C   UNL     1     -11.176 -17.518   5.910  1.00  0.00     0.131 A 
ATOM     91  C   UNL     1     -13.412 -17.751   4.301  1.00  0.00     0.055 A 
ATOM     92  C   UNL     1     -11.981 -18.652   6.011  1.00  0.00     0.041 A 
ATOM     93  F   UNL     1     -10.123 -17.429   6.738  1.00  0.00    -0.206 F 
ATOM     94  C   UNL     1     -13.116 -18.765   5.215  1.00  0.00     0.022 A 
BRANCH  91  95
ATOM     95  S   UNL     1     -14.975 -17.782   3.384  1.00  0.00     0.124 S 
ATOM     96  O   UNL     1     -15.607 -16.541   3.821  1.00  0.00    -0.237 OA
ATOM     97  O   UNL     1     -14.524 -17.812   1.996  1.00  0.00    -0.237 OA
ATOM     98  O   UNL     1     -15.623 -19.006   3.852  1.00  0.00    -0.744 OA
ENDBRANCH  91  95
ENDBRANCH  65  88
ENDBRANCH  39  40
ENDBRANCH  31  34
ENDBRANCH  29  30
ENDBRANCH  28  29
ENDBRANCH   1  28
TORSDOF 18
