REMARK SMILES O=C(CCC(=O)Nc1ccc2nc(-c3ccccc3)oc2c1)NCCCCNC(=O)c1ccc(-c2c3nc(c(-c4cc(S(=O)(=O)[O-])ccc4F)c4ccc([nH]4)c(-c4cc(S(=O)(=O)[O-])ccc4F)c4nc(c(-c5cc(S(=O)(=O)[O-])ccc5F)c5ccc2[nH]5)C=C4)C=C3)cc1
REMARK SMILES IDX 25 1 24 2 23 3 1 4 2 5 3 7 4 8 5 9 6 10 7 11 8 13 9 14 22 15
REMARK SMILES IDX 10 16 21 17 11 18 20 19 12 20 13 21 14 22 15 23 19 24 16 25
REMARK SMILES IDX 18 26 17 27 26 28 27 29 28 30 29 31 30 33 31 34 32 35 93 36
REMARK SMILES IDX 33 37 92 38 34 39 35 40 36 41 86 42 37 43 91 44 85 45 87 46
REMARK SMILES IDX 38 47 90 48 84 49 83 50 39 52 71 53 51 54 70 55 52 56 55 57
REMARK SMILES IDX 69 58 88 59 53 60 54 61 68 63 89 64 56 65 40 66 41 67 49 68
REMARK SMILES IDX 42 69 48 70 50 71 47 72 43 73 44 74 45 75 46 76 72 77 73 78
REMARK SMILES IDX 81 79 74 80 80 81 82 82 79 83 75 84 76 85 77 86 78 87 57 88
REMARK SMILES IDX 58 89 66 90 59 91 65 92 67 93 64 94 60 95 61 96 62 97 63 98
REMARK H PARENT 23 6 7 12 28 32 87 51 55 62
REMARK Flexibility Score: inf
ROOT
ATOM      1  C   UNL     1       2.942   2.874  -2.635  1.00  0.00     0.023 C 
ENDROOT
BRANCH   1   2
ATOM      2  C   UNL     1       2.441   1.704  -1.796  1.00  0.00     0.116 C 
BRANCH   2   3
ATOM      3  N   UNL     1       3.334   1.310  -0.719  1.00  0.00    -0.356 N 
ATOM      4  O   UNL     1       1.716   1.164   0.911  1.00  0.00    -0.275 OA
ATOM      5  C   UNL     1       2.864   0.960   0.528  1.00  0.00     0.220 C 
ATOM      6  H   UNL     1       4.304   1.292  -0.885  1.00  0.00     0.163 HD
BRANCH   5   7
ATOM      7  C   UNL     1       3.860   0.212   1.393  1.00  0.00     0.110 C 
BRANCH   7   8
ATOM      8  C   UNL     1       4.041  -1.263   1.032  1.00  0.00     0.110 C 
BRANCH   8   9
ATOM      9  C   UNL     1       4.534  -1.499  -0.376  1.00  0.00     0.224 C 
ATOM     10  O   UNL     1       5.730  -1.309  -0.626  1.00  0.00    -0.275 OA
ATOM     11  N   UNL     1       3.744  -1.881  -1.419  1.00  0.00    -0.326 N 
ATOM     12  H   UNL     1       4.259  -2.247  -2.174  1.00  0.00     0.169 HD
BRANCH  11  13
ATOM     13  C   UNL     1       2.354  -1.869  -1.661  1.00  0.00     0.045 A 
ATOM     14  C   UNL     1       1.395  -1.501  -0.713  1.00  0.00     0.028 A 
ATOM     15  C   UNL     1       1.952  -2.115  -2.993  1.00  0.00     0.075 A 
ATOM     16  C   UNL     1       0.077  -1.186  -1.062  1.00  0.00     0.034 A 
ATOM     17  C   UNL     1       0.618  -1.843  -3.297  1.00  0.00     0.157 A 
ATOM     18  C   UNL     1      -0.297  -1.340  -2.389  1.00  0.00     0.110 A 
ATOM     19  O   UNL     1      -0.041  -2.010  -4.488  1.00  0.00    -0.436 OA
ATOM     20  N   UNL     1      -1.488  -1.094  -2.992  1.00  0.00    -0.209 NA
ATOM     21  C   UNL     1      -1.310  -1.562  -4.210  1.00  0.00     0.227 A 
BRANCH  21  22
ATOM     22  C   UNL     1      -2.362  -1.829  -5.169  1.00  0.00     0.037 A 
ATOM     23  C   UNL     1      -3.230  -0.801  -5.560  1.00  0.00     0.014 A 
ATOM     24  C   UNL     1      -2.667  -3.154  -5.505  1.00  0.00     0.014 A 
ATOM     25  C   UNL     1      -4.405  -1.099  -6.250  1.00  0.00     0.001 A 
ATOM     26  C   UNL     1      -3.851  -3.452  -6.178  1.00  0.00     0.001 A 
ATOM     27  C   UNL     1      -4.723  -2.425  -6.540  1.00  0.00     0.000 A 
ENDBRANCH  21  22
ENDBRANCH  11  13
ENDBRANCH   8   9
ENDBRANCH   7   8
ENDBRANCH   5   7
ENDBRANCH   2   3
ENDBRANCH   1   2
BRANCH   1  28
ATOM     28  C   UNL     1       4.341   2.705  -3.231  1.00  0.00     0.023 C 
BRANCH  28  29
ATOM     29  C   UNL     1       4.535   1.481  -4.123  1.00  0.00     0.116 C 
BRANCH  29  30
ATOM     30  N   UNL     1       3.896   1.619  -5.424  1.00  0.00    -0.352 N 
ATOM     31  C   UNL     1       4.457   1.808  -6.667  1.00  0.00     0.251 C 
ATOM     32  H   UNL     1       2.913   1.569  -5.413  1.00  0.00     0.163 HD
ATOM     33  O   UNL     1       3.730   2.078  -7.623  1.00  0.00    -0.269 OA
BRANCH  31  34
ATOM     34  C   UNL     1       5.925   1.727  -6.856  1.00  0.00     0.039 A 
ATOM     35  C   UNL     1       6.568   2.711  -7.613  1.00  0.00     0.014 A 
ATOM     36  C   UNL     1       6.672   0.688  -6.295  1.00  0.00     0.014 A 
ATOM     37  C   UNL     1       7.963   2.704  -7.725  1.00  0.00     0.010 A 
ATOM     38  C   UNL     1       8.066   0.730  -6.336  1.00  0.00     0.010 A 
ATOM     39  C   UNL     1       8.730   1.743  -7.044  1.00  0.00    -0.014 A 
BRANCH  39  40
ATOM     40  C   UNL     1      10.220   1.795  -7.048  1.00  0.00     0.031 A 
ATOM     41  C   UNL     1      11.022   0.657  -7.623  1.00  0.00     0.074 A 
ATOM     42  C   UNL     1      10.856   2.838  -6.477  1.00  0.00     0.049 A 
ATOM     43  N   UNL     1      12.319   0.483  -7.643  1.00  0.00    -0.248 NA
ATOM     44  C   UNL     1      10.260  -0.444  -8.232  1.00  0.00     0.031 C 
ATOM     45  C   UNL     1      10.198   3.987  -5.850  1.00  0.00     0.029 A 
ATOM     46  N   UNL     1      12.195   3.102  -6.319  1.00  0.00    -0.354 N 
ATOM     47  C   UNL     1      12.530  -0.747  -8.258  1.00  0.00     0.074 A 
ATOM     48  C   UNL     1      11.222  -1.304  -8.533  1.00  0.00     0.031 C 
ATOM     49  C   UNL     1      11.132   4.840  -5.401  1.00  0.00     0.029 A 
ATOM     50  C   UNL     1      12.455   4.279  -5.653  1.00  0.00     0.049 A 
ATOM     51  H   UNL     1      12.904   2.504  -6.651  1.00  0.00     0.167 HD
ATOM     52  C   UNL     1      13.703  -1.345  -8.587  1.00  0.00     0.034 A 
ATOM     53  C   UNL     1      13.622   4.837  -5.271  1.00  0.00     0.034 A 
ATOM     54  C   UNL     1      15.002  -0.778  -8.307  1.00  0.00     0.049 A 
ATOM     55  C   UNL     1      14.914   4.132  -5.606  1.00  0.00     0.074 A 
ATOM     56  C   UNL     1      16.249  -1.281  -8.635  1.00  0.00     0.029 A 
ATOM     57  N   UNL     1      15.223   0.412  -7.625  1.00  0.00    -0.354 N 
ATOM     58  N   UNL     1      15.095   2.991  -6.230  1.00  0.00    -0.248 NA
ATOM     59  C   UNL     1      16.158   4.795  -5.193  1.00  0.00     0.031 C 
ATOM     60  C   UNL     1      17.222  -0.440  -8.085  1.00  0.00     0.029 A 
ATOM     61  C   UNL     1      16.586   0.639  -7.492  1.00  0.00     0.049 A 
ATOM     62  H   UNL     1      14.517   1.007  -7.285  1.00  0.00     0.167 HD
ATOM     63  C   UNL     1      16.474   2.818  -6.314  1.00  0.00     0.074 A 
ATOM     64  C   UNL     1      17.075   3.980  -5.692  1.00  0.00     0.031 C 
ATOM     65  C   UNL     1      17.179   1.795  -6.861  1.00  0.00     0.034 A 
BRANCH  52  66
ATOM     66  C   UNL     1      13.631  -2.695  -9.263  1.00  0.00     0.023 A 
ATOM     67  C   UNL     1      13.011  -2.861 -10.515  1.00  0.00     0.031 A 
ATOM     68  C   UNL     1      14.169  -3.837  -8.643  1.00  0.00     0.131 A 
ATOM     69  C   UNL     1      12.874  -4.144 -11.066  1.00  0.00     0.055 A 
ATOM     70  C   UNL     1      14.109  -5.098  -9.239  1.00  0.00     0.041 A 
ATOM     71  F   UNL     1      14.755  -3.749  -7.438  1.00  0.00    -0.206 F 
ATOM     72  C   UNL     1      13.444  -5.260 -10.451  1.00  0.00     0.022 A 
BRANCH  69  73
ATOM     73  S   UNL     1      11.807  -4.351 -12.518  1.00  0.00     0.124 S 
ATOM     74  O   UNL     1      10.533  -3.837 -12.022  1.00  0.00    -0.237 OA
ATOM     75  O   UNL     1      12.478  -3.535 -13.523  1.00  0.00    -0.237 OA
ATOM     76  O   UNL     1      11.836  -5.792 -12.761  1.00  0.00    -0.744 OA
ENDBRANCH  69  73
ENDBRANCH  52  66
BRANCH  53  77
ATOM     77  C   UNL     1      13.634   6.122  -4.510  1.00  0.00     0.023 A 
ATOM     78  C   UNL     1      14.236   7.275  -5.038  1.00  0.00     0.031 A 
ATOM     79  C   UNL     1      13.087   6.200  -3.216  1.00  0.00     0.131 A 
ATOM     80  C   UNL     1      14.322   8.440  -4.259  1.00  0.00     0.055 A 
ATOM     81  C   UNL     1      13.120   7.380  -2.470  1.00  0.00     0.041 A 
ATOM     82  F   UNL     1      12.499   5.129  -2.660  1.00  0.00    -0.206 F 
ATOM     83  C   UNL     1      13.754   8.505  -2.985  1.00  0.00     0.022 A 
BRANCH  80  84
ATOM     84  S   UNL     1      15.280   9.843  -4.897  1.00  0.00     0.124 S 
ATOM     85  O   UNL     1      16.590   9.237  -5.106  1.00  0.00    -0.237 OA
ATOM     86  O   UNL     1      14.535  10.195  -6.101  1.00  0.00    -0.237 OA
ATOM     87  O   UNL     1      15.210  10.822  -3.814  1.00  0.00    -0.744 OA
ENDBRANCH  80  84
ENDBRANCH  53  77
BRANCH  65  88
ATOM     88  C   UNL     1      18.686   1.913  -6.855  1.00  0.00     0.023 A 
ATOM     89  C   UNL     1      19.429   1.915  -5.662  1.00  0.00     0.031 A 
ATOM     90  C   UNL     1      19.388   2.036  -8.069  1.00  0.00     0.131 A 
ATOM     91  C   UNL     1      20.821   2.094  -5.704  1.00  0.00     0.055 A 
ATOM     92  C   UNL     1      20.779   2.146  -8.107  1.00  0.00     0.041 A 
ATOM     93  F   UNL     1      18.732   2.047  -9.240  1.00  0.00    -0.206 F 
ATOM     94  C   UNL     1      21.502   2.190  -6.920  1.00  0.00     0.022 A 
BRANCH  91  95
ATOM     95  S   UNL     1      21.721   2.304  -4.143  1.00  0.00     0.124 S 
ATOM     96  O   UNL     1      21.054   3.466  -3.562  1.00  0.00    -0.237 OA
ATOM     97  O   UNL     1      21.482   1.031  -3.471  1.00  0.00    -0.237 OA
ATOM     98  O   UNL     1      23.100   2.530  -4.569  1.00  0.00    -0.744 OA
ENDBRANCH  91  95
ENDBRANCH  65  88
ENDBRANCH  39  40
ENDBRANCH  31  34
ENDBRANCH  29  30
ENDBRANCH  28  29
ENDBRANCH   1  28
TORSDOF 18
