REMARK SMILES O=C(NCCCCNC(=O)c1ccc(-c2c3nc(c(-c4cc(S(=O)(=O)[O-])ccc4F)c4ccc([nH]4)c(-c4cc(S(=O)(=O)[O-])ccc4F)c4nc(c(-c5cc(S(=O)(=O)[O-])ccc5F)c5ccc2[nH]5)C=C4)C=C3)cc1)c1ccc(NC(=O)[C@@H]2CC=CC[C@@H]2C(=O)Nc2ccc(Br)cc2)cc1
REMARK SMILES IDX 5 1 4 2 3 3 1 4 2 5 74 7 75 8 98 9 76 10 97 11 77 12 78 13
REMARK SMILES IDX 79 14 80 16 81 17 82 18 86 19 83 20 85 21 84 22 87 23 88 24
REMARK SMILES IDX 89 25 90 27 91 28 96 29 92 30 95 31 93 32 94 33 6 34 7 35
REMARK SMILES IDX 8 36 9 37 10 39 11 40 12 41 73 42 13 43 72 44 14 45 15 46
REMARK SMILES IDX 16 47 66 48 17 49 71 50 65 51 67 52 18 53 70 54 64 55 63 56
REMARK SMILES IDX 19 58 51 59 31 60 50 61 32 62 35 63 49 64 68 65 33 66 34 67
REMARK SMILES IDX 48 69 69 70 36 71 20 72 21 73 29 74 22 75 28 76 30 77 27 78
REMARK SMILES IDX 23 79 24 80 25 81 26 82 52 83 53 84 61 85 54 86 60 87 62 88
REMARK SMILES IDX 59 89 55 90 56 91 57 92 58 93 37 94 38 95 46 96 39 97 45 98
REMARK SMILES IDX 47 99 44 100 40 101 41 102 42 103 43 104
REMARK H PARENT 3 6 78 15 89 26 8 38 67 57 35 68
REMARK Flexibility Score: inf
ROOT
ATOM      1  C   UNL     1      13.724  -2.983   4.274  1.00  0.00     0.023 C 
ENDROOT
BRANCH   1   2
ATOM      2  C   UNL     1      12.755  -2.005   4.933  1.00  0.00     0.116 C 
BRANCH   2   3
ATOM      3  N   UNL     1      13.307  -0.670   5.115  1.00  0.00    -0.352 N 
ATOM      4  O   UNL     1      13.421   1.582   4.806  1.00  0.00    -0.269 OA
ATOM      5  C   UNL     1      12.817   0.528   4.641  1.00  0.00     0.251 C 
ATOM      6  H   UNL     1      14.137  -0.616   5.643  1.00  0.00     0.163 HD
BRANCH   5   7
ATOM      7  C   UNL     1      11.551   0.516   3.887  1.00  0.00     0.039 A 
ATOM      8  C   UNL     1      10.375   0.098   4.507  1.00  0.00     0.016 A 
ATOM      9  C   UNL     1      11.573   0.787   2.522  1.00  0.00     0.016 A 
ATOM     10  C   UNL     1       9.262  -0.218   3.725  1.00  0.00     0.027 A 
ATOM     11  C   UNL     1      10.443   0.494   1.755  1.00  0.00     0.027 A 
ATOM     12  C   UNL     1       9.306  -0.095   2.338  1.00  0.00     0.041 A 
BRANCH  12  13
ATOM     13  N   UNL     1       8.372  -0.636   1.434  1.00  0.00    -0.326 N 
ATOM     14  C   UNL     1       7.385  -1.571   1.496  1.00  0.00     0.228 C 
ATOM     15  H   UNL     1       8.453  -0.241   0.536  1.00  0.00     0.169 HD
ATOM     16  O   UNL     1       6.906  -1.912   0.401  1.00  0.00    -0.274 OA
BRANCH  14  17
ATOM     17  C   UNL     1       6.776  -2.180   2.757  1.00  0.00     0.095 C 
ATOM     18  C   UNL     1       6.027  -1.068   3.521  1.00  0.00     0.041 C 
ATOM     19  C   UNL     1       7.547  -3.296   3.537  1.00  0.00     0.095 C 
ATOM     20  C   UNL     1       5.962  -1.203   5.001  1.00  0.00    -0.030 C 
ATOM     21  C   UNL     1       7.202  -3.376   5.048  1.00  0.00     0.041 C 
ATOM     22  C   UNL     1       6.486  -2.227   5.675  1.00  0.00    -0.030 C 
BRANCH  19  23
ATOM     23  C   UNL     1       9.063  -3.460   3.273  1.00  0.00     0.228 C 
ATOM     24  O   UNL     1       9.669  -2.927   2.350  1.00  0.00    -0.274 OA
ATOM     25  N   UNL     1       9.790  -4.264   4.112  1.00  0.00    -0.326 N 
ATOM     26  H   UNL     1      10.540  -3.834   4.582  1.00  0.00     0.169 HD
BRANCH  25  27
ATOM     27  C   UNL     1       9.592  -5.630   4.378  1.00  0.00     0.041 A 
ATOM     28  C   UNL     1      10.307  -6.192   5.440  1.00  0.00     0.027 A 
ATOM     29  C   UNL     1       8.848  -6.454   3.533  1.00  0.00     0.027 A 
ATOM     30  C   UNL     1      10.280  -7.571   5.658  1.00  0.00     0.018 A 
ATOM     31  C   UNL     1       8.837  -7.838   3.739  1.00  0.00     0.018 A 
ATOM     32  C   UNL     1       9.555  -8.390   4.798  1.00  0.00     0.018 A 
ATOM     33  Br  UNL     1       9.571 -10.263   5.045  1.00  0.00    -0.051 Br
ENDBRANCH  25  27
ENDBRANCH  19  23
ENDBRANCH  14  17
ENDBRANCH  12  13
ENDBRANCH   5   7
ENDBRANCH   2   3
ENDBRANCH   1   2
BRANCH   1  34
ATOM     34  C   UNL     1      14.924  -3.392   5.126  1.00  0.00     0.023 C 
BRANCH  34  35
ATOM     35  C   UNL     1      14.600  -4.092   6.444  1.00  0.00     0.116 C 
BRANCH  35  36
ATOM     36  N   UNL     1      13.913  -5.365   6.277  1.00  0.00    -0.352 N 
ATOM     37  C   UNL     1      14.128  -6.570   6.910  1.00  0.00     0.251 C 
ATOM     38  H   UNL     1      13.187  -5.365   5.613  1.00  0.00     0.163 HD
ATOM     39  O   UNL     1      13.453  -7.545   6.595  1.00  0.00    -0.269 OA
BRANCH  37  40
ATOM     40  C   UNL     1      15.210  -6.710   7.909  1.00  0.00     0.039 A 
ATOM     41  C   UNL     1      16.091  -7.789   7.780  1.00  0.00     0.014 A 
ATOM     42  C   UNL     1      15.400  -5.767   8.920  1.00  0.00     0.014 A 
ATOM     43  C   UNL     1      17.231  -7.853   8.584  1.00  0.00     0.010 A 
ATOM     44  C   UNL     1      16.571  -5.795   9.675  1.00  0.00     0.010 A 
ATOM     45  C   UNL     1      17.513  -6.818   9.489  1.00  0.00    -0.014 A 
BRANCH  45  46
ATOM     46  C   UNL     1      18.827  -6.739  10.178  1.00  0.00     0.031 A 
ATOM     47  C   UNL     1      18.916  -6.834  11.672  1.00  0.00     0.074 A 
ATOM     48  C   UNL     1      19.930  -6.473   9.450  1.00  0.00     0.049 A 
ATOM     49  N   UNL     1      19.956  -6.678  12.451  1.00  0.00    -0.248 NA
ATOM     50  C   UNL     1      17.662  -7.109  12.384  1.00  0.00     0.031 C 
ATOM     51  C   UNL     1      19.959  -6.298   7.995  1.00  0.00     0.029 A 
ATOM     52  N   UNL     1      21.233  -6.275   9.832  1.00  0.00    -0.354 N 
ATOM     53  C   UNL     1      19.483  -6.830  13.749  1.00  0.00     0.074 A 
ATOM     54  C   UNL     1      18.051  -7.028  13.648  1.00  0.00     0.031 C 
ATOM     55  C   UNL     1      21.214  -6.019   7.610  1.00  0.00     0.029 A 
ATOM     56  C   UNL     1      22.070  -5.954   8.790  1.00  0.00     0.049 A 
ATOM     57  H   UNL     1      21.539  -6.356  10.764  1.00  0.00     0.167 HD
ATOM     58  C   UNL     1      20.183  -6.826  14.912  1.00  0.00     0.034 A 
ATOM     59  C   UNL     1      23.374  -5.617   8.782  1.00  0.00     0.034 A 
ATOM     60  C   UNL     1      21.609  -6.619  14.991  1.00  0.00     0.049 A 
ATOM     61  C   UNL     1      24.126  -5.582  10.083  1.00  0.00     0.074 A 
ATOM     62  C   UNL     1      22.431  -6.673  16.104  1.00  0.00     0.029 A 
ATOM     63  N   UNL     1      22.427  -6.296  13.914  1.00  0.00    -0.354 N 
ATOM     64  N   UNL     1      23.680  -5.799  11.298  1.00  0.00    -0.248 NA
ATOM     65  C   UNL     1      25.557  -5.263  10.010  1.00  0.00     0.031 C 
ATOM     66  C   UNL     1      23.728  -6.318  15.712  1.00  0.00     0.029 A 
ATOM     67  C   UNL     1      23.733  -6.105  14.343  1.00  0.00     0.049 A 
ATOM     68  H   UNL     1      22.123  -6.214  12.981  1.00  0.00     0.167 HD
ATOM     69  C   UNL     1      24.779  -5.647  12.137  1.00  0.00     0.074 A 
ATOM     70  C   UNL     1      25.912  -5.340  11.285  1.00  0.00     0.031 C 
ATOM     71  C   UNL     1      24.845  -5.756  13.488  1.00  0.00     0.034 A 
BRANCH  58  72
ATOM     72  C   UNL     1      19.394  -7.024  16.186  1.00  0.00     0.023 A 
ATOM     73  C   UNL     1      18.666  -8.204  16.422  1.00  0.00     0.031 A 
ATOM     74  C   UNL     1      19.318  -6.002  17.148  1.00  0.00     0.131 A 
ATOM     75  C   UNL     1      17.818  -8.294  17.536  1.00  0.00     0.055 A 
ATOM     76  C   UNL     1      18.540  -6.133  18.300  1.00  0.00     0.041 A 
ATOM     77  F   UNL     1      19.976  -4.846  16.971  1.00  0.00    -0.206 F 
ATOM     78  C   UNL     1      17.767  -7.276  18.490  1.00  0.00     0.022 A 
BRANCH  75  79
ATOM     79  S   UNL     1      16.652  -9.682  17.622  1.00  0.00     0.124 S 
ATOM     80  O   UNL     1      15.937  -9.546  16.355  1.00  0.00    -0.237 OA
ATOM     81  O   UNL     1      17.541 -10.832  17.735  1.00  0.00    -0.237 OA
ATOM     82  O   UNL     1      15.856  -9.387  18.811  1.00  0.00    -0.744 OA
ENDBRANCH  75  79
ENDBRANCH  58  72
BRANCH  59  83
ATOM     83  C   UNL     1      24.035  -5.248   7.501  1.00  0.00     0.023 A 
ATOM     84  C   UNL     1      24.992  -6.085   6.910  1.00  0.00     0.031 A 
ATOM     85  C   UNL     1      23.706  -4.047   6.846  1.00  0.00     0.131 A 
ATOM     86  C   UNL     1      25.607  -5.699   5.708  1.00  0.00     0.055 A 
ATOM     87  C   UNL     1      24.294  -3.686   5.633  1.00  0.00     0.041 A 
ATOM     88  F   UNL     1      22.785  -3.221   7.367  1.00  0.00    -0.206 F 
ATOM     89  C   UNL     1      25.256  -4.511   5.061  1.00  0.00     0.022 A 
BRANCH  86  90
ATOM     90  S   UNL     1      26.902  -6.762   5.013  1.00  0.00     0.124 S 
ATOM     91  O   UNL     1      27.910  -6.732   6.066  1.00  0.00    -0.237 OA
ATOM     92  O   UNL     1      26.195  -8.027   4.838  1.00  0.00    -0.237 OA
ATOM     93  O   UNL     1      27.271  -6.083   3.773  1.00  0.00    -0.744 OA
ENDBRANCH  86  90
ENDBRANCH  59  83
BRANCH  71  94
ATOM     94  C   UNL     1      26.198  -5.543  14.118  1.00  0.00     0.023 A 
ATOM     95  C   UNL     1      26.802  -4.274  14.146  1.00  0.00     0.031 A 
ATOM     96  C   UNL     1      26.899  -6.625  14.679  1.00  0.00     0.131 A 
ATOM     97  C   UNL     1      28.090  -4.125  14.682  1.00  0.00     0.055 A 
ATOM     98  C   UNL     1      28.159  -6.461  15.257  1.00  0.00     0.041 A 
ATOM     99  F   UNL     1      26.370  -7.858  14.674  1.00  0.00    -0.206 F 
ATOM    100  C   UNL     1      28.766  -5.208  15.251  1.00  0.00     0.022 A 
BRANCH  97 101
ATOM    101  S   UNL     1      28.904  -2.509  14.561  1.00  0.00     0.124 S 
ATOM    102  O   UNL     1      28.980  -2.315  13.117  1.00  0.00    -0.237 OA
ATOM    103  O   UNL     1      27.977  -1.636  15.274  1.00  0.00    -0.237 OA
ATOM    104  O   UNL     1      30.188  -2.721  15.226  1.00  0.00    -0.744 OA
ENDBRANCH  97 101
ENDBRANCH  71  94
ENDBRANCH  45  46
ENDBRANCH  37  40
ENDBRANCH  35  36
ENDBRANCH  34  35
ENDBRANCH   1  34
TORSDOF 18
