REMARK SMILES CS(=O)(=O)c1ccc(C(=O)N2C[C@@H](C(=O)NCCCCNC(=O)c3ccc(-c4c5nc(c(-c6cc(S(=O)(=O)[O-])ccc6F)c6ccc([nH]6)c(-c6cc(S(=O)(=O)[O-])ccc6F)c6nc(c(-c7cc(S(=O)(=O)[O-])ccc7F)c7ccc4[nH]7)C=C6)C=C5)cc3)[C@H](c3ccncc3)C2)cc1
REMARK SMILES IDX 18 1 17 2 16 3 14 4 15 5 13 7 11 8 12 9 94 10 87 11 9 12
REMARK SMILES IDX 10 13 8 14 5 15 6 16 96 17 7 18 95 19 2 20 1 21 3 22 4 23
REMARK SMILES IDX 88 24 89 25 93 26 90 27 92 28 91 29 19 30 20 31 21 32 22 33
REMARK SMILES IDX 23 35 24 36 25 37 86 38 26 39 85 40 27 41 28 42 29 43 79 44
REMARK SMILES IDX 30 45 84 46 78 47 80 48 31 49 83 50 77 51 76 52 32 54 64 55
REMARK SMILES IDX 44 56 63 57 45 58 48 59 62 60 81 61 46 62 47 63 61 65 82 66
REMARK SMILES IDX 49 67 33 68 34 69 42 70 35 71 41 72 43 73 40 74 36 75 37 76
REMARK SMILES IDX 38 77 39 78 65 79 66 80 74 81 67 82 73 83 75 84 72 85 68 86
REMARK SMILES IDX 69 87 70 88 71 89 50 90 51 91 59 92 52 93 58 94 60 95 57 96
REMARK SMILES IDX 53 97 54 98 55 99 56 100
REMARK H PARENT 16 6 21 34 80 53 48 64
REMARK Flexibility Score: inf
ROOT
ATOM      1  C   UNL     1      -3.484   6.819   0.339  1.00  0.00     0.023 C 
ENDROOT
BRANCH   1   2
ATOM      2  C   UNL     1      -3.325   7.682  -0.910  1.00  0.00     0.116 C 
BRANCH   2   3
ATOM      3  N   UNL     1      -2.405   8.785  -0.681  1.00  0.00    -0.356 N 
ATOM      4  C   UNL     1      -1.190   9.056  -1.234  1.00  0.00     0.225 C 
ATOM      5  O   UNL     1      -0.592  10.068  -0.868  1.00  0.00    -0.275 OA
ATOM      6  H   UNL     1      -2.711   9.444  -0.017  1.00  0.00     0.163 HD
BRANCH   4   7
ATOM      7  C   UNL     1      -0.617   8.136  -2.284  1.00  0.00     0.107 C 
ATOM      8  N   UNL     1       1.320   7.162  -3.053  1.00  0.00    -0.337 N 
ATOM      9  C   UNL     1       0.709   7.570  -1.806  1.00  0.00     0.134 C 
ATOM     10  C   UNL     1       1.034   8.152  -4.078  1.00  0.00     0.129 C 
ATOM     11  C   UNL     1      -0.254   8.878  -3.605  1.00  0.00     0.053 C 
BRANCH   8  12
ATOM     12  C   UNL     1       2.054   6.036  -3.360  1.00  0.00     0.253 C 
ATOM     13  O   UNL     1       2.910   6.055  -4.245  1.00  0.00    -0.269 OA
BRANCH  12  14
ATOM     14  C   UNL     1       1.707   4.716  -2.749  1.00  0.00     0.040 A 
ATOM     15  C   UNL     1       0.992   2.094  -2.051  1.00  0.00     0.067 A 
ATOM     16  C   UNL     1       2.273   2.353  -2.542  1.00  0.00     0.021 A 
ATOM     17  C   UNL     1       0.065   3.126  -1.904  1.00  0.00     0.021 A 
ATOM     18  C   UNL     1       2.630   3.664  -2.877  1.00  0.00     0.015 A 
ATOM     19  C   UNL     1       0.420   4.427  -2.272  1.00  0.00     0.015 A 
BRANCH  15  20
ATOM     20  S   UNL     1       0.483   0.417  -1.745  1.00  0.00     0.175 S 
ATOM     21  C   UNL     1       1.030   0.117  -0.088  1.00  0.00     0.163 C 
ATOM     22  O   UNL     1       1.247  -0.437  -2.639  1.00  0.00    -0.224 OA
ATOM     23  O   UNL     1      -0.965   0.392  -1.755  1.00  0.00    -0.224 OA
ENDBRANCH  15  20
ENDBRANCH  12  14
ENDBRANCH   8  12
BRANCH  11  24
ATOM     24  C   UNL     1      -1.452   8.929  -4.550  1.00  0.00    -0.039 A 
ATOM     25  C   UNL     1      -2.599   9.639  -4.156  1.00  0.00     0.024 A 
ATOM     26  C   UNL     1      -1.494   8.314  -5.805  1.00  0.00     0.024 A 
ATOM     27  C   UNL     1      -3.714   9.665  -4.983  1.00  0.00     0.111 A 
ATOM     28  C   UNL     1      -2.651   8.409  -6.571  1.00  0.00     0.111 A 
ATOM     29  N   UNL     1      -3.765   9.059  -6.183  1.00  0.00    -0.265 NA
ENDBRANCH  11  24
ENDBRANCH   4   7
ENDBRANCH   2   3
ENDBRANCH   1   2
BRANCH   1  30
ATOM     30  C   UNL     1      -4.134   7.535   1.525  1.00  0.00     0.023 C 
BRANCH  30  31
ATOM     31  C   UNL     1      -5.506   8.142   1.246  1.00  0.00     0.116 C 
BRANCH  31  32
ATOM     32  N   UNL     1      -6.492   7.147   0.855  1.00  0.00    -0.352 N 
ATOM     33  C   UNL     1      -7.756   6.934   1.354  1.00  0.00     0.251 C 
ATOM     34  H   UNL     1      -6.215   6.540   0.131  1.00  0.00     0.163 HD
ATOM     35  O   UNL     1      -8.380   5.934   1.010  1.00  0.00    -0.269 OA
BRANCH  33  36
ATOM     36  C   UNL     1      -8.340   7.886   2.325  1.00  0.00     0.039 A 
ATOM     37  C   UNL     1      -8.992   7.384   3.454  1.00  0.00     0.014 A 
ATOM     38  C   UNL     1      -8.237   9.267   2.135  1.00  0.00     0.014 A 
ATOM     39  C   UNL     1      -9.474   8.265   4.426  1.00  0.00     0.010 A 
ATOM     40  C   UNL     1      -8.647  10.140   3.141  1.00  0.00     0.010 A 
ATOM     41  C   UNL     1      -9.267   9.649   4.301  1.00  0.00    -0.014 A 
BRANCH  41  42
ATOM     42  C   UNL     1      -9.690  10.594   5.371  1.00  0.00     0.031 A 
ATOM     43  C   UNL     1     -10.726  11.649   5.084  1.00  0.00     0.074 A 
ATOM     44  C   UNL     1      -9.108  10.533   6.587  1.00  0.00     0.049 A 
ATOM     45  N   UNL     1     -11.164  12.610   5.856  1.00  0.00    -0.248 NA
ATOM     46  C   UNL     1     -11.331  11.635   3.743  1.00  0.00     0.031 C 
ATOM     47  C   UNL     1      -8.075   9.573   6.983  1.00  0.00     0.029 A 
ATOM     48  N   UNL     1      -9.295  11.296   7.714  1.00  0.00    -0.354 N 
ATOM     49  C   UNL     1     -12.093  13.314   5.098  1.00  0.00     0.074 A 
ATOM     50  C   UNL     1     -12.105  12.710   3.783  1.00  0.00     0.031 C 
ATOM     51  C   UNL     1      -7.741   9.787   8.266  1.00  0.00     0.029 A 
ATOM     52  C   UNL     1      -8.490  10.933   8.771  1.00  0.00     0.049 A 
ATOM     53  H   UNL     1      -9.945  12.034   7.762  1.00  0.00     0.167 HD
ATOM     54  C   UNL     1     -12.884  14.351   5.472  1.00  0.00     0.034 A 
ATOM     55  C   UNL     1      -8.356  11.472  10.000  1.00  0.00     0.034 A 
ATOM     56  C   UNL     1     -12.869  14.941   6.788  1.00  0.00     0.049 A 
ATOM     57  C   UNL     1      -9.206  12.666  10.368  1.00  0.00     0.074 A 
ATOM     58  C   UNL     1     -13.650  15.975   7.275  1.00  0.00     0.029 A 
ATOM     59  N   UNL     1     -12.030  14.556   7.825  1.00  0.00    -0.354 N 
ATOM     60  N   UNL     1     -10.107  13.293   9.648  1.00  0.00    -0.248 NA
ATOM     61  C   UNL     1      -9.029  13.217  11.719  1.00  0.00     0.031 C 
ATOM     62  C   UNL     1     -13.235  16.263   8.579  1.00  0.00     0.029 A 
ATOM     63  C   UNL     1     -12.256  15.351   8.939  1.00  0.00     0.049 A 
ATOM     64  H   UNL     1     -11.372  13.826   7.778  1.00  0.00     0.167 HD
ATOM     65  C   UNL     1     -10.632  14.283  10.476  1.00  0.00     0.074 A 
ATOM     66  C   UNL     1      -9.961  14.156  11.752  1.00  0.00     0.031 C 
ATOM     67  C   UNL     1     -11.585  15.212  10.209  1.00  0.00     0.034 A 
BRANCH  54  68
ATOM     68  C   UNL     1     -13.824  14.922   4.438  1.00  0.00     0.023 A 
ATOM     69  C   UNL     1     -14.874  14.160   3.898  1.00  0.00     0.031 A 
ATOM     70  C   UNL     1     -13.678  16.249   3.996  1.00  0.00     0.131 A 
ATOM     71  C   UNL     1     -15.701  14.710   2.908  1.00  0.00     0.055 A 
ATOM     72  C   UNL     1     -14.555  16.816   3.069  1.00  0.00     0.041 A 
ATOM     73  F   UNL     1     -12.681  17.019   4.460  1.00  0.00    -0.206 F 
ATOM     74  C   UNL     1     -15.567  16.042   2.510  1.00  0.00     0.022 A 
BRANCH  71  75
ATOM     75  S   UNL     1     -16.877  13.621   2.059  1.00  0.00     0.124 S 
ATOM     76  O   UNL     1     -15.983  12.626   1.471  1.00  0.00    -0.237 OA
ATOM     77  O   UNL     1     -17.721  13.154   3.152  1.00  0.00    -0.237 OA
ATOM     78  O   UNL     1     -17.531  14.506   1.098  1.00  0.00    -0.744 OA
ENDBRANCH  71  75
ENDBRANCH  54  68
BRANCH  55  79
ATOM     79  C   UNL     1      -7.368  10.923  10.978  1.00  0.00     0.023 A 
ATOM     80  C   UNL     1      -7.784  10.433  12.227  1.00  0.00     0.031 A 
ATOM     81  C   UNL     1      -5.986  10.965  10.718  1.00  0.00     0.131 A 
ATOM     82  C   UNL     1      -6.830  10.082  13.195  1.00  0.00     0.055 A 
ATOM     83  C   UNL     1      -5.043  10.544  11.658  1.00  0.00     0.041 A 
ATOM     84  F   UNL     1      -5.528  11.424   9.542  1.00  0.00    -0.206 F 
ATOM     85  C   UNL     1      -5.463  10.119  12.914  1.00  0.00     0.022 A 
BRANCH  82  86
ATOM     86  S   UNL     1      -7.401   9.716  14.878  1.00  0.00     0.124 S 
ATOM     87  O   UNL     1      -8.150  10.925  15.204  1.00  0.00    -0.237 OA
ATOM     88  O   UNL     1      -8.190   8.507  14.673  1.00  0.00    -0.237 OA
ATOM     89  O   UNL     1      -6.159   9.530  15.625  1.00  0.00    -0.744 OA
ENDBRANCH  82  86
ENDBRANCH  55  79
BRANCH  67  90
ATOM     90  C   UNL     1     -12.001  16.122  11.340  1.00  0.00     0.023 A 
ATOM     91  C   UNL     1     -11.117  17.052  11.913  1.00  0.00     0.031 A 
ATOM     92  C   UNL     1     -13.307  16.046  11.860  1.00  0.00     0.131 A 
ATOM     93  C   UNL     1     -11.528  17.825  13.009  1.00  0.00     0.055 A 
ATOM     94  C   UNL     1     -13.732  16.867  12.905  1.00  0.00     0.041 A 
ATOM     95  F   UNL     1     -14.194  15.174  11.356  1.00  0.00    -0.206 F 
ATOM     96  C   UNL     1     -12.835  17.753  13.496  1.00  0.00     0.022 A 
BRANCH  93  97
ATOM     97  S   UNL     1     -10.299  18.853  13.859  1.00  0.00     0.124 S 
ATOM     98  O   UNL     1      -9.298  17.867  14.252  1.00  0.00    -0.237 OA
ATOM     99  O   UNL     1      -9.896  19.787  12.812  1.00  0.00    -0.237 OA
ATOM    100  O   UNL     1     -11.052  19.448  14.962  1.00  0.00    -0.744 OA
ENDBRANCH  93  97
ENDBRANCH  67  90
ENDBRANCH  41  42
ENDBRANCH  33  36
ENDBRANCH  31  32
ENDBRANCH  30  31
ENDBRANCH   1  30
TORSDOF 18
