REMARK SMILES CC(C)(C)OC(=O)N1C[C@@H](COCc2ccccc2)O[C@@H](C(=O)NCCCCNC(=O)c2ccc(-c3c4nc(c(-c5cc(S(=O)(=O)[O-])ccc5F)c5ccc([nH]5)c(-c5cc(S(=O)(=O)[O-])ccc5F)c5nc(c(-c6cc(S(=O)(=O)[O-])ccc6F)c6ccc3[nH]6)C=C5)C=C4)cc2)C1
REMARK SMILES IDX 26 1 25 2 24 3 22 4 23 5 21 7 8 8 9 9 95 10 10 11 20 12 6 13
REMARK SMILES IDX 7 14 5 15 2 16 1 17 3 18 4 19 11 20 12 21 13 22 14 23 15 24
REMARK SMILES IDX 19 25 16 26 18 27 17 28 27 29 28 30 29 31 30 32 31 34 32 35
REMARK SMILES IDX 33 36 94 37 34 38 93 39 35 40 36 41 37 42 87 43 38 44 92 45
REMARK SMILES IDX 86 46 88 47 39 48 91 49 85 50 84 51 40 53 72 54 52 55 71 56
REMARK SMILES IDX 53 57 56 58 70 59 89 60 54 61 55 62 69 64 90 65 57 66 41 67
REMARK SMILES IDX 42 68 50 69 43 70 49 71 51 72 48 73 44 74 45 75 46 76 47 77
REMARK SMILES IDX 73 78 74 79 82 80 75 81 81 82 83 83 80 84 76 85 77 86 78 87
REMARK SMILES IDX 79 88 58 89 59 90 67 91 60 92 66 93 68 94 65 95 61 96 62 97
REMARK SMILES IDX 63 98 64 99
REMARK H PARENT 24 6 29 33 88 52 56 63
REMARK Flexibility Score: inf
ROOT
ATOM      1  C   UNL     1       0.744   6.866  -5.913  1.00  0.00     0.023 C 
ENDROOT
BRANCH   1   2
ATOM      2  C   UNL     1       1.005   7.687  -4.652  1.00  0.00     0.116 C 
BRANCH   2   3
ATOM      3  N   UNL     1      -0.229   8.025  -3.970  1.00  0.00    -0.354 N 
ATOM      4  C   UNL     1      -0.720   7.559  -2.788  1.00  0.00     0.251 C 
ATOM      5  O   UNL     1      -1.811   7.986  -2.400  1.00  0.00    -0.272 OA
ATOM      6  H   UNL     1      -0.794   8.690  -4.428  1.00  0.00     0.163 HD
BRANCH   4   7
ATOM      7  C   UNL     1       0.043   6.513  -1.970  1.00  0.00     0.227 C 
ATOM      8  N   UNL     1       0.743   4.155  -1.858  1.00  0.00    -0.302 N 
ATOM      9  C   UNL     1       2.011   4.578  -1.245  1.00  0.00     0.157 C 
ATOM     10  C   UNL     1       0.025   5.153  -2.649  1.00  0.00     0.165 C 
ATOM     11  C   UNL     1       1.989   6.038  -0.721  1.00  0.00     0.164 C 
ATOM     12  O   UNL     1       1.397   6.890  -1.712  1.00  0.00    -0.359 OA
BRANCH   8  13
ATOM     13  C   UNL     1       0.397   2.834  -2.063  1.00  0.00     0.410 C 
ATOM     14  O   UNL     1      -0.413   2.486  -2.912  1.00  0.00    -0.224 OA
BRANCH  13  15
ATOM     15  O   UNL     1       1.008   1.990  -1.193  1.00  0.00    -0.444 OA
BRANCH  15  16
ATOM     16  C   UNL     1       0.591   0.599  -1.153  1.00  0.00     0.106 C 
ATOM     17  C   UNL     1       1.280   0.018   0.090  1.00  0.00     0.056 C 
ATOM     18  C   UNL     1       1.085  -0.152  -2.393  1.00  0.00     0.056 C 
ATOM     19  C   UNL     1      -0.928   0.452  -0.961  1.00  0.00     0.056 C 
ENDBRANCH  15  16
ENDBRANCH  13  15
ENDBRANCH   8  13
BRANCH  11  20
ATOM     20  C   UNL     1       3.425   6.515  -0.418  1.00  0.00     0.194 C 
BRANCH  20  21
ATOM     21  O   UNL     1       3.612   7.861   0.020  1.00  0.00    -0.374 OA
BRANCH  21  22
ATOM     22  C   UNL     1       3.052   8.944  -0.729  1.00  0.00     0.195 C 
BRANCH  22  23
ATOM     23  C   UNL     1       3.702   9.363  -2.039  1.00  0.00    -0.022 A 
ATOM     24  C   UNL     1       4.159   8.470  -3.015  1.00  0.00     0.006 A 
ATOM     25  C   UNL     1       3.749  10.736  -2.353  1.00  0.00     0.006 A 
ATOM     26  C   UNL     1       4.690   8.920  -4.230  1.00  0.00     0.000 A 
ATOM     27  C   UNL     1       4.267  11.190  -3.571  1.00  0.00     0.000 A 
ATOM     28  C   UNL     1       4.745  10.280  -4.508  1.00  0.00     0.000 A 
ENDBRANCH  22  23
ENDBRANCH  21  22
ENDBRANCH  20  21
ENDBRANCH  11  20
ENDBRANCH   4   7
ENDBRANCH   2   3
ENDBRANCH   1   2
BRANCH   1  29
ATOM     29  C   UNL     1       0.011   7.621  -7.021  1.00  0.00     0.023 C 
BRANCH  29  30
ATOM     30  C   UNL     1       0.673   8.920  -7.464  1.00  0.00     0.116 C 
BRANCH  30  31
ATOM     31  N   UNL     1       2.045   8.734  -7.914  1.00  0.00    -0.352 N 
ATOM     32  C   UNL     1       2.660   9.240  -9.034  1.00  0.00     0.251 C 
ATOM     33  H   UNL     1       2.608   8.168  -7.338  1.00  0.00     0.163 HD
ATOM     34  O   UNL     1       3.796   8.879  -9.328  1.00  0.00    -0.269 OA
BRANCH  32  35
ATOM     35  C   UNL     1       1.924  10.191  -9.894  1.00  0.00     0.039 A 
ATOM     36  C   UNL     1       1.851   9.946 -11.267  1.00  0.00     0.014 A 
ATOM     37  C   UNL     1       1.261  11.286  -9.333  1.00  0.00     0.014 A 
ATOM     38  C   UNL     1       1.038  10.751 -12.067  1.00  0.00     0.010 A 
ATOM     39  C   UNL     1       0.400  12.045 -10.120  1.00  0.00     0.010 A 
ATOM     40  C   UNL     1       0.267  11.775 -11.491  1.00  0.00    -0.014 A 
BRANCH  40  41
ATOM     41  C   UNL     1      -0.715  12.549 -12.295  1.00  0.00     0.031 A 
ATOM     42  C   UNL     1      -0.534  14.027 -12.493  1.00  0.00     0.074 A 
ATOM     43  C   UNL     1      -1.815  11.930 -12.770  1.00  0.00     0.049 A 
ATOM     44  N   UNL     1      -1.332  14.888 -13.071  1.00  0.00    -0.248 NA
ATOM     45  C   UNL     1       0.694  14.618 -11.941  1.00  0.00     0.031 C 
ATOM     46  C   UNL     1      -2.122  10.507 -12.604  1.00  0.00     0.029 A 
ATOM     47  N   UNL     1      -2.887  12.418 -13.474  1.00  0.00    -0.354 N 
ATOM     48  C   UNL     1      -0.709  16.125 -12.945  1.00  0.00     0.074 A 
ATOM     49  C   UNL     1       0.505  15.906 -12.186  1.00  0.00     0.031 C 
ATOM     50  C   UNL     1      -3.293  10.236 -13.202  1.00  0.00     0.029 A 
ATOM     51  C   UNL     1      -3.845  11.470 -13.750  1.00  0.00     0.049 A 
ATOM     52  H   UNL     1      -2.963  13.359 -13.755  1.00  0.00     0.167 HD
ATOM     53  C   UNL     1      -1.105  17.326 -13.434  1.00  0.00     0.034 A 
ATOM     54  C   UNL     1      -5.043  11.585 -14.357  1.00  0.00     0.034 A 
ATOM     55  C   UNL     1      -2.315  17.524 -14.195  1.00  0.00     0.049 A 
ATOM     56  C   UNL     1      -5.479  12.937 -14.860  1.00  0.00     0.074 A 
ATOM     57  C   UNL     1      -2.775  18.683 -14.797  1.00  0.00     0.029 A 
ATOM     58  N   UNL     1      -3.266  16.544 -14.448  1.00  0.00    -0.354 N 
ATOM     59  N   UNL     1      -4.851  14.088 -14.783  1.00  0.00    -0.248 NA
ATOM     60  C   UNL     1      -6.782  13.005 -15.533  1.00  0.00     0.031 C 
ATOM     61  C   UNL     1      -4.033  18.421 -15.354  1.00  0.00     0.029 A 
ATOM     62  C   UNL     1      -4.327  17.080 -15.163  1.00  0.00     0.049 A 
ATOM     63  H   UNL     1      -3.197  15.604 -14.162  1.00  0.00     0.167 HD
ATOM     64  C   UNL     1      -5.676  15.012 -15.418  1.00  0.00     0.074 A 
ATOM     65  C   UNL     1      -6.835  14.281 -15.886  1.00  0.00     0.031 C 
ATOM     66  C   UNL     1      -5.489  16.344 -15.602  1.00  0.00     0.034 A 
BRANCH  53  67
ATOM     67  C   UNL     1      -0.230  18.520 -13.135  1.00  0.00     0.023 A 
ATOM     68  C   UNL     1       1.089  18.607 -13.615  1.00  0.00     0.031 A 
ATOM     69  C   UNL     1      -0.712  19.575 -12.341  1.00  0.00     0.131 A 
ATOM     70  C   UNL     1       1.903  19.684 -13.235  1.00  0.00     0.055 A 
ATOM     71  C   UNL     1       0.079  20.684 -12.032  1.00  0.00     0.041 A 
ATOM     72  F   UNL     1      -1.956  19.540 -11.838  1.00  0.00    -0.206 F 
ATOM     73  C   UNL     1       1.399  20.736 -12.467  1.00  0.00     0.022 A 
BRANCH  70  74
ATOM     74  S   UNL     1       3.669  19.620 -13.643  1.00  0.00     0.124 S 
ATOM     75  O   UNL     1       4.082  18.388 -12.975  1.00  0.00    -0.237 OA
ATOM     76  O   UNL     1       3.655  19.583 -15.101  1.00  0.00    -0.237 OA
ATOM     77  O   UNL     1       4.202  20.847 -13.055  1.00  0.00    -0.744 OA
ENDBRANCH  70  74
ENDBRANCH  53  67
BRANCH  54  78
ATOM     78  C   UNL     1      -5.931  10.397 -14.505  1.00  0.00     0.023 A 
ATOM     79  C   UNL     1      -6.242   9.880 -15.773  1.00  0.00     0.031 A 
ATOM     80  C   UNL     1      -6.512   9.783 -13.381  1.00  0.00     0.131 A 
ATOM     81  C   UNL     1      -7.143   8.811 -15.890  1.00  0.00     0.055 A 
ATOM     82  C   UNL     1      -7.369   8.687 -13.500  1.00  0.00     0.041 A 
ATOM     83  F   UNL     1      -6.243  10.235 -12.146  1.00  0.00    -0.206 F 
ATOM     84  C   UNL     1      -7.699   8.203 -14.762  1.00  0.00     0.022 A 
BRANCH  81  85
ATOM     85  S   UNL     1      -7.640   8.273 -17.549  1.00  0.00     0.124 S 
ATOM     86  O   UNL     1      -8.206   9.498 -18.102  1.00  0.00    -0.237 OA
ATOM     87  O   UNL     1      -6.370   7.837 -18.119  1.00  0.00    -0.237 OA
ATOM     88  O   UNL     1      -8.601   7.204 -17.286  1.00  0.00    -0.744 OA
ENDBRANCH  81  85
ENDBRANCH  54  78
BRANCH  66  89
ATOM     89  C   UNL     1      -6.559  17.082 -16.367  1.00  0.00     0.023 A 
ATOM     90  C   UNL     1      -7.846  17.274 -15.836  1.00  0.00     0.031 A 
ATOM     91  C   UNL     1      -6.289  17.590 -17.651  1.00  0.00     0.131 A 
ATOM     92  C   UNL     1      -8.832  17.911 -16.605  1.00  0.00     0.055 A 
ATOM     93  C   UNL     1      -7.257  18.272 -18.389  1.00  0.00     0.041 A 
ATOM     94  F   UNL     1      -5.077  17.432 -18.207  1.00  0.00    -0.206 F 
ATOM     95  C   UNL     1      -8.540  18.426 -17.872  1.00  0.00     0.022 A 
BRANCH  92  96
ATOM     96  S   UNL     1     -10.525  17.989 -15.962  1.00  0.00     0.124 S 
ATOM     97  O   UNL     1     -10.861  16.576 -15.820  1.00  0.00    -0.237 OA
ATOM     98  O   UNL     1     -10.354  18.731 -14.717  1.00  0.00    -0.237 OA
ATOM     99  O   UNL     1     -11.258  18.698 -17.009  1.00  0.00    -0.744 OA
ENDBRANCH  92  96
ENDBRANCH  66  89
ENDBRANCH  40  41
ENDBRANCH  32  35
ENDBRANCH  30  31
ENDBRANCH  29  30
ENDBRANCH   1  29
TORSDOF 21
