REMARK SMILES CCCN1C(=O)C[C@H](C(=O)NCCCCNC(=O)c2ccc(-c3c4nc(c(-c5cc(S(=O)(=O)[O-])ccc5F)c5ccc([nH]5)c(-c5cc(S(=O)(=O)[O-])ccc5F)c5nc(c(-c6cc(S(=O)(=O)[O-])ccc6F)c6ccc3[nH]6)C=C5)C=C4)cc2)[C@@H]1c1cncn1C1CC1
REMARK SMILES IDX 14 1 13 2 12 3 11 4 9 5 10 6 8 8 4 9 5 10 82 11 6 12 7 13
REMARK SMILES IDX 3 14 2 15 1 16 83 17 84 18 87 19 85 20 86 21 88 22 89 23
REMARK SMILES IDX 90 24 15 25 16 26 17 27 18 29 19 30 20 31 81 32 21 33 80 34
REMARK SMILES IDX 22 35 23 36 24 37 74 38 25 39 79 40 73 41 75 42 26 43 78 44
REMARK SMILES IDX 72 45 71 46 27 48 59 49 39 50 58 51 40 52 43 53 57 54 76 55
REMARK SMILES IDX 41 56 42 57 56 59 77 60 44 61 28 62 29 63 37 64 30 65 36 66
REMARK SMILES IDX 38 67 35 68 31 69 32 70 33 71 34 72 60 73 61 74 69 75 62 76
REMARK SMILES IDX 68 77 70 78 67 79 63 80 64 81 65 82 66 83 45 84 46 85 54 86
REMARK SMILES IDX 47 87 53 88 55 89 52 90 48 91 49 92 50 93 51 94
REMARK H PARENT 11 7 16 28 75 47 43 58
REMARK Flexibility Score: inf
ROOT
ATOM      1  C   UNL     1       3.149  -3.284   7.222  1.00  0.00     0.023 C 
ENDROOT
BRANCH   1   2
ATOM      2  C   UNL     1       2.575  -2.495   6.050  1.00  0.00     0.023 C 
BRANCH   2   3
ATOM      3  C   UNL     1       1.974  -3.354   4.952  1.00  0.00     0.116 C 
BRANCH   3   4
ATOM      4  N   UNL     1       0.740  -4.008   5.301  1.00  0.00    -0.356 N 
ATOM      5  C   UNL     1      -0.352  -4.215   4.521  1.00  0.00     0.226 C 
ATOM      6  O   UNL     1      -1.182  -5.041   4.915  1.00  0.00    -0.275 OA
ATOM      7  H   UNL     1       0.680  -4.347   6.223  1.00  0.00     0.163 HD
BRANCH   5   8
ATOM      8  C   UNL     1      -0.616  -3.457   3.230  1.00  0.00     0.116 C 
ATOM      9  N   UNL     1       0.063  -2.509   1.171  1.00  0.00    -0.333 N 
ATOM     10  C   UNL     1      -0.571  -1.510   1.919  1.00  0.00     0.224 C 
ATOM     11  C   UNL     1       0.171  -3.733   1.942  1.00  0.00     0.146 C 
ATOM     12  O   UNL     1      -1.010  -0.446   1.528  1.00  0.00    -0.275 OA
ATOM     13  C   UNL     1      -0.650  -1.946   3.357  1.00  0.00     0.116 C 
BRANCH   9  14
ATOM     14  C   UNL     1       0.103  -2.558  -0.298  1.00  0.00     0.120 C 
BRANCH  14  15
ATOM     15  C   UNL     1      -0.204  -1.282  -1.100  1.00  0.00     0.018 C 
ATOM     16  C   UNL     1       0.757  -0.113  -0.930  1.00  0.00     0.006 C 
ENDBRANCH  14  15
ENDBRANCH   9  14
BRANCH  11  17
ATOM     17  C   UNL     1       1.485  -4.447   2.037  1.00  0.00     0.061 A 
ATOM     18  C   UNL     1       1.530  -5.806   2.369  1.00  0.00     0.136 A 
ATOM     19  N   UNL     1       2.828  -4.139   1.841  1.00  0.00    -0.330 N 
ATOM     20  N   UNL     1       2.788  -6.309   2.392  1.00  0.00    -0.245 NA
ATOM     21  C   UNL     1       3.544  -5.298   2.060  1.00  0.00     0.199 A 
BRANCH  19  22
ATOM     22  C   UNL     1       3.614  -2.956   1.530  1.00  0.00     0.088 C 
ATOM     23  C   UNL     1       3.182  -1.675   0.890  1.00  0.00     0.027 C 
ATOM     24  C   UNL     1       3.584  -1.660   2.318  1.00  0.00     0.027 C 
ENDBRANCH  19  22
ENDBRANCH  11  17
ENDBRANCH   5   8
ENDBRANCH   3   4
ENDBRANCH   2   3
ENDBRANCH   1   2
BRANCH   1  25
ATOM     25  C   UNL     1       4.124  -4.399   6.851  1.00  0.00     0.116 C 
BRANCH  25  26
ATOM     26  N   UNL     1       5.274  -3.932   6.091  1.00  0.00    -0.352 N 
ATOM     27  C   UNL     1       6.608  -4.206   6.294  1.00  0.00     0.251 C 
ATOM     28  H   UNL     1       5.072  -3.341   5.330  1.00  0.00     0.163 HD
ATOM     29  O   UNL     1       7.458  -3.630   5.622  1.00  0.00    -0.269 OA
BRANCH  27  30
ATOM     30  C   UNL     1       6.999  -5.162   7.354  1.00  0.00     0.039 A 
ATOM     31  C   UNL     1       7.990  -4.794   8.266  1.00  0.00     0.014 A 
ATOM     32  C   UNL     1       6.351  -6.394   7.480  1.00  0.00     0.014 A 
ATOM     33  C   UNL     1       8.277  -5.631   9.347  1.00  0.00     0.010 A 
ATOM     34  C   UNL     1       6.576  -7.183   8.606  1.00  0.00     0.010 A 
ATOM     35  C   UNL     1       7.543  -6.813   9.553  1.00  0.00    -0.014 A 
BRANCH  35  36
ATOM     36  C   UNL     1       7.787  -7.665  10.750  1.00  0.00     0.031 A 
ATOM     37  C   UNL     1       8.274  -9.081  10.586  1.00  0.00     0.074 A 
ATOM     38  C   UNL     1       7.550  -7.172  11.983  1.00  0.00     0.049 A 
ATOM     39  N   UNL     1       8.530  -9.980  11.503  1.00  0.00    -0.248 NA
ATOM     40  C   UNL     1       8.477  -9.559   9.209  1.00  0.00     0.031 C 
ATOM     41  C   UNL     1       7.030  -5.833  12.274  1.00  0.00     0.029 A 
ATOM     42  N   UNL     1       7.718  -7.733  13.226  1.00  0.00    -0.354 N 
ATOM     43  C   UNL     1       8.935 -11.120  10.817  1.00  0.00     0.074 A 
ATOM     44  C   UNL     1       8.807 -10.826   9.406  1.00  0.00     0.031 C 
ATOM     45  C   UNL     1       6.961  -5.664  13.604  1.00  0.00     0.029 A 
ATOM     46  C   UNL     1       7.385  -6.894  14.266  1.00  0.00     0.049 A 
ATOM     47  H   UNL     1       8.046  -8.651  13.360  1.00  0.00     0.167 HD
ATOM     48  C   UNL     1       9.408 -12.290  11.313  1.00  0.00     0.034 A 
ATOM     49  C   UNL     1       7.416  -7.093  15.599  1.00  0.00     0.034 A 
ATOM     50  C   UNL     1       9.531 -12.576  12.721  1.00  0.00     0.049 A 
ATOM     51  C   UNL     1       7.912  -8.421  16.122  1.00  0.00     0.074 A 
ATOM     52  C   UNL     1       9.999 -13.728  13.330  1.00  0.00     0.029 A 
ATOM     53  N   UNL     1       9.186 -11.702  13.743  1.00  0.00    -0.354 N 
ATOM     54  N   UNL     1       8.332  -9.471  15.453  1.00  0.00    -0.248 NA
ATOM     55  C   UNL     1       7.963  -8.579  17.580  1.00  0.00     0.031 C 
ATOM     56  C   UNL     1       9.884 -13.573  14.716  1.00  0.00     0.029 A 
ATOM     57  C   UNL     1       9.421 -12.293  14.976  1.00  0.00     0.049 A 
ATOM     58  H   UNL     1       8.828 -10.794  13.613  1.00  0.00     0.167 HD
ATOM     59  C   UNL     1       8.738 -10.394  16.415  1.00  0.00     0.074 A 
ATOM     60  C   UNL     1       8.541  -9.762  17.703  1.00  0.00     0.031 C 
ATOM     61  C   UNL     1       9.225 -11.652  16.253  1.00  0.00     0.034 A 
BRANCH  48  62
ATOM     62  C   UNL     1       9.830 -13.345  10.318  1.00  0.00     0.023 A 
ATOM     63  C   UNL     1      10.900 -13.125   9.431  1.00  0.00     0.031 A 
ATOM     64  C   UNL     1       9.163 -14.579  10.248  1.00  0.00     0.131 A 
ATOM     65  C   UNL     1      11.231 -14.097   8.476  1.00  0.00     0.055 A 
ATOM     66  C   UNL     1       9.549 -15.575   9.348  1.00  0.00     0.041 A 
ATOM     67  F   UNL     1       8.120 -14.839  11.053  1.00  0.00    -0.206 F 
ATOM     68  C   UNL     1      10.581 -15.332   8.447  1.00  0.00     0.022 A 
BRANCH  65  69
ATOM     69  S   UNL     1      12.443 -13.675   7.194  1.00  0.00     0.124 S 
ATOM     70  O   UNL     1      11.789 -12.549   6.531  1.00  0.00    -0.237 OA
ATOM     71  O   UNL     1      13.631 -13.352   7.975  1.00  0.00    -0.237 OA
ATOM     72  O   UNL     1      12.534 -14.894   6.394  1.00  0.00    -0.744 OA
ENDBRANCH  65  69
ENDBRANCH  48  62
BRANCH  49  73
ATOM     73  C   UNL     1       6.965  -6.032  16.550  1.00  0.00     0.023 A 
ATOM     74  C   UNL     1       7.837  -5.510  17.521  1.00  0.00     0.031 A 
ATOM     75  C   UNL     1       5.628  -5.597  16.572  1.00  0.00     0.131 A 
ATOM     76  C   UNL     1       7.345  -4.659  18.522  1.00  0.00     0.055 A 
ATOM     77  C   UNL     1       5.160  -4.690  17.524  1.00  0.00     0.041 A 
ATOM     78  F   UNL     1       4.748  -6.057  15.667  1.00  0.00    -0.206 F 
ATOM     79  C   UNL     1       6.015  -4.234  18.523  1.00  0.00     0.022 A 
BRANCH  76  80
ATOM     80  S   UNL     1       8.432  -4.238  19.913  1.00  0.00     0.124 S 
ATOM     81  O   UNL     1       8.834  -5.559  20.384  1.00  0.00    -0.237 OA
ATOM     82  O   UNL     1       9.468  -3.447  19.257  1.00  0.00    -0.237 OA
ATOM     83  O   UNL     1       7.556  -3.492  20.815  1.00  0.00    -0.744 OA
ENDBRANCH  76  80
ENDBRANCH  49  73
BRANCH  61  84
ATOM     84  C   UNL     1       9.639 -12.390  17.506  1.00  0.00     0.023 A 
ATOM     85  C   UNL     1       8.716 -12.718  18.514  1.00  0.00     0.031 A 
ATOM     86  C   UNL     1      10.990 -12.722  17.716  1.00  0.00     0.131 A 
ATOM     87  C   UNL     1       9.167 -13.268  19.724  1.00  0.00     0.055 A 
ATOM     88  C   UNL     1      11.421 -13.344  18.889  1.00  0.00     0.041 A 
ATOM     89  F   UNL     1      11.918 -12.436  16.790  1.00  0.00    -0.206 F 
ATOM     90  C   UNL     1      10.511 -13.600  19.911  1.00  0.00     0.022 A 
BRANCH  87  91
ATOM     91  S   UNL     1       7.997 -13.405  21.103  1.00  0.00     0.124 S 
ATOM     92  O   UNL     1       7.506 -12.037  21.222  1.00  0.00    -0.237 OA
ATOM     93  O   UNL     1       7.038 -14.384  20.600  1.00  0.00    -0.237 OA
ATOM     94  O   UNL     1       8.828 -13.866  22.213  1.00  0.00    -0.744 OA
ENDBRANCH  87  91
ENDBRANCH  61  84
ENDBRANCH  35  36
ENDBRANCH  27  30
ENDBRANCH  25  26
ENDBRANCH   1  25
TORSDOF 18
