REMARK SMILES Cc1ccc([N+](=O)[O-])c(NCc2ccc(C(=O)NCCCCNC(=O)c3ccc(-c4c5nc(c(-c6cc(S(=O)(=O)[O-])ccc6F)c6ccc([nH]6)c(-c6cc(S(=O)(=O)[O-])ccc6F)c6nc(c(-c7cc(S(=O)(=O)[O-])ccc7F)c7ccc4[nH]7)C=C6)C=C5)cc3)cc2)c1
REMARK SMILES IDX 20 1 19 2 18 3 16 4 17 5 15 7 12 8 13 9 90 10 14 11 89 12
REMARK SMILES IDX 11 13 10 14 9 16 1 17 2 18 3 19 91 20 4 21 5 22 6 23 7 24
REMARK SMILES IDX 8 25 21 26 22 27 23 28 24 29 25 31 26 32 27 33 88 34 28 35
REMARK SMILES IDX 87 36 29 37 30 38 31 39 81 40 32 41 86 42 80 43 82 44 33 45
REMARK SMILES IDX 85 46 79 47 78 48 34 50 66 51 46 52 65 53 47 54 50 55 64 56
REMARK SMILES IDX 83 57 48 58 49 59 63 61 84 62 51 63 35 64 36 65 44 66 37 67
REMARK SMILES IDX 43 68 45 69 42 70 38 71 39 72 40 73 41 74 67 75 68 76 76 77
REMARK SMILES IDX 69 78 75 79 77 80 74 81 70 82 71 83 72 84 73 85 52 86 53 87
REMARK SMILES IDX 61 88 54 89 60 90 62 91 59 92 55 93 56 94 57 95 58 96
REMARK H PARENT 18 6 10 15 23 30 82 49 50 60
REMARK Flexibility Score: inf
ROOT
ATOM      1  C   UNL     1      -1.931   9.235  -1.216  1.00  0.00     0.023 C 
ENDROOT
BRANCH   1   2
ATOM      2  C   UNL     1      -2.699   9.198   0.117  1.00  0.00     0.116 C 
BRANCH   2   3
ATOM      3  N   UNL     1      -4.133   9.022  -0.075  1.00  0.00    -0.352 N 
ATOM      4  C   UNL     1      -4.944   7.917  -0.121  1.00  0.00     0.251 C 
ATOM      5  O   UNL     1      -6.157   8.126  -0.226  1.00  0.00    -0.269 OA
ATOM      6  H   UNL     1      -4.619   9.870  -0.197  1.00  0.00     0.163 HD
BRANCH   4   7
ATOM      7  C   UNL     1      -4.468   6.500  -0.062  1.00  0.00     0.039 A 
ATOM      8  C   UNL     1      -3.781   3.730  -0.032  1.00  0.00    -0.029 A 
ATOM      9  C   UNL     1      -5.103   4.146   0.180  1.00  0.00     0.006 A 
ATOM     10  C   UNL     1      -2.823   4.717  -0.288  1.00  0.00     0.006 A 
ATOM     11  C   UNL     1      -5.439   5.508   0.164  1.00  0.00     0.014 A 
ATOM     12  C   UNL     1      -3.159   6.077  -0.285  1.00  0.00     0.014 A 
BRANCH   8  13
ATOM     13  C   UNL     1      -3.462   2.246  -0.081  1.00  0.00     0.149 C 
BRANCH  13  14
ATOM     14  N   UNL     1      -2.076   1.968   0.254  1.00  0.00    -0.375 N 
ATOM     15  H   UNL     1      -1.572   2.728   0.625  1.00  0.00     0.161 HD
BRANCH  14  16
ATOM     16  C   UNL     1      -1.364   0.792   0.128  1.00  0.00     0.114 A 
ATOM     17  C   UNL     1       2.413   0.068  -0.009  1.00  0.00     0.044 C 
ATOM     18  C   UNL     1       0.928  -0.152  -0.009  1.00  0.00    -0.049 A 
ATOM     19  C   UNL     1       0.411  -1.442  -0.105  1.00  0.00     0.010 A 
ATOM     20  C   UNL     1       0.042   0.935   0.106  1.00  0.00     0.036 A 
ATOM     21  C   UNL     1      -0.967  -1.631  -0.118  1.00  0.00     0.088 A 
ATOM     22  C   UNL     1      -1.833  -0.521  -0.024  1.00  0.00     0.292 A 
BRANCH  22  23
ATOM     23  N   UNL     1      -3.242  -0.851  -0.011  1.00  0.00     0.064 N 
ATOM     24  O   UNL     1      -3.664  -1.490   0.964  1.00  0.00    -0.258 OA
ATOM     25  O   UNL     1      -3.909  -0.563  -1.015  1.00  0.00    -0.258 OA
ENDBRANCH  22  23
ENDBRANCH  14  16
ENDBRANCH  13  14
ENDBRANCH   8  13
ENDBRANCH   4   7
ENDBRANCH   2   3
ENDBRANCH   1   2
BRANCH   1  26
ATOM     26  C   UNL     1      -2.167  10.486  -2.067  1.00  0.00     0.023 C 
BRANCH  26  27
ATOM     27  C   UNL     1      -1.578  11.752  -1.460  1.00  0.00     0.116 C 
BRANCH  27  28
ATOM     28  N   UNL     1      -0.249  12.121  -1.928  1.00  0.00    -0.352 N 
ATOM     29  C   UNL     1       0.579  13.130  -1.455  1.00  0.00     0.251 C 
ATOM     30  H   UNL     1       0.107  11.587  -2.674  1.00  0.00     0.163 HD
ATOM     31  O   UNL     1       1.610  13.435  -2.033  1.00  0.00    -0.269 OA
BRANCH  29  32
ATOM     32  C   UNL     1       0.257  13.752  -0.144  1.00  0.00     0.039 A 
ATOM     33  C   UNL     1       1.248  13.697   0.843  1.00  0.00     0.014 A 
ATOM     34  C   UNL     1      -1.048  14.106   0.187  1.00  0.00     0.014 A 
ATOM     35  C   UNL     1       0.876  13.734   2.184  1.00  0.00     0.010 A 
ATOM     36  C   UNL     1      -1.433  14.044   1.514  1.00  0.00     0.010 A 
ATOM     37  C   UNL     1      -0.481  13.777   2.505  1.00  0.00    -0.014 A 
BRANCH  37  38
ATOM     38  C   UNL     1      -0.995  13.389   3.816  1.00  0.00     0.031 A 
ATOM     39  C   UNL     1      -1.560  14.396   4.736  1.00  0.00     0.074 A 
ATOM     40  C   UNL     1      -0.958  12.089   4.191  1.00  0.00     0.049 A 
ATOM     41  N   UNL     1      -1.669  14.230   6.011  1.00  0.00    -0.248 NA
ATOM     42  C   UNL     1      -1.960  15.729   4.299  1.00  0.00     0.031 C 
ATOM     43  C   UNL     1      -1.605  11.476   5.347  1.00  0.00     0.029 A 
ATOM     44  N   UNL     1      -0.082  11.110   3.726  1.00  0.00    -0.354 N 
ATOM     45  C   UNL     1      -2.398  15.280   6.515  1.00  0.00     0.074 A 
ATOM     46  C   UNL     1      -2.431  16.239   5.441  1.00  0.00     0.031 C 
ATOM     47  C   UNL     1      -0.939  10.358   5.675  1.00  0.00     0.029 A 
ATOM     48  C   UNL     1       0.228  10.280   4.817  1.00  0.00     0.049 A 
ATOM     49  H   UNL     1       0.257  11.018   2.806  1.00  0.00     0.167 HD
ATOM     50  C   UNL     1      -2.990  15.141   7.736  1.00  0.00     0.034 A 
ATOM     51  C   UNL     1       1.515  10.133   5.245  1.00  0.00     0.034 A 
ATOM     52  C   UNL     1      -2.430  13.990   8.458  1.00  0.00     0.049 A 
ATOM     53  C   UNL     1       1.735  10.607   6.664  1.00  0.00     0.074 A 
ATOM     54  C   UNL     1      -2.907  12.729   8.772  1.00  0.00     0.029 A 
ATOM     55  N   UNL     1      -1.066  13.974   8.752  1.00  0.00    -0.354 N 
ATOM     56  N   UNL     1       0.881  11.327   7.340  1.00  0.00    -0.248 NA
ATOM     57  C   UNL     1       2.944  10.317   7.428  1.00  0.00     0.031 C 
ATOM     58  C   UNL     1      -1.797  11.927   9.163  1.00  0.00     0.029 A 
ATOM     59  C   UNL     1      -0.654  12.711   9.134  1.00  0.00     0.049 A 
ATOM     60  H   UNL     1      -0.474  14.758   8.696  1.00  0.00     0.167 HD
ATOM     61  C   UNL     1       1.404  11.634   8.571  1.00  0.00     0.074 A 
ATOM     62  C   UNL     1       2.683  10.943   8.589  1.00  0.00     0.031 C 
ATOM     63  C   UNL     1       0.748  12.447   9.456  1.00  0.00     0.034 A 
BRANCH  50  64
ATOM     64  C   UNL     1      -4.227  15.898   8.211  1.00  0.00     0.023 A 
ATOM     65  C   UNL     1      -4.879  15.469   9.392  1.00  0.00     0.031 A 
ATOM     66  C   UNL     1      -4.894  16.937   7.521  1.00  0.00     0.131 A 
ATOM     67  C   UNL     1      -6.113  16.021   9.804  1.00  0.00     0.055 A 
ATOM     68  C   UNL     1      -6.101  17.506   7.948  1.00  0.00     0.041 A 
ATOM     69  F   UNL     1      -4.452  17.451   6.372  1.00  0.00    -0.206 F 
ATOM     70  C   UNL     1      -6.725  17.044   9.088  1.00  0.00     0.022 A 
BRANCH  67  71
ATOM     71  S   UNL     1      -6.960  15.345  11.260  1.00  0.00     0.124 S 
ATOM     72  O   UNL     1      -7.180  13.956  10.870  1.00  0.00    -0.237 OA
ATOM     73  O   UNL     1      -5.987  15.576  12.320  1.00  0.00    -0.237 OA
ATOM     74  O   UNL     1      -8.175  16.155  11.352  1.00  0.00    -0.744 OA
ENDBRANCH  67  71
ENDBRANCH  50  64
BRANCH  51  75
ATOM     75  C   UNL     1       2.505  10.172   4.130  1.00  0.00     0.023 A 
ATOM     76  C   UNL     1       2.330   9.221   3.100  1.00  0.00     0.031 A 
ATOM     77  C   UNL     1       3.291  11.297   3.857  1.00  0.00     0.131 A 
ATOM     78  C   UNL     1       2.767   9.497   1.798  1.00  0.00     0.055 A 
ATOM     79  C   UNL     1       3.798  11.530   2.570  1.00  0.00     0.041 A 
ATOM     80  F   UNL     1       3.468  12.251   4.783  1.00  0.00    -0.206 F 
ATOM     81  C   UNL     1       3.495  10.655   1.523  1.00  0.00     0.022 A 
BRANCH  78  82
ATOM     82  S   UNL     1       2.119   8.481   0.434  1.00  0.00     0.124 S 
ATOM     83  O   UNL     1       3.126   7.432   0.326  1.00  0.00    -0.237 OA
ATOM     84  O   UNL     1       0.810   8.053   0.931  1.00  0.00    -0.237 OA
ATOM     85  O   UNL     1       2.051   9.415  -0.687  1.00  0.00    -0.744 OA
ENDBRANCH  78  82
ENDBRANCH  51  75
BRANCH  63  86
ATOM     86  C   UNL     1       1.335  13.009  10.741  1.00  0.00     0.023 A 
ATOM     87  C   UNL     1       2.708  13.020  11.032  1.00  0.00     0.031 A 
ATOM     88  C   UNL     1       0.508  13.628  11.711  1.00  0.00     0.131 A 
ATOM     89  C   UNL     1       3.198  13.520  12.254  1.00  0.00     0.055 A 
ATOM     90  C   UNL     1       1.005  14.202  12.888  1.00  0.00     0.041 A 
ATOM     91  F   UNL     1      -0.821  13.713  11.557  1.00  0.00    -0.206 F 
ATOM     92  C   UNL     1       2.357  14.132  13.177  1.00  0.00     0.022 A 
BRANCH  89  93
ATOM     93  S   UNL     1       4.954  13.281  12.637  1.00  0.00     0.124 S 
ATOM     94  O   UNL     1       5.066  11.825  12.637  1.00  0.00    -0.237 OA
ATOM     95  O   UNL     1       5.613  13.965  11.529  1.00  0.00    -0.237 OA
ATOM     96  O   UNL     1       5.114  13.916  13.943  1.00  0.00    -0.744 OA
ENDBRANCH  89  93
ENDBRANCH  63  86
ENDBRANCH  37  38
ENDBRANCH  29  32
ENDBRANCH  27  28
ENDBRANCH  26  27
ENDBRANCH   1  26
TORSDOF 18
