REMARK SMILES COCCCN(C)C(=O)N1CCC(CC(=O)NCCCCNC(=O)c2ccc(-c3c4nc(c(-c5cc(S(=O)(=O)[O-])ccc5F)c5ccc([nH]5)c(-c5cc(S(=O)(=O)[O-])ccc5F)c5nc(c(-c6cc(S(=O)(=O)[O-])ccc6F)c6ccc3[nH]6)C=C5)C=C4)cc2)CC1
REMARK SMILES IDX 18 1 17 2 15 3 16 4 14 6 13 7 8 8 9 9 10 10 11 11 89 12
REMARK SMILES IDX 12 13 88 14 6 15 7 16 5 17 4 18 3 19 2 20 1 21 19 22 20 23
REMARK SMILES IDX 21 24 22 25 23 26 24 28 25 29 26 30 87 31 27 32 86 33 28 34
REMARK SMILES IDX 29 35 30 36 80 37 31 38 85 39 79 40 81 41 32 42 84 43 78 44
REMARK SMILES IDX 77 45 33 47 65 48 45 49 64 50 46 51 49 52 63 53 82 54 47 55
REMARK SMILES IDX 48 56 62 58 83 59 50 60 34 61 35 62 43 63 36 64 42 65 44 66
REMARK SMILES IDX 41 67 37 68 38 69 39 70 40 71 66 72 67 73 75 74 68 75 74 76
REMARK SMILES IDX 76 77 73 78 69 79 70 80 71 81 72 82 51 83 52 84 60 85 53 86
REMARK SMILES IDX 59 87 61 88 58 89 54 90 55 91 56 92 57 93
REMARK H PARENT 17 5 22 27 81 46 49 57
REMARK Flexibility Score: inf
ROOT
ATOM      1  C   UNL     1       6.942  -0.580   3.377  1.00  0.00     0.116 C 
ENDROOT
BRANCH   1   2
ATOM      2  N   UNL     1       8.265  -0.325   2.826  1.00  0.00    -0.356 N 
ATOM      3  C   UNL     1       8.635   0.328   1.686  1.00  0.00     0.220 C 
ATOM      4  O   UNL     1       9.832   0.369   1.393  1.00  0.00    -0.275 OA
ATOM      5  H   UNL     1       9.011  -0.681   3.361  1.00  0.00     0.163 HD
BRANCH   3   6
ATOM      6  C   UNL     1       7.598   0.981   0.787  1.00  0.00     0.103 C 
BRANCH   6   7
ATOM      7  C   UNL     1       7.165   0.101  -0.404  1.00  0.00     0.002 C 
ATOM      8  C   UNL     1       3.628  -1.049  -1.372  1.00  0.00     0.319 C 
ATOM      9  O   UNL     1       3.354  -0.634  -0.250  1.00  0.00    -0.248 OA
ATOM     10  N   UNL     1       4.939  -1.184  -1.794  1.00  0.00    -0.325 N 
ATOM     11  C   UNL     1       5.820  -2.010  -0.999  1.00  0.00     0.121 C 
ATOM     12  C   UNL     1       5.578  -0.026  -2.394  1.00  0.00     0.121 C 
ATOM     13  C   UNL     1       6.519  -1.200   0.078  1.00  0.00     0.026 C 
ATOM     14  C   UNL     1       6.204   0.875  -1.325  1.00  0.00     0.026 C 
BRANCH   8  15
ATOM     15  N   UNL     1       2.678  -1.413  -2.313  1.00  0.00    -0.328 N 
ATOM     16  C   UNL     1       3.031  -1.952  -3.617  1.00  0.00     0.148 C 
BRANCH  15  17
ATOM     17  C   UNL     1       1.262  -1.171  -2.042  1.00  0.00     0.123 C 
BRANCH  17  18
ATOM     18  C   UNL     1       0.586  -2.264  -1.205  1.00  0.00     0.050 C 
BRANCH  18  19
ATOM     19  C   UNL     1       0.566  -2.040   0.309  1.00  0.00     0.161 C 
BRANCH  19  20
ATOM     20  O   UNL     1      -0.401  -1.068   0.712  1.00  0.00    -0.385 OA
ATOM     21  C   UNL     1       0.074   0.270   0.714  1.00  0.00     0.194 C 
ENDBRANCH  19  20
ENDBRANCH  18  19
ENDBRANCH  17  18
ENDBRANCH  15  17
ENDBRANCH   8  15
ENDBRANCH   6   7
ENDBRANCH   3   6
ENDBRANCH   1   2
BRANCH   1  22
ATOM     22  C   UNL     1       6.537  -2.049   3.226  1.00  0.00     0.023 C 
BRANCH  22  23
ATOM     23  C   UNL     1       7.062  -2.984   4.302  1.00  0.00     0.023 C 
BRANCH  23  24
ATOM     24  C   UNL     1       6.464  -2.751   5.675  1.00  0.00     0.116 C 
BRANCH  24  25
ATOM     25  N   UNL     1       5.012  -2.862   5.699  1.00  0.00    -0.352 N 
ATOM     26  C   UNL     1       4.210  -3.522   6.602  1.00  0.00     0.251 C 
ATOM     27  H   UNL     1       4.539  -2.401   4.969  1.00  0.00     0.163 HD
ATOM     28  O   UNL     1       3.007  -3.618   6.402  1.00  0.00    -0.269 OA
BRANCH  26  29
ATOM     29  C   UNL     1       4.836  -4.151   7.784  1.00  0.00     0.039 A 
ATOM     30  C   UNL     1       4.473  -5.452   8.132  1.00  0.00     0.014 A 
ATOM     31  C   UNL     1       5.833  -3.480   8.494  1.00  0.00     0.014 A 
ATOM     32  C   UNL     1       5.170  -6.106   9.148  1.00  0.00     0.010 A 
ATOM     33  C   UNL     1       6.604  -4.173   9.415  1.00  0.00     0.010 A 
ATOM     34  C   UNL     1       6.269  -5.487   9.766  1.00  0.00    -0.014 A 
BRANCH  34  35
ATOM     35  C   UNL     1       7.064  -6.190  10.802  1.00  0.00     0.031 A 
ATOM     36  C   UNL     1       7.143  -5.629  12.196  1.00  0.00     0.074 A 
ATOM     37  C   UNL     1       7.756  -7.298  10.472  1.00  0.00     0.049 A 
ATOM     38  N   UNL     1       7.786  -6.084  13.239  1.00  0.00    -0.248 NA
ATOM     39  C   UNL     1       6.442  -4.358  12.432  1.00  0.00     0.031 C 
ATOM     40  C   UNL     1       7.817  -7.892   9.133  1.00  0.00     0.029 A 
ATOM     41  N   UNL     1       8.532  -8.128  11.237  1.00  0.00    -0.354 N 
ATOM     42  C   UNL     1       7.580  -5.147  14.247  1.00  0.00     0.074 A 
ATOM     43  C   UNL     1       6.839  -4.055  13.656  1.00  0.00     0.031 C 
ATOM     44  C   UNL     1       8.534  -9.025   9.188  1.00  0.00     0.029 A 
ATOM     45  C   UNL     1       9.015  -9.218  10.551  1.00  0.00     0.049 A 
ATOM     46  H   UNL     1       8.726  -7.961  12.188  1.00  0.00     0.167 HD
ATOM     47  C   UNL     1       7.937  -5.210  15.554  1.00  0.00     0.034 A 
ATOM     48  C   UNL     1       9.747 -10.262  10.982  1.00  0.00     0.034 A 
ATOM     49  C   UNL     1       8.665  -6.319  16.122  1.00  0.00     0.049 A 
ATOM     50  C   UNL     1      10.134 -10.319  12.436  1.00  0.00     0.074 A 
ATOM     51  C   UNL     1       9.031  -6.532  17.438  1.00  0.00     0.029 A 
ATOM     52  N   UNL     1       9.146  -7.404  15.397  1.00  0.00    -0.354 N 
ATOM     53  N   UNL     1       9.870  -9.465  13.399  1.00  0.00    -0.248 NA
ATOM     54  C   UNL     1      10.906 -11.492  12.861  1.00  0.00     0.031 C 
ATOM     55  C   UNL     1       9.789  -7.709  17.497  1.00  0.00     0.029 A 
ATOM     56  C   UNL     1       9.833  -8.273  16.231  1.00  0.00     0.049 A 
ATOM     57  H   UNL     1       9.017  -7.537  14.430  1.00  0.00     0.167 HD
ATOM     58  C   UNL     1      10.424 -10.012  14.552  1.00  0.00     0.074 A 
ATOM     59  C   UNL     1      11.013 -11.279  14.164  1.00  0.00     0.031 C 
ATOM     60  C   UNL     1      10.443  -9.517  15.818  1.00  0.00     0.034 A 
BRANCH  47  61
ATOM     61  C   UNL     1       7.559  -4.031  16.425  1.00  0.00     0.023 A 
ATOM     62  C   UNL     1       6.219  -3.628  16.580  1.00  0.00     0.031 A 
ATOM     63  C   UNL     1       8.550  -3.244  17.035  1.00  0.00     0.131 A 
ATOM     64  C   UNL     1       5.918  -2.413  17.213  1.00  0.00     0.055 A 
ATOM     65  C   UNL     1       8.234  -2.089  17.756  1.00  0.00     0.041 A 
ATOM     66  F   UNL     1       9.849  -3.560  16.912  1.00  0.00    -0.206 F 
ATOM     67  C   UNL     1       6.914  -1.653  17.827  1.00  0.00     0.022 A 
BRANCH  64  68
ATOM     68  S   UNL     1       4.240  -1.741  17.037  1.00  0.00     0.124 S 
ATOM     69  O   UNL     1       4.096  -1.686  15.584  1.00  0.00    -0.237 OA
ATOM     70  O   UNL     1       3.428  -2.739  17.723  1.00  0.00    -0.237 OA
ATOM     71  O   UNL     1       4.322  -0.440  17.697  1.00  0.00    -0.744 OA
ENDBRANCH  64  68
ENDBRANCH  47  61
BRANCH  48  72
ATOM     72  C   UNL     1      10.121 -11.357  10.045  1.00  0.00     0.023 A 
ATOM     73  C   UNL     1       9.580 -12.644  10.195  1.00  0.00     0.031 A 
ATOM     74  C   UNL     1      11.031 -11.141   8.995  1.00  0.00     0.131 A 
ATOM     75  C   UNL     1       9.978 -13.677   9.332  1.00  0.00     0.055 A 
ATOM     76  C   UNL     1      11.392 -12.161   8.113  1.00  0.00     0.041 A 
ATOM     77  F   UNL     1      11.567  -9.926   8.802  1.00  0.00    -0.206 F 
ATOM     78  C   UNL     1      10.872 -13.441   8.285  1.00  0.00     0.022 A 
BRANCH  75  79
ATOM     79  S   UNL     1       9.347 -15.350   9.630  1.00  0.00     0.124 S 
ATOM     80  O   UNL     1       9.858 -15.629  10.967  1.00  0.00    -0.237 OA
ATOM     81  O   UNL     1       7.905 -15.154   9.522  1.00  0.00    -0.237 OA
ATOM     82  O   UNL     1       9.947 -16.137   8.555  1.00  0.00    -0.744 OA
ENDBRANCH  75  79
ENDBRANCH  48  72
BRANCH  60  83
ATOM     83  C   UNL     1      11.108 -10.376  16.866  1.00  0.00     0.023 A 
ATOM     84  C   UNL     1      12.485 -10.662  16.818  1.00  0.00     0.031 A 
ATOM     85  C   UNL     1      10.349 -10.958  17.896  1.00  0.00     0.131 A 
ATOM     86  C   UNL     1      13.042 -11.569  17.730  1.00  0.00     0.055 A 
ATOM     87  C   UNL     1      10.924 -11.803  18.845  1.00  0.00     0.041 A 
ATOM     88  F   UNL     1       9.030 -10.722  17.990  1.00  0.00    -0.206 F 
ATOM     89  C   UNL     1      12.274 -12.129  18.754  1.00  0.00     0.022 A 
BRANCH  86  90
ATOM     90  S   UNL     1      14.755 -12.111  17.477  1.00  0.00     0.124 S 
ATOM     91  O   UNL     1      14.712 -12.623  16.111  1.00  0.00    -0.237 OA
ATOM     92  O   UNL     1      15.505 -10.875  17.671  1.00  0.00    -0.237 OA
ATOM     93  O   UNL     1      14.950 -13.124  18.512  1.00  0.00    -0.744 OA
ENDBRANCH  86  90
ENDBRANCH  60  83
ENDBRANCH  34  35
ENDBRANCH  26  29
ENDBRANCH  24  25
ENDBRANCH  23  24
ENDBRANCH  22  23
ENDBRANCH   1  22
TORSDOF 20
