REMARK SMILES [NH3+][C@@H](CC(=O)NCCCCNC(=O)c1ccc(-c2c3nc(c(-c4cc(S(=O)(=O)[O-])ccc4F)c4ccc([nH]4)c(-c4cc(S(=O)(=O)[O-])ccc4F)c4nc(c(-c5cc(S(=O)(=O)[O-])ccc5F)c5ccc2[nH]5)C=C4)C=C3)cc1)[NH+]1CCOCC1
REMARK SMILES IDX 9 1 8 2 7 3 6 4 4 5 5 6 3 8 2 9 1 10 77 14 78 15 82 16 79 18
REMARK SMILES IDX 81 19 80 20 10 21 11 22 12 23 13 25 14 26 15 27 76 28 16 29
REMARK SMILES IDX 75 30 17 31 18 32 19 33 69 34 20 35 74 36 68 37 70 38 21 39
REMARK SMILES IDX 73 40 67 41 66 42 22 44 54 45 34 46 53 47 35 48 38 49 52 50
REMARK SMILES IDX 71 51 36 52 37 53 51 55 72 56 39 57 23 58 24 59 32 60 25 61
REMARK SMILES IDX 31 62 33 63 30 64 26 65 27 66 28 67 29 68 55 69 56 70 64 71
REMARK SMILES IDX 57 72 63 73 65 74 62 75 58 76 59 77 60 78 61 79 40 80 41 81
REMARK SMILES IDX 49 82 42 83 48 84 50 85 47 86 43 87 44 88 45 89 46 90
REMARK H PARENT 6 7 1 11 1 12 1 13 77 17 11 24 70 43 38 54
REMARK Flexibility Score: inf
ROOT
ATOM      1  C   UNL     1       0.793   2.501  -2.748  1.00  0.00     0.023 C 
ENDROOT
BRANCH   1   2
ATOM      2  C   UNL     1       1.387   1.542  -1.716  1.00  0.00     0.023 C 
BRANCH   2   3
ATOM      3  C   UNL     1       1.968   2.215  -0.473  1.00  0.00     0.116 C 
BRANCH   3   4
ATOM      4  N   UNL     1       0.927   2.801   0.345  1.00  0.00    -0.356 N 
ATOM      5  C   UNL     1       0.405   2.392   1.535  1.00  0.00     0.232 C 
ATOM      6  O   UNL     1      -0.510   3.061   2.020  1.00  0.00    -0.275 OA
ATOM      7  H   UNL     1       0.534   3.628  -0.017  1.00  0.00     0.163 HD
BRANCH   5   8
ATOM      8  C   UNL     1       0.982   1.204   2.270  1.00  0.00     0.232 C 
BRANCH   8   9
ATOM      9  C   UNL     1       0.482  -0.219   1.938  1.00  0.00     0.389 C 
BRANCH   9  10
ATOM     10  N   UNL     1       1.259  -0.904   0.922  1.00  0.00    -0.308 N 
ATOM     11  H   UNL     1       2.253  -0.758   1.099  1.00  0.00     0.349 HD
ATOM     12  H   UNL     1       1.019  -0.533   0.003  1.00  0.00     0.349 HD
ATOM     13  H   UNL     1       1.051  -1.902   0.951  1.00  0.00     0.349 HD
ENDBRANCH   9  10
BRANCH   9  14
ATOM     14  N   UNL     1      -0.946  -0.397   1.729  1.00  0.00    -0.282 N 
ATOM     15  C   UNL     1      -1.448  -1.741   2.078  1.00  0.00     0.296 C 
ATOM     16  C   UNL     1      -1.546   0.020   0.450  1.00  0.00     0.296 C 
ATOM     17  H   UNL     1      -1.268   0.299   2.401  1.00  0.00     0.353 HD
ATOM     18  C   UNL     1      -1.383  -2.762   0.932  1.00  0.00     0.222 C 
ATOM     19  C   UNL     1      -1.548  -1.049  -0.663  1.00  0.00     0.222 C 
ATOM     20  O   UNL     1      -2.102  -2.290  -0.214  1.00  0.00    -0.370 OA
ENDBRANCH   9  14
ENDBRANCH   8   9
ENDBRANCH   5   8
ENDBRANCH   3   4
ENDBRANCH   2   3
ENDBRANCH   1   2
BRANCH   1  21
ATOM     21  C   UNL     1       1.797   3.444  -3.396  1.00  0.00     0.116 C 
BRANCH  21  22
ATOM     22  N   UNL     1       2.865   2.737  -4.090  1.00  0.00    -0.352 N 
ATOM     23  C   UNL     1       3.387   2.981  -5.338  1.00  0.00     0.251 C 
ATOM     24  H   UNL     1       3.266   1.984  -3.600  1.00  0.00     0.163 HD
ATOM     25  O   UNL     1       4.195   2.197  -5.829  1.00  0.00    -0.269 OA
BRANCH  23  26
ATOM     26  C   UNL     1       2.935   4.169  -6.089  1.00  0.00     0.039 A 
ATOM     27  C   UNL     1       2.493   4.011  -7.404  1.00  0.00     0.014 A 
ATOM     28  C   UNL     1       2.888   5.420  -5.468  1.00  0.00     0.014 A 
ATOM     29  C   UNL     1       1.916   5.095  -8.068  1.00  0.00     0.010 A 
ATOM     30  C   UNL     1       2.251   6.478  -6.106  1.00  0.00     0.010 A 
ATOM     31  C   UNL     1       1.744   6.321  -7.405  1.00  0.00    -0.014 A 
BRANCH  31  32
ATOM     32  C   UNL     1       1.006   7.444  -8.034  1.00  0.00     0.031 A 
ATOM     33  C   UNL     1       1.715   8.734  -8.335  1.00  0.00     0.074 A 
ATOM     34  C   UNL     1      -0.321   7.330  -8.241  1.00  0.00     0.049 A 
ATOM     35  N   UNL     1       1.224   9.866  -8.770  1.00  0.00    -0.248 NA
ATOM     36  C   UNL     1       3.163   8.761  -8.081  1.00  0.00     0.031 C 
ATOM     37  C   UNL     1      -1.124   6.141  -7.942  1.00  0.00     0.029 A 
ATOM     38  N   UNL     1      -1.233   8.228  -8.733  1.00  0.00    -0.354 N 
ATOM     39  C   UNL     1       2.299  10.746  -8.829  1.00  0.00     0.074 A 
ATOM     40  C   UNL     1       3.454  10.029  -8.330  1.00  0.00     0.031 C 
ATOM     41  C   UNL     1      -2.404   6.380  -8.270  1.00  0.00     0.029 A 
ATOM     42  C   UNL     1      -2.522   7.749  -8.759  1.00  0.00     0.049 A 
ATOM     43  H   UNL     1      -0.988   9.131  -9.039  1.00  0.00     0.167 HD
ATOM     44  C   UNL     1       2.322  12.026  -9.277  1.00  0.00     0.034 A 
ATOM     45  C   UNL     1      -3.673   8.352  -9.117  1.00  0.00     0.034 A 
ATOM     46  C   UNL     1       1.161  12.718  -9.782  1.00  0.00     0.049 A 
ATOM     47  C   UNL     1      -3.627   9.783  -9.585  1.00  0.00     0.074 A 
ATOM     48  C   UNL     1       1.083  13.986 -10.329  1.00  0.00     0.029 A 
ATOM     49  N   UNL     1      -0.129  12.203  -9.791  1.00  0.00    -0.354 N 
ATOM     50  N   UNL     1      -2.592  10.584  -9.688  1.00  0.00    -0.248 NA
ATOM     51  C   UNL     1      -4.903  10.387  -9.988  1.00  0.00     0.031 C 
ATOM     52  C   UNL     1      -0.261  14.261 -10.611  1.00  0.00     0.029 A 
ATOM     53  C   UNL     1      -1.014  13.140 -10.300  1.00  0.00     0.049 A 
ATOM     54  H   UNL     1      -0.379  11.302  -9.480  1.00  0.00     0.167 HD
ATOM     55  C   UNL     1      -3.092  11.784 -10.185  1.00  0.00     0.074 A 
ATOM     56  C   UNL     1      -4.516  11.593 -10.378  1.00  0.00     0.031 C 
ATOM     57  C   UNL     1      -2.435  12.940 -10.460  1.00  0.00     0.034 A 
BRANCH  44  58
ATOM     58  C   UNL     1       3.641  12.757  -9.213  1.00  0.00     0.023 A 
ATOM     59  C   UNL     1       4.756  12.330  -9.956  1.00  0.00     0.031 A 
ATOM     60  C   UNL     1       3.797  13.874  -8.375  1.00  0.00     0.131 A 
ATOM     61  C   UNL     1       5.995  12.965  -9.787  1.00  0.00     0.055 A 
ATOM     62  C   UNL     1       5.014  14.552  -8.271  1.00  0.00     0.041 A 
ATOM     63  F   UNL     1       2.774  14.316  -7.627  1.00  0.00    -0.206 F 
ATOM     64  C   UNL     1       6.127  14.088  -8.967  1.00  0.00     0.022 A 
BRANCH  61  65
ATOM     65  S   UNL     1       7.463  12.213 -10.542  1.00  0.00     0.124 S 
ATOM     66  O   UNL     1       7.471  10.892  -9.917  1.00  0.00    -0.237 OA
ATOM     67  O   UNL     1       7.138  12.246 -11.963  1.00  0.00    -0.237 OA
ATOM     68  O   UNL     1       8.552  13.095 -10.128  1.00  0.00    -0.744 OA
ENDBRANCH  61  65
ENDBRANCH  44  58
BRANCH  45  69
ATOM     69  C   UNL     1      -4.968   7.621  -9.027  1.00  0.00     0.023 A 
ATOM     70  C   UNL     1      -5.696   7.301 -10.184  1.00  0.00     0.031 A 
ATOM     71  C   UNL     1      -5.512   7.261  -7.782  1.00  0.00     0.131 A 
ATOM     72  C   UNL     1      -6.948   6.677 -10.071  1.00  0.00     0.055 A 
ATOM     73  C   UNL     1      -6.737   6.599  -7.677  1.00  0.00     0.041 A 
ATOM     74  F   UNL     1      -4.851   7.537  -6.646  1.00  0.00    -0.206 F 
ATOM     75  C   UNL     1      -7.468   6.314  -8.826  1.00  0.00     0.022 A 
BRANCH  72  76
ATOM     76  S   UNL     1      -7.922   6.409 -11.577  1.00  0.00     0.124 S 
ATOM     77  O   UNL     1      -8.059   7.767 -12.089  1.00  0.00    -0.237 OA
ATOM     78  O   UNL     1      -7.056   5.518 -12.342  1.00  0.00    -0.237 OA
ATOM     79  O   UNL     1      -9.155   5.801 -11.081  1.00  0.00    -0.744 OA
ENDBRANCH  72  76
ENDBRANCH  45  69
BRANCH  57  80
ATOM     80  C   UNL     1      -3.260  14.071 -11.018  1.00  0.00     0.023 A 
ATOM     81  C   UNL     1      -4.217  14.738 -10.233  1.00  0.00     0.031 A 
ATOM     82  C   UNL     1      -3.100  14.473 -12.355  1.00  0.00     0.131 A 
ATOM     83  C   UNL     1      -5.015  15.738 -10.807  1.00  0.00     0.055 A 
ATOM     84  C   UNL     1      -3.859  15.506 -12.905  1.00  0.00     0.041 A 
ATOM     85  F   UNL     1      -2.202  13.867 -13.148  1.00  0.00    -0.206 F 
ATOM     86  C   UNL     1      -4.832  16.137 -12.134  1.00  0.00     0.022 A 
BRANCH  83  87
ATOM     87  S   UNL     1      -6.353  16.460  -9.818  1.00  0.00     0.124 S 
ATOM     88  O   UNL     1      -7.181  15.292  -9.531  1.00  0.00    -0.237 OA
ATOM     89  O   UNL     1      -5.633  17.025  -8.681  1.00  0.00    -0.237 OA
ATOM     90  O   UNL     1      -6.955  17.441 -10.719  1.00  0.00    -0.744 OA
ENDBRANCH  83  87
ENDBRANCH  57  80
ENDBRANCH  31  32
ENDBRANCH  23  26
ENDBRANCH  21  22
ENDBRANCH   1  21
TORSDOF 17
