REMARK SMILES C[C@H](NC(=O)COc1ccc(C(=O)NCCCCNC(=O)c2ccc(-c3c4nc(c(-c5cc(S(=O)(=O)[O-])ccc5F)c5ccc([nH]5)c(-c5cc(S(=O)(=O)[O-])ccc5F)c5nc(c(-c6cc(S(=O)(=O)[O-])ccc6F)c6ccc3[nH]6)C=C5)C=C4)cc2)cc1)C1CC1
REMARK SMILES IDX 15 1 14 2 12 3 13 4 11 6 8 7 9 8 86 9 10 10 85 11 7 12 6 13
REMARK SMILES IDX 4 14 3 15 5 17 2 18 1 19 87 20 88 21 89 22 16 23 17 24 18 25
REMARK SMILES IDX 19 26 20 27 21 29 22 30 23 31 84 32 24 33 83 34 25 35 26 36
REMARK SMILES IDX 27 37 77 38 28 39 82 40 76 41 78 42 29 43 81 44 75 45 74 46
REMARK SMILES IDX 30 48 62 49 42 50 61 51 43 52 46 53 60 54 79 55 44 56 45 57
REMARK SMILES IDX 59 59 80 60 47 61 31 62 32 63 40 64 33 65 39 66 41 67 38 68
REMARK SMILES IDX 34 69 35 70 36 71 37 72 63 73 64 74 72 75 65 76 71 77 73 78
REMARK SMILES IDX 70 79 66 80 67 81 68 82 69 83 48 84 49 85 57 86 50 87 56 88
REMARK SMILES IDX 58 89 55 90 51 91 52 92 53 93 54 94
REMARK H PARENT 14 5 3 16 19 28 78 47 46 58
REMARK Flexibility Score: inf
ROOT
ATOM      1  C   UNL     1      -3.586   0.099  -5.352  1.00  0.00     0.116 C 
ENDROOT
BRANCH   1   2
ATOM      2  N   UNL     1      -4.351   1.289  -5.019  1.00  0.00    -0.352 N 
ATOM      3  C   UNL     1      -4.052   2.390  -4.254  1.00  0.00     0.251 C 
ATOM      4  O   UNL     1      -4.878   3.303  -4.213  1.00  0.00    -0.269 OA
ATOM      5  H   UNL     1      -5.251   1.310  -5.417  1.00  0.00     0.163 HD
BRANCH   3   6
ATOM      6  C   UNL     1      -2.782   2.540  -3.487  1.00  0.00     0.040 A 
ATOM      7  C   UNL     1      -0.457   2.939  -1.923  1.00  0.00     0.120 A 
ATOM      8  C   UNL     1      -1.239   4.025  -2.318  1.00  0.00     0.047 A 
ATOM      9  C   UNL     1      -0.837   1.666  -2.322  1.00  0.00     0.047 A 
ATOM     10  C   UNL     1      -2.381   3.830  -3.108  1.00  0.00     0.017 A 
ATOM     11  C   UNL     1      -2.009   1.469  -3.051  1.00  0.00     0.017 A 
BRANCH   7  12
ATOM     12  O   UNL     1       0.541   3.201  -1.029  1.00  0.00    -0.484 OA
BRANCH  12  13
ATOM     13  C   UNL     1       1.704   2.397  -1.081  1.00  0.00     0.329 C 
BRANCH  13  14
ATOM     14  C   UNL     1       1.698   0.890  -0.782  1.00  0.00     0.258 C 
ATOM     15  N   UNL     1       1.176   0.340   0.341  1.00  0.00    -0.350 N 
ATOM     16  H   UNL     1       1.167  -0.644   0.299  1.00  0.00     0.163 HD
ATOM     17  O   UNL     1       2.195   0.103  -1.599  1.00  0.00    -0.271 OA
BRANCH  15  18
ATOM     18  C   UNL     1       0.625   0.838   1.593  1.00  0.00     0.082 C 
ATOM     19  C   UNL     1       0.965   2.264   1.991  1.00  0.00     0.031 C 
BRANCH  18  20
ATOM     20  C   UNL     1      -0.838   0.510   1.782  1.00  0.00     0.011 C 
ATOM     21  C   UNL     1      -1.939   1.234   1.047  1.00  0.00     0.006 C 
ATOM     22  C   UNL     1      -1.684  -0.218   0.758  1.00  0.00     0.006 C 
ENDBRANCH  18  20
ENDBRANCH  15  18
ENDBRANCH  13  14
ENDBRANCH  12  13
ENDBRANCH   7  12
ENDBRANCH   3   6
ENDBRANCH   1   2
BRANCH   1  23
ATOM     23  C   UNL     1      -3.928  -1.064  -4.411  1.00  0.00     0.023 C 
BRANCH  23  24
ATOM     24  C   UNL     1      -5.124  -1.903  -4.860  1.00  0.00     0.023 C 
BRANCH  24  25
ATOM     25  C   UNL     1      -4.864  -2.724  -6.116  1.00  0.00     0.116 C 
BRANCH  25  26
ATOM     26  N   UNL     1      -3.830  -3.735  -5.946  1.00  0.00    -0.352 N 
ATOM     27  C   UNL     1      -3.657  -4.880  -6.694  1.00  0.00     0.251 C 
ATOM     28  H   UNL     1      -3.185  -3.585  -5.217  1.00  0.00     0.163 HD
ATOM     29  O   UNL     1      -2.811  -5.708  -6.391  1.00  0.00    -0.269 OA
BRANCH  27  30
ATOM     30  C   UNL     1      -4.569  -5.102  -7.837  1.00  0.00     0.039 A 
ATOM     31  C   UNL     1      -5.367  -6.247  -7.853  1.00  0.00     0.014 A 
ATOM     32  C   UNL     1      -4.710  -4.118  -8.818  1.00  0.00     0.014 A 
ATOM     33  C   UNL     1      -6.375  -6.365  -8.812  1.00  0.00     0.010 A 
ATOM     34  C   UNL     1      -5.756  -4.207  -9.728  1.00  0.00     0.010 A 
ATOM     35  C   UNL     1      -6.607  -5.324  -9.725  1.00  0.00    -0.014 A 
BRANCH  35  36
ATOM     36  C   UNL     1      -7.741  -5.365 -10.684  1.00  0.00     0.031 A 
ATOM     37  C   UNL     1      -7.466  -5.394 -12.160  1.00  0.00     0.074 A 
ATOM     38  C   UNL     1      -9.005  -5.270 -10.228  1.00  0.00     0.049 A 
ATOM     39  N   UNL     1      -8.299  -5.288 -13.162  1.00  0.00    -0.248 NA
ATOM     40  C   UNL     1      -6.056  -5.521 -12.558  1.00  0.00     0.031 C 
ATOM     41  C   UNL     1      -9.396  -5.198  -8.818  1.00  0.00     0.029 A 
ATOM     42  N   UNL     1     -10.197  -5.199 -10.905  1.00  0.00    -0.354 N 
ATOM     43  C   UNL     1      -7.514  -5.306 -14.309  1.00  0.00     0.074 A 
ATOM     44  C   UNL     1      -6.136  -5.381 -13.872  1.00  0.00     0.031 C 
ATOM     45  C   UNL     1     -10.734  -5.114  -8.736  1.00  0.00     0.029 A 
ATOM     46  C   UNL     1     -11.294  -5.078 -10.083  1.00  0.00     0.049 A 
ATOM     47  H   UNL     1     -10.261  -5.233 -11.887  1.00  0.00     0.167 HD
ATOM     48  C   UNL     1      -7.909  -5.277 -15.607  1.00  0.00     0.034 A 
ATOM     49  C   UNL     1     -12.600  -4.938 -10.383  1.00  0.00     0.034 A 
ATOM     50  C   UNL     1      -9.290  -5.228 -16.022  1.00  0.00     0.049 A 
ATOM     51  C   UNL     1     -13.015  -4.895 -11.832  1.00  0.00     0.074 A 
ATOM     52  C   UNL     1      -9.807  -5.272 -17.305  1.00  0.00     0.029 A 
ATOM     53  N   UNL     1     -10.375  -5.114 -15.162  1.00  0.00    -0.354 N 
ATOM     54  N   UNL     1     -12.266  -4.959 -12.908  1.00  0.00    -0.248 NA
ATOM     55  C   UNL     1     -14.452  -4.765 -12.104  1.00  0.00     0.031 C 
ATOM     56  C   UNL     1     -11.197  -5.126 -17.223  1.00  0.00     0.029 A 
ATOM     57  C   UNL     1     -11.555  -5.058 -15.886  1.00  0.00     0.049 A 
ATOM     58  H   UNL     1     -10.314  -5.080 -14.180  1.00  0.00     0.167 HD
ATOM     59  C   UNL     1     -13.146  -4.913 -13.985  1.00  0.00     0.074 A 
ATOM     60  C   UNL     1     -14.480  -4.818 -13.427  1.00  0.00     0.031 C 
ATOM     61  C   UNL     1     -12.877  -4.956 -15.314  1.00  0.00     0.034 A 
BRANCH  48  62
ATOM     62  C   UNL     1      -6.825  -5.265 -16.657  1.00  0.00     0.023 A 
ATOM     63  C   UNL     1      -5.918  -6.331 -16.797  1.00  0.00     0.031 A 
ATOM     64  C   UNL     1      -6.662  -4.150 -17.497  1.00  0.00     0.131 A 
ATOM     65  C   UNL     1      -4.838  -6.220 -17.686  1.00  0.00     0.055 A 
ATOM     66  C   UNL     1      -5.635  -4.082 -18.442  1.00  0.00     0.041 A 
ATOM     67  F   UNL     1      -7.484  -3.093 -17.398  1.00  0.00    -0.206 F 
ATOM     68  C   UNL     1      -4.704  -5.113 -18.527  1.00  0.00     0.022 A 
BRANCH  65  69
ATOM     69  S   UNL     1      -3.523  -7.466 -17.605  1.00  0.00     0.124 S 
ATOM     70  O   UNL     1      -3.096  -7.354 -16.212  1.00  0.00    -0.237 OA
ATOM     71  O   UNL     1      -4.228  -8.692 -17.961  1.00  0.00    -0.237 OA
ATOM     72  O   UNL     1      -2.547  -6.999 -18.587  1.00  0.00    -0.744 OA
ENDBRANCH  65  69
ENDBRANCH  48  62
BRANCH  49  73
ATOM     73  C   UNL     1     -13.616  -4.825  -9.300  1.00  0.00     0.023 A 
ATOM     74  C   UNL     1     -14.564  -5.841  -9.100  1.00  0.00     0.031 A 
ATOM     75  C   UNL     1     -13.679  -3.690  -8.474  1.00  0.00     0.131 A 
ATOM     76  C   UNL     1     -15.560  -5.686  -8.125  1.00  0.00     0.055 A 
ATOM     77  C   UNL     1     -14.645  -3.559  -7.475  1.00  0.00     0.041 A 
ATOM     78  F   UNL     1     -12.790  -2.695  -8.620  1.00  0.00    -0.206 F 
ATOM     79  C   UNL     1     -15.601  -4.556  -7.304  1.00  0.00     0.022 A 
BRANCH  76  80
ATOM     80  S   UNL     1     -16.845  -6.958  -7.987  1.00  0.00     0.124 S 
ATOM     81  O   UNL     1     -17.444  -6.921  -9.316  1.00  0.00    -0.237 OA
ATOM     82  O   UNL     1     -16.061  -8.147  -7.668  1.00  0.00    -0.237 OA
ATOM     83  O   UNL     1     -17.695  -6.467  -6.905  1.00  0.00    -0.744 OA
ENDBRANCH  76  80
ENDBRANCH  49  73
BRANCH  61  84
ATOM     84  C   UNL     1     -14.060  -4.960 -16.250  1.00  0.00     0.023 A 
ATOM     85  C   UNL     1     -14.876  -3.828 -16.418  1.00  0.00     0.031 A 
ATOM     86  C   UNL     1     -14.377  -6.122 -16.975  1.00  0.00     0.131 A 
ATOM     87  C   UNL     1     -15.999  -3.898 -17.256  1.00  0.00     0.055 A 
ATOM     88  C   UNL     1     -15.464  -6.170 -17.847  1.00  0.00     0.041 A 
ATOM     89  F   UNL     1     -13.630  -7.231 -16.848  1.00  0.00    -0.206 F 
ATOM     90  C   UNL     1     -16.290  -5.057 -17.983  1.00  0.00     0.022 A 
BRANCH  87  91
ATOM     91  S   UNL     1     -17.124  -2.477 -17.329  1.00  0.00     0.124 S 
ATOM     92  O   UNL     1     -17.553  -2.358 -15.939  1.00  0.00    -0.237 OA
ATOM     93  O   UNL     1     -16.254  -1.414 -17.821  1.00  0.00    -0.237 OA
ATOM     94  O   UNL     1     -18.163  -2.908 -18.263  1.00  0.00    -0.744 OA
ENDBRANCH  87  91
ENDBRANCH  61  84
ENDBRANCH  35  36
ENDBRANCH  27  30
ENDBRANCH  25  26
ENDBRANCH  24  25
ENDBRANCH  23  24
ENDBRANCH   1  23
TORSDOF 19
