REMARK SMILES CN(CCOCC1CC1)C(=O)N1CC[C@H](C(=O)NCCCCNC(=O)c2ccc(-c3c4nc(c(-c5cc(S(=O)(=O)[O-])ccc5F)c5ccc([nH]5)c(-c5cc(S(=O)(=O)[O-])ccc5F)c5nc(c(-c6cc(S(=O)(=O)[O-])ccc6F)c6ccc3[nH]6)C=C5)C=C4)cc2)C1
REMARK SMILES IDX 16 1 17 2 18 3 15 5 12 6 13 7 89 8 14 9 10 10 11 11 2 12
REMARK SMILES IDX 1 13 3 14 4 15 5 16 6 17 7 18 8 19 9 20 19 21 20 22 21 23
REMARK SMILES IDX 22 24 23 25 24 26 25 28 26 29 27 30 88 31 28 32 87 33 29 34
REMARK SMILES IDX 30 35 31 36 81 37 32 38 86 39 80 40 82 41 33 42 85 43 79 44
REMARK SMILES IDX 78 45 34 47 66 48 46 49 65 50 47 51 50 52 64 53 83 54 48 55
REMARK SMILES IDX 49 56 63 58 84 59 51 60 35 61 36 62 44 63 37 64 43 65 45 66
REMARK SMILES IDX 42 67 38 68 39 69 40 70 41 71 67 72 68 73 76 74 69 75 75 76
REMARK SMILES IDX 77 77 74 78 70 79 71 80 72 81 73 82 52 83 53 84 61 85 54 86
REMARK SMILES IDX 60 87 62 88 59 89 55 90 56 91 57 92 58 93
REMARK H PARENT 18 4 23 27 82 46 50 57
REMARK Flexibility Score: inf
ROOT
ATOM      1  C   UNL     1       1.603  -1.576   6.999  1.00  0.00     0.224 C 
ATOM      2  O   UNL     1       1.916  -2.103   8.071  1.00  0.00    -0.275 OA
ATOM      3  N   UNL     1       2.067  -0.319   6.758  1.00  0.00    -0.356 N 
ATOM      4  H   UNL     1       2.567   0.083   7.505  1.00  0.00     0.163 HD
ENDROOT
BRANCH   1   5
ATOM      5  C   UNL     1       0.694  -2.324   6.034  1.00  0.00     0.100 C 
ATOM      6  N   UNL     1       0.459  -1.727   3.743  1.00  0.00    -0.324 N 
ATOM      7  C   UNL     1      -0.875  -1.660   4.324  1.00  0.00     0.122 C 
ATOM      8  C   UNL     1       1.292  -2.519   4.646  1.00  0.00     0.134 C 
ATOM      9  C   UNL     1      -0.652  -1.634   5.827  1.00  0.00     0.037 C 
BRANCH   6  10
ATOM     10  C   UNL     1       1.038  -1.292   2.574  1.00  0.00     0.319 C 
ATOM     11  O   UNL     1       2.140  -1.762   2.264  1.00  0.00    -0.248 OA
BRANCH  10  12
ATOM     12  N   UNL     1       0.453  -0.347   1.758  1.00  0.00    -0.325 N 
ATOM     13  C   UNL     1       1.156  -0.014   0.516  1.00  0.00     0.148 C 
BRANCH  12  14
ATOM     14  C   UNL     1      -0.769   0.429   1.964  1.00  0.00     0.149 C 
BRANCH  14  15
ATOM     15  C   UNL     1      -1.998  -0.105   1.205  1.00  0.00     0.181 C 
BRANCH  15  16
ATOM     16  O   UNL     1      -2.597  -1.285   1.736  1.00  0.00    -0.379 OA
BRANCH  16  17
ATOM     17  C   UNL     1      -1.971  -2.517   1.381  1.00  0.00     0.163 C 
BRANCH  17  18
ATOM     18  C   UNL     1      -2.198  -2.893  -0.044  1.00  0.00     0.015 C 
ATOM     19  C   UNL     1      -1.062  -2.892  -1.038  1.00  0.00     0.006 C 
ATOM     20  C   UNL     1      -1.609  -4.194  -0.532  1.00  0.00     0.006 C 
ENDBRANCH  17  18
ENDBRANCH  16  17
ENDBRANCH  15  16
ENDBRANCH  14  15
ENDBRANCH  12  14
ENDBRANCH  10  12
ENDBRANCH   6  10
ENDBRANCH   1   5
BRANCH   3  21
ATOM     21  C   UNL     1       1.950   0.527   5.587  1.00  0.00     0.116 C 
BRANCH  21  22
ATOM     22  C   UNL     1       1.143   1.796   5.831  1.00  0.00     0.023 C 
BRANCH  22  23
ATOM     23  C   UNL     1       1.839   2.824   6.712  1.00  0.00     0.023 C 
BRANCH  23  24
ATOM     24  C   UNL     1       3.252   3.182   6.275  1.00  0.00     0.116 C 
BRANCH  24  25
ATOM     25  N   UNL     1       3.327   3.674   4.906  1.00  0.00    -0.352 N 
ATOM     26  C   UNL     1       4.123   4.683   4.416  1.00  0.00     0.251 C 
ATOM     27  H   UNL     1       2.737   3.232   4.254  1.00  0.00     0.163 HD
ATOM     28  O   UNL     1       3.984   5.078   3.263  1.00  0.00    -0.269 OA
BRANCH  26  29
ATOM     29  C   UNL     1       5.113   5.304   5.320  1.00  0.00     0.039 A 
ATOM     30  C   UNL     1       5.146   6.694   5.441  1.00  0.00     0.014 A 
ATOM     31  C   UNL     1       5.950   4.503   6.103  1.00  0.00     0.014 A 
ATOM     32  C   UNL     1       5.978   7.278   6.397  1.00  0.00     0.010 A 
ATOM     33  C   UNL     1       6.706   5.081   7.114  1.00  0.00     0.010 A 
ATOM     34  C   UNL     1       6.738   6.475   7.266  1.00  0.00    -0.014 A 
BRANCH  34  35
ATOM     35  C   UNL     1       7.602   7.077   8.314  1.00  0.00     0.031 A 
ATOM     36  C   UNL     1       9.091   6.864   8.262  1.00  0.00     0.074 A 
ATOM     37  C   UNL     1       7.047   7.767   9.331  1.00  0.00     0.049 A 
ATOM     38  N   UNL     1      10.014   7.249   9.105  1.00  0.00    -0.248 NA
ATOM     39  C   UNL     1       9.606   6.083   7.126  1.00  0.00     0.031 C 
ATOM     40  C   UNL     1       5.612   7.999   9.514  1.00  0.00     0.029 A 
ATOM     41  N   UNL     1       7.622   8.399  10.405  1.00  0.00    -0.354 N 
ATOM     42  C   UNL     1      11.213   6.748   8.608  1.00  0.00     0.074 A 
ATOM     43  C   UNL     1      10.887   5.966   7.436  1.00  0.00     0.031 C 
ATOM     44  C   UNL     1       5.425   8.751  10.611  1.00  0.00     0.029 A 
ATOM     45  C   UNL     1       6.716   9.019  11.235  1.00  0.00     0.049 A 
ATOM     46  H   UNL     1       8.594   8.408  10.566  1.00  0.00     0.167 HD
ATOM     47  C   UNL     1      12.473   6.949   9.067  1.00  0.00     0.034 A 
ATOM     48  C   UNL     1       6.908   9.720  12.370  1.00  0.00     0.034 A 
ATOM     49  C   UNL     1      12.781   7.745  10.229  1.00  0.00     0.049 A 
ATOM     50  C   UNL     1       8.319   9.919  12.869  1.00  0.00     0.074 A 
ATOM     51  C   UNL     1      14.021   8.046  10.765  1.00  0.00     0.029 A 
ATOM     52  N   UNL     1      11.838   8.368  11.038  1.00  0.00    -0.354 N 
ATOM     53  N   UNL     1       9.447   9.476  12.362  1.00  0.00    -0.248 NA
ATOM     54  C   UNL     1       8.482  10.728  14.083  1.00  0.00     0.031 C 
ATOM     55  C   UNL     1      13.825   8.797  11.929  1.00  0.00     0.029 A 
ATOM     56  C   UNL     1      12.468   9.034  12.078  1.00  0.00     0.049 A 
ATOM     57  H   UNL     1      10.865   8.340  10.894  1.00  0.00     0.167 HD
ATOM     58  C   UNL     1      10.455   9.990  13.174  1.00  0.00     0.074 A 
ATOM     59  C   UNL     1       9.800  10.786  14.192  1.00  0.00     0.031 C 
ATOM     60  C   UNL     1      11.800   9.825  13.085  1.00  0.00     0.034 A 
BRANCH  47  61
ATOM     61  C   UNL     1      13.599   6.280   8.314  1.00  0.00     0.023 A 
ATOM     62  C   UNL     1      13.867   6.585   6.967  1.00  0.00     0.031 A 
ATOM     63  C   UNL     1      14.393   5.301   8.935  1.00  0.00     0.131 A 
ATOM     64  C   UNL     1      14.842   5.863   6.264  1.00  0.00     0.055 A 
ATOM     65  C   UNL     1      15.422   4.647   8.254  1.00  0.00     0.041 A 
ATOM     66  F   UNL     1      14.172   4.949  10.211  1.00  0.00    -0.206 F 
ATOM     67  C   UNL     1      15.641   4.915   6.905  1.00  0.00     0.022 A 
BRANCH  64  68
ATOM     68  S   UNL     1      14.948   6.075   4.466  1.00  0.00     0.124 S 
ATOM     69  O   UNL     1      13.611   5.668   4.042  1.00  0.00    -0.237 OA
ATOM     70  O   UNL     1      15.256   7.495   4.333  1.00  0.00    -0.237 OA
ATOM     71  O   UNL     1      16.022   5.164   4.075  1.00  0.00    -0.744 OA
ENDBRANCH  64  68
ENDBRANCH  47  61
BRANCH  48  72
ATOM     72  C   UNL     1       5.751  10.296  13.115  1.00  0.00     0.023 A 
ATOM     73  C   UNL     1       5.612  11.685  13.271  1.00  0.00     0.031 A 
ATOM     74  C   UNL     1       4.798   9.467  13.732  1.00  0.00     0.131 A 
ATOM     75  C   UNL     1       4.582  12.201  14.074  1.00  0.00     0.055 A 
ATOM     76  C   UNL     1       3.741   9.987  14.482  1.00  0.00     0.041 A 
ATOM     77  F   UNL     1       4.878   8.132  13.611  1.00  0.00    -0.206 F 
ATOM     78  C   UNL     1       3.638  11.362  14.670  1.00  0.00     0.022 A 
BRANCH  75  79
ATOM     79  S   UNL     1       4.555  13.983  14.411  1.00  0.00     0.124 S 
ATOM     80  O   UNL     1       5.872  14.194  15.002  1.00  0.00    -0.237 OA
ATOM     81  O   UNL     1       4.352  14.540  13.078  1.00  0.00    -0.237 OA
ATOM     82  O   UNL     1       3.427  14.138  15.328  1.00  0.00    -0.744 OA
ENDBRANCH  75  79
ENDBRANCH  48  72
BRANCH  60  83
ATOM     83  C   UNL     1      12.650  10.576  14.081  1.00  0.00     0.023 A 
ATOM     84  C   UNL     1      12.609  10.292  15.457  1.00  0.00     0.031 A 
ATOM     85  C   UNL     1      13.500  11.608  13.644  1.00  0.00     0.131 A 
ATOM     86  C   UNL     1      13.351  11.076  16.354  1.00  0.00     0.055 A 
ATOM     87  C   UNL     1      14.286  12.339  14.534  1.00  0.00     0.041 A 
ATOM     88  F   UNL     1      13.578  11.923  12.341  1.00  0.00    -0.206 F 
ATOM     89  C   UNL     1      14.202  12.086  15.899  1.00  0.00     0.022 A 
BRANCH  86  90
ATOM     90  S   UNL     1      13.103  10.830  18.134  1.00  0.00     0.124 S 
ATOM     91  O   UNL     1      11.665  11.039  18.273  1.00  0.00    -0.237 OA
ATOM     92  O   UNL     1      13.569   9.461  18.328  1.00  0.00    -0.237 OA
ATOM     93  O   UNL     1      13.941  11.862  18.742  1.00  0.00    -0.744 OA
ENDBRANCH  86  90
ENDBRANCH  60  83
ENDBRANCH  34  35
ENDBRANCH  26  29
ENDBRANCH  24  25
ENDBRANCH  23  24
ENDBRANCH  22  23
ENDBRANCH  21  22
ENDBRANCH   3  21
TORSDOF 21
