REMARK SMILES Cc1cc(F)cc(N[C@@](C)(C(=O)NCCCCNC(=O)c2ccc(-c3c4nc(c(-c5cc(S(=O)(=O)[O-])ccc5F)c5ccc([nH]5)c(-c5cc(S(=O)(=O)[O-])ccc5F)c5nc(c(-c6cc(S(=O)(=O)[O-])ccc6F)c6ccc3[nH]6)C=C5)C=C4)cc2)c2ccc(O)cc2)c1
REMARK SMILES IDX 16 1 15 2 14 3 13 4 11 5 12 6 9 8 10 9 8 10 7 12 1 13 2 14
REMARK SMILES IDX 3 15 91 16 4 17 5 18 6 19 84 20 85 21 90 22 86 23 89 24
REMARK SMILES IDX 87 25 88 26 17 28 18 29 19 30 20 32 21 33 22 34 83 35 23 36
REMARK SMILES IDX 82 37 24 38 25 39 26 40 76 41 27 42 81 43 75 44 77 45 28 46
REMARK SMILES IDX 80 47 74 48 73 49 29 51 61 52 41 53 60 54 42 55 45 56 59 57
REMARK SMILES IDX 78 58 43 59 44 60 58 62 79 63 46 64 30 65 31 66 39 67 32 68
REMARK SMILES IDX 38 69 40 70 37 71 33 72 34 73 35 74 36 75 62 76 63 77 71 78
REMARK SMILES IDX 64 79 70 80 72 81 69 82 65 83 66 84 67 85 68 86 47 87 48 88
REMARK SMILES IDX 56 89 49 90 55 91 57 92 54 93 50 94 51 95 52 96 53 97
REMARK H PARENT 13 7 8 11 88 27 18 31 77 50 45 61
REMARK Flexibility Score: inf
ROOT
ATOM      1  C   UNL     1       3.067  -6.476   2.336  1.00  0.00     0.023 C 
ENDROOT
BRANCH   1   2
ATOM      2  C   UNL     1       2.752  -5.538   1.169  1.00  0.00     0.023 C 
BRANCH   2   3
ATOM      3  C   UNL     1       1.445  -5.825   0.432  1.00  0.00     0.116 C 
BRANCH   3   4
ATOM      4  N   UNL     1       0.285  -5.584   1.268  1.00  0.00    -0.354 N 
ATOM      5  C   UNL     1      -0.780  -4.728   1.167  1.00  0.00     0.250 C 
ATOM      6  O   UNL     1      -1.481  -4.681   2.187  1.00  0.00    -0.272 OA
ATOM      7  H   UNL     1       0.256  -6.152   2.071  1.00  0.00     0.163 HD
BRANCH   5   8
ATOM      8  C   UNL     1      -1.074  -3.862  -0.134  1.00  0.00     0.139 C 
ATOM      9  C   UNL     1      -1.109  -4.771  -1.389  1.00  0.00     0.051 C 
BRANCH   8  10
ATOM     10  N   UNL     1       0.052  -2.897  -0.291  1.00  0.00    -0.368 N 
ATOM     11  H   UNL     1       0.772  -3.206  -0.887  1.00  0.00     0.161 HD
BRANCH  10  12
ATOM     12  C   UNL     1       0.262  -1.643   0.256  1.00  0.00     0.038 A 
ATOM     13  C   UNL     1       2.873   1.121  -0.268  1.00  0.00     0.044 C 
ATOM     14  C   UNL     1       1.632   0.411   0.181  1.00  0.00    -0.046 A 
ATOM     15  C   UNL     1       0.632   1.102   0.861  1.00  0.00     0.042 A 
ATOM     16  C   UNL     1       1.421  -0.942  -0.137  1.00  0.00     0.029 A 
ATOM     17  C   UNL     1      -0.488   0.414   1.304  1.00  0.00     0.125 A 
ATOM     18  F   UNL     1      -1.449   1.083   1.955  1.00  0.00    -0.207 F 
ATOM     19  C   UNL     1      -0.650  -0.949   1.052  1.00  0.00     0.065 A 
ENDBRANCH  10  12
ENDBRANCH   8  10
BRANCH   8  20
ATOM     20  C   UNL     1      -2.477  -3.185  -0.167  1.00  0.00    -0.013 A 
ATOM     21  C   UNL     1      -2.712  -2.046  -0.968  1.00  0.00     0.010 A 
ATOM     22  C   UNL     1      -3.579  -3.700   0.543  1.00  0.00     0.010 A 
ATOM     23  C   UNL     1      -3.929  -1.360  -0.920  1.00  0.00     0.046 A 
ATOM     24  C   UNL     1      -4.802  -3.024   0.585  1.00  0.00     0.046 A 
ATOM     25  C   UNL     1      -4.953  -1.838  -0.119  1.00  0.00     0.115 A 
BRANCH  25  26
ATOM     26  O   UNL     1      -6.103  -1.111  -0.040  1.00  0.00    -0.508 OA
ATOM     27  H   UNL     1      -6.187  -0.313  -0.523  1.00  0.00     0.293 HD
ENDBRANCH  25  26
ENDBRANCH   8  20
ENDBRANCH   5   8
ENDBRANCH   3   4
ENDBRANCH   2   3
ENDBRANCH   1   2
BRANCH   1  28
ATOM     28  C   UNL     1       3.090  -7.966   2.003  1.00  0.00     0.116 C 
BRANCH  28  29
ATOM     29  N   UNL     1       4.037  -8.303   0.953  1.00  0.00    -0.352 N 
ATOM     30  C   UNL     1       4.989  -9.297   0.916  1.00  0.00     0.251 C 
ATOM     31  H   UNL     1       3.991  -7.736   0.149  1.00  0.00     0.163 HD
ATOM     32  O   UNL     1       5.781  -9.339  -0.015  1.00  0.00    -0.269 OA
BRANCH  30  33
ATOM     33  C   UNL     1       5.072 -10.286   2.017  1.00  0.00     0.039 A 
ATOM     34  C   UNL     1       6.326 -10.589   2.555  1.00  0.00     0.014 A 
ATOM     35  C   UNL     1       3.926 -10.903   2.524  1.00  0.00     0.014 A 
ATOM     36  C   UNL     1       6.421 -11.451   3.652  1.00  0.00     0.010 A 
ATOM     37  C   UNL     1       4.016 -11.707   3.659  1.00  0.00     0.010 A 
ATOM     38  C   UNL     1       5.263 -11.985   4.241  1.00  0.00    -0.014 A 
BRANCH  38  39
ATOM     39  C   UNL     1       5.333 -12.824   5.468  1.00  0.00     0.031 A 
ATOM     40  C   UNL     1       4.873 -14.258   5.430  1.00  0.00     0.074 A 
ATOM     41  C   UNL     1       5.730 -12.271   6.633  1.00  0.00     0.049 A 
ATOM     42  N   UNL     1       4.761 -15.116   6.410  1.00  0.00    -0.248 NA
ATOM     43  C   UNL     1       4.457 -14.785   4.121  1.00  0.00     0.031 C 
ATOM     44  C   UNL     1       6.152 -10.879   6.808  1.00  0.00     0.029 A 
ATOM     45  N   UNL     1       5.826 -12.803   7.896  1.00  0.00    -0.354 N 
ATOM     46  C   UNL     1       4.234 -16.273   5.845  1.00  0.00     0.074 A 
ATOM     47  C   UNL     1       4.014 -15.992   4.443  1.00  0.00     0.031 C 
ATOM     48  C   UNL     1       6.469 -10.672   8.097  1.00  0.00     0.029 A 
ATOM     49  C   UNL     1       6.231 -11.898   8.852  1.00  0.00     0.049 A 
ATOM     50  H   UNL     1       5.624 -13.745   8.100  1.00  0.00     0.167 HD
ATOM     51  C   UNL     1       3.971 -17.462   6.441  1.00  0.00     0.034 A 
ATOM     52  C   UNL     1       6.374 -12.032  10.186  1.00  0.00     0.034 A 
ATOM     53  C   UNL     1       4.232 -17.740   7.832  1.00  0.00     0.049 A 
ATOM     54  C   UNL     1       6.088 -13.373  10.818  1.00  0.00     0.074 A 
ATOM     55  C   UNL     1       4.093 -18.939   8.509  1.00  0.00     0.029 A 
ATOM     56  N   UNL     1       4.675 -16.809   8.761  1.00  0.00    -0.354 N 
ATOM     57  N   UNL     1       5.667 -14.480  10.250  1.00  0.00    -0.248 NA
ATOM     58  C   UNL     1       6.309 -13.488  12.265  1.00  0.00     0.031 C 
ATOM     59  C   UNL     1       4.384 -18.718   9.858  1.00  0.00     0.029 A 
ATOM     60  C   UNL     1       4.781 -17.399  10.011  1.00  0.00     0.049 A 
ATOM     61  H   UNL     1       4.884 -15.868   8.562  1.00  0.00     0.167 HD
ATOM     62  C   UNL     1       5.610 -15.429  11.268  1.00  0.00     0.074 A 
ATOM     63  C   UNL     1       6.054 -14.770  12.477  1.00  0.00     0.031 C 
ATOM     64  C   UNL     1       5.228 -16.730  11.209  1.00  0.00     0.034 A 
BRANCH  51  65
ATOM     65  C   UNL     1       3.344 -18.549   5.601  1.00  0.00     0.023 A 
ATOM     66  C   UNL     1       4.024 -19.145   4.525  1.00  0.00     0.031 A 
ATOM     67  C   UNL     1       2.049 -19.009   5.899  1.00  0.00     0.131 A 
ATOM     68  C   UNL     1       3.386 -20.128   3.754  1.00  0.00     0.055 A 
ATOM     69  C   UNL     1       1.447 -20.038   5.172  1.00  0.00     0.041 A 
ATOM     70  F   UNL     1       1.344 -18.463   6.903  1.00  0.00    -0.206 F 
ATOM     71  C   UNL     1       2.113 -20.597   4.086  1.00  0.00     0.022 A 
BRANCH  68  72
ATOM     72  S   UNL     1       4.203 -20.714   2.244  1.00  0.00     0.124 S 
ATOM     73  O   UNL     1       4.297 -19.483   1.464  1.00  0.00    -0.237 OA
ATOM     74  O   UNL     1       5.463 -21.245   2.752  1.00  0.00    -0.237 OA
ATOM     75  O   UNL     1       3.274 -21.710   1.715  1.00  0.00    -0.744 OA
ENDBRANCH  68  72
ENDBRANCH  51  65
BRANCH  52  76
ATOM     76  C   UNL     1       6.783 -10.871  11.032  1.00  0.00     0.023 A 
ATOM     77  C   UNL     1       7.977 -10.897  11.770  1.00  0.00     0.031 A 
ATOM     78  C   UNL     1       5.947  -9.750  11.175  1.00  0.00     0.131 A 
ATOM     79  C   UNL     1       8.270  -9.858  12.667  1.00  0.00     0.055 A 
ATOM     80  C   UNL     1       6.272  -8.688  12.022  1.00  0.00     0.041 A 
ATOM     81  F   UNL     1       4.794  -9.669  10.491  1.00  0.00    -0.206 F 
ATOM     82  C   UNL     1       7.431  -8.748  12.789  1.00  0.00     0.022 A 
BRANCH  79  83
ATOM     83  S   UNL     1       9.702 -10.039  13.766  1.00  0.00     0.124 S 
ATOM     84  O   UNL     1       9.427 -11.320  14.405  1.00  0.00    -0.237 OA
ATOM     85  O   UNL     1      10.812 -10.019  12.819  1.00  0.00    -0.237 OA
ATOM     86  O   UNL     1       9.609  -8.872  14.640  1.00  0.00    -0.744 OA
ENDBRANCH  79  83
ENDBRANCH  52  76
BRANCH  64  87
ATOM     87  C   UNL     1       5.334 -17.537  12.479  1.00  0.00     0.023 A 
ATOM     88  C   UNL     1       4.520 -17.276  13.595  1.00  0.00     0.031 A 
ATOM     89  C   UNL     1       6.274 -18.579  12.575  1.00  0.00     0.131 A 
ATOM     90  C   UNL     1       4.698 -18.011  14.777  1.00  0.00     0.055 A 
ATOM     91  C   UNL     1       6.404 -19.347  13.732  1.00  0.00     0.041 A 
ATOM     92  F   UNL     1       7.078 -18.871  11.540  1.00  0.00    -0.206 F 
ATOM     93  C   UNL     1       5.623 -19.056  14.846  1.00  0.00     0.022 A 
BRANCH  90  94
ATOM     94  S   UNL     1       3.764 -17.526  16.254  1.00  0.00     0.124 S 
ATOM     95  O   UNL     1       4.187 -16.141  16.439  1.00  0.00    -0.237 OA
ATOM     96  O   UNL     1       2.382 -17.718  15.827  1.00  0.00    -0.237 OA
ATOM     97  O   UNL     1       4.231 -18.459  17.277  1.00  0.00    -0.744 OA
ENDBRANCH  90  94
ENDBRANCH  64  87
ENDBRANCH  38  39
ENDBRANCH  30  33
ENDBRANCH  28  29
ENDBRANCH   1  28
TORSDOF 18
