REMARK SMILES Cc1cc(-c2cc(C(=O)NCCCCNC(=O)c3ccc(-c4c5nc(c(-c6cc(S(=O)(=O)[O-])ccc6F)c6ccc([nH]6)c(-c6cc(S(=O)(=O)[O-])ccc6F)c6nc(c(-c7cc(S(=O)(=O)[O-])ccc7F)c7ccc4[nH]7)C=C6)C=C5)cc3)c[nH]c2=O)ccc1Cl
REMARK SMILES IDX 13 1 12 2 11 3 10 4 8 5 9 6 7 8 5 9 6 10 83 11 82 12 84 13
REMARK SMILES IDX 81 14 4 16 1 17 2 18 3 19 87 20 86 21 88 22 85 23 14 24
REMARK SMILES IDX 15 25 16 26 17 28 18 29 19 30 80 31 20 32 79 33 21 34 22 35
REMARK SMILES IDX 23 36 73 37 24 38 78 39 72 40 74 41 25 42 77 43 71 44 70 45
REMARK SMILES IDX 26 47 58 48 38 49 57 50 39 51 42 52 56 53 75 54 40 55 41 56
REMARK SMILES IDX 55 58 76 59 43 60 27 61 28 62 36 63 29 64 35 65 37 66 34 67
REMARK SMILES IDX 30 68 31 69 32 70 33 71 59 72 60 73 68 74 61 75 67 76 69 77
REMARK SMILES IDX 66 78 62 79 63 80 64 81 65 82 44 83 45 84 53 85 46 86 52 87
REMARK SMILES IDX 54 88 51 89 47 90 48 91 49 92 50 93
REMARK H PARENT 10 7 82 15 15 27 74 46 42 57
REMARK Flexibility Score: inf
ROOT
ATOM      1  C   UNL     1      -4.773  -1.482   5.725  1.00  0.00     0.023 C 
ENDROOT
BRANCH   1   2
ATOM      2  C   UNL     1      -4.361  -1.215   4.273  1.00  0.00     0.023 C 
BRANCH   2   3
ATOM      3  C   UNL     1      -5.090  -2.090   3.250  1.00  0.00     0.116 C 
BRANCH   3   4
ATOM      4  N   UNL     1      -6.407  -1.551   2.966  1.00  0.00    -0.352 N 
ATOM      5  C   UNL     1      -6.879  -0.690   2.023  1.00  0.00     0.252 C 
ATOM      6  O   UNL     1      -8.078  -0.406   2.085  1.00  0.00    -0.269 OA
ATOM      7  H   UNL     1      -7.103  -1.874   3.582  1.00  0.00     0.163 HD
BRANCH   5   8
ATOM      8  C   UNL     1      -6.033  -0.141   0.910  1.00  0.00     0.056 A 
ATOM      9  C   UNL     1      -3.906   0.274  -0.231  1.00  0.00     0.048 A 
ATOM     10  C   UNL     1      -4.588  -0.068   0.879  1.00  0.00     0.029 A 
ATOM     11  C   UNL     1      -4.671   0.769  -1.419  1.00  0.00     0.255 A 
ATOM     12  N   UNL     1      -6.040   0.776  -1.276  1.00  0.00    -0.328 N 
ATOM     13  O   UNL     1      -4.127   1.159  -2.446  1.00  0.00    -0.269 OA
ATOM     14  C   UNL     1      -6.704   0.319  -0.162  1.00  0.00     0.099 A 
ATOM     15  H   UNL     1      -6.579   1.132  -2.019  1.00  0.00     0.169 HD
BRANCH   9  16
ATOM     16  C   UNL     1      -2.442   0.146  -0.225  1.00  0.00    -0.012 A 
ATOM     17  C   UNL     1       0.644   2.365  -0.040  1.00  0.00     0.046 C 
ATOM     18  C   UNL     1      -0.215   1.135  -0.101  1.00  0.00    -0.032 A 
ATOM     19  C   UNL     1      -1.613   1.272  -0.191  1.00  0.00     0.014 A 
ATOM     20  C   UNL     1       0.339  -0.155  -0.063  1.00  0.00     0.044 A 
ATOM     21  C   UNL     1      -0.482  -1.282  -0.111  1.00  0.00     0.021 A 
ATOM     22  Cl  UNL     1       2.045  -0.405   0.050  1.00  0.00    -0.084 Cl
ATOM     23  C   UNL     1      -1.866  -1.133  -0.191  1.00  0.00     0.010 A 
ENDBRANCH   9  16
ENDBRANCH   5   8
ENDBRANCH   3   4
ENDBRANCH   2   3
ENDBRANCH   1   2
BRANCH   1  24
ATOM     24  C   UNL     1      -4.467  -2.888   6.228  1.00  0.00     0.116 C 
BRANCH  24  25
ATOM     25  N   UNL     1      -3.061  -3.239   6.123  1.00  0.00    -0.352 N 
ATOM     26  C   UNL     1      -2.323  -4.073   6.933  1.00  0.00     0.251 C 
ATOM     27  H   UNL     1      -2.571  -2.827   5.375  1.00  0.00     0.163 HD
ATOM     28  O   UNL     1      -1.116  -4.161   6.778  1.00  0.00    -0.269 OA
BRANCH  26  29
ATOM     29  C   UNL     1      -3.007  -4.820   8.013  1.00  0.00     0.039 A 
ATOM     30  C   UNL     1      -2.446  -4.814   9.291  1.00  0.00     0.014 A 
ATOM     31  C   UNL     1      -4.203  -5.501   7.771  1.00  0.00     0.014 A 
ATOM     32  C   UNL     1      -3.113  -5.452  10.339  1.00  0.00     0.010 A 
ATOM     33  C   UNL     1      -4.905  -6.066   8.831  1.00  0.00     0.010 A 
ATOM     34  C   UNL     1      -4.362  -6.059  10.124  1.00  0.00    -0.014 A 
BRANCH  34  35
ATOM     35  C   UNL     1      -5.091  -6.723  11.236  1.00  0.00     0.031 A 
ATOM     36  C   UNL     1      -5.350  -8.205  11.182  1.00  0.00     0.074 A 
ATOM     37  C   UNL     1      -5.546  -5.991  12.272  1.00  0.00     0.049 A 
ATOM     38  N   UNL     1      -6.007  -8.964  12.022  1.00  0.00    -0.248 NA
ATOM     39  C   UNL     1      -4.828  -8.923  10.009  1.00  0.00     0.031 C 
ATOM     40  C   UNL     1      -5.398  -4.541  12.412  1.00  0.00     0.029 A 
ATOM     41  N   UNL     1      -6.230  -6.364  13.402  1.00  0.00    -0.354 N 
ATOM     42  C   UNL     1      -5.975 -10.245  11.480  1.00  0.00     0.074 A 
ATOM     43  C   UNL     1      -5.309 -10.141  10.200  1.00  0.00     0.031 C 
ATOM     44  C   UNL     1      -5.950  -4.152  13.573  1.00  0.00     0.029 A 
ATOM     45  C   UNL     1      -6.528  -5.314  14.241  1.00  0.00     0.049 A 
ATOM     46  H   UNL     1      -6.484  -7.295  13.595  1.00  0.00     0.167 HD
ATOM     47  C   UNL     1      -6.424 -11.407  12.017  1.00  0.00     0.034 A 
ATOM     48  C   UNL     1      -7.196  -5.291  15.412  1.00  0.00     0.034 A 
ATOM     49  C   UNL     1      -7.084 -11.493  13.297  1.00  0.00     0.049 A 
ATOM     50  C   UNL     1      -7.700  -6.594  15.983  1.00  0.00     0.074 A 
ATOM     51  C   UNL     1      -7.573 -12.616  13.943  1.00  0.00     0.029 A 
ATOM     52  N   UNL     1      -7.346 -10.412  14.130  1.00  0.00    -0.354 N 
ATOM     53  N   UNL     1      -7.630  -7.803  15.474  1.00  0.00    -0.248 NA
ATOM     54  C   UNL     1      -8.350  -6.532  17.297  1.00  0.00     0.031 C 
ATOM     55  C   UNL     1      -8.180 -12.207  15.136  1.00  0.00     0.029 A 
ATOM     56  C   UNL     1      -7.998 -10.841  15.277  1.00  0.00     0.049 A 
ATOM     57  H   UNL     1      -7.103  -9.479  13.935  1.00  0.00     0.167 HD
ATOM     58  C   UNL     1      -8.191  -8.649  16.428  1.00  0.00     0.074 A 
ATOM     59  C   UNL     1      -8.573  -7.813  17.547  1.00  0.00     0.031 C 
ATOM     60  C   UNL     1      -8.373  -9.995  16.386  1.00  0.00     0.034 A 
BRANCH  47  61
ATOM     61  C   UNL     1      -6.219 -12.666  11.207  1.00  0.00     0.023 A 
ATOM     62  C   UNL     1      -4.931 -13.121  10.873  1.00  0.00     0.031 A 
ATOM     63  C   UNL     1      -7.318 -13.405  10.734  1.00  0.00     0.131 A 
ATOM     64  C   UNL     1      -4.774 -14.227  10.025  1.00  0.00     0.055 A 
ATOM     65  C   UNL     1      -7.153 -14.558   9.964  1.00  0.00     0.041 A 
ATOM     66  F   UNL     1      -8.573 -13.010  10.999  1.00  0.00    -0.206 F 
ATOM     67  C   UNL     1      -5.875 -14.967   9.591  1.00  0.00     0.022 A 
BRANCH  64  68
ATOM     68  S   UNL     1      -3.120 -14.591   9.376  1.00  0.00     0.124 S 
ATOM     69  O   UNL     1      -2.808 -13.357   8.658  1.00  0.00    -0.237 OA
ATOM     70  O   UNL     1      -2.350 -14.836  10.590  1.00  0.00    -0.237 OA
ATOM     71  O   UNL     1      -3.335 -15.760   8.525  1.00  0.00    -0.744 OA
ENDBRANCH  64  68
ENDBRANCH  47  61
BRANCH  48  72
ATOM     72  C   UNL     1      -7.437  -4.002  16.125  1.00  0.00     0.023 A 
ATOM     73  C   UNL     1      -6.907  -3.766  17.404  1.00  0.00     0.031 A 
ATOM     74  C   UNL     1      -8.256  -3.007  15.561  1.00  0.00     0.131 A 
ATOM     75  C   UNL     1      -7.254  -2.599  18.103  1.00  0.00     0.055 A 
ATOM     76  C   UNL     1      -8.546  -1.819  16.233  1.00  0.00     0.041 A 
ATOM     77  F   UNL     1      -8.784  -3.176  14.338  1.00  0.00    -0.206 F 
ATOM     78  C   UNL     1      -8.059  -1.618  17.520  1.00  0.00     0.022 A 
BRANCH  75  79
ATOM     79  S   UNL     1      -6.729  -2.432  19.831  1.00  0.00     0.124 S 
ATOM     80  O   UNL     1      -7.286  -3.640  20.428  1.00  0.00    -0.237 OA
ATOM     81  O   UNL     1      -5.276  -2.391  19.702  1.00  0.00    -0.237 OA
ATOM     82  O   UNL     1      -7.351  -1.180  20.256  1.00  0.00    -0.744 OA
ENDBRANCH  75  79
ENDBRANCH  48  72
BRANCH  60  83
ATOM     83  C   UNL     1      -8.953 -10.647  17.619  1.00  0.00     0.023 A 
ATOM     84  C   UNL     1     -10.254 -10.364  18.069  1.00  0.00     0.031 A 
ATOM     85  C   UNL     1      -8.173 -11.542  18.375  1.00  0.00     0.131 A 
ATOM     86  C   UNL     1     -10.708 -10.906  19.281  1.00  0.00     0.055 A 
ATOM     87  C   UNL     1      -8.657 -12.136  19.541  1.00  0.00     0.041 A 
ATOM     88  F   UNL     1      -6.923 -11.849  17.994  1.00  0.00    -0.206 F 
ATOM     89  C   UNL     1      -9.925 -11.804  20.011  1.00  0.00     0.022 A 
BRANCH  86  90
ATOM     90  S   UNL     1     -12.286 -10.321  19.958  1.00  0.00     0.124 S 
ATOM     91  O   UNL     1     -12.078  -8.878  20.008  1.00  0.00    -0.237 OA
ATOM     92  O   UNL     1     -13.244 -10.793  18.964  1.00  0.00    -0.237 OA
ATOM     93  O   UNL     1     -12.367 -10.982  21.259  1.00  0.00    -0.744 OA
ENDBRANCH  86  90
ENDBRANCH  60  83
ENDBRANCH  34  35
ENDBRANCH  26  29
ENDBRANCH  24  25
ENDBRANCH   1  24
TORSDOF 15
