REMARK SMILES C[C@]1(C(=O)NCCCCNC(=O)c2ccc(-c3c4nc(c(-c5cc(S(=O)(=O)[O-])ccc5F)c5ccc([nH]5)c(-c5cc(S(=O)(=O)[O-])ccc5F)c5nc(c(-c6cc(S(=O)(=O)[O-])ccc6F)c6ccc3[nH]6)C=C5)C=C4)cc2)[NH2+]C2(C(=O)c3ccccc3C2=O)[C@@H]2C(=O)N(c3ccccc3)C(=O)[C@H]21
REMARK SMILES IDX 8 1 7 2 6 3 5 4 3 5 4 6 2 8 1 9 76 10 100 11 77 12 88 15
REMARK SMILES IDX 98 16 78 17 86 18 89 19 91 20 99 21 79 22 80 23 85 24 87 25
REMARK SMILES IDX 90 26 81 27 84 28 82 29 83 30 92 31 93 32 97 33 94 34 96 35
REMARK SMILES IDX 95 36 9 37 10 38 11 39 12 41 13 42 14 43 75 44 15 45 74 46
REMARK SMILES IDX 16 47 17 48 18 49 68 50 19 51 73 52 67 53 69 54 20 55 72 56
REMARK SMILES IDX 66 57 65 58 21 60 53 61 33 62 52 63 34 64 37 65 51 66 70 67
REMARK SMILES IDX 35 68 36 69 50 71 71 72 38 73 22 74 23 75 31 76 24 77 30 78
REMARK SMILES IDX 32 79 29 80 25 81 26 82 27 83 28 84 54 85 55 86 63 87 56 88
REMARK SMILES IDX 62 89 64 90 61 91 57 92 58 93 59 94 60 95 39 96 40 97 48 98
REMARK SMILES IDX 41 99 47 100 49 101 46 102 42 103 43 104 44 105 45 106
REMARK H PARENT 5 7 76 13 76 14 10 40 69 59 37 70
REMARK Flexibility Score: inf
ROOT
ATOM      1  C   UNL     1      -4.821  -3.006   1.822  1.00  0.00     0.023 C 
ENDROOT
BRANCH   1   2
ATOM      2  C   UNL     1      -3.318  -3.036   1.972  1.00  0.00     0.023 C 
BRANCH   2   3
ATOM      3  C   UNL     1      -2.523  -2.567   0.762  1.00  0.00     0.116 C 
BRANCH   3   4
ATOM      4  N   UNL     1      -2.086  -1.206   0.713  1.00  0.00    -0.351 N 
ATOM      5  C   UNL     1      -0.891  -0.647   0.371  1.00  0.00     0.281 C 
ATOM      6  O   UNL     1      -0.914   0.594   0.400  1.00  0.00    -0.268 OA
ATOM      7  H   UNL     1      -2.775  -0.553   0.974  1.00  0.00     0.163 HD
BRANCH   5   8
ATOM      8  C   UNL     1       0.457  -1.394  -0.063  1.00  0.00     0.186 C 
ATOM      9  C   UNL     1       1.512  -0.265  -0.210  1.00  0.00     0.091 C 
ATOM     10  N   UNL     1       0.995  -2.392   0.944  1.00  0.00    -0.314 N 
ATOM     11  C   UNL     1       0.496  -2.231  -1.307  1.00  0.00     0.170 C 
ATOM     12  C   UNL     1       0.794  -3.806   0.413  1.00  0.00     0.236 C 
ATOM     13  H   UNL     1       0.496  -2.286   1.827  1.00  0.00     0.348 HD
ATOM     14  H   UNL     1       1.989  -2.222   1.093  1.00  0.00     0.348 HD
ATOM     15  C   UNL     1       0.038  -3.612  -0.884  1.00  0.00     0.177 C 
ATOM     16  C   UNL     1      -0.285  -2.020  -2.547  1.00  0.00     0.244 C 
ATOM     17  C   UNL     1       2.079  -4.629   0.254  1.00  0.00     0.232 C 
ATOM     18  C   UNL     1       0.107  -4.585   1.561  1.00  0.00     0.232 C 
ATOM     19  C   UNL     1       0.070  -4.286  -2.225  1.00  0.00     0.245 C 
ATOM     20  N   UNL     1      -0.348  -3.289  -3.117  1.00  0.00    -0.250 N 
ATOM     21  O   UNL     1      -0.698  -0.948  -2.958  1.00  0.00    -0.273 OA
ATOM     22  O   UNL     1       3.067  -4.311  -0.384  1.00  0.00    -0.286 OA
ATOM     23  C   UNL     1       1.935  -5.886   1.022  1.00  0.00     0.036 A 
ATOM     24  C   UNL     1       0.753  -5.859   1.740  1.00  0.00     0.036 A 
ATOM     25  O   UNL     1      -0.723  -4.228   2.377  1.00  0.00    -0.286 OA
ATOM     26  O   UNL     1       0.254  -5.476  -2.400  1.00  0.00    -0.273 OA
ATOM     27  C   UNL     1       2.781  -6.970   1.154  1.00  0.00     0.013 A 
ATOM     28  C   UNL     1       0.344  -6.863   2.602  1.00  0.00     0.013 A 
ATOM     29  C   UNL     1       2.391  -8.012   2.016  1.00  0.00     0.001 A 
ATOM     30  C   UNL     1       1.179  -7.962   2.732  1.00  0.00     0.001 A 
BRANCH  20  31
ATOM     31  C   UNL     1      -0.979  -3.494  -4.357  1.00  0.00     0.052 A 
ATOM     32  C   UNL     1      -0.554  -2.776  -5.484  1.00  0.00     0.027 A 
ATOM     33  C   UNL     1      -2.147  -4.260  -4.430  1.00  0.00     0.027 A 
ATOM     34  C   UNL     1      -1.282  -2.832  -6.674  1.00  0.00     0.002 A 
ATOM     35  C   UNL     1      -2.903  -4.268  -5.606  1.00  0.00     0.002 A 
ATOM     36  C   UNL     1      -2.468  -3.561  -6.728  1.00  0.00     0.000 A 
ENDBRANCH  20  31
ENDBRANCH   5   8
ENDBRANCH   3   4
ENDBRANCH   2   3
ENDBRANCH   1   2
BRANCH   1  37
ATOM     37  C   UNL     1      -5.352  -3.666   0.556  1.00  0.00     0.116 C 
BRANCH  37  38
ATOM     38  N   UNL     1      -5.063  -5.097   0.421  1.00  0.00    -0.352 N 
ATOM     39  C   UNL     1      -5.942  -6.162   0.321  1.00  0.00     0.251 C 
ATOM     40  H   UNL     1      -4.108  -5.335   0.398  1.00  0.00     0.163 HD
ATOM     41  O   UNL     1      -5.528  -7.313   0.231  1.00  0.00    -0.269 OA
BRANCH  39  42
ATOM     42  C   UNL     1      -7.390  -5.880   0.399  1.00  0.00     0.039 A 
ATOM     43  C   UNL     1      -7.914  -4.854  -0.378  1.00  0.00     0.014 A 
ATOM     44  C   UNL     1      -8.152  -6.468   1.410  1.00  0.00     0.014 A 
ATOM     45  C   UNL     1      -9.038  -4.191   0.088  1.00  0.00     0.010 A 
ATOM     46  C   UNL     1      -9.383  -5.901   1.755  1.00  0.00     0.010 A 
ATOM     47  C   UNL     1      -9.791  -4.696   1.165  1.00  0.00    -0.014 A 
BRANCH  47  48
ATOM     48  C   UNL     1     -10.974  -3.924   1.647  1.00  0.00     0.031 A 
ATOM     49  C   UNL     1     -11.098  -3.472   3.083  1.00  0.00     0.074 A 
ATOM     50  C   UNL     1     -11.909  -3.553   0.748  1.00  0.00     0.049 A 
ATOM     51  N   UNL     1     -12.065  -2.792   3.648  1.00  0.00    -0.248 NA
ATOM     52  C   UNL     1     -10.013  -3.833   4.011  1.00  0.00     0.031 C 
ATOM     53  C   UNL     1     -11.889  -3.917  -0.670  1.00  0.00     0.029 A 
ATOM     54  N   UNL     1     -13.022  -2.759   0.866  1.00  0.00    -0.354 N 
ATOM     55  C   UNL     1     -11.729  -2.682   4.995  1.00  0.00     0.074 A 
ATOM     56  C   UNL     1     -10.478  -3.384   5.171  1.00  0.00     0.031 C 
ATOM     57  C   UNL     1     -12.869  -3.269  -1.307  1.00  0.00     0.029 A 
ATOM     58  C   UNL     1     -13.675  -2.551  -0.328  1.00  0.00     0.049 A 
ATOM     59  H   UNL     1     -13.324  -2.376   1.721  1.00  0.00     0.167 HD
ATOM     60  C   UNL     1     -12.400  -2.046   5.987  1.00  0.00     0.034 A 
ATOM     61  C   UNL     1     -14.814  -1.887  -0.613  1.00  0.00     0.034 A 
ATOM     62  C   UNL     1     -13.623  -1.308   5.781  1.00  0.00     0.049 A 
ATOM     63  C   UNL     1     -15.546  -1.206   0.508  1.00  0.00     0.074 A 
ATOM     64  C   UNL     1     -14.361  -0.601   6.715  1.00  0.00     0.029 A 
ATOM     65  N   UNL     1     -14.281  -1.165   4.567  1.00  0.00    -0.354 N 
ATOM     66  N   UNL     1     -15.208  -1.111   1.772  1.00  0.00    -0.248 NA
ATOM     67  C   UNL     1     -16.818  -0.553   0.174  1.00  0.00     0.031 C 
ATOM     68  C   UNL     1     -15.495  -0.090   6.083  1.00  0.00     0.029 A 
ATOM     69  C   UNL     1     -15.430  -0.408   4.736  1.00  0.00     0.049 A 
ATOM     70  H   UNL     1     -13.977  -1.546   3.711  1.00  0.00     0.167 HD
ATOM     71  C   UNL     1     -16.222  -0.384   2.385  1.00  0.00     0.074 A 
ATOM     72  C   UNL     1     -17.165  -0.030   1.343  1.00  0.00     0.031 C 
ATOM     73  C   UNL     1     -16.364  -0.054   3.693  1.00  0.00     0.034 A 
BRANCH  60  74
ATOM     74  C   UNL     1     -11.853  -2.092   7.396  1.00  0.00     0.023 A 
ATOM     75  C   UNL     1     -12.613  -2.687   8.424  1.00  0.00     0.031 A 
ATOM     76  C   UNL     1     -10.668  -1.424   7.753  1.00  0.00     0.131 A 
ATOM     77  C   UNL     1     -12.202  -2.566   9.759  1.00  0.00     0.055 A 
ATOM     78  C   UNL     1     -10.240  -1.345   9.081  1.00  0.00     0.041 A 
ATOM     79  F   UNL     1      -9.908  -0.837   6.815  1.00  0.00    -0.206 F 
ATOM     80  C   UNL     1     -11.016  -1.905  10.091  1.00  0.00     0.022 A 
BRANCH  77  81
ATOM     81  S   UNL     1     -13.226  -3.194  11.119  1.00  0.00     0.124 S 
ATOM     82  O   UNL     1     -12.319  -4.143  11.763  1.00  0.00    -0.237 OA
ATOM     83  O   UNL     1     -13.501  -1.979  11.881  1.00  0.00    -0.237 OA
ATOM     84  O   UNL     1     -14.374  -3.792  10.448  1.00  0.00    -0.744 OA
ENDBRANCH  77  81
ENDBRANCH  60  74
BRANCH  61  85
ATOM     85  C   UNL     1     -15.289  -1.845  -2.027  1.00  0.00     0.023 A 
ATOM     86  C   UNL     1     -15.556  -3.035  -2.732  1.00  0.00     0.031 A 
ATOM     87  C   UNL     1     -15.341  -0.635  -2.736  1.00  0.00     0.131 A 
ATOM     88  C   UNL     1     -15.754  -2.997  -4.117  1.00  0.00     0.055 A 
ATOM     89  C   UNL     1     -15.630  -0.594  -4.101  1.00  0.00     0.041 A 
ATOM     90  F   UNL     1     -15.083   0.526  -2.113  1.00  0.00    -0.206 F 
ATOM     91  C   UNL     1     -15.813  -1.782  -4.804  1.00  0.00     0.022 A 
BRANCH  88  92
ATOM     92  S   UNL     1     -15.757  -4.528  -5.093  1.00  0.00     0.124 S 
ATOM     93  O   UNL     1     -17.096  -4.517  -5.673  1.00  0.00    -0.237 OA
ATOM     94  O   UNL     1     -14.660  -4.289  -6.028  1.00  0.00    -0.237 OA
ATOM     95  O   UNL     1     -15.505  -5.569  -4.101  1.00  0.00    -0.744 OA
ENDBRANCH  88  92
ENDBRANCH  61  85
BRANCH  73  96
ATOM     96  C   UNL     1     -17.586   0.729   4.105  1.00  0.00     0.023 A 
ATOM     97  C   UNL     1     -17.446   2.013   4.664  1.00  0.00     0.031 A 
ATOM     98  C   UNL     1     -18.867   0.149   4.081  1.00  0.00     0.131 A 
ATOM     99  C   UNL     1     -18.560   2.657   5.216  1.00  0.00     0.055 A 
ATOM    100  C   UNL     1     -19.983   0.817   4.585  1.00  0.00     0.041 A 
ATOM    101  F   UNL     1     -19.050  -1.078   3.566  1.00  0.00    -0.206 F 
ATOM    102  C   UNL     1     -19.829   2.070   5.171  1.00  0.00     0.022 A 
BRANCH  99 103
ATOM    103  S   UNL     1     -18.388   4.235   6.094  1.00  0.00     0.124 S 
ATOM    104  O   UNL     1     -19.241   5.116   5.300  1.00  0.00    -0.237 OA
ATOM    105  O   UNL     1     -18.898   3.904   7.422  1.00  0.00    -0.237 OA
ATOM    106  O   UNL     1     -16.960   4.524   6.024  1.00  0.00    -0.744 OA
ENDBRANCH  99 103
ENDBRANCH  73  96
ENDBRANCH  47  48
ENDBRANCH  39  42
ENDBRANCH  37  38
ENDBRANCH   1  37
TORSDOF 15
