REMARK SMILES COC(=O)C[C@@H](NC(=O)c1ccccc1C(=O)NCCCCNC(=O)c1ccc(-c2c3nc(c(-c4cc(S(=O)(=O)[O-])ccc4F)c4ccc([nH]4)c(-c4cc(S(=O)(=O)[O-])ccc4F)c4nc(c(-c5cc(S(=O)(=O)[O-])ccc5F)c5ccc2[nH]5)C=C4)C=C3)cc1)c1cccc(C)c1C
REMARK SMILES IDX 19 1 18 2 16 3 17 4 15 6 10 7 11 8 12 9 14 10 13 11 8 12
REMARK SMILES IDX 7 13 9 15 6 16 5 17 3 18 4 19 2 20 1 21 89 22 90 23 95 24
REMARK SMILES IDX 91 25 93 26 96 27 92 28 94 29 20 30 21 31 22 32 23 33 24 34
REMARK SMILES IDX 25 36 26 37 27 38 88 39 28 40 87 41 29 42 30 43 31 44 81 45
REMARK SMILES IDX 32 46 86 47 80 48 82 49 33 50 85 51 79 52 78 53 34 55 66 56
REMARK SMILES IDX 46 57 65 58 47 59 50 60 64 61 83 62 48 63 49 64 63 66 84 67
REMARK SMILES IDX 51 68 35 69 36 70 44 71 37 72 43 73 45 74 42 75 38 76 39 77
REMARK SMILES IDX 40 78 41 79 67 80 68 81 76 82 69 83 75 84 77 85 74 86 70 87
REMARK SMILES IDX 71 88 72 89 73 90 52 91 53 92 61 93 54 94 60 95 62 96 59 97
REMARK SMILES IDX 55 98 56 99 57 100 58 101
REMARK H PARENT 18 5 7 14 23 35 82 54 50 65
REMARK Flexibility Score: inf
ROOT
ATOM      1  C   UNL     1       1.003  -4.099   2.751  1.00  0.00     0.116 C 
ENDROOT
BRANCH   1   2
ATOM      2  N   UNL     1       1.755  -5.196   2.192  1.00  0.00    -0.352 N 
ATOM      3  C   UNL     1       1.343  -6.438   1.789  1.00  0.00     0.252 C 
ATOM      4  O   UNL     1       2.237  -7.263   1.577  1.00  0.00    -0.269 OA
ATOM      5  H   UNL     1       2.718  -5.023   2.083  1.00  0.00     0.163 HD
BRANCH   3   6
ATOM      6  C   UNL     1      -0.079  -6.878   1.653  1.00  0.00     0.052 A 
ATOM      7  C   UNL     1      -1.219  -6.119   1.357  1.00  0.00     0.052 A 
ATOM      8  C   UNL     1      -2.490  -6.745   1.342  1.00  0.00     0.014 A 
ATOM      9  C   UNL     1      -2.635  -8.118   1.520  1.00  0.00     0.001 A 
ATOM     10  C   UNL     1      -0.254  -8.278   1.806  1.00  0.00     0.014 A 
ATOM     11  C   UNL     1      -1.507  -8.893   1.728  1.00  0.00     0.001 A 
BRANCH   7  12
ATOM     12  C   UNL     1      -1.319  -4.675   1.080  1.00  0.00     0.252 C 
ATOM     13  N   UNL     1      -0.833  -4.063  -0.043  1.00  0.00    -0.345 N 
ATOM     14  H   UNL     1      -1.236  -3.180  -0.204  1.00  0.00     0.164 HD
ATOM     15  O   UNL     1      -1.987  -3.993   1.861  1.00  0.00    -0.269 OA
BRANCH  13  16
ATOM     16  C   UNL     1       0.162  -4.436  -1.065  1.00  0.00     0.124 C 
BRANCH  16  17
ATOM     17  C   UNL     1       0.063  -3.487  -2.263  1.00  0.00     0.152 C 
BRANCH  17  18
ATOM     18  C   UNL     1       0.689  -2.159  -1.950  1.00  0.00     0.307 C 
ATOM     19  O   UNL     1       1.800  -1.821  -2.342  1.00  0.00    -0.252 OA
BRANCH  18  20
ATOM     20  O   UNL     1      -0.148  -1.405  -1.187  1.00  0.00    -0.469 OA
ATOM     21  C   UNL     1       0.304  -0.074  -0.908  1.00  0.00     0.282 C 
ENDBRANCH  18  20
ENDBRANCH  17  18
ENDBRANCH  16  17
BRANCH  16  22
ATOM     22  C   UNL     1       0.017  -5.871  -1.546  1.00  0.00    -0.022 A 
ATOM     23  C   UNL     1      -1.268  -6.346  -1.871  1.00  0.00     0.006 A 
ATOM     24  C   UNL     1       1.122  -6.757  -1.603  1.00  0.00    -0.043 A 
ATOM     25  C   UNL     1      -1.493  -7.699  -2.085  1.00  0.00     0.001 A 
ATOM     26  C   UNL     1       0.870  -8.143  -1.723  1.00  0.00    -0.048 A 
ATOM     27  C   UNL     1       2.548  -6.262  -1.524  1.00  0.00     0.045 C 
ATOM     28  C   UNL     1      -0.438  -8.594  -1.965  1.00  0.00     0.004 A 
ATOM     29  C   UNL     1       1.931  -9.191  -1.502  1.00  0.00     0.044 C 
ENDBRANCH  16  22
ENDBRANCH  13  16
ENDBRANCH   7  12
ENDBRANCH   3   6
ENDBRANCH   1   2
BRANCH   1  30
ATOM     30  C   UNL     1       1.732  -3.352   3.856  1.00  0.00     0.023 C 
BRANCH  30  31
ATOM     31  C   UNL     1       2.863  -2.436   3.396  1.00  0.00     0.023 C 
BRANCH  31  32
ATOM     32  C   UNL     1       2.507  -1.413   2.319  1.00  0.00     0.116 C 
BRANCH  32  33
ATOM     33  N   UNL     1       1.367  -0.571   2.659  1.00  0.00    -0.352 N 
ATOM     34  C   UNL     1       1.288   0.798   2.782  1.00  0.00     0.251 C 
ATOM     35  H   UNL     1       0.526  -1.054   2.826  1.00  0.00     0.163 HD
ATOM     36  O   UNL     1       0.251   1.321   3.177  1.00  0.00    -0.269 OA
BRANCH  34  37
ATOM     37  C   UNL     1       2.463   1.634   2.456  1.00  0.00     0.039 A 
ATOM     38  C   UNL     1       2.875   2.616   3.359  1.00  0.00     0.014 A 
ATOM     39  C   UNL     1       3.184   1.414   1.281  1.00  0.00     0.014 A 
ATOM     40  C   UNL     1       4.071   3.302   3.130  1.00  0.00     0.010 A 
ATOM     41  C   UNL     1       4.409   2.040   1.092  1.00  0.00     0.010 A 
ATOM     42  C   UNL     1       4.872   2.978   2.023  1.00  0.00    -0.014 A 
BRANCH  42  43
ATOM     43  C   UNL     1       6.221   3.565   1.835  1.00  0.00     0.031 A 
ATOM     44  C   UNL     1       6.508   4.417   0.630  1.00  0.00     0.074 A 
ATOM     45  C   UNL     1       7.202   3.243   2.701  1.00  0.00     0.049 A 
ATOM     46  N   UNL     1       7.640   4.949   0.248  1.00  0.00    -0.248 NA
ATOM     47  C   UNL     1       5.383   4.679  -0.281  1.00  0.00     0.031 C 
ATOM     48  C   UNL     1       7.045   2.369   3.868  1.00  0.00     0.029 A 
ATOM     49  N   UNL     1       8.527   3.598   2.733  1.00  0.00    -0.354 N 
ATOM     50  C   UNL     1       7.361   5.616  -0.940  1.00  0.00     0.074 A 
ATOM     51  C   UNL     1       5.974   5.354  -1.255  1.00  0.00     0.031 C 
ATOM     52  C   UNL     1       8.220   2.278   4.512  1.00  0.00     0.029 A 
ATOM     53  C   UNL     1       9.224   3.045   3.784  1.00  0.00     0.049 A 
ATOM     54  H   UNL     1       8.941   4.192   2.066  1.00  0.00     0.167 HD
ATOM     55  C   UNL     1       8.181   6.401  -1.681  1.00  0.00     0.034 A 
ATOM     56  C   UNL     1      10.527   3.140   4.114  1.00  0.00     0.034 A 
ATOM     57  C   UNL     1       9.564   6.643  -1.351  1.00  0.00     0.049 A 
ATOM     58  C   UNL     1      11.427   3.990   3.248  1.00  0.00     0.074 A 
ATOM     59  C   UNL     1      10.479   7.446  -2.009  1.00  0.00     0.029 A 
ATOM     60  N   UNL     1      10.234   6.080  -0.272  1.00  0.00    -0.354 N 
ATOM     61  N   UNL     1      11.129   4.670   2.163  1.00  0.00    -0.248 NA
ATOM     62  C   UNL     1      12.832   4.101   3.659  1.00  0.00     0.031 C 
ATOM     63  C   UNL     1      11.715   7.316  -1.370  1.00  0.00     0.029 A 
ATOM     64  C   UNL     1      11.554   6.500  -0.262  1.00  0.00     0.049 A 
ATOM     65  H   UNL     1       9.830   5.472   0.388  1.00  0.00     0.167 HD
ATOM     66  C   UNL     1      12.301   5.324   1.793  1.00  0.00     0.074 A 
ATOM     67  C   UNL     1      13.301   4.972   2.779  1.00  0.00     0.031 C 
ATOM     68  C   UNL     1      12.534   6.143   0.736  1.00  0.00     0.034 A 
BRANCH  55  69
ATOM     69  C   UNL     1       7.603   7.052  -2.912  1.00  0.00     0.023 A 
ATOM     70  C   UNL     1       6.563   7.994  -2.820  1.00  0.00     0.031 A 
ATOM     71  C   UNL     1       8.101   6.745  -4.190  1.00  0.00     0.131 A 
ATOM     72  C   UNL     1       6.018   8.554  -3.984  1.00  0.00     0.055 A 
ATOM     73  C   UNL     1       7.607   7.364  -5.340  1.00  0.00     0.041 A 
ATOM     74  F   UNL     1       9.078   5.838  -4.344  1.00  0.00    -0.206 F 
ATOM     75  C   UNL     1       6.552   8.267  -5.242  1.00  0.00     0.022 A 
BRANCH  72  76
ATOM     76  S   UNL     1       4.527   9.576  -3.838  1.00  0.00     0.124 S 
ATOM     77  O   UNL     1       3.574   8.627  -3.268  1.00  0.00    -0.237 OA
ATOM     78  O   UNL     1       4.965  10.650  -2.954  1.00  0.00    -0.237 OA
ATOM     79  O   UNL     1       4.249   9.976  -5.216  1.00  0.00    -0.744 OA
ENDBRANCH  72  76
ENDBRANCH  55  69
BRANCH  56  80
ATOM     80  C   UNL     1      11.076   2.423   5.303  1.00  0.00     0.023 A 
ATOM     81  C   UNL     1      11.674   3.133   6.356  1.00  0.00     0.031 A 
ATOM     82  C   UNL     1      11.089   1.019   5.369  1.00  0.00     0.131 A 
ATOM     83  C   UNL     1      12.333   2.441   7.384  1.00  0.00     0.055 A 
ATOM     84  C   UNL     1      11.681   0.334   6.433  1.00  0.00     0.041 A 
ATOM     85  F   UNL     1      10.528   0.286   4.393  1.00  0.00    -0.206 F 
ATOM     86  C   UNL     1      12.328   1.046   7.438  1.00  0.00     0.022 A 
BRANCH  83  87
ATOM     87  S   UNL     1      13.326   3.393   8.567  1.00  0.00     0.124 S 
ATOM     88  O   UNL     1      14.208   4.140   7.678  1.00  0.00    -0.237 OA
ATOM     89  O   UNL     1      12.304   4.170   9.261  1.00  0.00    -0.237 OA
ATOM     90  O   UNL     1      13.976   2.361   9.372  1.00  0.00    -0.744 OA
ENDBRANCH  83  87
ENDBRANCH  56  80
BRANCH  68  91
ATOM     91  C   UNL     1      13.907   6.761   0.635  1.00  0.00     0.023 A 
ATOM     92  C   UNL     1      15.056   5.984   0.411  1.00  0.00     0.031 A 
ATOM     93  C   UNL     1      14.065   8.151   0.776  1.00  0.00     0.131 A 
ATOM     94  C   UNL     1      16.319   6.593   0.400  1.00  0.00     0.055 A 
ATOM     95  C   UNL     1      15.317   8.761   0.693  1.00  0.00     0.041 A 
ATOM     96  F   UNL     1      13.002   8.942   0.994  1.00  0.00    -0.206 F 
ATOM     97  C   UNL     1      16.455   7.979   0.518  1.00  0.00     0.022 A 
BRANCH  94  98
ATOM     98  S   UNL     1      17.792   5.539   0.329  1.00  0.00     0.124 S 
ATOM     99  O   UNL     1      17.624   4.703   1.513  1.00  0.00    -0.237 OA
ATOM    100  O   UNL     1      17.633   4.864  -0.955  1.00  0.00    -0.237 OA
ATOM    101  O   UNL     1      18.899   6.491   0.394  1.00  0.00    -0.744 OA
ENDBRANCH  94  98
ENDBRANCH  68  91
ENDBRANCH  42  43
ENDBRANCH  34  37
ENDBRANCH  32  33
ENDBRANCH  31  32
ENDBRANCH  30  31
ENDBRANCH   1  30
TORSDOF 20
