REMARK SMILES Cc1cc(C(=O)N2CC[NH2+]C[C@H]2C(=O)NCCCCNC(=O)c2ccc(-c3c4nc(c(-c5cc(S(=O)(=O)[O-])ccc5F)c5ccc([nH]5)c(-c5cc(S(=O)(=O)[O-])ccc5F)c5nc(c(-c6cc(S(=O)(=O)[O-])ccc6F)c6ccc3[nH]6)C=C5)C=C4)cc2)sc1Br
REMARK SMILES IDX 18 1 17 2 16 3 15 4 13 5 14 6 12 8 7 9 8 10 9 11 11 12 10 13
REMARK SMILES IDX 5 16 6 17 4 18 1 19 2 20 3 21 87 22 86 23 88 24 19 25 20 26
REMARK SMILES IDX 21 27 22 29 23 30 24 31 85 32 25 33 84 34 26 35 27 36 28 37
REMARK SMILES IDX 78 38 29 39 83 40 77 41 79 42 30 43 82 44 76 45 75 46 31 48
REMARK SMILES IDX 63 49 43 50 62 51 44 52 47 53 61 54 80 55 45 56 46 57 60 59
REMARK SMILES IDX 81 60 48 61 32 62 33 63 41 64 34 65 40 66 42 67 39 68 35 69
REMARK SMILES IDX 36 70 37 71 38 72 64 73 65 74 73 75 66 76 72 77 74 78 71 79
REMARK SMILES IDX 67 80 68 81 69 82 70 83 49 84 50 85 58 86 51 87 57 88 59 89
REMARK SMILES IDX 56 90 52 91 53 92 54 93 55 94
REMARK H PARENT 15 7 10 14 10 15 20 28 79 47 47 58
REMARK Flexibility Score: inf
ROOT
ATOM      1  C   UNL     1       2.073   0.867  -1.421  1.00  0.00     0.023 C 
ENDROOT
BRANCH   1   2
ATOM      2  C   UNL     1       1.859  -0.492  -2.144  1.00  0.00     0.023 C 
BRANCH   2   3
ATOM      3  C   UNL     1       0.611  -1.438  -2.276  1.00  0.00     0.116 C 
BRANCH   3   4
ATOM      4  N   UNL     1      -0.770  -1.011  -2.081  1.00  0.00    -0.354 N 
ATOM      5  C   UNL     1      -1.861  -0.831  -2.897  1.00  0.00     0.248 C 
ATOM      6  O   UNL     1      -2.947  -0.702  -2.310  1.00  0.00    -0.272 OA
ATOM      7  H   UNL     1      -0.968  -0.801  -1.140  1.00  0.00     0.163 HD
BRANCH   5   8
ATOM      8  C   UNL     1      -1.872  -0.837  -4.460  1.00  0.00     0.230 C 
ATOM      9  N   UNL     1      -1.034   0.115  -5.281  1.00  0.00    -0.315 N 
ATOM     10  C   UNL     1      -0.594  -0.382  -6.587  1.00  0.00     0.182 C 
ATOM     11  C   UNL     1      -0.211  -1.858  -6.595  1.00  0.00     0.282 C 
ATOM     12  C   UNL     1      -1.766  -2.351  -4.853  1.00  0.00     0.296 C 
ATOM     13  N   UNL     1      -1.363  -2.682  -6.229  1.00  0.00    -0.343 N 
ATOM     14  H   UNL     1      -1.110  -3.669  -6.285  1.00  0.00     0.346 HD
ATOM     15  H   UNL     1      -2.136  -2.501  -6.870  1.00  0.00     0.346 HD
BRANCH   9  16
ATOM     16  C   UNL     1      -1.313   1.525  -5.296  1.00  0.00     0.265 C 
ATOM     17  O   UNL     1      -1.366   2.142  -6.367  1.00  0.00    -0.268 OA
BRANCH  16  18
ATOM     18  C   UNL     1      -1.413   2.199  -4.018  1.00  0.00     0.093 A 
ATOM     19  C   UNL     1      -1.268   1.739  -0.339  1.00  0.00     0.046 C 
ATOM     20  C   UNL     1      -1.343   2.378  -1.688  1.00  0.00    -0.025 A 
ATOM     21  C   UNL     1      -0.794   1.806  -2.863  1.00  0.00     0.030 A 
ATOM     22  C   UNL     1      -1.908   3.577  -2.051  1.00  0.00     0.074 A 
ATOM     23  S   UNL     1      -2.151   3.714  -3.742  1.00  0.00    -0.123 S 
ATOM     24  Br  UNL     1      -2.386   4.916  -0.831  1.00  0.00    -0.039 Br
ENDBRANCH  16  18
ENDBRANCH   9  16
ENDBRANCH   5   8
ENDBRANCH   3   4
ENDBRANCH   2   3
ENDBRANCH   1   2
BRANCH   1  25
ATOM     25  C   UNL     1       2.309   1.036   0.080  1.00  0.00     0.116 C 
BRANCH  25  26
ATOM     26  N   UNL     1       3.485   0.347   0.578  1.00  0.00    -0.352 N 
ATOM     27  C   UNL     1       3.647  -0.298   1.783  1.00  0.00     0.251 C 
ATOM     28  H   UNL     1       4.266   0.340  -0.022  1.00  0.00     0.163 HD
ATOM     29  O   UNL     1       4.775  -0.373   2.272  1.00  0.00    -0.269 OA
BRANCH  27  30
ATOM     30  C   UNL     1       2.486  -0.903   2.470  1.00  0.00     0.039 A 
ATOM     31  C   UNL     1       2.534  -1.136   3.848  1.00  0.00     0.014 A 
ATOM     32  C   UNL     1       1.359  -1.286   1.737  1.00  0.00     0.014 A 
ATOM     33  C   UNL     1       1.438  -1.722   4.474  1.00  0.00     0.010 A 
ATOM     34  C   UNL     1       0.233  -1.758   2.370  1.00  0.00     0.010 A 
ATOM     35  C   UNL     1       0.286  -2.025   3.730  1.00  0.00    -0.014 A 
BRANCH  35  36
ATOM     36  C   UNL     1      -0.912  -2.507   4.404  1.00  0.00     0.031 A 
ATOM     37  C   UNL     1      -1.379  -1.630   5.504  1.00  0.00     0.074 A 
ATOM     38  C   UNL     1      -1.658  -3.554   3.997  1.00  0.00     0.049 A 
ATOM     39  N   UNL     1      -1.232  -1.828   6.770  1.00  0.00    -0.248 NA
ATOM     40  C   UNL     1      -1.902  -0.299   5.166  1.00  0.00     0.031 C 
ATOM     41  C   UNL     1      -1.522  -4.359   2.781  1.00  0.00     0.029 A 
ATOM     42  N   UNL     1      -2.778  -4.069   4.577  1.00  0.00    -0.354 N 
ATOM     43  C   UNL     1      -1.875  -0.770   7.399  1.00  0.00     0.074 A 
ATOM     44  C   UNL     1      -2.056   0.231   6.381  1.00  0.00     0.031 C 
ATOM     45  C   UNL     1      -2.633  -5.112   2.610  1.00  0.00     0.029 A 
ATOM     46  C   UNL     1      -3.478  -4.971   3.784  1.00  0.00     0.049 A 
ATOM     47  H   UNL     1      -3.068  -3.821   5.484  1.00  0.00     0.167 HD
ATOM     48  C   UNL     1      -2.423  -0.925   8.637  1.00  0.00     0.034 A 
ATOM     49  C   UNL     1      -4.671  -5.557   4.068  1.00  0.00     0.034 A 
ATOM     50  C   UNL     1      -1.932  -2.136   9.266  1.00  0.00     0.049 A 
ATOM     51  C   UNL     1      -4.807  -5.546   5.546  1.00  0.00     0.074 A 
ATOM     52  C   UNL     1      -0.675  -2.621   9.584  1.00  0.00     0.029 A 
ATOM     53  N   UNL     1      -2.760  -3.239   9.288  1.00  0.00    -0.354 N 
ATOM     54  N   UNL     1      -4.015  -6.217   6.337  1.00  0.00    -0.248 NA
ATOM     55  C   UNL     1      -5.492  -4.424   6.171  1.00  0.00     0.031 C 
ATOM     56  C   UNL     1      -0.725  -4.010   9.257  1.00  0.00     0.029 A 
ATOM     57  C   UNL     1      -2.026  -4.315   8.851  1.00  0.00     0.049 A 
ATOM     58  H   UNL     1      -3.705  -3.252   9.565  1.00  0.00     0.167 HD
ATOM     59  C   UNL     1      -3.753  -5.361   7.396  1.00  0.00     0.074 A 
ATOM     60  C   UNL     1      -4.774  -4.319   7.294  1.00  0.00     0.031 C 
ATOM     61  C   UNL     1      -2.574  -5.421   8.084  1.00  0.00     0.034 A 
BRANCH  48  62
ATOM     62  C   UNL     1      -3.670  -0.219   9.131  1.00  0.00     0.023 A 
ATOM     63  C   UNL     1      -4.118  -0.553  10.423  1.00  0.00     0.031 A 
ATOM     64  C   UNL     1      -4.584   0.513   8.340  1.00  0.00     0.131 A 
ATOM     65  C   UNL     1      -5.439  -0.290  10.823  1.00  0.00     0.055 A 
ATOM     66  C   UNL     1      -5.875   0.835   8.769  1.00  0.00     0.041 A 
ATOM     67  F   UNL     1      -4.327   0.885   7.082  1.00  0.00    -0.206 F 
ATOM     68  C   UNL     1      -6.325   0.399  10.002  1.00  0.00     0.022 A 
BRANCH  65  69
ATOM     69  S   UNL     1      -6.032  -1.047  12.357  1.00  0.00     0.124 S 
ATOM     70  O   UNL     1      -5.708  -2.451  12.131  1.00  0.00    -0.237 OA
ATOM     71  O   UNL     1      -5.231  -0.353  13.361  1.00  0.00    -0.237 OA
ATOM     72  O   UNL     1      -7.456  -0.726  12.364  1.00  0.00    -0.744 OA
ENDBRANCH  65  69
ENDBRANCH  48  62
BRANCH  49  73
ATOM     73  C   UNL     1      -5.796  -5.822   3.131  1.00  0.00     0.023 A 
ATOM     74  C   UNL     1      -6.849  -6.714   3.427  1.00  0.00     0.031 A 
ATOM     75  C   UNL     1      -5.975  -4.983   2.007  1.00  0.00     0.131 A 
ATOM     76  C   UNL     1      -8.014  -6.734   2.622  1.00  0.00     0.055 A 
ATOM     77  C   UNL     1      -7.127  -5.007   1.217  1.00  0.00     0.041 A 
ATOM     78  F   UNL     1      -5.068  -4.045   1.689  1.00  0.00    -0.206 F 
ATOM     79  C   UNL     1      -8.158  -5.877   1.529  1.00  0.00     0.022 A 
BRANCH  76  80
ATOM     80  S   UNL     1      -9.415  -7.822   3.047  1.00  0.00     0.124 S 
ATOM     81  O   UNL     1      -8.883  -9.145   2.748  1.00  0.00    -0.237 OA
ATOM     82  O   UNL     1      -9.637  -7.513   4.455  1.00  0.00    -0.237 OA
ATOM     83  O   UNL     1     -10.481  -7.372   2.149  1.00  0.00    -0.744 OA
ENDBRANCH  76  80
ENDBRANCH  49  73
BRANCH  61  84
ATOM     84  C   UNL     1      -1.677  -6.630   7.879  1.00  0.00     0.023 A 
ATOM     85  C   UNL     1      -1.161  -7.060   6.634  1.00  0.00     0.031 A 
ATOM     86  C   UNL     1      -1.241  -7.310   9.031  1.00  0.00     0.131 A 
ATOM     87  C   UNL     1      -0.255  -8.141   6.579  1.00  0.00     0.055 A 
ATOM     88  C   UNL     1      -0.329  -8.363   8.974  1.00  0.00     0.041 A 
ATOM     89  F   UNL     1      -1.674  -6.936  10.247  1.00  0.00    -0.206 F 
ATOM     90  C   UNL     1       0.162  -8.787   7.746  1.00  0.00     0.022 A 
BRANCH  87  91
ATOM     91  S   UNL     1       0.378  -8.744   4.978  1.00  0.00     0.124 S 
ATOM     92  O   UNL     1      -0.808  -8.855   4.154  1.00  0.00    -0.237 OA
ATOM     93  O   UNL     1       1.329  -7.694   4.600  1.00  0.00    -0.237 OA
ATOM     94  O   UNL     1       1.008 -10.024   5.325  1.00  0.00    -0.744 OA
ENDBRANCH  87  91
ENDBRANCH  61  84
ENDBRANCH  35  36
ENDBRANCH  27  30
ENDBRANCH  25  26
ENDBRANCH   1  25
TORSDOF 16
