REMARK SMILES O=C(NCCCCNC(=O)[C@H]1CCCCN1c1cc(-c2ccccc2)nc(-c2cccc(Cl)c2)n1)c1ccc(-c2c3nc(c(-c4cc(S(=O)(=O)[O-])ccc4F)c4ccc([nH]4)c(-c4cc(S(=O)(=O)[O-])ccc4F)c4nc(c(-c5cc(S(=O)(=O)[O-])ccc5F)c5ccc2[nH]5)C=C4)C=C3)cc1
REMARK SMILES IDX 5 1 4 2 3 3 1 4 2 5 36 7 37 8 98 9 38 10 97 11 39 12 40 13
REMARK SMILES IDX 41 14 91 15 42 16 96 17 90 18 92 19 43 20 95 21 89 22 88 23
REMARK SMILES IDX 44 25 76 26 56 27 75 28 57 29 60 30 74 31 93 32 58 33 59 34
REMARK SMILES IDX 73 36 94 37 61 38 45 39 46 40 54 41 47 42 53 43 55 44 52 45
REMARK SMILES IDX 48 46 49 47 50 48 51 49 77 50 78 51 86 52 79 53 85 54 87 55
REMARK SMILES IDX 84 56 80 57 81 58 82 59 83 60 62 61 63 62 71 63 64 64 70 65
REMARK SMILES IDX 72 66 69 67 65 68 66 69 67 70 68 71 6 72 7 73 8 74 9 75
REMARK SMILES IDX 10 77 11 78 12 79 16 80 13 81 15 82 14 83 17 84 18 85 35 86
REMARK SMILES IDX 19 87 27 88 26 89 20 90 21 91 25 92 22 93 24 94 23 95 28 96
REMARK SMILES IDX 29 97 34 98 30 99 32 100 31 101 33 102
REMARK H PARENT 3 6 92 24 60 35 8 76
REMARK Flexibility Score: inf
ROOT
ATOM      1  C   UNL     1       3.715   8.748  -0.263  1.00  0.00     0.023 C 
ENDROOT
BRANCH   1   2
ATOM      2  C   UNL     1       3.040   9.791   0.617  1.00  0.00     0.116 C 
BRANCH   2   3
ATOM      3  N   UNL     1       3.747  11.065   0.646  1.00  0.00    -0.352 N 
ATOM      4  O   UNL     1       4.027  13.282   0.338  1.00  0.00    -0.269 OA
ATOM      5  C   UNL     1       3.269  12.328   0.374  1.00  0.00     0.251 C 
ATOM      6  H   UNL     1       4.699  11.016   0.894  1.00  0.00     0.163 HD
BRANCH   5   7
ATOM      7  C   UNL     1       1.826  12.496   0.103  1.00  0.00     0.039 A 
ATOM      8  C   UNL     1       0.884  11.934   0.967  1.00  0.00     0.014 A 
ATOM      9  C   UNL     1       1.421  13.180  -1.046  1.00  0.00     0.014 A 
ATOM     10  C   UNL     1      -0.456  11.929   0.607  1.00  0.00     0.010 A 
ATOM     11  C   UNL     1       0.061  13.249  -1.360  1.00  0.00     0.010 A 
ATOM     12  C   UNL     1      -0.884  12.601  -0.549  1.00  0.00    -0.014 A 
BRANCH  12  13
ATOM     13  C   UNL     1      -2.338  12.688  -0.833  1.00  0.00     0.031 A 
ATOM     14  C   UNL     1      -2.940  12.030  -2.042  1.00  0.00     0.074 A 
ATOM     15  C   UNL     1      -3.111  13.359   0.043  1.00  0.00     0.049 A 
ATOM     16  N   UNL     1      -4.189  12.019  -2.433  1.00  0.00    -0.248 NA
ATOM     17  C   UNL     1      -2.028  11.295  -2.932  1.00  0.00     0.031 C 
ATOM     18  C   UNL     1      -2.618  14.039   1.246  1.00  0.00     0.029 A 
ATOM     19  N   UNL     1      -4.463  13.573   0.075  1.00  0.00    -0.354 N 
ATOM     20  C   UNL     1      -4.214  11.300  -3.623  1.00  0.00     0.074 A 
ATOM     21  C   UNL     1      -2.849  10.900  -3.898  1.00  0.00     0.031 C 
ATOM     22  C   UNL     1      -3.655  14.560   1.915  1.00  0.00     0.029 A 
ATOM     23  C   UNL     1      -4.874  14.322   1.154  1.00  0.00     0.049 A 
ATOM     24  H   UNL     1      -5.082  13.226  -0.607  1.00  0.00     0.167 HD
ATOM     25  C   UNL     1      -5.280  11.007  -4.407  1.00  0.00     0.034 A 
ATOM     26  C   UNL     1      -6.091  14.797   1.478  1.00  0.00     0.034 A 
ATOM     27  C   UNL     1      -6.635  11.403  -4.101  1.00  0.00     0.049 A 
ATOM     28  C   UNL     1      -7.247  14.478   0.571  1.00  0.00     0.074 A 
ATOM     29  C   UNL     1      -7.797  11.102  -4.790  1.00  0.00     0.029 A 
ATOM     30  N   UNL     1      -7.009  12.198  -3.024  1.00  0.00    -0.354 N 
ATOM     31  N   UNL     1      -7.255  13.765  -0.532  1.00  0.00    -0.248 NA
ATOM     32  C   UNL     1      -8.553  15.027   0.948  1.00  0.00     0.031 C 
ATOM     33  C   UNL     1      -8.861  11.768  -4.172  1.00  0.00     0.029 A 
ATOM     34  C   UNL     1      -8.376  12.431  -3.056  1.00  0.00     0.049 A 
ATOM     35  H   UNL     1      -6.394  12.545  -2.338  1.00  0.00     0.167 HD
ATOM     36  C   UNL     1      -8.571  13.777  -0.978  1.00  0.00     0.074 A 
ATOM     37  C   UNL     1      -9.331  14.538  -0.005  1.00  0.00     0.031 C 
ATOM     38  C   UNL     1      -9.107  13.218  -2.092  1.00  0.00     0.034 A 
BRANCH  25  39
ATOM     39  C   UNL     1      -5.031  10.265  -5.697  1.00  0.00     0.023 A 
ATOM     40  C   UNL     1      -4.623   8.921  -5.720  1.00  0.00     0.031 A 
ATOM     41  C   UNL     1      -5.242  10.913  -6.928  1.00  0.00     0.131 A 
ATOM     42  C   UNL     1      -4.406   8.278  -6.950  1.00  0.00     0.055 A 
ATOM     43  C   UNL     1      -5.081  10.252  -8.147  1.00  0.00     0.041 A 
ATOM     44  F   UNL     1      -5.615  12.202  -6.965  1.00  0.00    -0.206 F 
ATOM     45  C   UNL     1      -4.654   8.927  -8.163  1.00  0.00     0.022 A 
BRANCH  42  46
ATOM     46  S   UNL     1      -3.716   6.600  -6.949  1.00  0.00     0.124 S 
ATOM     47  O   UNL     1      -2.427   6.811  -6.295  1.00  0.00    -0.237 OA
ATOM     48  O   UNL     1      -4.706   5.852  -6.183  1.00  0.00    -0.237 OA
ATOM     49  O   UNL     1      -3.639   6.259  -8.368  1.00  0.00    -0.744 OA
ENDBRANCH  42  46
ENDBRANCH  25  39
BRANCH  26  50
ATOM     50  C   UNL     1      -6.265  15.668   2.674  1.00  0.00     0.023 A 
ATOM     51  C   UNL     1      -7.082  15.278   3.745  1.00  0.00     0.031 A 
ATOM     52  C   UNL     1      -5.639  16.927   2.744  1.00  0.00     0.131 A 
ATOM     53  C   UNL     1      -7.288  16.157   4.820  1.00  0.00     0.055 A 
ATOM     54  C   UNL     1      -5.800  17.771   3.842  1.00  0.00     0.041 A 
ATOM     55  F   UNL     1      -4.845  17.348   1.746  1.00  0.00    -0.206 F 
ATOM     56  C   UNL     1      -6.641  17.393   4.883  1.00  0.00     0.022 A 
BRANCH  53  57
ATOM     57  S   UNL     1      -8.496  15.700   6.092  1.00  0.00     0.124 S 
ATOM     58  O   UNL     1      -9.684  15.425   5.292  1.00  0.00    -0.237 OA
ATOM     59  O   UNL     1      -7.858  14.543   6.711  1.00  0.00    -0.237 OA
ATOM     60  O   UNL     1      -8.571  16.893   6.933  1.00  0.00    -0.744 OA
ENDBRANCH  53  57
ENDBRANCH  26  50
BRANCH  38  61
ATOM     61  C   UNL     1     -10.587  13.410  -2.291  1.00  0.00     0.023 A 
ATOM     62  C   UNL     1     -11.126  14.678  -2.574  1.00  0.00     0.031 A 
ATOM     63  C   UNL     1     -11.471  12.327  -2.154  1.00  0.00     0.131 A 
ATOM     64  C   UNL     1     -12.516  14.843  -2.649  1.00  0.00     0.055 A 
ATOM     65  C   UNL     1     -12.850  12.486  -2.288  1.00  0.00     0.041 A 
ATOM     66  F   UNL     1     -11.007  11.097  -1.879  1.00  0.00    -0.206 F 
ATOM     67  C   UNL     1     -13.381  13.752  -2.523  1.00  0.00     0.022 A 
BRANCH  64  68
ATOM     68  S   UNL     1     -13.183  16.520  -2.820  1.00  0.00     0.124 S 
ATOM     69  O   UNL     1     -12.678  17.171  -1.615  1.00  0.00    -0.237 OA
ATOM     70  O   UNL     1     -12.593  16.965  -4.079  1.00  0.00    -0.237 OA
ATOM     71  O   UNL     1     -14.629  16.312  -2.854  1.00  0.00    -0.744 OA
ENDBRANCH  64  68
ENDBRANCH  38  61
ENDBRANCH  12  13
ENDBRANCH   5   7
ENDBRANCH   2   3
ENDBRANCH   1   2
BRANCH   1  72
ATOM     72  C   UNL     1       5.177   8.461   0.067  1.00  0.00     0.023 C 
BRANCH  72  73
ATOM     73  C   UNL     1       5.471   8.149   1.530  1.00  0.00     0.116 C 
BRANCH  73  74
ATOM     74  N   UNL     1       4.888   6.903   1.969  1.00  0.00    -0.354 N 
ATOM     75  C   UNL     1       5.266   5.957   2.863  1.00  0.00     0.242 C 
ATOM     76  H   UNL     1       4.033   6.697   1.525  1.00  0.00     0.163 HD
ATOM     77  O   UNL     1       4.427   5.054   3.024  1.00  0.00    -0.273 OA
BRANCH  75  78
ATOM     78  C   UNL     1       6.625   5.894   3.639  1.00  0.00     0.173 C 
ATOM     79  C   UNL     1       7.614   7.061   3.677  1.00  0.00     0.035 C 
ATOM     80  N   UNL     1       6.322   5.526   5.044  1.00  0.00    -0.344 N 
ATOM     81  C   UNL     1       7.130   8.223   4.545  1.00  0.00     0.004 C 
ATOM     82  C   UNL     1       5.784   6.574   5.903  1.00  0.00     0.119 C 
ATOM     83  C   UNL     1       6.769   7.744   5.952  1.00  0.00     0.022 C 
BRANCH  80  84
ATOM     84  C   UNL     1       7.035   4.485   5.607  1.00  0.00     0.133 A 
ATOM     85  C   UNL     1       6.404   3.602   6.457  1.00  0.00     0.076 A 
ATOM     86  N   UNL     1       8.323   4.326   5.270  1.00  0.00    -0.211 NA
ATOM     87  C   UNL     1       7.140   2.528   6.921  1.00  0.00     0.076 A 
ATOM     88  C   UNL     1       8.970   3.269   5.783  1.00  0.00     0.162 A 
ATOM     89  N   UNL     1       8.437   2.352   6.603  1.00  0.00    -0.228 NA
BRANCH  87  90
ATOM     90  C   UNL     1       6.542   1.483   7.763  1.00  0.00     0.000 A 
ATOM     91  C   UNL     1       7.151   1.090   8.966  1.00  0.00     0.010 A 
ATOM     92  C   UNL     1       5.352   0.837   7.383  1.00  0.00     0.010 A 
ATOM     93  C   UNL     1       6.584   0.097   9.769  1.00  0.00     0.001 A 
ATOM     94  C   UNL     1       4.789  -0.162   8.180  1.00  0.00     0.001 A 
ATOM     95  C   UNL     1       5.403  -0.528   9.374  1.00  0.00     0.000 A 
ENDBRANCH  87  90
BRANCH  88  96
ATOM     96  C   UNL     1      10.364   3.088   5.377  1.00  0.00     0.021 A 
ATOM     97  C   UNL     1      11.297   4.135   5.499  1.00  0.00     0.012 A 
ATOM     98  C   UNL     1      10.800   1.869   4.830  1.00  0.00     0.032 A 
ATOM     99  C   UNL     1      12.625   3.967   5.099  1.00  0.00     0.002 A 
ATOM    100  C   UNL     1      12.121   1.712   4.414  1.00  0.00     0.041 A 
ATOM    101  C   UNL     1      13.036   2.754   4.550  1.00  0.00     0.020 A 
ATOM    102  Cl  UNL     1      12.625   0.223   3.714  1.00  0.00    -0.084 Cl
ENDBRANCH  88  96
ENDBRANCH  80  84
ENDBRANCH  75  78
ENDBRANCH  73  74
ENDBRANCH  72  73
ENDBRANCH   1  72
TORSDOF 17
