REMARK SMILES C[C@@H]1CCc2nc(NC(=O)[C@H]3CC=CC[C@@H]3C(=O)NCCCCNC(=O)c3ccc(-c4c5nc(c(-c6cc(S(=O)(=O)[O-])ccc6F)c6ccc([nH]6)c(-c6cc(S(=O)(=O)[O-])ccc6F)c6nc(c(-c7cc(S(=O)(=O)[O-])ccc7F)c7ccc4[nH]7)C=C6)C=C5)cc3)sc2C1
REMARK SMILES IDX 22 1 21 2 20 3 19 4 17 5 18 6 16 8 11 9 12 10 13 11 15 12
REMARK SMILES IDX 14 13 9 14 8 15 10 17 7 18 1 19 2 20 3 21 92 22 4 23 91 24
REMARK SMILES IDX 5 25 90 26 6 27 23 28 24 29 25 30 26 32 27 33 28 34 89 35
REMARK SMILES IDX 29 36 88 37 30 38 31 39 32 40 82 41 33 42 87 43 81 44 83 45
REMARK SMILES IDX 34 46 86 47 80 48 79 49 35 51 67 52 47 53 66 54 48 55 51 56
REMARK SMILES IDX 65 57 84 58 49 59 50 60 64 62 85 63 52 64 36 65 37 66 45 67
REMARK SMILES IDX 38 68 44 69 46 70 43 71 39 72 40 73 41 74 42 75 68 76 69 77
REMARK SMILES IDX 77 78 70 79 76 80 78 81 75 82 71 83 72 84 73 85 74 86 53 87
REMARK SMILES IDX 54 88 62 89 55 90 61 91 63 92 60 93 56 94 57 95 58 96 59 97
REMARK H PARENT 19 7 8 16 24 31 83 50 51 61
REMARK Flexibility Score: inf
ROOT
ATOM      1  C   UNL     1      -8.434   6.367   4.464  1.00  0.00     0.023 C 
ENDROOT
BRANCH   1   2
ATOM      2  C   UNL     1      -7.981   6.713   3.038  1.00  0.00     0.023 C 
BRANCH   2   3
ATOM      3  C   UNL     1      -6.475   6.880   2.817  1.00  0.00     0.116 C 
BRANCH   3   4
ATOM      4  N   UNL     1      -5.729   5.686   3.161  1.00  0.00    -0.356 N 
ATOM      5  C   UNL     1      -4.785   5.000   2.458  1.00  0.00     0.224 C 
ATOM      6  O   UNL     1      -4.376   3.952   2.965  1.00  0.00    -0.275 OA
ATOM      7  H   UNL     1      -5.937   5.311   4.047  1.00  0.00     0.163 HD
BRANCH   5   8
ATOM      8  C   UNL     1      -4.323   5.482   1.077  1.00  0.00     0.095 C 
ATOM      9  C   UNL     1      -3.445   4.383   0.414  1.00  0.00     0.095 C 
ATOM     10  C   UNL     1      -2.026   4.324   1.028  1.00  0.00     0.041 C 
ATOM     11  C   UNL     1      -1.448   5.642   1.433  1.00  0.00    -0.030 C 
ATOM     12  C   UNL     1      -3.611   6.845   1.135  1.00  0.00     0.041 C 
ATOM     13  C   UNL     1      -2.152   6.777   1.458  1.00  0.00    -0.030 C 
BRANCH   9  14
ATOM     14  C   UNL     1      -3.398   4.507  -1.113  1.00  0.00     0.230 C 
ATOM     15  N   UNL     1      -2.829   3.566  -1.921  1.00  0.00    -0.302 N 
ATOM     16  H   UNL     1      -2.756   3.851  -2.861  1.00  0.00     0.172 HD
ATOM     17  O   UNL     1      -3.869   5.502  -1.678  1.00  0.00    -0.274 OA
BRANCH  15  18
ATOM     18  C   UNL     1      -2.337   2.308  -1.696  1.00  0.00     0.189 A 
ATOM     19  C   UNL     1       1.459  -0.284   0.134  1.00  0.00     0.008 C 
ATOM     20  C   UNL     1       0.361  -1.271  -0.288  1.00  0.00    -0.009 C 
ATOM     21  C   UNL     1       0.368  -1.511  -1.819  1.00  0.00     0.010 C 
ATOM     22  C   UNL     1      -1.038  -0.798   0.174  1.00  0.00     0.052 C 
ATOM     23  C   UNL     1       0.025  -0.253  -2.647  1.00  0.00     0.058 C 
ATOM     24  C   UNL     1      -1.525   0.277  -0.731  1.00  0.00     0.030 A 
ATOM     25  C   UNL     1      -1.052   0.549  -1.996  1.00  0.00     0.057 A 
ATOM     26  S   UNL     1      -2.743   1.375  -0.325  1.00  0.00    -0.101 S 
ATOM     27  N   UNL     1      -1.554   1.705  -2.567  1.00  0.00    -0.225 NA
ENDBRANCH  15  18
ENDBRANCH   9  14
ENDBRANCH   5   8
ENDBRANCH   3   4
ENDBRANCH   2   3
ENDBRANCH   1   2
BRANCH   1  28
ATOM     28  C   UNL     1      -7.997   7.358   5.534  1.00  0.00     0.116 C 
BRANCH  28  29
ATOM     29  N   UNL     1      -8.573   8.687   5.351  1.00  0.00    -0.352 N 
ATOM     30  C   UNL     1      -8.391   9.803   6.149  1.00  0.00     0.251 C 
ATOM     31  H   UNL     1      -9.160   8.803   4.569  1.00  0.00     0.163 HD
ATOM     32  O   UNL     1      -9.199  10.721   6.125  1.00  0.00    -0.269 OA
BRANCH  30  33
ATOM     33  C   UNL     1      -7.207   9.857   7.031  1.00  0.00     0.039 A 
ATOM     34  C   UNL     1      -7.294  10.335   8.342  1.00  0.00     0.014 A 
ATOM     35  C   UNL     1      -5.998   9.384   6.527  1.00  0.00     0.014 A 
ATOM     36  C   UNL     1      -6.172  10.247   9.168  1.00  0.00     0.010 A 
ATOM     37  C   UNL     1      -4.942   9.169   7.377  1.00  0.00     0.010 A 
ATOM     38  C   UNL     1      -5.001   9.641   8.685  1.00  0.00    -0.014 A 
BRANCH  38  39
ATOM     39  C   UNL     1      -3.869   9.365   9.570  1.00  0.00     0.031 A 
ATOM     40  C   UNL     1      -4.203   8.527  10.756  1.00  0.00     0.074 A 
ATOM     41  C   UNL     1      -2.586   9.608   9.219  1.00  0.00     0.049 A 
ATOM     42  N   UNL     1      -4.189   8.867  12.002  1.00  0.00    -0.248 NA
ATOM     43  C   UNL     1      -4.768   7.188  10.519  1.00  0.00     0.031 C 
ATOM     44  C   UNL     1      -2.092  10.125   7.936  1.00  0.00     0.029 A 
ATOM     45  N   UNL     1      -1.432   9.319   9.883  1.00  0.00    -0.354 N 
ATOM     46  C   UNL     1      -4.495   7.711  12.719  1.00  0.00     0.074 A 
ATOM     47  C   UNL     1      -5.058   6.799  11.762  1.00  0.00     0.031 C 
ATOM     48  C   UNL     1      -0.768   9.884   7.826  1.00  0.00     0.029 A 
ATOM     49  C   UNL     1      -0.284   9.366   9.093  1.00  0.00     0.049 A 
ATOM     50  H   UNL     1      -1.410   9.096  10.842  1.00  0.00     0.167 HD
ATOM     51  C   UNL     1      -4.015   7.516  13.980  1.00  0.00     0.034 A 
ATOM     52  C   UNL     1       0.978   8.989   9.432  1.00  0.00     0.034 A 
ATOM     53  C   UNL     1      -3.514   8.758  14.531  1.00  0.00     0.049 A 
ATOM     54  C   UNL     1       1.040   8.989  10.912  1.00  0.00     0.074 A 
ATOM     55  C   UNL     1      -4.062  10.001  14.784  1.00  0.00     0.029 A 
ATOM     56  N   UNL     1      -2.149   8.947  14.543  1.00  0.00    -0.354 N 
ATOM     57  N   UNL     1       0.913  10.069  11.633  1.00  0.00    -0.248 NA
ATOM     58  C   UNL     1       0.761   7.744  11.612  1.00  0.00     0.031 C 
ATOM     59  C   UNL     1      -3.040  10.931  14.432  1.00  0.00     0.029 A 
ATOM     60  C   UNL     1      -1.896  10.212  14.075  1.00  0.00     0.049 A 
ATOM     61  H   UNL     1      -1.475   8.291  14.834  1.00  0.00     0.167 HD
ATOM     62  C   UNL     1       0.123   9.690  12.708  1.00  0.00     0.074 A 
ATOM     63  C   UNL     1       0.161   8.229  12.703  1.00  0.00     0.031 C 
ATOM     64  C   UNL     1      -0.712  10.583  13.319  1.00  0.00     0.034 A 
BRANCH  51  65
ATOM     65  C   UNL     1      -3.628   6.173  14.577  1.00  0.00     0.023 A 
ATOM     66  C   UNL     1      -3.081   6.187  15.877  1.00  0.00     0.031 A 
ATOM     67  C   UNL     1      -3.487   4.956  13.874  1.00  0.00     0.131 A 
ATOM     68  C   UNL     1      -2.330   5.101  16.363  1.00  0.00     0.055 A 
ATOM     69  C   UNL     1      -2.799   3.852  14.390  1.00  0.00     0.041 A 
ATOM     70  F   UNL     1      -3.923   4.781  12.623  1.00  0.00    -0.206 F 
ATOM     71  C   UNL     1      -2.182   3.933  15.625  1.00  0.00     0.022 A 
BRANCH  68  72
ATOM     72  S   UNL     1      -1.390   5.325  17.895  1.00  0.00     0.124 S 
ATOM     73  O   UNL     1      -0.623   6.529  17.591  1.00  0.00    -0.237 OA
ATOM     74  O   UNL     1      -2.455   5.469  18.881  1.00  0.00    -0.237 OA
ATOM     75  O   UNL     1      -0.609   4.095  17.994  1.00  0.00    -0.744 OA
ENDBRANCH  68  72
ENDBRANCH  51  65
BRANCH  52  76
ATOM     76  C   UNL     1       1.991   8.337   8.556  1.00  0.00     0.023 A 
ATOM     77  C   UNL     1       3.380   8.381   8.803  1.00  0.00     0.031 A 
ATOM     78  C   UNL     1       1.555   7.438   7.555  1.00  0.00     0.131 A 
ATOM     79  C   UNL     1       4.262   7.551   8.066  1.00  0.00     0.055 A 
ATOM     80  C   UNL     1       2.429   6.625   6.830  1.00  0.00     0.041 A 
ATOM     81  F   UNL     1       0.247   7.263   7.306  1.00  0.00    -0.206 F 
ATOM     82  C   UNL     1       3.788   6.673   7.089  1.00  0.00     0.022 A 
BRANCH  79  83
ATOM     83  S   UNL     1       6.052   7.549   8.420  1.00  0.00     0.124 S 
ATOM     84  O   UNL     1       6.439   8.917   8.097  1.00  0.00    -0.237 OA
ATOM     85  O   UNL     1       6.090   7.178   9.830  1.00  0.00    -0.237 OA
ATOM     86  O   UNL     1       6.580   6.533   7.508  1.00  0.00    -0.744 OA
ENDBRANCH  79  83
ENDBRANCH  52  76
BRANCH  64  87
ATOM     87  C   UNL     1      -0.518  12.061  13.040  1.00  0.00     0.023 A 
ATOM     88  C   UNL     1      -0.602  12.672  11.767  1.00  0.00     0.031 A 
ATOM     89  C   UNL     1      -0.361  12.901  14.157  1.00  0.00     0.131 A 
ATOM     90  C   UNL     1      -0.521  14.076  11.655  1.00  0.00     0.055 A 
ATOM     91  C   UNL     1      -0.305  14.288  14.043  1.00  0.00     0.041 A 
ATOM     92  F   UNL     1      -0.300  12.382  15.395  1.00  0.00    -0.206 F 
ATOM     93  C   UNL     1      -0.380  14.881  12.790  1.00  0.00     0.022 A 
BRANCH  90  94
ATOM     94  S   UNL     1      -0.582  14.890  10.024  1.00  0.00     0.124 S 
ATOM     95  O   UNL     1       0.366  14.124   9.223  1.00  0.00    -0.237 OA
ATOM     96  O   UNL     1      -1.988  14.754   9.654  1.00  0.00    -0.237 OA
ATOM     97  O   UNL     1      -0.162  16.263  10.313  1.00  0.00    -0.744 OA
ENDBRANCH  90  94
ENDBRANCH  64  87
ENDBRANCH  38  39
ENDBRANCH  30  33
ENDBRANCH  28  29
ENDBRANCH   1  28
TORSDOF 16
