REMARK SMILES CSc1ncccc1C(=O)N1CSC[C@H]1C(=O)NCCCCNC(=O)c1ccc(-c2c3nc(c(-c4cc(S(=O)(=O)[O-])ccc4F)c4ccc([nH]4)c(-c4cc(S(=O)(=O)[O-])ccc4F)c4nc(c(-c5cc(S(=O)(=O)[O-])ccc5F)c5ccc2[nH]5)C=C4)C=C3)cc1
REMARK SMILES IDX 20 1 19 2 18 3 16 4 17 5 15 7 11 8 12 9 13 10 14 11 9 12
REMARK SMILES IDX 10 13 8 14 3 15 4 16 5 17 7 18 6 19 2 20 1 21 21 22 22 23
REMARK SMILES IDX 23 24 24 25 25 27 26 28 27 29 88 30 28 31 87 32 29 33 30 34
REMARK SMILES IDX 31 35 81 36 32 37 86 38 80 39 82 40 33 41 85 42 79 43 78 44
REMARK SMILES IDX 34 46 66 47 46 48 65 49 47 50 50 51 64 52 83 53 48 54 49 55
REMARK SMILES IDX 63 57 84 58 51 59 35 60 36 61 44 62 37 63 43 64 45 65 42 66
REMARK SMILES IDX 38 67 39 68 40 69 41 70 67 71 68 72 76 73 69 74 75 75 77 76
REMARK SMILES IDX 74 77 70 78 71 79 72 80 73 81 52 82 53 83 61 84 54 85 60 86
REMARK SMILES IDX 62 87 59 88 55 89 56 90 57 91 58 92
REMARK H PARENT 18 6 23 26 82 45 50 56
REMARK Flexibility Score: inf
ROOT
ATOM      1  C   UNL     1       0.435  -6.141   4.720  1.00  0.00     0.023 C 
ENDROOT
BRANCH   1   2
ATOM      2  C   UNL     1      -0.860  -6.904   4.471  1.00  0.00     0.116 C 
BRANCH   2   3
ATOM      3  N   UNL     1      -1.975  -6.028   4.196  1.00  0.00    -0.354 N 
ATOM      4  C   UNL     1      -2.624  -5.751   3.031  1.00  0.00     0.243 C 
ATOM      5  O   UNL     1      -3.728  -5.202   3.136  1.00  0.00    -0.273 OA
ATOM      6  H   UNL     1      -2.325  -5.551   4.983  1.00  0.00     0.163 HD
BRANCH   4   7
ATOM      7  C   UNL     1      -2.133  -6.239   1.649  1.00  0.00     0.185 C 
ATOM      8  N   UNL     1      -0.784  -5.834   1.210  1.00  0.00    -0.316 N 
ATOM      9  C   UNL     1       0.179  -6.910   1.140  1.00  0.00     0.190 C 
ATOM     10  S   UNL     1      -0.774  -8.392   0.756  1.00  0.00    -0.138 SA
ATOM     11  C   UNL     1      -2.307  -7.753   1.498  1.00  0.00     0.106 C 
BRANCH   8  12
ATOM     12  C   UNL     1      -0.645  -4.537   0.710  1.00  0.00     0.257 C 
ATOM     13  O   UNL     1      -1.476  -3.667   0.958  1.00  0.00    -0.269 OA
BRANCH  12  14
ATOM     14  C   UNL     1       0.408  -4.222  -0.290  1.00  0.00     0.072 A 
ATOM     15  C   UNL     1       1.119  -3.017  -0.310  1.00  0.00     0.108 A 
ATOM     16  N   UNL     1       2.003  -2.720  -1.307  1.00  0.00    -0.249 NA
ATOM     17  C   UNL     1       2.155  -3.599  -2.318  1.00  0.00     0.112 A 
ATOM     18  C   UNL     1       0.559  -5.085  -1.389  1.00  0.00     0.018 A 
ATOM     19  C   UNL     1       1.460  -4.785  -2.404  1.00  0.00     0.021 A 
BRANCH  15  20
ATOM     20  S   UNL     1       1.000  -1.757   0.951  1.00  0.00    -0.109 SA
ATOM     21  C   UNL     1       1.208  -0.276  -0.079  1.00  0.00     0.092 C 
ENDBRANCH  15  20
ENDBRANCH  12  14
ENDBRANCH   8  12
ENDBRANCH   4   7
ENDBRANCH   2   3
ENDBRANCH   1   2
BRANCH   1  22
ATOM     22  C   UNL     1       0.550  -5.519   6.114  1.00  0.00     0.023 C 
BRANCH  22  23
ATOM     23  C   UNL     1       0.388  -6.488   7.283  1.00  0.00     0.116 C 
BRANCH  23  24
ATOM     24  N   UNL     1       1.275  -7.639   7.212  1.00  0.00    -0.352 N 
ATOM     25  C   UNL     1       1.844  -8.350   8.241  1.00  0.00     0.251 C 
ATOM     26  H   UNL     1       1.498  -7.950   6.305  1.00  0.00     0.163 HD
ATOM     27  O   UNL     1       2.660  -9.233   7.989  1.00  0.00    -0.269 OA
BRANCH  25  28
ATOM     28  C   UNL     1       1.503  -8.018   9.642  1.00  0.00     0.039 A 
ATOM     29  C   UNL     1       2.538  -7.892  10.571  1.00  0.00     0.014 A 
ATOM     30  C   UNL     1       0.177  -7.815  10.035  1.00  0.00     0.014 A 
ATOM     31  C   UNL     1       2.247  -7.500  11.880  1.00  0.00     0.010 A 
ATOM     32  C   UNL     1      -0.103  -7.355  11.319  1.00  0.00     0.010 A 
ATOM     33  C   UNL     1       0.928  -7.196  12.256  1.00  0.00    -0.014 A 
BRANCH  33  34
ATOM     34  C   UNL     1       0.621  -6.713  13.628  1.00  0.00     0.031 A 
ATOM     35  C   UNL     1      -0.235  -7.540  14.549  1.00  0.00     0.074 A 
ATOM     36  C   UNL     1       1.078  -5.509  14.025  1.00  0.00     0.049 A 
ATOM     37  N   UNL     1      -0.622  -7.283  15.772  1.00  0.00    -0.248 NA
ATOM     38  C   UNL     1      -0.749  -8.808  14.011  1.00  0.00     0.031 C 
ATOM     39  C   UNL     1       1.867  -4.591  13.198  1.00  0.00     0.029 A 
ATOM     40  N   UNL     1       0.948  -4.848  15.220  1.00  0.00    -0.354 N 
ATOM     41  C   UNL     1      -1.431  -8.351  16.147  1.00  0.00     0.074 A 
ATOM     42  C   UNL     1      -1.533  -9.221  14.995  1.00  0.00     0.031 C 
ATOM     43  C   UNL     1       2.175  -3.503  13.921  1.00  0.00     0.029 A 
ATOM     44  C   UNL     1       1.580  -3.626  15.248  1.00  0.00     0.049 A 
ATOM     45  H   UNL     1       0.449  -5.213  15.985  1.00  0.00     0.167 HD
ATOM     46  C   UNL     1      -2.013  -8.595  17.348  1.00  0.00     0.034 A 
ATOM     47  C   UNL     1       1.671  -2.709  16.232  1.00  0.00     0.034 A 
ATOM     48  C   UNL     1      -1.892  -7.719  18.489  1.00  0.00     0.049 A 
ATOM     49  C   UNL     1       1.023  -3.006  17.560  1.00  0.00     0.074 A 
ATOM     50  C   UNL     1      -2.391  -7.893  19.768  1.00  0.00     0.029 A 
ATOM     51  N   UNL     1      -1.230  -6.497  18.487  1.00  0.00    -0.354 N 
ATOM     52  N   UNL     1       0.318  -4.054  17.921  1.00  0.00    -0.248 NA
ATOM     53  C   UNL     1       1.204  -2.006  18.619  1.00  0.00     0.031 C 
ATOM     54  C   UNL     1      -2.088  -6.750  20.518  1.00  0.00     0.029 A 
ATOM     55  C   UNL     1      -1.331  -5.895  19.733  1.00  0.00     0.049 A 
ATOM     56  H   UNL     1      -0.758  -6.113  17.713  1.00  0.00     0.167 HD
ATOM     57  C   UNL     1      -0.004  -3.850  19.260  1.00  0.00     0.074 A 
ATOM     58  C   UNL     1       0.604  -2.592  19.645  1.00  0.00     0.031 C 
ATOM     59  C   UNL     1      -0.733  -4.632  20.098  1.00  0.00     0.034 A 
BRANCH  46  60
ATOM     60  C   UNL     1      -2.848  -9.849  17.472  1.00  0.00     0.023 A 
ATOM     61  C   UNL     1      -2.290 -11.129  17.302  1.00  0.00     0.031 A 
ATOM     62  C   UNL     1      -4.228  -9.765  17.730  1.00  0.00     0.131 A 
ATOM     63  C   UNL     1      -3.116 -12.263  17.309  1.00  0.00     0.055 A 
ATOM     64  C   UNL     1      -5.031 -10.905  17.821  1.00  0.00     0.041 A 
ATOM     65  F   UNL     1      -4.825  -8.573  17.881  1.00  0.00    -0.206 F 
ATOM     66  C   UNL     1      -4.479 -12.162  17.594  1.00  0.00     0.022 A 
BRANCH  63  67
ATOM     67  S   UNL     1      -2.411 -13.852  16.791  1.00  0.00     0.124 S 
ATOM     68  O   UNL     1      -1.953 -13.543  15.438  1.00  0.00    -0.237 OA
ATOM     69  O   UNL     1      -1.367 -14.073  17.784  1.00  0.00    -0.237 OA
ATOM     70  O   UNL     1      -3.546 -14.770  16.861  1.00  0.00    -0.744 OA
ENDBRANCH  63  67
ENDBRANCH  46  60
BRANCH  47  71
ATOM     71  C   UNL     1       2.405  -1.431  16.008  1.00  0.00     0.023 A 
ATOM     72  C   UNL     1       3.575  -1.132  16.726  1.00  0.00     0.031 A 
ATOM     73  C   UNL     1       1.925  -0.471  15.100  1.00  0.00     0.131 A 
ATOM     74  C   UNL     1       4.198   0.114  16.560  1.00  0.00     0.055 A 
ATOM     75  C   UNL     1       2.579   0.746  14.900  1.00  0.00     0.041 A 
ATOM     76  F   UNL     1       0.816  -0.710  14.383  1.00  0.00    -0.206 F 
ATOM     77  C   UNL     1       3.715   1.050  15.643  1.00  0.00     0.022 A 
BRANCH  74  78
ATOM     78  S   UNL     1       5.608   0.529  17.623  1.00  0.00     0.124 S 
ATOM     79  O   UNL     1       5.027   0.396  18.954  1.00  0.00    -0.237 OA
ATOM     80  O   UNL     1       6.582  -0.490  17.244  1.00  0.00    -0.237 OA
ATOM     81  O   UNL     1       5.948   1.892  17.222  1.00  0.00    -0.744 OA
ENDBRANCH  74  78
ENDBRANCH  47  71
BRANCH  59  82
ATOM     82  C   UNL     1      -0.869  -4.158  21.526  1.00  0.00     0.023 A 
ATOM     83  C   UNL     1      -1.559  -2.977  21.851  1.00  0.00     0.031 A 
ATOM     84  C   UNL     1      -0.271  -4.882  22.572  1.00  0.00     0.131 A 
ATOM     85  C   UNL     1      -1.573  -2.517  23.176  1.00  0.00     0.055 A 
ATOM     86  C   UNL     1      -0.345  -4.455  23.898  1.00  0.00     0.041 A 
ATOM     87  F   UNL     1       0.403  -6.016  22.320  1.00  0.00    -0.206 F 
ATOM     88  C   UNL     1      -0.984  -3.257  24.205  1.00  0.00     0.022 A 
BRANCH  85  89
ATOM     89  S   UNL     1      -2.269  -0.878  23.522  1.00  0.00     0.124 S 
ATOM     90  O   UNL     1      -1.484  -0.022  22.638  1.00  0.00    -0.237 OA
ATOM     91  O   UNL     1      -3.671  -1.053  23.160  1.00  0.00    -0.237 OA
ATOM     92  O   UNL     1      -2.016  -0.692  24.950  1.00  0.00    -0.744 OA
ENDBRANCH  85  89
ENDBRANCH  59  82
ENDBRANCH  33  34
ENDBRANCH  25  28
ENDBRANCH  23  24
ENDBRANCH  22  23
ENDBRANCH   1  22
TORSDOF 17
