REMARK SMILES O=C(NCCCCNC(=O)c1ccc(N2C(=O)C[C@H]([NH+]3CCN(c4ccc(F)cc4)CC3)C2=O)cc1)c1ccc(-c2c3nc(c(-c4cc(S(=O)(=O)[O-])ccc4F)c4ccc([nH]4)c(-c4cc(S(=O)(=O)[O-])ccc4F)c4nc(c(-c5cc(S(=O)(=O)[O-])ccc5F)c5ccc2[nH]5)C=C4)C=C3)cc1
REMARK SMILES IDX 5 1 4 2 3 3 1 4 2 5 37 7 38 8 99 9 39 10 98 11 40 12 41 13
REMARK SMILES IDX 42 14 92 15 43 16 97 17 91 18 93 19 44 20 96 21 90 22 89 23
REMARK SMILES IDX 45 25 77 26 57 27 76 28 58 29 61 30 75 31 94 32 59 33 60 34
REMARK SMILES IDX 74 36 95 37 62 38 46 39 47 40 55 41 48 42 54 43 56 44 53 45
REMARK SMILES IDX 49 46 50 47 51 48 52 49 78 50 79 51 87 52 80 53 86 54 88 55
REMARK SMILES IDX 85 56 81 57 82 58 83 59 84 60 63 61 64 62 72 63 65 64 71 65
REMARK SMILES IDX 73 66 70 67 66 68 67 69 68 70 69 71 6 72 7 73 8 74 9 75
REMARK SMILES IDX 10 77 11 78 12 79 36 80 13 81 35 82 14 83 15 84 16 85 33 86
REMARK SMILES IDX 17 87 18 88 19 89 34 90 20 91 21 92 32 93 22 95 31 96 23 97
REMARK SMILES IDX 24 98 25 99 30 100 26 101 29 102 27 103 28 104
REMARK H PARENT 3 6 93 24 61 35 8 76 20 94
REMARK Flexibility Score: inf
ROOT
ATOM      1  C   UNL     1       4.798  -2.535  -0.640  1.00  0.00     0.023 C 
ENDROOT
BRANCH   1   2
ATOM      2  C   UNL     1       4.508  -1.041  -0.682  1.00  0.00     0.116 C 
BRANCH   2   3
ATOM      3  N   UNL     1       3.088  -0.728  -0.770  1.00  0.00    -0.352 N 
ATOM      4  O   UNL     1       1.121   0.187  -0.142  1.00  0.00    -0.269 OA
ATOM      5  C   UNL     1       2.337   0.122   0.012  1.00  0.00     0.251 C 
ATOM      6  H   UNL     1       2.596  -1.188  -1.488  1.00  0.00     0.163 HD
BRANCH   5   7
ATOM      7  C   UNL     1       3.003   0.927   1.060  1.00  0.00     0.039 A 
ATOM      8  C   UNL     1       4.183   1.617   0.780  1.00  0.00     0.014 A 
ATOM      9  C   UNL     1       2.465   0.949   2.350  1.00  0.00     0.014 A 
ATOM     10  C   UNL     1       4.920   2.166   1.823  1.00  0.00     0.010 A 
ATOM     11  C   UNL     1       3.162   1.590   3.381  1.00  0.00     0.010 A 
ATOM     12  C   UNL     1       4.422   2.159   3.137  1.00  0.00    -0.014 A 
BRANCH  12  13
ATOM     13  C   UNL     1       5.242   2.760   4.224  1.00  0.00     0.031 A 
ATOM     14  C   UNL     1       5.772   1.918   5.356  1.00  0.00     0.074 A 
ATOM     15  C   UNL     1       5.557   4.068   4.151  1.00  0.00     0.049 A 
ATOM     16  N   UNL     1       6.544   2.269   6.354  1.00  0.00    -0.248 NA
ATOM     17  C   UNL     1       5.373   0.504   5.378  1.00  0.00     0.031 C 
ATOM     18  C   UNL     1       5.096   4.986   3.105  1.00  0.00     0.029 A 
ATOM     19  N   UNL     1       6.359   4.848   4.944  1.00  0.00    -0.354 N 
ATOM     20  C   UNL     1       6.704   1.129   7.137  1.00  0.00     0.074 A 
ATOM     21  C   UNL     1       5.920   0.085   6.511  1.00  0.00     0.031 C 
ATOM     22  C   UNL     1       5.673   6.182   3.284  1.00  0.00     0.029 A 
ATOM     23  C   UNL     1       6.489   6.141   4.492  1.00  0.00     0.049 A 
ATOM     24  H   UNL     1       6.799   4.514   5.759  1.00  0.00     0.167 HD
ATOM     25  C   UNL     1       7.441   0.969   8.266  1.00  0.00     0.034 A 
ATOM     26  C   UNL     1       7.179   7.181   4.996  1.00  0.00     0.034 A 
ATOM     27  C   UNL     1       8.233   2.018   8.866  1.00  0.00     0.049 A 
ATOM     28  C   UNL     1       7.980   6.979   6.253  1.00  0.00     0.074 A 
ATOM     29  C   UNL     1       9.048   1.952   9.984  1.00  0.00     0.029 A 
ATOM     30  N   UNL     1       8.307   3.326   8.403  1.00  0.00    -0.354 N 
ATOM     31  N   UNL     1       8.132   5.889   6.969  1.00  0.00    -0.248 NA
ATOM     32  C   UNL     1       8.704   8.148   6.766  1.00  0.00     0.031 C 
ATOM     33  C   UNL     1       9.562   3.230  10.233  1.00  0.00     0.029 A 
ATOM     34  C   UNL     1       9.128   4.081   9.229  1.00  0.00     0.049 A 
ATOM     35  H   UNL     1       7.843   3.668   7.605  1.00  0.00     0.167 HD
ATOM     36  C   UNL     1       8.989   6.238   8.008  1.00  0.00     0.074 A 
ATOM     37  C   UNL     1       9.335   7.631   7.810  1.00  0.00     0.031 C 
ATOM     38  C   UNL     1       9.449   5.475   9.032  1.00  0.00     0.034 A 
BRANCH  25  39
ATOM     39  C   UNL     1       7.383  -0.378   8.952  1.00  0.00     0.023 A 
ATOM     40  C   UNL     1       7.865  -1.548   8.341  1.00  0.00     0.031 A 
ATOM     41  C   UNL     1       6.813  -0.493  10.233  1.00  0.00     0.131 A 
ATOM     42  C   UNL     1       7.706  -2.789   8.979  1.00  0.00     0.055 A 
ATOM     43  C   UNL     1       6.727  -1.720  10.895  1.00  0.00     0.041 A 
ATOM     44  F   UNL     1       6.317   0.585  10.860  1.00  0.00    -0.206 F 
ATOM     45  C   UNL     1       7.162  -2.880  10.262  1.00  0.00     0.022 A 
BRANCH  42  46
ATOM     46  S   UNL     1       8.089  -4.300   8.049  1.00  0.00     0.124 S 
ATOM     47  O   UNL     1       7.220  -4.158   6.883  1.00  0.00    -0.237 OA
ATOM     48  O   UNL     1       9.519  -4.163   7.800  1.00  0.00    -0.237 OA
ATOM     49  O   UNL     1       7.714  -5.373   8.967  1.00  0.00    -0.744 OA
ENDBRANCH  42  46
ENDBRANCH  25  39
BRANCH  26  50
ATOM     50  C   UNL     1       7.130   8.509   4.322  1.00  0.00     0.023 A 
ATOM     51  C   UNL     1       8.281   9.074   3.752  1.00  0.00     0.031 A 
ATOM     52  C   UNL     1       5.931   9.242   4.258  1.00  0.00     0.131 A 
ATOM     53  C   UNL     1       8.217  10.352   3.175  1.00  0.00     0.055 A 
ATOM     54  C   UNL     1       5.862  10.489   3.638  1.00  0.00     0.041 A 
ATOM     55  F   UNL     1       4.801   8.741   4.783  1.00  0.00    -0.206 F 
ATOM     56  C   UNL     1       7.013  11.057   3.102  1.00  0.00     0.022 A 
BRANCH  53  57
ATOM     57  S   UNL     1       9.752  11.115   2.584  1.00  0.00     0.124 S 
ATOM     58  O   UNL     1      10.568  11.121   3.793  1.00  0.00    -0.237 OA
ATOM     59  O   UNL     1      10.166  10.188   1.535  1.00  0.00    -0.237 OA
ATOM     60  O   UNL     1       9.320  12.430   2.115  1.00  0.00    -0.744 OA
ENDBRANCH  53  57
ENDBRANCH  26  50
BRANCH  38  61
ATOM     61  C   UNL     1      10.409   6.138   9.989  1.00  0.00     0.023 A 
ATOM     62  C   UNL     1      10.004   7.186  10.834  1.00  0.00     0.031 A 
ATOM     63  C   UNL     1      11.758   5.743  10.023  1.00  0.00     0.131 A 
ATOM     64  C   UNL     1      10.952   7.848  11.629  1.00  0.00     0.055 A 
ATOM     65  C   UNL     1      12.684   6.365  10.861  1.00  0.00     0.041 A 
ATOM     66  F   UNL     1      12.200   4.750   9.235  1.00  0.00    -0.206 F 
ATOM     67  C   UNL     1      12.287   7.435  11.658  1.00  0.00     0.022 A 
BRANCH  64  68
ATOM     68  S   UNL     1      10.440   9.329  12.543  1.00  0.00     0.124 S 
ATOM     69  O   UNL     1       9.925  10.182  11.476  1.00  0.00    -0.237 OA
ATOM     70  O   UNL     1       9.445   8.796  13.468  1.00  0.00    -0.237 OA
ATOM     71  O   UNL     1      11.678   9.794  13.165  1.00  0.00    -0.744 OA
ENDBRANCH  64  68
ENDBRANCH  38  61
ENDBRANCH  12  13
ENDBRANCH   5   7
ENDBRANCH   2   3
ENDBRANCH   1   2
BRANCH   1  72
ATOM     72  C   UNL     1       4.344  -3.326  -1.864  1.00  0.00     0.023 C 
BRANCH  72  73
ATOM     73  C   UNL     1       4.797  -2.760  -3.207  1.00  0.00     0.116 C 
BRANCH  73  74
ATOM     74  N   UNL     1       6.245  -2.700  -3.332  1.00  0.00    -0.352 N 
ATOM     75  C   UNL     1       7.044  -3.317  -4.259  1.00  0.00     0.251 C 
ATOM     76  H   UNL     1       6.711  -2.146  -2.665  1.00  0.00     0.163 HD
ATOM     77  O   UNL     1       8.267  -3.246  -4.213  1.00  0.00    -0.269 OA
BRANCH  75  78
ATOM     78  C   UNL     1       6.401  -4.097  -5.325  1.00  0.00     0.039 A 
ATOM     79  C   UNL     1       6.506  -5.484  -5.306  1.00  0.00     0.016 A 
ATOM     80  C   UNL     1       5.652  -3.453  -6.309  1.00  0.00     0.016 A 
ATOM     81  C   UNL     1       5.800  -6.237  -6.247  1.00  0.00     0.027 A 
ATOM     82  C   UNL     1       4.962  -4.215  -7.256  1.00  0.00     0.027 A 
ATOM     83  C   UNL     1       5.006  -5.620  -7.231  1.00  0.00     0.052 A 
BRANCH  83  84
ATOM     84  N   UNL     1       4.269  -6.395  -8.172  1.00  0.00    -0.245 N 
ATOM     85  C   UNL     1       3.886  -5.947  -9.414  1.00  0.00     0.240 C 
ATOM     86  C   UNL     1       3.822  -7.682  -7.938  1.00  0.00     0.292 C 
ATOM     87  O   UNL     1       4.037  -4.845  -9.925  1.00  0.00    -0.274 OA
ATOM     88  C   UNL     1       3.292  -7.084 -10.181  1.00  0.00     0.176 C 
ATOM     89  C   UNL     1       2.967  -8.117  -9.126  1.00  0.00     0.284 C 
ATOM     90  O   UNL     1       3.984  -8.375  -6.941  1.00  0.00    -0.267 OA
BRANCH  89  91
ATOM     91  N   UNL     1       1.562  -8.317  -8.730  1.00  0.00    -0.321 N 
ATOM     92  C   UNL     1       0.822  -7.163  -8.185  1.00  0.00     0.284 C 
ATOM     93  C   UNL     1       0.740  -9.034  -9.722  1.00  0.00     0.284 C 
ATOM     94  H   UNL     1       1.711  -8.925  -7.925  1.00  0.00     0.348 HD
ATOM     95  C   UNL     1       0.136  -6.231  -9.211  1.00  0.00     0.178 C 
ATOM     96  C   UNL     1       0.034  -8.171 -10.793  1.00  0.00     0.178 C 
ATOM     97  N   UNL     1      -0.633  -7.016 -10.182  1.00  0.00    -0.360 N 
BRANCH  97  98
ATOM     98  C   UNL     1      -1.728  -6.457 -10.816  1.00  0.00     0.037 A 
ATOM     99  C   UNL     1      -1.771  -5.106 -11.193  1.00  0.00     0.029 A 
ATOM    100  C   UNL     1      -2.868  -7.240 -11.059  1.00  0.00     0.029 A 
ATOM    101  C   UNL     1      -2.914  -4.556 -11.783  1.00  0.00     0.041 A 
ATOM    102  C   UNL     1      -4.018  -6.694 -11.634  1.00  0.00     0.041 A 
ATOM    103  C   UNL     1      -4.029  -5.354 -11.991  1.00  0.00     0.123 A 
ATOM    104  F   UNL     1      -5.133  -4.825 -12.535  1.00  0.00    -0.207 F 
ENDBRANCH  97  98
ENDBRANCH  89  91
ENDBRANCH  83  84
ENDBRANCH  75  78
ENDBRANCH  73  74
ENDBRANCH  72  73
ENDBRANCH   1  72
TORSDOF 17
