REMARK SMILES C=CCn1c(=S)[nH]c2cc(C(=O)NCCCCNC(=O)c3ccc(-c4c5nc(c(-c6cc(S(=O)(=O)[O-])ccc6F)c6ccc([nH]6)c(-c6cc(S(=O)(=O)[O-])ccc6F)c6nc(c(-c7cc(S(=O)(=O)[O-])ccc7F)c7ccc4[nH]7)C=C6)C=C5)cc3)ccc2c1=O
REMARK SMILES IDX 16 1 15 2 14 3 13 4 11 5 12 6 10 8 4 9 5 10 87 11 6 12 7 13
REMARK SMILES IDX 86 14 88 15 8 16 85 18 9 19 84 20 3 21 2 22 1 23 17 24 18 25
REMARK SMILES IDX 19 26 20 28 21 29 22 30 83 31 23 32 82 33 24 34 25 35 26 36
REMARK SMILES IDX 76 37 27 38 81 39 75 40 77 41 28 42 80 43 74 44 73 45 29 47
REMARK SMILES IDX 61 48 41 49 60 50 42 51 45 52 59 53 78 54 43 55 44 56 58 58
REMARK SMILES IDX 79 59 46 60 30 61 31 62 39 63 32 64 38 65 40 66 37 67 33 68
REMARK SMILES IDX 34 69 35 70 36 71 62 72 63 73 71 74 64 75 70 76 72 77 69 78
REMARK SMILES IDX 65 79 66 80 67 81 68 82 47 83 48 84 56 85 49 86 55 87 57 88
REMARK SMILES IDX 54 89 50 90 51 91 52 92 53 93
REMARK H PARENT 13 7 7 17 18 27 77 46 45 57
REMARK Flexibility Score: inf
ROOT
ATOM      1  C   UNL     1      -2.615  11.420   1.397  1.00  0.00     0.023 C 
ENDROOT
BRANCH   1   2
ATOM      2  C   UNL     1      -1.981  10.062   1.103  1.00  0.00     0.023 C 
BRANCH   2   3
ATOM      3  C   UNL     1      -1.208   9.449   2.275  1.00  0.00     0.116 C 
BRANCH   3   4
ATOM      4  N   UNL     1      -2.105   8.795   3.207  1.00  0.00    -0.352 N 
ATOM      5  C   UNL     1      -2.574   7.509   3.288  1.00  0.00     0.251 C 
ATOM      6  O   UNL     1      -3.303   7.230   4.241  1.00  0.00    -0.269 OA
ATOM      7  H   UNL     1      -2.442   9.387   3.917  1.00  0.00     0.163 HD
BRANCH   5   8
ATOM      8  C   UNL     1      -2.229   6.425   2.318  1.00  0.00     0.041 A 
ATOM      9  N   UNL     1      -1.481   1.816   0.354  1.00  0.00    -0.281 N 
ATOM     10  C   UNL     1      -2.033   1.603   1.617  1.00  0.00     0.180 A 
ATOM     11  C   UNL     1      -1.297   3.091  -0.198  1.00  0.00     0.262 A 
ATOM     12  S   UNL     1      -2.373   0.128   2.342  1.00  0.00    -0.040 S 
ATOM     13  N   UNL     1      -2.336   2.718   2.357  1.00  0.00    -0.332 N 
ATOM     14  C   UNL     1      -1.634   4.244   0.647  1.00  0.00     0.064 A 
ATOM     15  O   UNL     1      -0.866   3.301  -1.331  1.00  0.00    -0.269 OA
ATOM     16  C   UNL     1      -2.130   4.023   1.920  1.00  0.00     0.054 A 
ATOM     17  H   UNL     1      -2.723   2.586   3.252  1.00  0.00     0.169 HD
ATOM     18  C   UNL     1      -1.462   5.545   0.181  1.00  0.00     0.017 A 
ATOM     19  C   UNL     1      -2.424   5.101   2.758  1.00  0.00     0.040 A 
ATOM     20  C   UNL     1      -1.776   6.624   1.010  1.00  0.00     0.015 A 
BRANCH   9  21
ATOM     21  C   UNL     1      -1.043   0.712  -0.503  1.00  0.00     0.155 C 
BRANCH  21  22
ATOM     22  C   UNL     1       0.452   0.569  -0.383  1.00  0.00    -0.013 C 
ATOM     23  C   UNL     1       1.087  -0.461   0.190  1.00  0.00     0.006 C 
ENDBRANCH  21  22
ENDBRANCH   9  21
ENDBRANCH   5   8
ENDBRANCH   3   4
ENDBRANCH   2   3
ENDBRANCH   1   2
BRANCH   1  24
ATOM     24  C   UNL     1      -1.621  12.537   1.678  1.00  0.00     0.116 C 
BRANCH  24  25
ATOM     25  N   UNL     1      -0.683  12.775   0.591  1.00  0.00    -0.352 N 
ATOM     26  C   UNL     1      -0.045  13.953   0.263  1.00  0.00     0.251 C 
ATOM     27  H   UNL     1      -0.478  12.000   0.020  1.00  0.00     0.163 HD
ATOM     28  O   UNL     1       0.646  14.020  -0.743  1.00  0.00    -0.269 OA
BRANCH  26  29
ATOM     29  C   UNL     1      -0.260  15.140   1.120  1.00  0.00     0.039 A 
ATOM     30  C   UNL     1      -0.188  15.028   2.508  1.00  0.00     0.014 A 
ATOM     31  C   UNL     1      -0.605  16.358   0.528  1.00  0.00     0.014 A 
ATOM     32  C   UNL     1      -0.638  16.073   3.303  1.00  0.00     0.010 A 
ATOM     33  C   UNL     1      -0.961  17.444   1.335  1.00  0.00     0.010 A 
ATOM     34  C   UNL     1      -1.029  17.295   2.728  1.00  0.00    -0.014 A 
BRANCH  34  35
ATOM     35  C   UNL     1      -1.463  18.395   3.628  1.00  0.00     0.031 A 
ATOM     36  C   UNL     1      -2.871  18.921   3.605  1.00  0.00     0.074 A 
ATOM     37  C   UNL     1      -0.583  18.860   4.538  1.00  0.00     0.049 A 
ATOM     38  N   UNL     1      -3.437  19.781   4.413  1.00  0.00    -0.248 NA
ATOM     39  C   UNL     1      -3.759  18.429   2.540  1.00  0.00     0.031 C 
ATOM     40  C   UNL     1       0.814  18.433   4.633  1.00  0.00     0.029 A 
ATOM     41  N   UNL     1      -0.733  19.744   5.574  1.00  0.00    -0.354 N 
ATOM     42  C   UNL     1      -4.739  19.943   3.952  1.00  0.00     0.074 A 
ATOM     43  C   UNL     1      -4.868  19.121   2.768  1.00  0.00     0.031 C 
ATOM     44  C   UNL     1       1.369  18.988   5.717  1.00  0.00     0.029 A 
ATOM     45  C   UNL     1       0.393  19.867   6.356  1.00  0.00     0.049 A 
ATOM     46  H   UNL     1      -1.564  20.244   5.743  1.00  0.00     0.167 HD
ATOM     47  C   UNL     1      -5.735  20.695   4.479  1.00  0.00     0.034 A 
ATOM     48  C   UNL     1       0.620  20.598   7.466  1.00  0.00     0.034 A 
ATOM     49  C   UNL     1      -5.593  21.499   5.668  1.00  0.00     0.049 A 
ATOM     50  C   UNL     1      -0.504  21.424   8.030  1.00  0.00     0.074 A 
ATOM     51  C   UNL     1      -6.554  22.268   6.300  1.00  0.00     0.029 A 
ATOM     52  N   UNL     1      -4.426  21.639   6.407  1.00  0.00    -0.354 N 
ATOM     53  N   UNL     1      -1.746  21.517   7.615  1.00  0.00    -0.248 NA
ATOM     54  C   UNL     1      -0.202  22.243   9.210  1.00  0.00     0.031 C 
ATOM     55  C   UNL     1      -5.956  22.917   7.382  1.00  0.00     0.029 A 
ATOM     56  C   UNL     1      -4.636  22.504   7.469  1.00  0.00     0.049 A 
ATOM     57  H   UNL     1      -3.573  21.189   6.205  1.00  0.00     0.167 HD
ATOM     58  C   UNL     1      -2.372  22.408   8.480  1.00  0.00     0.074 A 
ATOM     59  C   UNL     1      -1.385  22.783   9.472  1.00  0.00     0.031 C 
ATOM     60  C   UNL     1      -3.642  22.886   8.445  1.00  0.00     0.034 A 
BRANCH  47  61
ATOM     61  C   UNL     1      -7.083  20.688   3.799  1.00  0.00     0.023 A 
ATOM     62  C   UNL     1      -7.604  21.875   3.250  1.00  0.00     0.031 A 
ATOM     63  C   UNL     1      -7.903  19.545   3.806  1.00  0.00     0.131 A 
ATOM     64  C   UNL     1      -8.917  21.900   2.761  1.00  0.00     0.055 A 
ATOM     65  C   UNL     1      -9.196  19.565   3.282  1.00  0.00     0.041 A 
ATOM     66  F   UNL     1      -7.453  18.387   4.318  1.00  0.00    -0.206 F 
ATOM     67  C   UNL     1      -9.713  20.750   2.768  1.00  0.00     0.022 A 
BRANCH  64  68
ATOM     68  S   UNL     1      -9.666  23.436   2.152  1.00  0.00     0.124 S 
ATOM     69  O   UNL     1     -10.019  23.074   0.781  1.00  0.00    -0.237 OA
ATOM     70  O   UNL     1     -10.795  23.606   3.063  1.00  0.00    -0.237 OA
ATOM     71  O   UNL     1      -8.598  24.421   2.279  1.00  0.00    -0.744 OA
ENDBRANCH  64  68
ENDBRANCH  47  61
BRANCH  48  72
ATOM     72  C   UNL     1       1.957  20.519   8.124  1.00  0.00     0.023 A 
ATOM     73  C   UNL     1       3.125  20.886   7.430  1.00  0.00     0.031 A 
ATOM     74  C   UNL     1       2.099  19.957   9.403  1.00  0.00     0.131 A 
ATOM     75  C   UNL     1       4.381  20.607   7.982  1.00  0.00     0.055 A 
ATOM     76  C   UNL     1       3.352  19.756   9.984  1.00  0.00     0.041 A 
ATOM     77  F   UNL     1       1.016  19.578  10.099  1.00  0.00    -0.206 F 
ATOM     78  C   UNL     1       4.502  20.061   9.263  1.00  0.00     0.022 A 
BRANCH  75  79
ATOM     79  S   UNL     1       5.889  20.790   6.989  1.00  0.00     0.124 S 
ATOM     80  O   UNL     1       6.624  21.805   7.737  1.00  0.00    -0.237 OA
ATOM     81  O   UNL     1       6.447  19.440   7.041  1.00  0.00    -0.237 OA
ATOM     82  O   UNL     1       5.392  21.202   5.681  1.00  0.00    -0.744 OA
ENDBRANCH  75  79
ENDBRANCH  48  72
BRANCH  60  83
ATOM     83  C   UNL     1      -4.045  23.903   9.487  1.00  0.00     0.023 A 
ATOM     84  C   UNL     1      -5.069  23.614  10.408  1.00  0.00     0.031 A 
ATOM     85  C   UNL     1      -3.493  25.196   9.490  1.00  0.00     0.131 A 
ATOM     86  C   UNL     1      -5.525  24.613  11.278  1.00  0.00     0.055 A 
ATOM     87  C   UNL     1      -3.919  26.174  10.389  1.00  0.00     0.041 A 
ATOM     88  F   UNL     1      -2.521  25.524   8.623  1.00  0.00    -0.206 F 
ATOM     89  C   UNL     1      -4.949  25.888  11.280  1.00  0.00     0.022 A 
BRANCH  86  90
ATOM     90  S   UNL     1      -6.937  24.324  12.380  1.00  0.00     0.124 S 
ATOM     91  O   UNL     1      -6.314  24.418  13.698  1.00  0.00    -0.237 OA
ATOM     92  O   UNL     1      -7.831  25.426  12.033  1.00  0.00    -0.237 OA
ATOM     93  O   UNL     1      -7.409  22.995  12.006  1.00  0.00    -0.744 OA
ENDBRANCH  86  90
ENDBRANCH  60  83
ENDBRANCH  34  35
ENDBRANCH  26  29
ENDBRANCH  24  25
ENDBRANCH   1  24
TORSDOF 16
