REMARK SMILES CN(C)C(=O)CNC(=O)NCCOCC(=O)NCCCCNC(=O)c1ccc(-c2c3nc(c(-c4cc(S(=O)(=O)[O-])ccc4F)c4ccc([nH]4)c(-c4cc(S(=O)(=O)[O-])ccc4F)c4nc(c(-c5cc(S(=O)(=O)[O-])ccc5F)c5ccc2[nH]5)C=C4)C=C3)cc1
REMARK SMILES IDX 18 1 17 2 15 3 16 4 14 6 13 7 12 8 11 9 10 10 7 11 8 12 9 14
REMARK SMILES IDX 6 16 4 17 1 18 2 19 3 20 5 21 19 22 20 23 21 24 22 25 23 26
REMARK SMILES IDX 24 28 25 29 26 30 87 31 27 32 86 33 28 34 29 35 30 36 80 37
REMARK SMILES IDX 31 38 85 39 79 40 81 41 32 42 84 43 78 44 77 45 33 47 65 48
REMARK SMILES IDX 45 49 64 50 46 51 49 52 63 53 82 54 47 55 48 56 62 58 83 59
REMARK SMILES IDX 50 60 34 61 35 62 43 63 36 64 42 65 44 66 41 67 37 68 38 69
REMARK SMILES IDX 39 70 40 71 66 72 67 73 75 74 68 75 74 76 76 77 73 78 69 79
REMARK SMILES IDX 70 80 71 81 72 82 51 83 52 84 60 85 53 86 59 87 61 88 58 89
REMARK SMILES IDX 54 90 55 91 56 92 57 93
REMARK H PARENT 17 5 7 13 10 15 22 27 81 46 49 57
REMARK Flexibility Score: inf
ROOT
ATOM      1  C   UNL     1      -5.021   4.092   7.525  1.00  0.00     0.116 C 
ENDROOT
BRANCH   1   2
ATOM      2  N   UNL     1      -3.733   4.677   7.212  1.00  0.00    -0.354 N 
ATOM      3  C   UNL     1      -3.200   4.880   5.971  1.00  0.00     0.245 C 
ATOM      4  O   UNL     1      -2.099   5.413   5.859  1.00  0.00    -0.272 OA
ATOM      5  H   UNL     1      -3.182   4.960   7.978  1.00  0.00     0.163 HD
BRANCH   3   6
ATOM      6  C   UNL     1      -4.008   4.425   4.754  1.00  0.00     0.260 C 
BRANCH   6   7
ATOM      7  O   UNL     1      -4.264   3.031   4.658  1.00  0.00    -0.370 OA
BRANCH   7   8
ATOM      8  C   UNL     1      -3.098   2.198   4.657  1.00  0.00     0.182 C 
BRANCH   8   9
ATOM      9  C   UNL     1      -2.347   2.249   3.326  1.00  0.00     0.146 C 
BRANCH   9  10
ATOM     10  N   UNL     1      -1.398   3.352   3.252  1.00  0.00    -0.336 N 
ATOM     11  N   UNL     1       0.793   2.520   3.529  1.00  0.00    -0.329 N 
ATOM     12  C   UNL     1      -0.083   3.511   3.390  1.00  0.00     0.315 C 
ATOM     13  H   UNL     1       1.713   2.853   3.641  1.00  0.00     0.165 HD
ATOM     14  O   UNL     1       0.364   4.656   3.308  1.00  0.00    -0.249 OA
ATOM     15  H   UNL     1      -1.847   4.204   3.046  1.00  0.00     0.165 HD
BRANCH  11  16
ATOM     16  C   UNL     1       0.730   1.076   3.557  1.00  0.00     0.218 C 
BRANCH  16  17
ATOM     17  C   UNL     1       1.105   0.281   2.285  1.00  0.00     0.241 C 
ATOM     18  C   UNL     1       1.111  -0.188  -0.090  1.00  0.00     0.146 C 
ATOM     19  N   UNL     1       0.754   0.696   1.006  1.00  0.00    -0.347 N 
ATOM     20  C   UNL     1      -0.007   1.883   0.664  1.00  0.00     0.146 C 
ATOM     21  O   UNL     1       1.621  -0.836   2.443  1.00  0.00    -0.273 OA
ENDBRANCH  16  17
ENDBRANCH  11  16
ENDBRANCH   9  10
ENDBRANCH   8   9
ENDBRANCH   7   8
ENDBRANCH   6   7
ENDBRANCH   3   6
ENDBRANCH   1   2
BRANCH   1  22
ATOM     22  C   UNL     1      -4.883   2.753   8.243  1.00  0.00     0.023 C 
BRANCH  22  23
ATOM     23  C   UNL     1      -4.234   2.839   9.626  1.00  0.00     0.023 C 
BRANCH  23  24
ATOM     24  C   UNL     1      -4.822   3.897  10.552  1.00  0.00     0.116 C 
BRANCH  24  25
ATOM     25  N   UNL     1      -6.257   3.752  10.741  1.00  0.00    -0.352 N 
ATOM     26  C   UNL     1      -6.988   3.859  11.898  1.00  0.00     0.251 C 
ATOM     27  H   UNL     1      -6.774   3.549   9.928  1.00  0.00     0.163 HD
ATOM     28  O   UNL     1      -8.182   3.570  11.894  1.00  0.00    -0.269 OA
BRANCH  26  29
ATOM     29  C   UNL     1      -6.320   4.283  13.146  1.00  0.00     0.039 A 
ATOM     30  C   UNL     1      -6.553   3.556  14.314  1.00  0.00     0.014 A 
ATOM     31  C   UNL     1      -5.443   5.372  13.156  1.00  0.00     0.014 A 
ATOM     32  C   UNL     1      -5.857   3.883  15.480  1.00  0.00     0.010 A 
ATOM     33  C   UNL     1      -4.692   5.644  14.296  1.00  0.00     0.010 A 
ATOM     34  C   UNL     1      -4.894   4.906  15.472  1.00  0.00    -0.014 A 
BRANCH  34  35
ATOM     35  C   UNL     1      -4.099   5.220  16.688  1.00  0.00     0.031 A 
ATOM     36  C   UNL     1      -4.219   6.571  17.339  1.00  0.00     0.074 A 
ATOM     37  C   UNL     1      -3.236   4.306  17.176  1.00  0.00     0.049 A 
ATOM     38  N   UNL     1      -3.577   7.053  18.372  1.00  0.00    -0.248 NA
ATOM     39  C   UNL     1      -5.164   7.517  16.727  1.00  0.00     0.031 C 
ATOM     40  C   UNL     1      -3.000   2.978  16.605  1.00  0.00     0.029 A 
ATOM     41  N   UNL     1      -2.394   4.354  18.259  1.00  0.00    -0.354 N 
ATOM     42  C   UNL     1      -4.031   8.358  18.527  1.00  0.00     0.074 A 
ATOM     43  C   UNL     1      -4.952   8.612  17.440  1.00  0.00     0.031 C 
ATOM     44  C   UNL     1      -2.099   2.328  17.360  1.00  0.00     0.029 A 
ATOM     45  C   UNL     1      -1.656   3.205  18.439  1.00  0.00     0.049 A 
ATOM     46  H   UNL     1      -2.323   5.136  18.852  1.00  0.00     0.167 HD
ATOM     47  C   UNL     1      -3.729   9.252  19.501  1.00  0.00     0.034 A 
ATOM     48  C   UNL     1      -0.722   2.898  19.361  1.00  0.00     0.034 A 
ATOM     49  C   UNL     1      -2.815   8.977  20.584  1.00  0.00     0.049 A 
ATOM     50  C   UNL     1      -0.386   3.917  20.421  1.00  0.00     0.074 A 
ATOM     51  C   UNL     1      -2.476   9.790  21.652  1.00  0.00     0.029 A 
ATOM     52  N   UNL     1      -2.086   7.804  20.733  1.00  0.00    -0.354 N 
ATOM     53  N   UNL     1      -0.867   5.128  20.586  1.00  0.00    -0.248 NA
ATOM     54  C   UNL     1       0.608   3.522  21.426  1.00  0.00     0.031 C 
ATOM     55  C   UNL     1      -1.489   9.141  22.401  1.00  0.00     0.029 A 
ATOM     56  C   UNL     1      -1.275   7.886  21.856  1.00  0.00     0.049 A 
ATOM     57  H   UNL     1      -2.137   7.027  20.130  1.00  0.00     0.167 HD
ATOM     58  C   UNL     1      -0.258   5.624  21.736  1.00  0.00     0.074 A 
ATOM     59  C   UNL     1       0.610   4.574  22.230  1.00  0.00     0.031 C 
ATOM     60  C   UNL     1      -0.406   6.835  22.333  1.00  0.00     0.034 A 
BRANCH  47  61
ATOM     61  C   UNL     1      -4.373  10.617  19.418  1.00  0.00     0.023 A 
ATOM     62  C   UNL     1      -5.769  10.783  19.482  1.00  0.00     0.031 A 
ATOM     63  C   UNL     1      -3.584  11.768  19.248  1.00  0.00     0.131 A 
ATOM     64  C   UNL     1      -6.334  12.054  19.298  1.00  0.00     0.055 A 
ATOM     65  C   UNL     1      -4.149  13.042  19.154  1.00  0.00     0.041 A 
ATOM     66  F   UNL     1      -2.248  11.675  19.156  1.00  0.00    -0.206 F 
ATOM     67  C   UNL     1      -5.532  13.189  19.163  1.00  0.00     0.022 A 
BRANCH  64  68
ATOM     68  S   UNL     1      -8.131  12.180  19.086  1.00  0.00     0.124 S 
ATOM     69  O   UNL     1      -8.351  11.325  17.922  1.00  0.00    -0.237 OA
ATOM     70  O   UNL     1      -8.635  11.671  20.357  1.00  0.00    -0.237 OA
ATOM     71  O   UNL     1      -8.350  13.606  18.853  1.00  0.00    -0.744 OA
ENDBRANCH  64  68
ENDBRANCH  47  61
BRANCH  48  72
ATOM     72  C   UNL     1      -0.029   1.577  19.325  1.00  0.00     0.023 A 
ATOM     73  C   UNL     1      -0.164   0.658  20.378  1.00  0.00     0.031 A 
ATOM     74  C   UNL     1       0.818   1.233  18.257  1.00  0.00     0.131 A 
ATOM     75  C   UNL     1       0.576  -0.535  20.365  1.00  0.00     0.055 A 
ATOM     76  C   UNL     1       1.506   0.019  18.220  1.00  0.00     0.041 A 
ATOM     77  F   UNL     1       0.982   2.073  17.222  1.00  0.00    -0.206 F 
ATOM     78  C   UNL     1       1.398  -0.868  19.287  1.00  0.00     0.022 A 
BRANCH  75  79
ATOM     79  S   UNL     1       0.520  -1.608  21.828  1.00  0.00     0.124 S 
ATOM     80  O   UNL     1       0.979  -0.705  22.876  1.00  0.00    -0.237 OA
ATOM     81  O   UNL     1      -0.890  -1.982  21.874  1.00  0.00    -0.237 OA
ATOM     82  O   UNL     1       1.439  -2.692  21.489  1.00  0.00    -0.744 OA
ENDBRANCH  75  79
ENDBRANCH  48  72
BRANCH  60  83
ATOM     83  C   UNL     1       0.353   7.064  23.620  1.00  0.00     0.023 A 
ATOM     84  C   UNL     1       1.758   7.096  23.660  1.00  0.00     0.031 A 
ATOM     85  C   UNL     1      -0.345   7.235  24.829  1.00  0.00     0.131 A 
ATOM     86  C   UNL     1       2.420   7.226  24.891  1.00  0.00     0.055 A 
ATOM     87  C   UNL     1       0.318   7.436  26.040  1.00  0.00     0.041 A 
ATOM     88  F   UNL     1      -1.688   7.210  24.853  1.00  0.00    -0.206 F 
ATOM     89  C   UNL     1       1.709   7.416  26.078  1.00  0.00     0.022 A 
BRANCH  86  90
ATOM     90  S   UNL     1       4.223   7.031  24.935  1.00  0.00     0.124 S 
ATOM     91  O   UNL     1       4.398   5.703  24.356  1.00  0.00    -0.237 OA
ATOM     92  O   UNL     1       4.678   8.149  24.114  1.00  0.00    -0.237 OA
ATOM     93  O   UNL     1       4.544   7.135  26.357  1.00  0.00    -0.744 OA
ENDBRANCH  86  90
ENDBRANCH  60  83
ENDBRANCH  34  35
ENDBRANCH  26  29
ENDBRANCH  24  25
ENDBRANCH  23  24
ENDBRANCH  22  23
ENDBRANCH   1  22
TORSDOF 20
