REMARK SMILES Cc1c(-c2nn(-c3ccccc3)cc2/C=N/O)nnn1-c1ccc(C(=O)NCCCCNC(=O)c2ccc(-c3c4nc(c(-c5cc(S(=O)(=O)[O-])ccc5F)c5ccc([nH]5)c(-c5cc(S(=O)(=O)[O-])ccc5F)c5nc(c(-c6cc(S(=O)(=O)[O-])ccc6F)c6ccc3[nH]6)C=C5)C=C4)cc2)cc1
REMARK SMILES IDX 29 1 28 2 27 3 25 4 26 5 24 7 21 8 22 9 99 10 23 11 98 12
REMARK SMILES IDX 20 13 1 14 2 15 3 16 18 17 19 18 4 19 5 20 14 21 6 22 13 23
REMARK SMILES IDX 15 24 16 25 17 26 7 28 8 29 12 30 9 31 11 32 10 33 30 34
REMARK SMILES IDX 31 35 32 36 33 37 34 39 35 40 36 41 97 42 37 43 96 44 38 45
REMARK SMILES IDX 39 46 40 47 90 48 41 49 95 50 89 51 91 52 42 53 94 54 88 55
REMARK SMILES IDX 87 56 43 58 75 59 55 60 74 61 56 62 59 63 73 64 92 65 57 66
REMARK SMILES IDX 58 67 72 69 93 70 60 71 44 72 45 73 53 74 46 75 52 76 54 77
REMARK SMILES IDX 51 78 47 79 48 80 49 81 50 82 76 83 77 84 85 85 78 86 84 87
REMARK SMILES IDX 86 88 83 89 79 90 80 91 81 92 82 93 61 94 62 95 70 96 63 97
REMARK SMILES IDX 69 98 71 99 68 100 64 101 65 102 66 103 67 104
REMARK H PARENT 27 6 17 27 32 38 91 57 59 68
REMARK Flexibility Score: inf
ROOT
ATOM      1  C   UNL     1      -4.234   5.207   0.764  1.00  0.00     0.023 C 
ENDROOT
BRANCH   1   2
ATOM      2  C   UNL     1      -2.741   5.499   0.552  1.00  0.00     0.116 C 
BRANCH   2   3
ATOM      3  N   UNL     1      -2.108   5.908   1.793  1.00  0.00    -0.352 N 
ATOM      4  C   UNL     1      -1.430   5.238   2.780  1.00  0.00     0.251 C 
ATOM      5  O   UNL     1      -1.054   5.906   3.747  1.00  0.00    -0.269 OA
ATOM      6  H   UNL     1      -2.182   6.875   1.964  1.00  0.00     0.163 HD
BRANCH   4   7
ATOM      7  C   UNL     1      -1.083   3.784   2.739  1.00  0.00     0.039 A 
ATOM      8  C   UNL     1      -0.163   1.125   2.689  1.00  0.00     0.067 A 
ATOM      9  C   UNL     1       0.393   2.024   3.598  1.00  0.00     0.029 A 
ATOM     10  C   UNL     1      -1.226   1.517   1.871  1.00  0.00     0.029 A 
ATOM     11  C   UNL     1      -0.045   3.354   3.591  1.00  0.00     0.016 A 
ATOM     12  C   UNL     1      -1.711   2.828   1.937  1.00  0.00     0.016 A 
BRANCH   8  13
ATOM     13  N   UNL     1       0.329  -0.193   2.612  1.00  0.00    -0.217 N 
ATOM     14  C   UNL     1       0.899  -0.376   0.136  1.00  0.00     0.069 C 
ATOM     15  C   UNL     1       0.645  -0.930   1.488  1.00  0.00     0.071 A 
ATOM     16  C   UNL     1       0.778  -2.212   1.984  1.00  0.00     0.137 A 
ATOM     17  N   UNL     1       0.674  -2.206   3.344  1.00  0.00    -0.128 NA
ATOM     18  N   UNL     1       0.479  -0.948   3.727  1.00  0.00    -0.061 NA
BRANCH  16  19
ATOM     19  C   UNL     1       1.060  -3.433   1.239  1.00  0.00     0.124 A 
ATOM     20  N   UNL     1       2.293  -3.751   0.826  1.00  0.00    -0.165 NA
ATOM     21  C   UNL     1       0.089  -4.370   0.809  1.00  0.00     0.044 A 
ATOM     22  N   UNL     1       2.110  -4.805   0.005  1.00  0.00    -0.240 N 
ATOM     23  C   UNL     1       0.795  -5.207  -0.035  1.00  0.00     0.125 A 
BRANCH  21  24
ATOM     24  C   UNL     1      -1.313  -4.502   1.112  1.00  0.00     0.166 C 
ATOM     25  N   UNL     1      -1.903  -3.625   1.854  1.00  0.00    -0.097 NA
BRANCH  25  26
ATOM     26  O   UNL     1      -3.239  -3.999   2.045  1.00  0.00    -0.411 OA
ATOM     27  H   UNL     1      -3.805  -3.464   2.565  1.00  0.00     0.330 HD
ENDBRANCH  25  26
ENDBRANCH  21  24
BRANCH  22  28
ATOM     28  C   UNL     1       3.191  -5.375  -0.702  1.00  0.00     0.065 A 
ATOM     29  C   UNL     1       4.438  -5.482  -0.075  1.00  0.00     0.028 A 
ATOM     30  C   UNL     1       3.018  -5.814  -2.021  1.00  0.00     0.028 A 
ATOM     31  C   UNL     1       5.505  -6.064  -0.758  1.00  0.00     0.002 A 
ATOM     32  C   UNL     1       4.109  -6.339  -2.716  1.00  0.00     0.002 A 
ATOM     33  C   UNL     1       5.344  -6.478  -2.081  1.00  0.00     0.000 A 
ENDBRANCH  22  28
ENDBRANCH  16  19
ENDBRANCH   8  13
ENDBRANCH   4   7
ENDBRANCH   2   3
ENDBRANCH   1   2
BRANCH   1  34
ATOM     34  C   UNL     1      -5.132   6.450   0.883  1.00  0.00     0.023 C 
BRANCH  34  35
ATOM     35  C   UNL     1      -5.292   7.249  -0.406  1.00  0.00     0.116 C 
BRANCH  35  36
ATOM     36  N   UNL     1      -5.948   6.495  -1.481  1.00  0.00    -0.352 N 
ATOM     37  C   UNL     1      -6.037   6.833  -2.828  1.00  0.00     0.251 C 
ATOM     38  H   UNL     1      -6.376   5.649  -1.217  1.00  0.00     0.163 HD
ATOM     39  O   UNL     1      -6.920   6.387  -3.535  1.00  0.00    -0.269 OA
BRANCH  37  40
ATOM     40  C   UNL     1      -4.995   7.724  -3.371  1.00  0.00     0.039 A 
ATOM     41  C   UNL     1      -5.263   8.795  -4.229  1.00  0.00     0.014 A 
ATOM     42  C   UNL     1      -3.710   7.488  -2.902  1.00  0.00     0.014 A 
ATOM     43  C   UNL     1      -4.221   9.671  -4.543  1.00  0.00     0.010 A 
ATOM     44  C   UNL     1      -2.773   8.470  -3.012  1.00  0.00     0.010 A 
ATOM     45  C   UNL     1      -2.977   9.503  -3.915  1.00  0.00    -0.014 A 
BRANCH  45  46
ATOM     46  C   UNL     1      -1.864  10.432  -4.076  1.00  0.00     0.031 A 
ATOM     47  C   UNL     1      -2.182  11.837  -3.713  1.00  0.00     0.074 A 
ATOM     48  C   UNL     1      -0.594   9.990  -4.249  1.00  0.00     0.049 A 
ATOM     49  N   UNL     1      -2.286  12.852  -4.504  1.00  0.00    -0.248 NA
ATOM     50  C   UNL     1      -2.607  12.124  -2.332  1.00  0.00     0.031 C 
ATOM     51  C   UNL     1      -0.106   8.603  -4.308  1.00  0.00     0.029 A 
ATOM     52  N   UNL     1       0.566  10.697  -4.285  1.00  0.00    -0.354 N 
ATOM     53  C   UNL     1      -2.508  13.952  -3.682  1.00  0.00     0.074 A 
ATOM     54  C   UNL     1      -2.941  13.413  -2.422  1.00  0.00     0.031 C 
ATOM     55  C   UNL     1       1.233   8.573  -4.125  1.00  0.00     0.029 A 
ATOM     56  C   UNL     1       1.727   9.937  -4.131  1.00  0.00     0.049 A 
ATOM     57  H   UNL     1       0.586  11.673  -4.412  1.00  0.00     0.167 HD
ATOM     58  C   UNL     1      -2.038  15.186  -4.025  1.00  0.00     0.034 A 
ATOM     59  C   UNL     1       3.006  10.393  -4.022  1.00  0.00     0.034 A 
ATOM     60  C   UNL     1      -1.667  15.217  -5.426  1.00  0.00     0.049 A 
ATOM     61  C   UNL     1       3.003  11.755  -4.612  1.00  0.00     0.074 A 
ATOM     62  C   UNL     1      -2.336  14.973  -6.611  1.00  0.00     0.029 A 
ATOM     63  N   UNL     1      -0.328  15.114  -5.741  1.00  0.00    -0.354 N 
ATOM     64  N   UNL     1       2.733  11.980  -5.870  1.00  0.00    -0.248 NA
ATOM     65  C   UNL     1       2.769  12.879  -3.719  1.00  0.00     0.031 C 
ATOM     66  C   UNL     1      -1.412  14.224  -7.402  1.00  0.00     0.029 A 
ATOM     67  C   UNL     1      -0.202  14.145  -6.708  1.00  0.00     0.049 A 
ATOM     68  H   UNL     1       0.405  15.640  -5.345  1.00  0.00     0.167 HD
ATOM     69  C   UNL     1       1.892  13.084  -5.865  1.00  0.00     0.074 A 
ATOM     70  C   UNL     1       2.026  13.649  -4.521  1.00  0.00     0.031 C 
ATOM     71  C   UNL     1       0.948  13.265  -6.838  1.00  0.00     0.034 A 
BRANCH  58  72
ATOM     72  C   UNL     1      -1.538  16.230  -3.043  1.00  0.00     0.023 A 
ATOM     73  C   UNL     1      -1.045  17.432  -3.587  1.00  0.00     0.031 A 
ATOM     74  C   UNL     1      -1.248  16.020  -1.675  1.00  0.00     0.131 A 
ATOM     75  C   UNL     1      -0.216  18.284  -2.837  1.00  0.00     0.055 A 
ATOM     76  C   UNL     1      -0.476  16.903  -0.914  1.00  0.00     0.041 A 
ATOM     77  F   UNL     1      -1.611  14.917  -1.012  1.00  0.00    -0.206 F 
ATOM     78  C   UNL     1       0.078  18.024  -1.503  1.00  0.00     0.022 A 
BRANCH  75  79
ATOM     79  S   UNL     1       0.629  19.635  -3.698  1.00  0.00     0.124 S 
ATOM     80  O   UNL     1       1.249  18.929  -4.814  1.00  0.00    -0.237 OA
ATOM     81  O   UNL     1      -0.484  20.517  -4.031  1.00  0.00    -0.237 OA
ATOM     82  O   UNL     1       1.555  20.149  -2.692  1.00  0.00    -0.744 OA
ENDBRANCH  75  79
ENDBRANCH  58  72
BRANCH  59  83
ATOM     83  C   UNL     1       4.070   9.891  -3.100  1.00  0.00     0.023 A 
ATOM     84  C   UNL     1       5.450  10.140  -3.288  1.00  0.00     0.031 A 
ATOM     85  C   UNL     1       3.694   9.354  -1.848  1.00  0.00     0.131 A 
ATOM     86  C   UNL     1       6.378   9.857  -2.252  1.00  0.00     0.055 A 
ATOM     87  C   UNL     1       4.612   9.086  -0.828  1.00  0.00     0.041 A 
ATOM     88  F   UNL     1       2.403   9.150  -1.542  1.00  0.00    -0.206 F 
ATOM     89  C   UNL     1       5.958   9.346  -1.023  1.00  0.00     0.022 A 
BRANCH  86  90
ATOM     90  S   UNL     1       8.157  10.218  -2.459  1.00  0.00     0.124 S 
ATOM     91  O   UNL     1       8.544   9.281  -3.508  1.00  0.00    -0.237 OA
ATOM     92  O   UNL     1       8.152  11.630  -2.821  1.00  0.00    -0.237 OA
ATOM     93  O   UNL     1       8.722   9.927  -1.141  1.00  0.00    -0.744 OA
ENDBRANCH  86  90
ENDBRANCH  59  83
BRANCH  71  94
ATOM     94  C   UNL     1       0.992  12.363  -8.063  1.00  0.00     0.023 A 
ATOM     95  C   UNL     1       0.875  10.950  -8.046  1.00  0.00     0.031 A 
ATOM     96  C   UNL     1       1.038  12.991  -9.319  1.00  0.00     0.131 A 
ATOM     97  C   UNL     1       0.821  10.229  -9.259  1.00  0.00     0.055 A 
ATOM     98  C   UNL     1       0.963  12.277 -10.514  1.00  0.00     0.041 A 
ATOM     99  F   UNL     1       1.122  14.329  -9.405  1.00  0.00    -0.206 F 
ATOM    100  C   UNL     1       0.860  10.892 -10.489  1.00  0.00     0.022 A 
BRANCH  97 101
ATOM    101  S   UNL     1       0.719   8.405  -9.267  1.00  0.00     0.124 S 
ATOM    102  O   UNL     1       1.772   7.999  -8.345  1.00  0.00    -0.237 OA
ATOM    103  O   UNL     1      -0.650   8.159  -8.821  1.00  0.00    -0.237 OA
ATOM    104  O   UNL     1       0.970   8.056 -10.667  1.00  0.00    -0.744 OA
ENDBRANCH  97 101
ENDBRANCH  71  94
ENDBRANCH  45  46
ENDBRANCH  37  40
ENDBRANCH  35  36
ENDBRANCH  34  35
ENDBRANCH   1  34
TORSDOF 19
