REMARK SMILES CCC(CC)[S@](=O)CCC(=O)NCCCCNC(=O)c1ccc(-c2c3nc(c(-c4cc(S(=O)(=O)[O-])ccc4F)c4ccc([nH]4)c(-c4cc(S(=O)(=O)[O-])ccc4F)c4nc(c(-c5cc(S(=O)(=O)[O-])ccc5F)c5ccc2[nH]5)C=C4)C=C3)cc1
REMARK SMILES IDX 14 1 13 2 12 3 10 4 11 5 9 7 8 8 6 9 7 10 3 11 2 12 1 13
REMARK SMILES IDX 4 14 5 15 15 16 16 17 17 18 18 19 19 21 20 22 21 23 82 24
REMARK SMILES IDX 22 25 81 26 23 27 24 28 25 29 75 30 26 31 80 32 74 33 76 34
REMARK SMILES IDX 27 35 79 36 73 37 72 38 28 40 60 41 40 42 59 43 41 44 44 45
REMARK SMILES IDX 58 46 77 47 42 48 43 49 57 51 78 52 45 53 29 54 30 55 38 56
REMARK SMILES IDX 31 57 37 58 39 59 36 60 32 61 33 62 34 63 35 64 61 65 62 66
REMARK SMILES IDX 70 67 63 68 69 69 71 70 68 71 64 72 65 73 66 74 67 75 46 76
REMARK SMILES IDX 47 77 55 78 48 79 54 80 56 81 53 82 49 83 50 84 51 85 52 86
REMARK H PARENT 12 6 17 20 76 39 44 50
REMARK Flexibility Score: inf
ROOT
ATOM      1  C   UNL     1       1.650  -0.130   1.552  1.00  0.00     0.023 C 
ENDROOT
BRANCH   1   2
ATOM      2  C   UNL     1       0.661   0.929   2.047  1.00  0.00     0.116 C 
BRANCH   2   3
ATOM      3  N   UNL     1      -0.694   0.636   1.617  1.00  0.00    -0.356 N 
ATOM      4  C   UNL     1      -1.780   0.300   2.367  1.00  0.00     0.220 C 
ATOM      5  O   UNL     1      -2.814  -0.060   1.800  1.00  0.00    -0.275 OA
ATOM      6  H   UNL     1      -0.850   0.688   0.646  1.00  0.00     0.163 HD
BRANCH   4   7
ATOM      7  C   UNL     1      -1.747   0.464   3.874  1.00  0.00     0.113 C 
BRANCH   7   8
ATOM      8  C   UNL     1      -1.691  -0.829   4.670  1.00  0.00     0.115 C 
BRANCH   8   9
ATOM      9  S   UNL     1      -0.115  -1.660   4.888  1.00  0.00     0.025 S 
ATOM     10  O   UNL     1       0.664  -1.693   3.623  1.00  0.00    -0.259 OA
BRANCH   9  11
ATOM     11  C   UNL     1       0.796  -0.799   6.223  1.00  0.00     0.079 C 
BRANCH  11  12
ATOM     12  C   UNL     1       2.175  -1.488   6.359  1.00  0.00     0.014 C 
ATOM     13  C   UNL     1       2.929  -1.117   7.628  1.00  0.00     0.005 C 
ENDBRANCH  11  12
BRANCH  11  14
ATOM     14  C   UNL     1       0.891   0.733   6.163  1.00  0.00     0.014 C 
ATOM     15  C   UNL     1       2.050   1.338   5.375  1.00  0.00     0.005 C 
ENDBRANCH  11  14
ENDBRANCH   9  11
ENDBRANCH   8   9
ENDBRANCH   7   8
ENDBRANCH   4   7
ENDBRANCH   2   3
ENDBRANCH   1   2
BRANCH   1  16
ATOM     16  C   UNL     1       2.736   0.406   0.637  1.00  0.00     0.023 C 
BRANCH  16  17
ATOM     17  C   UNL     1       3.717   1.337   1.337  1.00  0.00     0.116 C 
BRANCH  17  18
ATOM     18  N   UNL     1       4.527   0.698   2.372  1.00  0.00    -0.352 N 
ATOM     19  C   UNL     1       5.857   0.937   2.668  1.00  0.00     0.251 C 
ATOM     20  H   UNL     1       4.074   0.018   2.921  1.00  0.00     0.163 HD
ATOM     21  O   UNL     1       6.436   0.332   3.552  1.00  0.00    -0.269 OA
BRANCH  19  22
ATOM     22  C   UNL     1       6.566   1.917   1.819  1.00  0.00     0.039 A 
ATOM     23  C   UNL     1       7.597   1.464   0.993  1.00  0.00     0.014 A 
ATOM     24  C   UNL     1       6.048   3.206   1.686  1.00  0.00     0.014 A 
ATOM     25  C   UNL     1       8.028   2.270  -0.062  1.00  0.00     0.010 A 
ATOM     26  C   UNL     1       6.417   3.966   0.584  1.00  0.00     0.010 A 
ATOM     27  C   UNL     1       7.389   3.494  -0.317  1.00  0.00    -0.014 A 
BRANCH  27  28
ATOM     28  C   UNL     1       7.676   4.295  -1.536  1.00  0.00     0.031 A 
ATOM     29  C   UNL     1       8.172   5.704  -1.388  1.00  0.00     0.074 A 
ATOM     30  C   UNL     1       7.354   3.812  -2.753  1.00  0.00     0.049 A 
ATOM     31  N   UNL     1       8.278   6.647  -2.287  1.00  0.00    -0.248 NA
ATOM     32  C   UNL     1       8.541   6.118  -0.028  1.00  0.00     0.031 C 
ATOM     33  C   UNL     1       6.803   2.482  -3.022  1.00  0.00     0.029 A 
ATOM     34  N   UNL     1       7.408   4.402  -3.992  1.00  0.00    -0.354 N 
ATOM     35  C   UNL     1       8.684   7.782  -1.593  1.00  0.00     0.074 A 
ATOM     36  C   UNL     1       8.744   7.415  -0.193  1.00  0.00     0.031 C 
ATOM     37  C   UNL     1       6.572   2.358  -4.338  1.00  0.00     0.029 A 
ATOM     38  C   UNL     1       6.910   3.612  -5.003  1.00  0.00     0.049 A 
ATOM     39  H   UNL     1       7.770   5.305  -4.143  1.00  0.00     0.167 HD
ATOM     40  C   UNL     1       8.994   9.009  -2.081  1.00  0.00     0.034 A 
ATOM     41  C   UNL     1       6.718   3.877  -6.310  1.00  0.00     0.034 A 
ATOM     42  C   UNL     1       8.956   9.340  -3.484  1.00  0.00     0.049 A 
ATOM     43  C   UNL     1       7.098   5.232  -6.844  1.00  0.00     0.074 A 
ATOM     44  C   UNL     1       9.330  10.520  -4.103  1.00  0.00     0.029 A 
ATOM     45  N   UNL     1       8.511   8.489  -4.489  1.00  0.00    -0.354 N 
ATOM     46  N   UNL     1       7.536   6.282  -6.188  1.00  0.00    -0.248 NA
ATOM     47  C   UNL     1       6.966   5.438  -8.292  1.00  0.00     0.031 C 
ATOM     48  C   UNL     1       9.059  10.402  -5.472  1.00  0.00     0.029 A 
ATOM     49  C   UNL     1       8.578   9.125  -5.718  1.00  0.00     0.049 A 
ATOM     50  H   UNL     1       8.194   7.567  -4.347  1.00  0.00     0.167 HD
ATOM     51  C   UNL     1       7.757   7.265  -7.147  1.00  0.00     0.074 A 
ATOM     52  C   UNL     1       7.406   6.682  -8.427  1.00  0.00     0.031 C 
ATOM     53  C   UNL     1       8.217   8.531  -6.985  1.00  0.00     0.034 A 
BRANCH  40  54
ATOM     54  C   UNL     1       9.364  10.073  -1.075  1.00  0.00     0.023 A 
ATOM     55  C   UNL     1      10.464   9.921  -0.211  1.00  0.00     0.031 A 
ATOM     56  C   UNL     1       8.560  11.215  -0.916  1.00  0.00     0.131 A 
ATOM     57  C   UNL     1      10.658  10.825   0.843  1.00  0.00     0.055 A 
ATOM     58  C   UNL     1       8.820  12.167   0.072  1.00  0.00     0.041 A 
ATOM     59  F   UNL     1       7.486  11.409  -1.697  1.00  0.00    -0.206 F 
ATOM     60  C   UNL     1       9.859  11.962   0.976  1.00  0.00     0.022 A 
BRANCH  57  61
ATOM     61  S   UNL     1      11.836  10.382   2.149  1.00  0.00     0.124 S 
ATOM     62  O   UNL     1      11.318   9.087   2.586  1.00  0.00    -0.237 OA
ATOM     63  O   UNL     1      13.105  10.353   1.432  1.00  0.00    -0.237 OA
ATOM     64  O   UNL     1      11.692  11.462   3.122  1.00  0.00    -0.744 OA
ENDBRANCH  57  61
ENDBRANCH  40  54
BRANCH  41  65
ATOM     65  C   UNL     1       6.115   2.844  -7.198  1.00  0.00     0.023 A 
ATOM     66  C   UNL     1       6.879   2.196  -8.181  1.00  0.00     0.031 A 
ATOM     67  C   UNL     1       4.761   2.489  -7.071  1.00  0.00     0.131 A 
ATOM     68  C   UNL     1       6.275   1.244  -9.019  1.00  0.00     0.055 A 
ATOM     69  C   UNL     1       4.175   1.514  -7.880  1.00  0.00     0.041 A 
ATOM     70  F   UNL     1       3.993   3.071  -6.136  1.00  0.00    -0.206 F 
ATOM     71  C   UNL     1       4.932   0.890  -8.867  1.00  0.00     0.022 A 
BRANCH  68  72
ATOM     72  S   UNL     1       7.266   0.493 -10.340  1.00  0.00     0.124 S 
ATOM     73  O   UNL     1       7.600   1.655 -11.157  1.00  0.00    -0.237 OA
ATOM     74  O   UNL     1       8.368  -0.104  -9.592  1.00  0.00    -0.237 OA
ATOM     75  O   UNL     1       6.346  -0.460 -10.956  1.00  0.00    -0.744 OA
ENDBRANCH  68  72
ENDBRANCH  41  65
BRANCH  53  76
ATOM     76  C   UNL     1       8.418   9.355  -8.230  1.00  0.00     0.023 A 
ATOM     77  C   UNL     1       7.334   9.852  -8.975  1.00  0.00     0.031 A 
ATOM     78  C   UNL     1       9.720   9.662  -8.663  1.00  0.00     0.131 A 
ATOM     79  C   UNL     1       7.574  10.604 -10.135  1.00  0.00     0.055 A 
ATOM     80  C   UNL     1       9.952  10.449  -9.791  1.00  0.00     0.041 A 
ATOM     81  F   UNL     1      10.788   9.210  -7.987  1.00  0.00    -0.206 F 
ATOM     82  C   UNL     1       8.876  10.919 -10.538  1.00  0.00     0.022 A 
BRANCH  79  83
ATOM     83  S   UNL     1       6.162  11.131 -11.144  1.00  0.00     0.124 S 
ATOM     84  O   UNL     1       5.586   9.852 -11.548  1.00  0.00    -0.237 OA
ATOM     85  O   UNL     1       5.375  11.915 -10.198  1.00  0.00    -0.237 OA
ATOM     86  O   UNL     1       6.779  11.901 -12.223  1.00  0.00    -0.744 OA
ENDBRANCH  79  83
ENDBRANCH  53  76
ENDBRANCH  27  28
ENDBRANCH  19  22
ENDBRANCH  17  18
ENDBRANCH  16  17
ENDBRANCH   1  16
TORSDOF 19
