REMARK SMILES CCC([NH3+])(CC)C(=O)N1C[C@@H](O)C[C@H]1C(=O)NCCCCNC(=O)c1ccc(-c2c3nc(c(-c4cc(S(=O)(=O)[O-])ccc4F)c4ccc([nH]4)c(-c4cc(S(=O)(=O)[O-])ccc4F)c4nc(c(-c5cc(S(=O)(=O)[O-])ccc5F)c5ccc2[nH]5)C=C4)C=C3)cc1
REMARK SMILES IDX 19 1 18 2 17 3 15 4 16 5 14 7 9 8 10 9 11 10 13 11 7 12 8 13
REMARK SMILES IDX 3 14 2 15 1 16 4 17 5 21 6 22 12 23 20 25 21 26 22 27 23 28
REMARK SMILES IDX 24 30 25 31 26 32 87 33 27 34 86 35 28 36 29 37 30 38 80 39
REMARK SMILES IDX 31 40 85 41 79 42 81 43 32 44 84 45 78 46 77 47 33 49 65 50
REMARK SMILES IDX 45 51 64 52 46 53 49 54 63 55 82 56 47 57 48 58 62 60 83 61
REMARK SMILES IDX 50 62 34 63 35 64 43 65 36 66 42 67 44 68 41 69 37 70 38 71
REMARK SMILES IDX 39 72 40 73 66 74 67 75 75 76 68 77 74 78 76 79 73 80 69 81
REMARK SMILES IDX 70 82 71 83 72 84 51 85 52 86 60 87 53 88 59 89 61 90 58 91
REMARK SMILES IDX 54 92 55 93 56 94 57 95
REMARK H PARENT 17 6 4 18 4 19 4 20 12 24 22 29 81 48 49 59
REMARK Flexibility Score: inf
ROOT
ATOM      1  C   UNL     1       5.142   3.559  -3.467  1.00  0.00     0.023 C 
ENDROOT
BRANCH   1   2
ATOM      2  C   UNL     1       5.696   2.340  -4.190  1.00  0.00     0.116 C 
BRANCH   2   3
ATOM      3  N   UNL     1       6.148   1.313  -3.281  1.00  0.00    -0.354 N 
ATOM      4  C   UNL     1       5.645   0.071  -3.035  1.00  0.00     0.242 C 
ATOM      5  O   UNL     1       6.354  -0.704  -2.383  1.00  0.00    -0.273 OA
ATOM      6  H   UNL     1       6.947   1.548  -2.755  1.00  0.00     0.163 HD
BRANCH   4   7
ATOM      7  C   UNL     1       4.364  -0.454  -3.723  1.00  0.00     0.177 C 
ATOM      8  N   UNL     1       3.142   0.363  -3.696  1.00  0.00    -0.323 N 
ATOM      9  C   UNL     1       2.609   0.567  -5.031  1.00  0.00     0.152 C 
ATOM     10  C   UNL     1       3.377  -0.384  -5.944  1.00  0.00     0.136 C 
ATOM     11  C   UNL     1       4.659  -0.730  -5.201  1.00  0.00     0.069 C 
BRANCH   8  12
ATOM     12  C   UNL     1       2.571   0.631  -2.462  1.00  0.00     0.284 C 
ATOM     13  O   UNL     1       3.299   0.618  -1.464  1.00  0.00    -0.268 OA
BRANCH  12  14
ATOM     14  C   UNL     1       1.011   0.824  -2.297  1.00  0.00     0.173 C 
BRANCH  14  15
ATOM     15  C   UNL     1       0.638   1.005  -0.788  1.00  0.00     0.075 C 
ATOM     16  C   UNL     1       0.873  -0.188   0.143  1.00  0.00     0.011 C 
ENDBRANCH  14  15
BRANCH  14  17
ATOM     17  N   UNL     1       0.329  -0.415  -2.768  1.00  0.00    -0.345 N 
ATOM     18  H   UNL     1      -0.681  -0.305  -2.668  1.00  0.00     0.345 HD
ATOM     19  H   UNL     1       0.641  -1.208  -2.209  1.00  0.00     0.345 HD
ATOM     20  H   UNL     1       0.557  -0.578  -3.748  1.00  0.00     0.345 HD
ENDBRANCH  14  17
BRANCH  14  21
ATOM     21  C   UNL     1       0.433   2.024  -3.089  1.00  0.00     0.075 C 
ATOM     22  C   UNL     1       1.019   3.382  -2.721  1.00  0.00     0.011 C 
ENDBRANCH  14  21
ENDBRANCH  12  14
ENDBRANCH   8  12
BRANCH  10  23
ATOM     23  O   UNL     1       3.654   0.201  -7.208  1.00  0.00    -0.391 OA
ATOM     24  H   UNL     1       4.181   1.006  -7.083  1.00  0.00     0.211 HD
ENDBRANCH  10  23
ENDBRANCH   4   7
ENDBRANCH   2   3
ENDBRANCH   1   2
BRANCH   1  25
ATOM     25  C   UNL     1       6.186   4.398  -2.728  1.00  0.00     0.023 C 
BRANCH  25  26
ATOM     26  C   UNL     1       7.384   4.849  -3.559  1.00  0.00     0.116 C 
BRANCH  26  27
ATOM     27  N   UNL     1       7.013   5.580  -4.761  1.00  0.00    -0.352 N 
ATOM     28  C   UNL     1       7.633   6.667  -5.331  1.00  0.00     0.251 C 
ATOM     29  H   UNL     1       6.210   5.253  -5.228  1.00  0.00     0.163 HD
ATOM     30  O   UNL     1       7.120   7.223  -6.298  1.00  0.00    -0.269 OA
BRANCH  28  31
ATOM     31  C   UNL     1       8.890   7.182  -4.745  1.00  0.00     0.039 A 
ATOM     32  C   UNL     1       9.000   8.550  -4.482  1.00  0.00     0.014 A 
ATOM     33  C   UNL     1       9.939   6.316  -4.423  1.00  0.00     0.014 A 
ATOM     34  C   UNL     1      10.134   9.039  -3.829  1.00  0.00     0.010 A 
ATOM     35  C   UNL     1      11.038   6.796  -3.714  1.00  0.00     0.010 A 
ATOM     36  C   UNL     1      11.145   8.161  -3.406  1.00  0.00    -0.014 A 
BRANCH  36  37
ATOM     37  C   UNL     1      12.322   8.652  -2.642  1.00  0.00     0.031 A 
ATOM     38  C   UNL     1      13.700   8.550  -3.238  1.00  0.00     0.074 A 
ATOM     39  C   UNL     1      12.158   9.126  -1.391  1.00  0.00     0.049 A 
ATOM     40  N   UNL     1      14.858   8.838  -2.703  1.00  0.00    -0.248 NA
ATOM     41  C   UNL     1      13.785   8.023  -4.608  1.00  0.00     0.031 C 
ATOM     42  C   UNL     1      10.877   9.236  -0.689  1.00  0.00     0.029 A 
ATOM     43  N   UNL     1      13.073   9.594  -0.481  1.00  0.00    -0.354 N 
ATOM     44  C   UNL     1      15.811   8.517  -3.664  1.00  0.00     0.074 A 
ATOM     45  C   UNL     1      15.095   7.954  -4.790  1.00  0.00     0.031 C 
ATOM     46  C   UNL     1      11.086   9.758   0.530  1.00  0.00     0.029 A 
ATOM     47  C   UNL     1      12.517   9.980   0.717  1.00  0.00     0.049 A 
ATOM     48  H   UNL     1      14.038   9.648  -0.668  1.00  0.00     0.167 HD
ATOM     49  C   UNL     1      17.155   8.695  -3.620  1.00  0.00     0.034 A 
ATOM     50  C   UNL     1      13.095  10.451   1.840  1.00  0.00     0.034 A 
ATOM     51  C   UNL     1      17.852   9.271  -2.496  1.00  0.00     0.049 A 
ATOM     52  C   UNL     1      14.592  10.630   1.869  1.00  0.00     0.074 A 
ATOM     53  C   UNL     1      19.204   9.539  -2.364  1.00  0.00     0.029 A 
ATOM     54  N   UNL     1      17.253   9.667  -1.307  1.00  0.00    -0.354 N 
ATOM     55  N   UNL     1      15.475  10.361   0.933  1.00  0.00    -0.248 NA
ATOM     56  C   UNL     1      15.169  11.188   3.098  1.00  0.00     0.031 C 
ATOM     57  C   UNL     1      19.429  10.041  -1.077  1.00  0.00     0.029 A 
ATOM     58  C   UNL     1      18.209  10.155  -0.430  1.00  0.00     0.049 A 
ATOM     59  H   UNL     1      16.289   9.609  -1.115  1.00  0.00     0.167 HD
ATOM     60  C   UNL     1      16.706  10.753   1.452  1.00  0.00     0.074 A 
ATOM     61  C   UNL     1      16.449  11.287   2.774  1.00  0.00     0.031 C 
ATOM     62  C   UNL     1      17.938  10.682   0.886  1.00  0.00     0.034 A 
BRANCH  49  63
ATOM     63  C   UNL     1      17.953   8.241  -4.819  1.00  0.00     0.023 A 
ATOM     64  C   UNL     1      17.775   8.825  -6.086  1.00  0.00     0.031 A 
ATOM     65  C   UNL     1      18.883   7.193  -4.703  1.00  0.00     0.131 A 
ATOM     66  C   UNL     1      18.456   8.307  -7.198  1.00  0.00     0.055 A 
ATOM     67  C   UNL     1      19.619   6.737  -5.799  1.00  0.00     0.041 A 
ATOM     68  F   UNL     1      19.081   6.583  -3.524  1.00  0.00    -0.206 F 
ATOM     69  C   UNL     1      19.396   7.285  -7.059  1.00  0.00     0.022 A 
BRANCH  66  70
ATOM     70  S   UNL     1      17.990   8.896  -8.849  1.00  0.00     0.124 S 
ATOM     71  O   UNL     1      16.579   8.520  -8.908  1.00  0.00    -0.237 OA
ATOM     72  O   UNL     1      18.267  10.325  -8.765  1.00  0.00    -0.237 OA
ATOM     73  O   UNL     1      18.866   8.142  -9.743  1.00  0.00    -0.744 OA
ENDBRANCH  66  70
ENDBRANCH  49  63
BRANCH  50  74
ATOM     74  C   UNL     1      12.270  10.784   3.037  1.00  0.00     0.023 A 
ATOM     75  C   UNL     1      12.182  12.103   3.508  1.00  0.00     0.031 A 
ATOM     76  C   UNL     1      11.600   9.780   3.759  1.00  0.00     0.131 A 
ATOM     77  C   UNL     1      11.489  12.378   4.697  1.00  0.00     0.055 A 
ATOM     78  C   UNL     1      10.866  10.066   4.912  1.00  0.00     0.041 A 
ATOM     79  F   UNL     1      11.645   8.503   3.347  1.00  0.00    -0.206 F 
ATOM     80  C   UNL     1      10.820  11.370   5.396  1.00  0.00     0.022 A 
BRANCH  77  81
ATOM     81  S   UNL     1      11.552  14.061   5.369  1.00  0.00     0.124 S 
ATOM     82  O   UNL     1      12.989  14.273   5.507  1.00  0.00    -0.237 OA
ATOM     83  O   UNL     1      10.888  14.830   4.322  1.00  0.00    -0.237 OA
ATOM     84  O   UNL     1      10.813  13.954   6.625  1.00  0.00    -0.744 OA
ENDBRANCH  77  81
ENDBRANCH  50  74
BRANCH  62  85
ATOM     85  C   UNL     1      19.088  11.250   1.679  1.00  0.00     0.023 A 
ATOM     86  C   UNL     1      19.531  10.657   2.874  1.00  0.00     0.031 A 
ATOM     87  C   UNL     1      19.740  12.415   1.237  1.00  0.00     0.131 A 
ATOM     88  C   UNL     1      20.557  11.262   3.616  1.00  0.00     0.055 A 
ATOM     89  C   UNL     1      20.799  12.980   1.949  1.00  0.00     0.041 A 
ATOM     90  F   UNL     1      19.358  13.024   0.103  1.00  0.00    -0.206 F 
ATOM     91  C   UNL     1      21.204  12.411   3.153  1.00  0.00     0.022 A 
BRANCH  88  92
ATOM     92  S   UNL     1      20.976  10.577   5.243  1.00  0.00     0.124 S 
ATOM     93  O   UNL     1      19.700  10.664   5.947  1.00  0.00    -0.237 OA
ATOM     94  O   UNL     1      21.429   9.231   4.907  1.00  0.00    -0.237 OA
ATOM     95  O   UNL     1      22.018  11.476   5.735  1.00  0.00    -0.744 OA
ENDBRANCH  88  92
ENDBRANCH  62  85
ENDBRANCH  36  37
ENDBRANCH  28  31
ENDBRANCH  26  27
ENDBRANCH  25  26
ENDBRANCH   1  25
TORSDOF 20
