REMARK SMILES C[C@]([NH3+])(Cc1ccc(I)cc1)C(=O)NCCCCNC(=O)c1ccc(-c2c3nc(c(-c4cc(S(=O)(=O)[O-])ccc4F)c4ccc([nH]4)c(-c4cc(S(=O)(=O)[O-])ccc4F)c4nc(c(-c5cc(S(=O)(=O)[O-])ccc5F)c5ccc2[nH]5)C=C4)C=C3)cc1
REMARK SMILES IDX 17 1 16 2 15 3 14 4 12 5 13 6 2 8 1 9 4 10 5 11 6 12 11 13
REMARK SMILES IDX 7 14 10 15 8 16 9 17 3 18 18 22 19 23 20 24 21 26 22 27
REMARK SMILES IDX 23 28 84 29 24 30 83 31 25 32 26 33 27 34 77 35 28 36 82 37
REMARK SMILES IDX 76 38 78 39 29 40 81 41 75 42 74 43 30 45 62 46 42 47 61 48
REMARK SMILES IDX 43 49 46 50 60 51 79 52 44 53 45 54 59 56 80 57 47 58 31 59
REMARK SMILES IDX 32 60 40 61 33 62 39 63 41 64 38 65 34 66 35 67 36 68 37 69
REMARK SMILES IDX 63 70 64 71 72 72 65 73 71 74 73 75 70 76 66 77 67 78 68 79
REMARK SMILES IDX 69 80 48 81 49 82 57 83 50 84 56 85 58 86 55 87 51 88 52 89
REMARK SMILES IDX 53 90 54 91
REMARK H PARENT 14 7 3 19 3 20 3 21 19 25 78 44 46 55
REMARK Flexibility Score: inf
ROOT
ATOM      1  C   UNL     1      -1.221   4.963   3.667  1.00  0.00     0.023 C 
ENDROOT
BRANCH   1   2
ATOM      2  C   UNL     1      -1.481   4.423   2.264  1.00  0.00     0.023 C 
BRANCH   2   3
ATOM      3  C   UNL     1      -0.231   4.150   1.434  1.00  0.00     0.116 C 
BRANCH   3   4
ATOM      4  N   UNL     1       0.610   3.123   2.013  1.00  0.00    -0.351 N 
ATOM      5  C   UNL     1       1.016   1.908   1.554  1.00  0.00     0.281 C 
ATOM      6  O   UNL     1       1.723   1.244   2.325  1.00  0.00    -0.268 OA
ATOM      7  H   UNL     1       0.953   3.346   2.908  1.00  0.00     0.163 HD
BRANCH   5   8
ATOM      8  C   UNL     1       0.591   1.332   0.163  1.00  0.00     0.175 C 
ATOM      9  C   UNL     1       0.996   2.258  -0.995  1.00  0.00     0.090 C 
BRANCH   8  10
ATOM     10  C   UNL     1      -0.929   0.994   0.140  1.00  0.00     0.114 C 
BRANCH  10  11
ATOM     11  C   UNL     1      -1.411   0.019   1.204  1.00  0.00    -0.041 A 
ATOM     12  C   UNL     1      -2.104   0.477   2.334  1.00  0.00     0.005 A 
ATOM     13  C   UNL     1      -1.165  -1.355   1.094  1.00  0.00     0.005 A 
ATOM     14  C   UNL     1      -2.493  -0.398   3.351  1.00  0.00     0.015 A 
ATOM     15  C   UNL     1      -1.545  -2.236   2.112  1.00  0.00     0.015 A 
ATOM     16  C   UNL     1      -2.200  -1.753   3.242  1.00  0.00     0.013 A 
ATOM     17  I   UNL     1      -2.737  -3.055   4.768  1.00  0.00    -0.044 I 
ENDBRANCH  10  11
ENDBRANCH   8  10
BRANCH   8  18
ATOM     18  N   UNL     1       1.422   0.117  -0.094  1.00  0.00    -0.345 N 
ATOM     19  H   UNL     1       1.234  -0.582   0.626  1.00  0.00     0.345 HD
ATOM     20  H   UNL     1       2.410   0.369  -0.072  1.00  0.00     0.345 HD
ATOM     21  H   UNL     1       1.189  -0.268  -1.009  1.00  0.00     0.345 HD
ENDBRANCH   8  18
ENDBRANCH   5   8
ENDBRANCH   3   4
ENDBRANCH   2   3
ENDBRANCH   1   2
BRANCH   1  22
ATOM     22  C   UNL     1      -0.431   6.263   3.698  1.00  0.00     0.116 C 
BRANCH  22  23
ATOM     23  N   UNL     1      -1.060   7.310   2.908  1.00  0.00    -0.352 N 
ATOM     24  C   UNL     1      -1.353   8.603   3.260  1.00  0.00     0.251 C 
ATOM     25  H   UNL     1      -1.309   7.055   1.990  1.00  0.00     0.163 HD
ATOM     26  O   UNL     1      -2.060   9.288   2.525  1.00  0.00    -0.269 OA
BRANCH  24  27
ATOM     27  C   UNL     1      -0.839   9.146   4.533  1.00  0.00     0.039 A 
ATOM     28  C   UNL     1      -1.689   9.904   5.340  1.00  0.00     0.014 A 
ATOM     29  C   UNL     1       0.475   8.893   4.936  1.00  0.00     0.014 A 
ATOM     30  C   UNL     1      -1.235  10.363   6.576  1.00  0.00     0.010 A 
ATOM     31  C   UNL     1       0.893   9.268   6.207  1.00  0.00     0.010 A 
ATOM     32  C   UNL     1       0.049  10.021   7.035  1.00  0.00    -0.014 A 
BRANCH  32  33
ATOM     33  C   UNL     1       0.531  10.471   8.366  1.00  0.00     0.031 A 
ATOM     34  C   UNL     1       1.726  11.383   8.462  1.00  0.00     0.074 A 
ATOM     35  C   UNL     1      -0.079  10.025   9.482  1.00  0.00     0.049 A 
ATOM     36  N   UNL     1       2.322  11.856   9.526  1.00  0.00    -0.248 NA
ATOM     37  C   UNL     1       2.354  11.789   7.195  1.00  0.00     0.031 C 
ATOM     38  C   UNL     1      -1.212   9.095   9.512  1.00  0.00     0.029 A 
ATOM     39  N   UNL     1       0.166  10.287  10.806  1.00  0.00    -0.354 N 
ATOM     40  C   UNL     1       3.400  12.601   9.058  1.00  0.00     0.074 A 
ATOM     41  C   UNL     1       3.414  12.460   7.619  1.00  0.00     0.031 C 
ATOM     42  C   UNL     1      -1.582   8.893  10.787  1.00  0.00     0.029 A 
ATOM     43  C   UNL     1      -0.688   9.638  11.668  1.00  0.00     0.049 A 
ATOM     44  H   UNL     1       0.886  10.885  11.112  1.00  0.00     0.167 HD
ATOM     45  C   UNL     1       4.280  13.353   9.763  1.00  0.00     0.034 A 
ATOM     46  C   UNL     1      -0.740   9.636  13.014  1.00  0.00     0.034 A 
ATOM     47  C   UNL     1       4.237  13.496  11.198  1.00  0.00     0.049 A 
ATOM     48  C   UNL     1       0.250  10.485  13.775  1.00  0.00     0.074 A 
ATOM     49  C   UNL     1       5.039  14.278  12.010  1.00  0.00     0.029 A 
ATOM     50  N   UNL     1       3.347  12.836  12.037  1.00  0.00    -0.354 N 
ATOM     51  N   UNL     1       1.224  11.236  13.312  1.00  0.00    -0.248 NA
ATOM     52  C   UNL     1       0.119  10.502  15.236  1.00  0.00     0.031 C 
ATOM     53  C   UNL     1       4.687  14.033  13.341  1.00  0.00     0.029 A 
ATOM     54  C   UNL     1       3.602  13.171  13.359  1.00  0.00     0.049 A 
ATOM     55  H   UNL     1       2.639  12.221  11.738  1.00  0.00     0.167 HD
ATOM     56  C   UNL     1       1.796  11.844  14.428  1.00  0.00     0.074 A 
ATOM     57  C   UNL     1       1.042  11.387  15.577  1.00  0.00     0.031 C 
ATOM     58  C   UNL     1       2.846  12.702  14.497  1.00  0.00     0.034 A 
BRANCH  45  59
ATOM     59  C   UNL     1       5.375  14.055   8.994  1.00  0.00     0.023 A 
ATOM     60  C   UNL     1       5.094  15.036   8.026  1.00  0.00     0.031 A 
ATOM     61  C   UNL     1       6.724  13.727   9.222  1.00  0.00     0.131 A 
ATOM     62  C   UNL     1       6.137  15.604   7.278  1.00  0.00     0.055 A 
ATOM     63  C   UNL     1       7.763  14.357   8.534  1.00  0.00     0.041 A 
ATOM     64  F   UNL     1       7.056  12.780  10.114  1.00  0.00    -0.206 F 
ATOM     65  C   UNL     1       7.472  15.291   7.545  1.00  0.00     0.022 A 
BRANCH  62  66
ATOM     66  S   UNL     1       5.717  16.652   5.859  1.00  0.00     0.124 S 
ATOM     67  O   UNL     1       4.933  15.733   5.036  1.00  0.00    -0.237 OA
ATOM     68  O   UNL     1       4.976  17.743   6.480  1.00  0.00    -0.237 OA
ATOM     69  O   UNL     1       7.019  17.017   5.304  1.00  0.00    -0.744 OA
ENDBRANCH  62  66
ENDBRANCH  45  59
BRANCH  46  70
ATOM     70  C   UNL     1      -1.749   8.808  13.738  1.00  0.00     0.023 A 
ATOM     71  C   UNL     1      -2.725   9.399  14.556  1.00  0.00     0.031 A 
ATOM     72  C   UNL     1      -1.715   7.404  13.667  1.00  0.00     0.131 A 
ATOM     73  C   UNL     1      -3.585   8.592  15.318  1.00  0.00     0.055 A 
ATOM     74  C   UNL     1      -2.614   6.606  14.377  1.00  0.00     0.041 A 
ATOM     75  F   UNL     1      -0.807   6.784  12.896  1.00  0.00    -0.206 F 
ATOM     76  C   UNL     1      -3.545   7.200  15.223  1.00  0.00     0.022 A 
BRANCH  73  77
ATOM     77  S   UNL     1      -4.685   9.388  16.520  1.00  0.00     0.124 S 
ATOM     78  O   UNL     1      -3.737  10.130  17.344  1.00  0.00    -0.237 OA
ATOM     79  O   UNL     1      -5.549  10.187  15.657  1.00  0.00    -0.237 OA
ATOM     80  O   UNL     1      -5.338   8.260  17.181  1.00  0.00    -0.744 OA
ENDBRANCH  73  77
ENDBRANCH  46  70
BRANCH  58  81
ATOM     81  C   UNL     1       3.197  13.246  15.863  1.00  0.00     0.023 A 
ATOM     82  C   UNL     1       3.642  12.412  16.903  1.00  0.00     0.031 A 
ATOM     83  C   UNL     1       3.050  14.618  16.135  1.00  0.00     0.131 A 
ATOM     84  C   UNL     1       3.846  12.943  18.186  1.00  0.00     0.055 A 
ATOM     85  C   UNL     1       3.330  15.153  17.392  1.00  0.00     0.041 A 
ATOM     86  F   UNL     1       2.626  15.463  15.181  1.00  0.00    -0.206 F 
ATOM     87  C   UNL     1       3.711  14.311  18.432  1.00  0.00     0.022 A 
BRANCH  84  88
ATOM     88  S   UNL     1       4.157  11.800  19.559  1.00  0.00     0.124 S 
ATOM     89  O   UNL     1       3.004  10.909  19.479  1.00  0.00    -0.237 OA
ATOM     90  O   UNL     1       5.442  11.215  19.192  1.00  0.00    -0.237 OA
ATOM     91  O   UNL     1       4.185  12.673  20.732  1.00  0.00    -0.744 OA
ENDBRANCH  84  88
ENDBRANCH  58  81
ENDBRANCH  32  33
ENDBRANCH  24  27
ENDBRANCH  22  23
ENDBRANCH   1  22
TORSDOF 17
