REMARK SMILES CCNC(=O)c1cccc(-c2ccc(Cl)c(C(=O)NCCCCNC(=O)c3ccc(-c4c5nc(c(-c6cc(S(=O)(=O)[O-])ccc6F)c6ccc([nH]6)c(-c6cc(S(=O)(=O)[O-])ccc6F)c6nc(c(-c7cc(S(=O)(=O)[O-])ccc7F)c7ccc4[nH]7)C=C6)C=C5)cc3)c2)c1
REMARK SMILES IDX 21 1 20 2 19 3 17 4 18 5 16 7 11 8 12 9 90 10 13 11 14 12
REMARK SMILES IDX 15 13 10 14 6 15 7 16 91 17 8 18 9 19 4 20 3 21 5 23 2 24
REMARK SMILES IDX 1 25 22 26 23 27 24 28 25 29 26 31 27 32 28 33 89 34 29 35
REMARK SMILES IDX 88 36 30 37 31 38 32 39 82 40 33 41 87 42 81 43 83 44 34 45
REMARK SMILES IDX 86 46 80 47 79 48 35 50 67 51 47 52 66 53 48 54 51 55 65 56
REMARK SMILES IDX 84 57 49 58 50 59 64 61 85 62 52 63 36 64 37 65 45 66 38 67
REMARK SMILES IDX 44 68 46 69 43 70 39 71 40 72 41 73 42 74 68 75 69 76 77 77
REMARK SMILES IDX 70 78 76 79 78 80 75 81 71 82 72 83 73 84 74 85 53 86 54 87
REMARK SMILES IDX 62 88 55 89 61 90 63 91 60 92 56 93 57 94 58 95 59 96
REMARK H PARENT 19 6 3 22 24 30 83 49 51 60
REMARK Flexibility Score: inf
ROOT
ATOM      1  C   UNL     1      -2.961   7.793  -1.136  1.00  0.00     0.023 C 
ENDROOT
BRANCH   1   2
ATOM      2  C   UNL     1      -2.664   6.742  -0.078  1.00  0.00     0.116 C 
BRANCH   2   3
ATOM      3  N   UNL     1      -3.109   7.056   1.276  1.00  0.00    -0.352 N 
ATOM      4  C   UNL     1      -3.697   6.277   2.260  1.00  0.00     0.252 C 
ATOM      5  O   UNL     1      -3.825   6.762   3.381  1.00  0.00    -0.269 OA
ATOM      6  H   UNL     1      -2.963   7.993   1.540  1.00  0.00     0.163 HD
BRANCH   4   7
ATOM      7  C   UNL     1      -4.182   4.893   1.984  1.00  0.00     0.059 A 
ATOM      8  C   UNL     1      -3.986   2.929   0.527  1.00  0.00    -0.017 A 
ATOM      9  C   UNL     1      -5.178   2.436   1.069  1.00  0.00     0.010 A 
ATOM     10  C   UNL     1      -3.441   4.079   1.120  1.00  0.00     0.024 A 
ATOM     11  C   UNL     1      -5.846   3.138   2.077  1.00  0.00     0.022 A 
ATOM     12  C   UNL     1      -5.380   4.390   2.502  1.00  0.00     0.053 A 
ATOM     13  Cl  UNL     1      -6.385   5.242   3.619  1.00  0.00    -0.083 Cl
BRANCH   8  14
ATOM     14  C   UNL     1      -3.389   2.388  -0.715  1.00  0.00    -0.018 A 
ATOM     15  C   UNL     1      -1.449   2.021  -2.165  1.00  0.00     0.040 A 
ATOM     16  C   UNL     1      -2.285   1.619  -3.208  1.00  0.00     0.014 A 
ATOM     17  C   UNL     1      -2.004   2.437  -0.948  1.00  0.00     0.022 A 
ATOM     18  C   UNL     1      -3.662   1.578  -3.011  1.00  0.00     0.001 A 
ATOM     19  C   UNL     1      -4.203   1.947  -1.776  1.00  0.00     0.009 A 
BRANCH  15  20
ATOM     20  C   UNL     1       0.008   2.104  -2.415  1.00  0.00     0.251 C 
ATOM     21  N   UNL     1       0.916   1.758  -1.447  1.00  0.00    -0.352 N 
ATOM     22  H   UNL     1       1.845   2.019  -1.643  1.00  0.00     0.163 HD
ATOM     23  O   UNL     1       0.405   2.489  -3.512  1.00  0.00    -0.269 OA
BRANCH  21  24
ATOM     24  C   UNL     1       0.733   1.068  -0.181  1.00  0.00     0.112 C 
ATOM     25  C   UNL     1       1.428  -0.279  -0.187  1.00  0.00     0.027 C 
ENDBRANCH  21  24
ENDBRANCH  15  20
ENDBRANCH   8  14
ENDBRANCH   4   7
ENDBRANCH   2   3
ENDBRANCH   1   2
BRANCH   1  26
ATOM     26  C   UNL     1      -2.343   9.168  -0.934  1.00  0.00     0.023 C 
BRANCH  26  27
ATOM     27  C   UNL     1      -0.847   9.204  -0.647  1.00  0.00     0.116 C 
BRANCH  27  28
ATOM     28  N   UNL     1      -0.029   8.569  -1.668  1.00  0.00    -0.352 N 
ATOM     29  C   UNL     1       1.067   9.055  -2.353  1.00  0.00     0.251 C 
ATOM     30  H   UNL     1      -0.298   7.654  -1.908  1.00  0.00     0.163 HD
ATOM     31  O   UNL     1       1.575   8.380  -3.233  1.00  0.00    -0.269 OA
BRANCH  29  32
ATOM     32  C   UNL     1       1.593  10.408  -2.052  1.00  0.00     0.039 A 
ATOM     33  C   UNL     1       1.915  11.255  -3.117  1.00  0.00     0.014 A 
ATOM     34  C   UNL     1       1.755  10.851  -0.738  1.00  0.00     0.014 A 
ATOM     35  C   UNL     1       2.317  12.569  -2.863  1.00  0.00     0.010 A 
ATOM     36  C   UNL     1       2.068  12.185  -0.489  1.00  0.00     0.010 A 
ATOM     37  C   UNL     1       2.356  13.059  -1.548  1.00  0.00    -0.014 A 
BRANCH  37  38
ATOM     38  C   UNL     1       2.720  14.472  -1.257  1.00  0.00     0.031 A 
ATOM     39  C   UNL     1       3.950  14.775  -0.442  1.00  0.00     0.074 A 
ATOM     40  C   UNL     1       1.917  15.473  -1.666  1.00  0.00     0.049 A 
ATOM     41  N   UNL     1       4.394  15.926  -0.006  1.00  0.00    -0.248 NA
ATOM     42  C   UNL     1       4.765  13.622  -0.032  1.00  0.00     0.031 C 
ATOM     43  C   UNL     1       0.674  15.306  -2.423  1.00  0.00     0.029 A 
ATOM     44  N   UNL     1       2.019  16.832  -1.497  1.00  0.00    -0.354 N 
ATOM     45  C   UNL     1       5.530  15.634   0.743  1.00  0.00     0.074 A 
ATOM     46  C   UNL     1       5.658  14.192   0.761  1.00  0.00     0.031 C 
ATOM     47  C   UNL     1       0.147  16.515  -2.677  1.00  0.00     0.029 A 
ATOM     48  C   UNL     1       0.987  17.541  -2.067  1.00  0.00     0.049 A 
ATOM     49  H   UNL     1       2.762  17.259  -1.013  1.00  0.00     0.167 HD
ATOM     50  C   UNL     1       6.401  16.488   1.337  1.00  0.00     0.034 A 
ATOM     51  C   UNL     1       0.743  18.867  -2.091  1.00  0.00     0.034 A 
ATOM     52  C   UNL     1       6.268  17.924   1.294  1.00  0.00     0.049 A 
ATOM     53  C   UNL     1       1.720  19.799  -1.419  1.00  0.00     0.074 A 
ATOM     54  C   UNL     1       7.113  18.886   1.819  1.00  0.00     0.029 A 
ATOM     55  N   UNL     1       5.217  18.607   0.693  1.00  0.00    -0.354 N 
ATOM     56  N   UNL     1       2.813  19.510  -0.751  1.00  0.00    -0.248 NA
ATOM     57  C   UNL     1       1.435  21.236  -1.515  1.00  0.00     0.031 C 
ATOM     58  C   UNL     1       6.545  20.144   1.588  1.00  0.00     0.029 A 
ATOM     59  C   UNL     1       5.382  19.974   0.853  1.00  0.00     0.049 A 
ATOM     60  H   UNL     1       4.465  18.181   0.221  1.00  0.00     0.167 HD
ATOM     61  C   UNL     1       3.365  20.733  -0.381  1.00  0.00     0.074 A 
ATOM     62  C   UNL     1       2.490  21.760  -0.908  1.00  0.00     0.031 C 
ATOM     63  C   UNL     1       4.497  20.986   0.326  1.00  0.00     0.034 A 
BRANCH  50  64
ATOM     64  C   UNL     1       7.556  15.877   2.097  1.00  0.00     0.023 A 
ATOM     65  C   UNL     1       8.513  15.068   1.457  1.00  0.00     0.031 A 
ATOM     66  C   UNL     1       7.677  16.060   3.485  1.00  0.00     0.131 A 
ATOM     67  C   UNL     1       9.485  14.397   2.215  1.00  0.00     0.055 A 
ATOM     68  C   UNL     1       8.704  15.463   4.221  1.00  0.00     0.041 A 
ATOM     69  F   UNL     1       6.785  16.804   4.157  1.00  0.00    -0.206 F 
ATOM     70  C   UNL     1       9.604  14.610   3.589  1.00  0.00     0.022 A 
BRANCH  67  71
ATOM     71  S   UNL     1      10.480  13.116   1.403  1.00  0.00     0.124 S 
ATOM     72  O   UNL     1       9.448  12.195   0.934  1.00  0.00    -0.237 OA
ATOM     73  O   UNL     1      11.182  13.868   0.370  1.00  0.00    -0.237 OA
ATOM     74  O   UNL     1      11.321  12.601   2.481  1.00  0.00    -0.744 OA
ENDBRANCH  67  71
ENDBRANCH  50  64
BRANCH  51  75
ATOM     75  C   UNL     1      -0.468  19.402  -2.777  1.00  0.00     0.023 A 
ATOM     76  C   UNL     1      -0.352  20.212  -3.919  1.00  0.00     0.031 A 
ATOM     77  C   UNL     1      -1.758  19.144  -2.280  1.00  0.00     0.131 A 
ATOM     78  C   UNL     1      -1.501  20.774  -4.498  1.00  0.00     0.055 A 
ATOM     79  C   UNL     1      -2.901  19.664  -2.890  1.00  0.00     0.041 A 
ATOM     80  F   UNL     1      -1.925  18.369  -1.196  1.00  0.00    -0.206 F 
ATOM     81  C   UNL     1      -2.775  20.495  -3.998  1.00  0.00     0.022 A 
BRANCH  78  82
ATOM     82  S   UNL     1      -1.298  21.941  -5.872  1.00  0.00     0.124 S 
ATOM     83  O   UNL     1      -0.466  22.973  -5.265  1.00  0.00    -0.237 OA
ATOM     84  O   UNL     1      -0.655  21.109  -6.883  1.00  0.00    -0.237 OA
ATOM     85  O   UNL     1      -2.669  22.344  -6.181  1.00  0.00    -0.744 OA
ENDBRANCH  78  82
ENDBRANCH  51  75
BRANCH  63  86
ATOM     86  C   UNL     1       4.876  22.435   0.516  1.00  0.00     0.023 A 
ATOM     87  C   UNL     1       4.104  23.308   1.302  1.00  0.00     0.031 A 
ATOM     88  C   UNL     1       6.024  22.949  -0.113  1.00  0.00     0.131 A 
ATOM     89  C   UNL     1       4.457  24.663   1.391  1.00  0.00     0.055 A 
ATOM     90  C   UNL     1       6.404  24.284   0.029  1.00  0.00     0.041 A 
ATOM     91  F   UNL     1       6.798  22.160  -0.876  1.00  0.00    -0.206 F 
ATOM     92  C   UNL     1       5.611  25.153   0.773  1.00  0.00     0.022 A 
BRANCH  89  93
ATOM     93  S   UNL     1       3.336  25.801   2.250  1.00  0.00     0.124 S 
ATOM     94  O   UNL     1       2.094  25.624   1.505  1.00  0.00    -0.237 OA
ATOM     95  O   UNL     1       3.343  25.277   3.612  1.00  0.00    -0.237 OA
ATOM     96  O   UNL     1       3.978  27.105   2.086  1.00  0.00    -0.744 OA
ENDBRANCH  89  93
ENDBRANCH  63  86
ENDBRANCH  37  38
ENDBRANCH  29  32
ENDBRANCH  27  28
ENDBRANCH  26  27
ENDBRANCH   1  26
TORSDOF 17
