REMARK SMILES C[C@H]1[C@H](C(=O)NCCCCNC(=O)c2ccc(-c3c4nc(c(-c5cc(S(=O)(=O)[O-])ccc5F)c5ccc([nH]5)c(-c5cc(S(=O)(=O)[O-])ccc5F)c5nc(c(-c6cc(S(=O)(=O)[O-])ccc6F)c6ccc3[nH]6)C=C5)C=C4)cc2)CCN1c1ncnc2sccc12
REMARK SMILES IDX 9 1 8 2 7 3 6 4 4 5 5 6 3 8 1 9 2 10 79 11 77 12 78 13 80 14
REMARK SMILES IDX 81 15 88 16 82 17 84 18 87 19 83 20 85 21 86 22 10 23 11 24
REMARK SMILES IDX 12 25 13 27 14 28 15 29 76 30 16 31 75 32 17 33 18 34 19 35
REMARK SMILES IDX 69 36 20 37 74 38 68 39 70 40 21 41 73 42 67 43 66 44 22 46
REMARK SMILES IDX 54 47 34 48 53 49 35 50 38 51 52 52 71 53 36 54 37 55 51 57
REMARK SMILES IDX 72 58 39 59 23 60 24 61 32 62 25 63 31 64 33 65 30 66 26 67
REMARK SMILES IDX 27 68 28 69 29 70 55 71 56 72 64 73 57 74 63 75 65 76 62 77
REMARK SMILES IDX 58 78 59 79 60 80 61 81 40 82 41 83 49 84 42 85 48 86 50 87
REMARK SMILES IDX 47 88 43 89 44 90 45 91 46 92
REMARK H PARENT 6 7 11 26 70 45 38 56
REMARK Flexibility Score: inf
ROOT
ATOM      1  C   UNL     1       0.116   0.637   5.250  1.00  0.00     0.023 C 
ENDROOT
BRANCH   1   2
ATOM      2  C   UNL     1       0.028  -0.091   3.908  1.00  0.00     0.023 C 
BRANCH   2   3
ATOM      3  C   UNL     1      -0.932   0.545   2.906  1.00  0.00     0.116 C 
BRANCH   3   4
ATOM      4  N   UNL     1      -0.431   1.811   2.401  1.00  0.00    -0.356 N 
ATOM      5  C   UNL     1       0.032   2.158   1.170  1.00  0.00     0.225 C 
ATOM      6  O   UNL     1       0.441   3.313   1.020  1.00  0.00    -0.275 OA
ATOM      7  H   UNL     1      -0.424   2.541   3.061  1.00  0.00     0.163 HD
BRANCH   5   8
ATOM      8  C   UNL     1       0.025   1.202  -0.013  1.00  0.00     0.102 C 
ATOM      9  C   UNL     1       2.043  -0.115  -0.753  1.00  0.00     0.032 C 
ATOM     10  C   UNL     1       0.866  -0.059   0.222  1.00  0.00     0.093 C 
ATOM     11  N   UNL     1      -0.059  -1.178  -0.000  1.00  0.00    -0.352 N 
ATOM     12  C   UNL     1      -1.377   0.754  -0.409  1.00  0.00     0.037 C 
ATOM     13  C   UNL     1      -1.326  -0.760  -0.561  1.00  0.00     0.119 C 
BRANCH  11  14
ATOM     14  C   UNL     1       0.236  -2.444   0.461  1.00  0.00     0.141 A 
ATOM     15  N   UNL     1       1.407  -2.593   1.137  1.00  0.00    -0.219 NA
ATOM     16  C   UNL     1      -0.575  -3.607   0.322  1.00  0.00     0.054 A 
ATOM     17  C   UNL     1       1.758  -3.785   1.637  1.00  0.00     0.225 A 
ATOM     18  C   UNL     1      -0.086  -4.771   0.906  1.00  0.00     0.128 A 
ATOM     19  C   UNL     1      -1.840  -3.889  -0.313  1.00  0.00     0.026 A 
ATOM     20  N   UNL     1       1.071  -4.920   1.566  1.00  0.00    -0.225 NA
ATOM     21  S   UNL     1      -1.127  -6.112   0.727  1.00  0.00    -0.124 S 
ATOM     22  C   UNL     1      -2.261  -5.191  -0.147  1.00  0.00     0.068 A 
ENDBRANCH  11  14
ENDBRANCH   5   8
ENDBRANCH   3   4
ENDBRANCH   2   3
ENDBRANCH   1   2
BRANCH   1  23
ATOM     23  C   UNL     1      -1.209   0.807   5.984  1.00  0.00     0.116 C 
BRANCH  23  24
ATOM     24  N   UNL     1      -1.888  -0.455   6.238  1.00  0.00    -0.352 N 
ATOM     25  C   UNL     1      -2.522  -0.876   7.382  1.00  0.00     0.251 C 
ATOM     26  H   UNL     1      -1.894  -1.093   5.488  1.00  0.00     0.163 HD
ATOM     27  O   UNL     1      -2.935  -2.029   7.466  1.00  0.00    -0.269 OA
BRANCH  25  28
ATOM     28  C   UNL     1      -2.662   0.057   8.520  1.00  0.00     0.039 A 
ATOM     29  C   UNL     1      -2.294  -0.373   9.796  1.00  0.00     0.014 A 
ATOM     30  C   UNL     1      -3.116   1.363   8.319  1.00  0.00     0.014 A 
ATOM     31  C   UNL     1      -2.311   0.531  10.860  1.00  0.00     0.010 A 
ATOM     32  C   UNL     1      -3.062   2.281   9.364  1.00  0.00     0.010 A 
ATOM     33  C   UNL     1      -2.656   1.876  10.645  1.00  0.00    -0.014 A 
BRANCH  33  34
ATOM     34  C   UNL     1      -2.595   2.873  11.745  1.00  0.00     0.031 A 
ATOM     35  C   UNL     1      -3.851   3.560  12.208  1.00  0.00     0.074 A 
ATOM     36  C   UNL     1      -1.403   3.207  12.278  1.00  0.00     0.049 A 
ATOM     37  N   UNL     1      -3.996   4.512  13.093  1.00  0.00    -0.248 NA
ATOM     38  C   UNL     1      -5.105   3.140  11.565  1.00  0.00     0.031 C 
ATOM     39  C   UNL     1      -0.111   2.642  11.882  1.00  0.00     0.029 A 
ATOM     40  N   UNL     1      -1.080   4.109  13.261  1.00  0.00    -0.354 N 
ATOM     41  C   UNL     1      -5.354   4.815  13.105  1.00  0.00     0.074 A 
ATOM     42  C   UNL     1      -5.975   3.990  12.091  1.00  0.00     0.031 C 
ATOM     43  C   UNL     1       0.858   3.192  12.630  1.00  0.00     0.029 A 
ATOM     44  C   UNL     1       0.268   4.181  13.526  1.00  0.00     0.049 A 
ATOM     45  H   UNL     1      -1.751   4.654  13.733  1.00  0.00     0.167 HD
ATOM     46  C   UNL     1      -6.023   5.684  13.903  1.00  0.00     0.034 A 
ATOM     47  C   UNL     1       0.953   4.963  14.385  1.00  0.00     0.034 A 
ATOM     48  C   UNL     1      -5.389   6.490  14.918  1.00  0.00     0.049 A 
ATOM     49  C   UNL     1       0.190   5.937  15.248  1.00  0.00     0.074 A 
ATOM     50  C   UNL     1      -5.976   7.360  15.821  1.00  0.00     0.029 A 
ATOM     51  N   UNL     1      -4.021   6.534  15.161  1.00  0.00    -0.354 N 
ATOM     52  N   UNL     1      -1.101   6.173  15.284  1.00  0.00    -0.248 NA
ATOM     53  C   UNL     1       0.976   6.740  16.192  1.00  0.00     0.031 C 
ATOM     54  C   UNL     1      -4.962   7.978  16.560  1.00  0.00     0.029 A 
ATOM     55  C   UNL     1      -3.745   7.438  16.176  1.00  0.00     0.049 A 
ATOM     56  H   UNL     1      -3.346   6.001  14.681  1.00  0.00     0.167 HD
ATOM     57  C   UNL     1      -1.283   7.131  16.277  1.00  0.00     0.074 A 
ATOM     58  C   UNL     1       0.028   7.415  16.824  1.00  0.00     0.031 C 
ATOM     59  C   UNL     1      -2.430   7.720  16.703  1.00  0.00     0.034 A 
BRANCH  46  60
ATOM     60  C   UNL     1      -7.512   5.818  13.688  1.00  0.00     0.023 A 
ATOM     61  C   UNL     1      -8.387   4.732  13.877  1.00  0.00     0.031 A 
ATOM     62  C   UNL     1      -8.065   7.038  13.260  1.00  0.00     0.131 A 
ATOM     63  C   UNL     1      -9.747   4.864  13.560  1.00  0.00     0.055 A 
ATOM     64  C   UNL     1      -9.434   7.186  13.029  1.00  0.00     0.041 A 
ATOM     65  F   UNL     1      -7.280   8.105  13.042  1.00  0.00    -0.206 F 
ATOM     66  C   UNL     1     -10.282   6.091  13.163  1.00  0.00     0.022 A 
BRANCH  63  67
ATOM     67  S   UNL     1     -10.776   3.371  13.531  1.00  0.00     0.124 S 
ATOM     68  O   UNL     1     -10.082   2.554  12.537  1.00  0.00    -0.237 OA
ATOM     69  O   UNL     1     -10.697   2.905  14.910  1.00  0.00    -0.237 OA
ATOM     70  O   UNL     1     -12.086   3.866  13.113  1.00  0.00    -0.744 OA
ENDBRANCH  63  67
ENDBRANCH  46  60
BRANCH  47  71
ATOM     71  C   UNL     1       2.439   4.872  14.472  1.00  0.00     0.023 A 
ATOM     72  C   UNL     1       3.069   4.436  15.648  1.00  0.00     0.031 A 
ATOM     73  C   UNL     1       3.253   5.261  13.393  1.00  0.00     0.131 A 
ATOM     74  C   UNL     1       4.470   4.445  15.736  1.00  0.00     0.055 A 
ATOM     75  C   UNL     1       4.646   5.217  13.467  1.00  0.00     0.041 A 
ATOM     76  F   UNL     1       2.702   5.680  12.243  1.00  0.00    -0.206 F 
ATOM     77  C   UNL     1       5.263   4.820  14.650  1.00  0.00     0.022 A 
BRANCH  74  78
ATOM     78  S   UNL     1       5.242   4.040  17.327  1.00  0.00     0.124 S 
ATOM     79  O   UNL     1       4.647   5.038  18.209  1.00  0.00    -0.237 OA
ATOM     80  O   UNL     1       4.808   2.662  17.532  1.00  0.00    -0.237 OA
ATOM     81  O   UNL     1       6.670   4.210  17.065  1.00  0.00    -0.744 OA
ENDBRANCH  74  78
ENDBRANCH  47  71
BRANCH  59  82
ATOM     82  C   UNL     1      -2.314   8.697  17.848  1.00  0.00     0.023 A 
ATOM     83  C   UNL     1      -1.644   9.925  17.710  1.00  0.00     0.031 A 
ATOM     84  C   UNL     1      -2.875   8.386  19.100  1.00  0.00     0.131 A 
ATOM     85  C   UNL     1      -1.501  10.771  18.820  1.00  0.00     0.055 A 
ATOM     86  C   UNL     1      -2.784   9.260  20.184  1.00  0.00     0.041 A 
ATOM     87  F   UNL     1      -3.525   7.227  19.289  1.00  0.00    -0.206 F 
ATOM     88  C   UNL     1      -2.082  10.455  20.051  1.00  0.00     0.022 A 
BRANCH  85  89
ATOM     89  S   UNL     1      -0.467  12.253  18.659  1.00  0.00     0.124 S 
ATOM     90  O   UNL     1       0.821  11.683  18.274  1.00  0.00    -0.237 OA
ATOM     91  O   UNL     1      -1.164  13.009  17.624  1.00  0.00    -0.237 OA
ATOM     92  O   UNL     1      -0.508  12.847  19.994  1.00  0.00    -0.744 OA
ENDBRANCH  85  89
ENDBRANCH  59  82
ENDBRANCH  33  34
ENDBRANCH  25  28
ENDBRANCH  23  24
ENDBRANCH   1  23
TORSDOF 15
