REMARK SMILES Cn1ccc(NC(=O)[C@@H]2CCCC[C@@H]2C(=O)NCCCCNC(=O)c2ccc(-c3c4nc(c(-c5cc(S(=O)(=O)[O-])ccc5F)c5ccc([nH]5)c(-c5cc(S(=O)(=O)[O-])ccc5F)c5nc(c(-c6cc(S(=O)(=O)[O-])ccc6F)c6ccc3[nH]6)C=C5)C=C4)cc2)n1
REMARK SMILES IDX 20 1 19 2 18 3 17 4 15 5 16 6 14 8 9 9 10 10 11 11 13 12
REMARK SMILES IDX 12 13 7 14 6 15 8 17 5 18 1 19 2 20 3 21 88 22 4 23 21 24
REMARK SMILES IDX 22 25 23 26 24 28 25 29 26 30 87 31 27 32 86 33 28 34 29 35
REMARK SMILES IDX 30 36 80 37 31 38 85 39 79 40 81 41 32 42 84 43 78 44 77 45
REMARK SMILES IDX 33 47 65 48 45 49 64 50 46 51 49 52 63 53 82 54 47 55 48 56
REMARK SMILES IDX 62 58 83 59 50 60 34 61 35 62 43 63 36 64 42 65 44 66 41 67
REMARK SMILES IDX 37 68 38 69 39 70 40 71 66 72 67 73 75 74 68 75 74 76 76 77
REMARK SMILES IDX 73 78 69 79 70 80 71 81 72 82 51 83 52 84 60 85 53 86 59 87
REMARK SMILES IDX 61 88 58 89 54 90 55 91 56 92 57 93
REMARK H PARENT 17 7 6 16 22 27 81 46 49 57
REMARK Flexibility Score: inf
ROOT
ATOM      1  C   UNL     1       5.160   2.263   2.388  1.00  0.00     0.023 C 
ENDROOT
BRANCH   1   2
ATOM      2  C   UNL     1       3.942   2.210   1.471  1.00  0.00     0.023 C 
BRANCH   2   3
ATOM      3  C   UNL     1       2.704   1.574   2.101  1.00  0.00     0.116 C 
BRANCH   3   4
ATOM      4  N   UNL     1       1.974   2.553   2.868  1.00  0.00    -0.356 N 
ATOM      5  C   UNL     1       0.837   3.238   2.583  1.00  0.00     0.223 C 
ATOM      6  O   UNL     1       0.462   4.031   3.450  1.00  0.00    -0.275 OA
ATOM      7  H   UNL     1       2.366   2.759   3.747  1.00  0.00     0.163 HD
BRANCH   5   8
ATOM      8  C   UNL     1       0.027   2.969   1.301  1.00  0.00     0.091 C 
ATOM      9  C   UNL     1       0.518   3.613  -0.020  1.00  0.00     0.091 C 
ATOM     10  C   UNL     1       0.628   5.134   0.181  1.00  0.00     0.014 C 
ATOM     11  C   UNL     1      -0.754   5.731   0.442  1.00  0.00     0.001 C 
ATOM     12  C   UNL     1      -1.426   3.478   1.501  1.00  0.00     0.014 C 
ATOM     13  C   UNL     1      -1.546   5.010   1.532  1.00  0.00     0.001 C 
BRANCH   9  14
ATOM     14  C   UNL     1       1.741   3.036  -0.736  1.00  0.00     0.229 C 
ATOM     15  N   UNL     1       1.812   1.737  -1.145  1.00  0.00    -0.309 N 
ATOM     16  H   UNL     1       2.669   1.474  -1.551  1.00  0.00     0.171 HD
ATOM     17  O   UNL     1       2.721   3.745  -0.992  1.00  0.00    -0.274 OA
BRANCH  15  18
ATOM     18  C   UNL     1       0.872   0.739  -1.077  1.00  0.00     0.154 A 
ATOM     19  C   UNL     1      -2.314  -0.458  -0.339  1.00  0.00     0.173 C 
ATOM     20  N   UNL     1      -0.930  -0.308  -0.716  1.00  0.00    -0.274 N 
ATOM     21  C   UNL     1       0.004  -1.289  -0.850  1.00  0.00     0.110 A 
ATOM     22  N   UNL     1      -0.435   0.925  -0.900  1.00  0.00    -0.155 NA
ATOM     23  C   UNL     1       1.184  -0.641  -1.134  1.00  0.00     0.068 A 
ENDBRANCH  15  18
ENDBRANCH   9  14
ENDBRANCH   5   8
ENDBRANCH   3   4
ENDBRANCH   2   3
ENDBRANCH   1   2
BRANCH   1  24
ATOM     24  C   UNL     1       5.739   0.902   2.740  1.00  0.00     0.116 C 
BRANCH  24  25
ATOM     25  N   UNL     1       6.201   0.146   1.582  1.00  0.00    -0.352 N 
ATOM     26  C   UNL     1       7.220  -0.778   1.544  1.00  0.00     0.251 C 
ATOM     27  H   UNL     1       5.732   0.316   0.734  1.00  0.00     0.163 HD
ATOM     28  O   UNL     1       7.562  -1.292   0.484  1.00  0.00    -0.269 OA
BRANCH  26  29
ATOM     29  C   UNL     1       7.924  -1.084   2.805  1.00  0.00     0.039 A 
ATOM     30  C   UNL     1       9.299  -0.859   2.884  1.00  0.00     0.014 A 
ATOM     31  C   UNL     1       7.193  -1.457   3.936  1.00  0.00     0.014 A 
ATOM     32  C   UNL     1       9.933  -0.927   4.126  1.00  0.00     0.010 A 
ATOM     33  C   UNL     1       7.811  -1.447   5.180  1.00  0.00     0.010 A 
ATOM     34  C   UNL     1       9.185  -1.174   5.289  1.00  0.00    -0.014 A 
BRANCH  34  35
ATOM     35  C   UNL     1       9.809  -1.158   6.638  1.00  0.00     0.031 A 
ATOM     36  C   UNL     1       9.801  -2.409   7.470  1.00  0.00     0.074 A 
ATOM     37  C   UNL     1      10.287  -0.005   7.146  1.00  0.00     0.049 A 
ATOM     38  N   UNL     1      10.149  -2.578   8.719  1.00  0.00    -0.248 NA
ATOM     39  C   UNL     1       9.291  -3.624   6.816  1.00  0.00     0.031 C 
ATOM     40  C   UNL     1      10.306   1.286   6.452  1.00  0.00     0.029 A 
ATOM     41  N   UNL     1      10.833   0.274   8.374  1.00  0.00    -0.354 N 
ATOM     42  C   UNL     1       9.873  -3.910   9.010  1.00  0.00     0.074 A 
ATOM     43  C   UNL     1       9.273  -4.483   7.823  1.00  0.00     0.031 C 
ATOM     44  C   UNL     1      10.853   2.211   7.258  1.00  0.00     0.029 A 
ATOM     45  C   UNL     1      11.180   1.595   8.540  1.00  0.00     0.049 A 
ATOM     46  H   UNL     1      10.964  -0.409   9.072  1.00  0.00     0.167 HD
ATOM     47  C   UNL     1      10.117  -4.596  10.154  1.00  0.00     0.034 A 
ATOM     48  C   UNL     1      11.691   2.238   9.609  1.00  0.00     0.034 A 
ATOM     49  C   UNL     1      10.742  -4.015  11.316  1.00  0.00     0.049 A 
ATOM     50  C   UNL     1      11.965   1.454  10.867  1.00  0.00     0.074 A 
ATOM     51  C   UNL     1      11.089  -4.628  12.508  1.00  0.00     0.029 A 
ATOM     52  N   UNL     1      11.117  -2.682  11.432  1.00  0.00    -0.354 N 
ATOM     53  N   UNL     1      11.732   0.185  11.116  1.00  0.00    -0.248 NA
ATOM     54  C   UNL     1      12.579   2.184  11.984  1.00  0.00     0.031 C 
ATOM     55  C   UNL     1      11.625  -3.657  13.361  1.00  0.00     0.029 A 
ATOM     56  C   UNL     1      11.675  -2.451  12.680  1.00  0.00     0.049 A 
ATOM     57  H   UNL     1      11.003  -2.001  10.730  1.00  0.00     0.167 HD
ATOM     58  C   UNL     1      12.205  -0.040  12.406  1.00  0.00     0.074 A 
ATOM     59  C   UNL     1      12.739   1.221  12.879  1.00  0.00     0.031 C 
ATOM     60  C   UNL     1      12.203  -1.186  13.132  1.00  0.00     0.034 A 
BRANCH  47  61
ATOM     61  C   UNL     1       9.683  -6.041  10.197  1.00  0.00     0.023 A 
ATOM     62  C   UNL     1      10.223  -7.000   9.321  1.00  0.00     0.031 A 
ATOM     63  C   UNL     1       8.680  -6.458  11.090  1.00  0.00     0.131 A 
ATOM     64  C   UNL     1       9.697  -8.299   9.294  1.00  0.00     0.055 A 
ATOM     65  C   UNL     1       8.223  -7.777  11.119  1.00  0.00     0.041 A 
ATOM     66  F   UNL     1       8.111  -5.585  11.936  1.00  0.00    -0.206 F 
ATOM     67  C   UNL     1       8.718  -8.703  10.204  1.00  0.00     0.022 A 
BRANCH  64  68
ATOM     68  S   UNL     1      10.198  -9.405   7.946  1.00  0.00     0.124 S 
ATOM     69  O   UNL     1       9.759  -8.653   6.772  1.00  0.00    -0.237 OA
ATOM     70  O   UNL     1      11.639  -9.505   8.138  1.00  0.00    -0.237 OA
ATOM     71  O   UNL     1       9.445 -10.630   8.210  1.00  0.00    -0.744 OA
ENDBRANCH  64  68
ENDBRANCH  47  61
BRANCH  48  72
ATOM     72  C   UNL     1      11.974   3.700   9.549  1.00  0.00     0.023 A 
ATOM     73  C   UNL     1      13.291   4.182   9.617  1.00  0.00     0.031 A 
ATOM     74  C   UNL     1      10.931   4.638   9.461  1.00  0.00     0.131 A 
ATOM     75  C   UNL     1      13.529   5.565   9.643  1.00  0.00     0.055 A 
ATOM     76  C   UNL     1      11.176   6.013   9.440  1.00  0.00     0.041 A 
ATOM     77  F   UNL     1       9.654   4.229   9.385  1.00  0.00    -0.206 F 
ATOM     78  C   UNL     1      12.481   6.483   9.544  1.00  0.00     0.022 A 
BRANCH  75  79
ATOM     79  S   UNL     1      15.229   6.147   9.887  1.00  0.00     0.124 S 
ATOM     80  O   UNL     1      15.576   5.530  11.162  1.00  0.00    -0.237 OA
ATOM     81  O   UNL     1      15.904   5.611   8.709  1.00  0.00    -0.237 OA
ATOM     82  O   UNL     1      15.090   7.602   9.914  1.00  0.00    -0.744 OA
ENDBRANCH  75  79
ENDBRANCH  48  72
BRANCH  60  83
ATOM     83  C   UNL     1      12.856  -1.137  14.490  1.00  0.00     0.023 A 
ATOM     84  C   UNL     1      12.290  -0.424  15.560  1.00  0.00     0.031 A 
ATOM     85  C   UNL     1      14.067  -1.817  14.710  1.00  0.00     0.131 A 
ATOM     86  C   UNL     1      12.959  -0.369  16.792  1.00  0.00     0.055 A 
ATOM     87  C   UNL     1      14.702  -1.801  15.952  1.00  0.00     0.041 A 
ATOM     88  F   UNL     1      14.649  -2.513  13.720  1.00  0.00    -0.206 F 
ATOM     89  C   UNL     1      14.153  -1.065  16.999  1.00  0.00     0.022 A 
BRANCH  86  90
ATOM     90  S   UNL     1      12.284   0.684  18.106  1.00  0.00     0.124 S 
ATOM     91  O   UNL     1      12.298   2.001  17.476  1.00  0.00    -0.237 OA
ATOM     92  O   UNL     1      10.967   0.099  18.330  1.00  0.00    -0.237 OA
ATOM     93  O   UNL     1      13.232   0.512  19.205  1.00  0.00    -0.744 OA
ENDBRANCH  86  90
ENDBRANCH  60  83
ENDBRANCH  34  35
ENDBRANCH  26  29
ENDBRANCH  24  25
ENDBRANCH   1  24
TORSDOF 16
