REMARK SMILES Cc1nn(C)c(=O)c(C(=O)N[C@H](C)CC(=O)NCCCCNC(=O)c2ccc(-c3c4nc(c(-c5cc(S(=O)(=O)[O-])ccc5F)c5ccc([nH]5)c(-c5cc(S(=O)(=O)[O-])ccc5F)c5nc(c(-c6cc(S(=O)(=O)[O-])ccc6F)c6ccc3[nH]6)C=C5)C=C4)cc2)c1C
REMARK SMILES IDX 19 1 18 2 17 3 15 4 16 5 14 7 12 8 13 9 11 10 9 11 10 12
REMARK SMILES IDX 8 14 1 15 2 16 3 17 88 18 4 19 89 20 5 21 6 22 7 23 20 24
REMARK SMILES IDX 21 25 22 26 23 27 24 29 25 30 26 31 87 32 27 33 86 34 28 35
REMARK SMILES IDX 29 36 30 37 80 38 31 39 85 40 79 41 81 42 32 43 84 44 78 45
REMARK SMILES IDX 77 46 33 48 65 49 45 50 64 51 46 52 49 53 63 54 82 55 47 56
REMARK SMILES IDX 48 57 62 59 83 60 50 61 34 62 35 63 43 64 36 65 42 66 44 67
REMARK SMILES IDX 41 68 37 69 38 70 39 71 40 72 66 73 67 74 75 75 68 76 74 77
REMARK SMILES IDX 76 78 73 79 69 80 70 81 71 82 72 83 51 84 52 85 60 86 53 87
REMARK SMILES IDX 59 88 61 89 58 90 54 91 55 92 56 93 57 94
REMARK H PARENT 17 6 11 13 22 28 81 47 49 58
REMARK Flexibility Score: inf
ROOT
ATOM      1  C   UNL     1      -3.939  -3.763   2.894  1.00  0.00     0.023 C 
ENDROOT
BRANCH   1   2
ATOM      2  C   UNL     1      -4.165  -2.587   3.844  1.00  0.00     0.116 C 
BRANCH   2   3
ATOM      3  N   UNL     1      -3.121  -1.586   3.706  1.00  0.00    -0.356 N 
ATOM      4  C   UNL     1      -3.074  -0.480   2.905  1.00  0.00     0.222 C 
ATOM      5  O   UNL     1      -2.057   0.214   2.917  1.00  0.00    -0.275 OA
ATOM      6  H   UNL     1      -2.329  -1.725   4.274  1.00  0.00     0.163 HD
BRANCH   4   7
ATOM      7  C   UNL     1      -4.262  -0.109   2.032  1.00  0.00     0.124 C 
BRANCH   7   8
ATOM      8  C   UNL     1      -4.409  -1.031   0.812  1.00  0.00     0.088 C 
ATOM      9  C   UNL     1      -5.847  -1.535   0.680  1.00  0.00     0.031 C 
BRANCH   8  10
ATOM     10  N   UNL     1      -3.943  -0.414  -0.432  1.00  0.00    -0.349 N 
ATOM     11  C   UNL     1      -3.619  -1.012  -1.625  1.00  0.00     0.257 C 
ATOM     12  O   UNL     1      -3.201  -0.334  -2.559  1.00  0.00    -0.269 OA
ATOM     13  H   UNL     1      -3.849   0.565  -0.410  1.00  0.00     0.164 HD
BRANCH  11  14
ATOM     14  C   UNL     1      -3.758  -2.485  -1.750  1.00  0.00     0.111 A 
ATOM     15  C   UNL     1      -2.513  -5.745  -0.343  1.00  0.00     0.069 C 
ATOM     16  C   UNL     1      -3.179  -4.758  -1.278  1.00  0.00     0.062 A 
ATOM     17  N   UNL     1      -4.079  -5.256  -2.064  1.00  0.00    -0.175 NA
ATOM     18  C   UNL     1      -2.857  -3.307  -1.180  1.00  0.00    -0.010 A 
ATOM     19  N   UNL     1      -4.836  -4.394  -2.807  1.00  0.00    -0.232 N 
ATOM     20  C   UNL     1      -1.589  -2.884  -0.503  1.00  0.00     0.047 C 
ATOM     21  C   UNL     1      -5.764  -5.019  -3.732  1.00  0.00     0.178 C 
ATOM     22  C   UNL     1      -4.847  -3.020  -2.611  1.00  0.00     0.279 A 
ATOM     23  O   UNL     1      -5.682  -2.268  -3.110  1.00  0.00    -0.267 OA
ENDBRANCH  11  14
ENDBRANCH   8  10
ENDBRANCH   7   8
ENDBRANCH   4   7
ENDBRANCH   2   3
ENDBRANCH   1   2
BRANCH   1  24
ATOM     24  C   UNL     1      -3.056  -4.866   3.464  1.00  0.00     0.023 C 
BRANCH  24  25
ATOM     25  C   UNL     1      -3.818  -5.859   4.323  1.00  0.00     0.116 C 
BRANCH  25  26
ATOM     26  N   UNL     1      -4.827  -6.604   3.581  1.00  0.00    -0.352 N 
ATOM     27  C   UNL     1      -5.227  -7.911   3.756  1.00  0.00     0.251 C 
ATOM     28  H   UNL     1      -5.282  -6.110   2.861  1.00  0.00     0.163 HD
ATOM     29  O   UNL     1      -6.046  -8.413   2.999  1.00  0.00    -0.269 OA
BRANCH  27  30
ATOM     30  C   UNL     1      -4.596  -8.704   4.831  1.00  0.00     0.039 A 
ATOM     31  C   UNL     1      -4.048  -9.948   4.514  1.00  0.00     0.014 A 
ATOM     32  C   UNL     1      -4.452  -8.168   6.113  1.00  0.00     0.014 A 
ATOM     33  C   UNL     1      -3.266 -10.610   5.460  1.00  0.00     0.010 A 
ATOM     34  C   UNL     1      -3.596  -8.782   7.018  1.00  0.00     0.010 A 
ATOM     35  C   UNL     1      -2.989 -10.005   6.697  1.00  0.00    -0.014 A 
BRANCH  35  36
ATOM     36  C   UNL     1      -2.065 -10.636   7.672  1.00  0.00     0.031 A 
ATOM     37  C   UNL     1      -2.577 -11.052   9.022  1.00  0.00     0.074 A 
ATOM     38  C   UNL     1      -0.761 -10.776   7.362  1.00  0.00     0.049 A 
ATOM     39  N   UNL     1      -1.918 -11.545  10.038  1.00  0.00    -0.248 NA
ATOM     40  C   UNL     1      -4.012 -10.850   9.277  1.00  0.00     0.031 C 
ATOM     41  C   UNL     1      -0.139 -10.360   6.101  1.00  0.00     0.029 A 
ATOM     42  N   UNL     1       0.277 -11.313   8.079  1.00  0.00    -0.354 N 
ATOM     43  C   UNL     1      -2.853 -11.698  11.054  1.00  0.00     0.074 A 
ATOM     44  C   UNL     1      -4.109 -11.183  10.555  1.00  0.00     0.031 C 
ATOM     45  C   UNL     1       1.159 -10.705   6.115  1.00  0.00     0.029 A 
ATOM     46  C   UNL     1       1.472 -11.330   7.396  1.00  0.00     0.049 A 
ATOM     47  H   UNL     1       0.177 -11.655   8.997  1.00  0.00     0.167 HD
ATOM     48  C   UNL     1      -2.688 -12.249  12.280  1.00  0.00     0.034 A 
ATOM     49  C   UNL     1       2.679 -11.802   7.761  1.00  0.00     0.034 A 
ATOM     50  C   UNL     1      -1.444 -12.799  12.748  1.00  0.00     0.049 A 
ATOM     51  C   UNL     1       2.838 -12.423   9.122  1.00  0.00     0.074 A 
ATOM     52  C   UNL     1      -1.177 -13.426  13.952  1.00  0.00     0.029 A 
ATOM     53  N   UNL     1      -0.258 -12.798  12.026  1.00  0.00    -0.354 N 
ATOM     54  N   UNL     1       1.940 -12.568  10.068  1.00  0.00    -0.248 NA
ATOM     55  C   UNL     1       4.168 -12.943   9.467  1.00  0.00     0.031 C 
ATOM     56  C   UNL     1       0.178 -13.771  13.973  1.00  0.00     0.029 A 
ATOM     57  C   UNL     1       0.744 -13.403  12.763  1.00  0.00     0.049 A 
ATOM     58  H   UNL     1      -0.147 -12.422  11.123  1.00  0.00     0.167 HD
ATOM     59  C   UNL     1       2.591 -13.215  11.112  1.00  0.00     0.074 A 
ATOM     60  C   UNL     1       3.957 -13.432  10.682  1.00  0.00     0.031 C 
ATOM     61  C   UNL     1       2.100 -13.601  12.314  1.00  0.00     0.034 A 
BRANCH  48  62
ATOM     62  C   UNL     1      -3.887 -12.283  13.188  1.00  0.00     0.023 A 
ATOM     63  C   UNL     1      -5.010 -13.071  12.883  1.00  0.00     0.031 A 
ATOM     64  C   UNL     1      -3.920 -11.506  14.358  1.00  0.00     0.131 A 
ATOM     65  C   UNL     1      -6.146 -13.013  13.701  1.00  0.00     0.055 A 
ATOM     66  C   UNL     1      -5.027 -11.510  15.209  1.00  0.00     0.041 A 
ATOM     67  F   UNL     1      -2.882 -10.721  14.686  1.00  0.00    -0.206 F 
ATOM     68  C   UNL     1      -6.154 -12.257  14.876  1.00  0.00     0.022 A 
BRANCH  65  69
ATOM     69  S   UNL     1      -7.652 -13.858  13.152  1.00  0.00     0.124 S 
ATOM     70  O   UNL     1      -8.009 -13.078  11.970  1.00  0.00    -0.237 OA
ATOM     71  O   UNL     1      -7.183 -15.216  12.902  1.00  0.00    -0.237 OA
ATOM     72  O   UNL     1      -8.560 -13.711  14.288  1.00  0.00    -0.744 OA
ENDBRANCH  65  69
ENDBRANCH  48  62
BRANCH  49  73
ATOM     73  C   UNL     1       3.825 -11.727   6.816  1.00  0.00     0.023 A 
ATOM     74  C   UNL     1       4.316 -12.884   6.193  1.00  0.00     0.031 A 
ATOM     75  C   UNL     1       4.439 -10.499   6.516  1.00  0.00     0.131 A 
ATOM     76  C   UNL     1       5.408 -12.795   5.316  1.00  0.00     0.055 A 
ATOM     77  C   UNL     1       5.505 -10.411   5.619  1.00  0.00     0.041 A 
ATOM     78  F   UNL     1       3.993  -9.363   7.075  1.00  0.00    -0.206 F 
ATOM     79  C   UNL     1       6.000 -11.565   5.018  1.00  0.00     0.022 A 
BRANCH  76  80
ATOM     80  S   UNL     1       6.060 -14.318   4.579  1.00  0.00     0.124 S 
ATOM     81  O   UNL     1       6.554 -15.028   5.754  1.00  0.00    -0.237 OA
ATOM     82  O   UNL     1       4.875 -14.879   3.939  1.00  0.00    -0.237 OA
ATOM     83  O   UNL     1       7.090 -13.837   3.660  1.00  0.00    -0.744 OA
ENDBRANCH  76  80
ENDBRANCH  49  73
BRANCH  61  84
ATOM     84  C   UNL     1       3.033 -14.326  13.241  1.00  0.00     0.023 A 
ATOM     85  C   UNL     1       4.013 -13.638  13.974  1.00  0.00     0.031 A 
ATOM     86  C   UNL     1       2.891 -15.710  13.441  1.00  0.00     0.131 A 
ATOM     87  C   UNL     1       4.830 -14.344  14.868  1.00  0.00     0.055 A 
ATOM     88  C   UNL     1       3.683 -16.400  14.357  1.00  0.00     0.041 A 
ATOM     89  F   UNL     1       1.961 -16.404  12.765  1.00  0.00    -0.206 F 
ATOM     90  C   UNL     1       4.660 -15.716  15.076  1.00  0.00     0.022 A 
BRANCH  87  91
ATOM     91  S   UNL     1       6.122 -13.444  15.767  1.00  0.00     0.124 S 
ATOM     92  O   UNL     1       7.067 -13.129  14.701  1.00  0.00    -0.237 OA
ATOM     93  O   UNL     1       5.392 -12.310  16.326  1.00  0.00    -0.237 OA
ATOM     94  O   UNL     1       6.595 -14.417  16.750  1.00  0.00    -0.744 OA
ENDBRANCH  87  91
ENDBRANCH  61  84
ENDBRANCH  35  36
ENDBRANCH  27  30
ENDBRANCH  25  26
ENDBRANCH  24  25
ENDBRANCH   1  24
TORSDOF 17
