REMARK SMILES Cc1cc(C(=O)NCCCCNC(=O)c2ccc(-c3c4nc(c(-c5cc(S(=O)(=O)[O-])ccc5F)c5ccc([nH]5)c(-c5cc(S(=O)(=O)[O-])ccc5F)c5nc(c(-c6cc(S(=O)(=O)[O-])ccc6F)c6ccc3[nH]6)C=C5)C=C4)cc2)ccc1NS(=O)(=O)c1c(F)cccc1F
REMARK SMILES IDX 9 1 8 2 7 3 5 4 6 5 4 7 1 8 2 9 3 10 80 11 79 12 78 13 81 14
REMARK SMILES IDX 82 16 83 17 84 18 85 19 86 20 91 21 87 22 88 23 90 24 92 25
REMARK SMILES IDX 89 26 10 27 11 28 12 29 13 30 14 32 15 33 16 34 77 35 17 36
REMARK SMILES IDX 76 37 18 38 19 39 20 40 70 41 21 42 75 43 69 44 71 45 22 46
REMARK SMILES IDX 74 47 68 48 67 49 23 51 55 52 35 53 54 54 36 55 39 56 53 57
REMARK SMILES IDX 72 58 37 59 38 60 52 62 73 63 40 64 24 65 25 66 33 67 26 68
REMARK SMILES IDX 32 69 34 70 31 71 27 72 28 73 29 74 30 75 56 76 57 77 65 78
REMARK SMILES IDX 58 79 64 80 66 81 63 82 59 83 60 84 61 85 62 86 41 87 42 88
REMARK SMILES IDX 50 89 43 90 49 91 51 92 48 93 44 94 45 95 46 96 47 97
REMARK H PARENT 7 6 81 15 12 31 71 50 39 61
REMARK Flexibility Score: inf
ROOT
ATOM      1  C   UNL     1      -4.643  -0.934  -1.420  1.00  0.00     0.023 C 
ENDROOT
BRANCH   1   2
ATOM      2  C   UNL     1      -4.123  -1.224  -0.005  1.00  0.00     0.116 C 
BRANCH   2   3
ATOM      3  N   UNL     1      -3.144  -2.309   0.061  1.00  0.00    -0.352 N 
ATOM      4  C   UNL     1      -1.786  -2.346   0.278  1.00  0.00     0.251 C 
ATOM      5  O   UNL     1      -1.216  -3.436   0.212  1.00  0.00    -0.269 OA
ATOM      6  H   UNL     1      -3.539  -3.199  -0.080  1.00  0.00     0.163 HD
BRANCH   4   7
ATOM      7  C   UNL     1      -0.961  -1.127   0.490  1.00  0.00     0.040 A 
ATOM      8  C   UNL     1       2.524  -0.026  -0.549  1.00  0.00     0.046 C 
ATOM      9  C   UNL     1       1.099   0.057  -0.075  1.00  0.00    -0.026 A 
ATOM     10  C   UNL     1       0.330  -1.117  -0.057  1.00  0.00     0.019 A 
ATOM     11  C   UNL     1       0.513   1.248   0.380  1.00  0.00     0.052 A 
ATOM     12  C   UNL     1      -0.624   1.168   1.184  1.00  0.00     0.028 A 
ATOM     13  C   UNL     1      -1.364  -0.022   1.235  1.00  0.00     0.016 A 
BRANCH  11  14
ATOM     14  N   UNL     1       1.040   2.470  -0.139  1.00  0.00    -0.279 N 
ATOM     15  H   UNL     1       1.857   2.395  -0.683  1.00  0.00     0.180 HD
BRANCH  14  16
ATOM     16  S   UNL     1       0.434   4.018   0.071  1.00  0.00     0.267 S 
ATOM     17  O   UNL     1       0.693   4.354   1.462  1.00  0.00    -0.201 OA
ATOM     18  O   UNL     1       1.010   4.794  -0.997  1.00  0.00    -0.201 OA
BRANCH  16  19
ATOM     19  C   UNL     1      -1.298   4.010  -0.180  1.00  0.00     0.158 A 
ATOM     20  C   UNL     1      -2.060   4.927   0.536  1.00  0.00     0.146 A 
ATOM     21  C   UNL     1      -1.935   3.051  -0.957  1.00  0.00     0.146 A 
ATOM     22  F   UNL     1      -1.483   5.931   1.210  1.00  0.00    -0.205 F 
ATOM     23  C   UNL     1      -3.446   4.830   0.562  1.00  0.00     0.041 A 
ATOM     24  C   UNL     1      -3.321   2.924  -0.914  1.00  0.00     0.041 A 
ATOM     25  F   UNL     1      -1.244   2.205  -1.732  1.00  0.00    -0.205 F 
ATOM     26  C   UNL     1      -4.073   3.804  -0.138  1.00  0.00     0.006 A 
ENDBRANCH  16  19
ENDBRANCH  14  16
ENDBRANCH  11  14
ENDBRANCH   4   7
ENDBRANCH   2   3
ENDBRANCH   1   2
BRANCH   1  27
ATOM     27  C   UNL     1      -5.495  -2.031  -2.065  1.00  0.00     0.023 C 
BRANCH  27  28
ATOM     28  C   UNL     1      -6.827  -2.302  -1.371  1.00  0.00     0.116 C 
BRANCH  28  29
ATOM     29  N   UNL     1      -8.000  -1.644  -1.954  1.00  0.00    -0.352 N 
ATOM     30  C   UNL     1      -9.316  -1.703  -1.537  1.00  0.00     0.251 C 
ATOM     31  H   UNL     1      -7.828  -1.087  -2.747  1.00  0.00     0.163 HD
ATOM     32  O   UNL     1     -10.220  -1.211  -2.202  1.00  0.00    -0.269 OA
BRANCH  30  33
ATOM     33  C   UNL     1      -9.625  -2.280  -0.203  1.00  0.00     0.039 A 
ATOM     34  C   UNL     1     -10.322  -1.480   0.711  1.00  0.00     0.014 A 
ATOM     35  C   UNL     1      -9.018  -3.461   0.216  1.00  0.00     0.014 A 
ATOM     36  C   UNL     1     -10.181  -1.723   2.074  1.00  0.00     0.010 A 
ATOM     37  C   UNL     1      -8.787  -3.639   1.565  1.00  0.00     0.010 A 
ATOM     38  C   UNL     1      -9.302  -2.723   2.490  1.00  0.00    -0.014 A 
BRANCH  38  39
ATOM     39  C   UNL     1      -8.700  -2.750   3.820  1.00  0.00     0.031 A 
ATOM     40  C   UNL     1      -8.991  -3.837   4.778  1.00  0.00     0.074 A 
ATOM     41  C   UNL     1      -7.795  -1.803   4.150  1.00  0.00     0.049 A 
ATOM     42  N   UNL     1      -8.820  -3.755   6.055  1.00  0.00    -0.248 NA
ATOM     43  C   UNL     1      -9.557  -5.113   4.361  1.00  0.00     0.031 C 
ATOM     44  C   UNL     1      -6.865  -1.807   5.277  1.00  0.00     0.029 A 
ATOM     45  N   UNL     1      -7.651  -0.530   3.633  1.00  0.00    -0.354 N 
ATOM     46  C   UNL     1      -8.936  -5.024   6.578  1.00  0.00     0.074 A 
ATOM     47  C   UNL     1      -9.489  -5.809   5.500  1.00  0.00     0.031 C 
ATOM     48  C   UNL     1      -6.464  -0.546   5.515  1.00  0.00     0.029 A 
ATOM     49  C   UNL     1      -7.247   0.325   4.656  1.00  0.00     0.049 A 
ATOM     50  H   UNL     1      -7.807  -0.270   2.696  1.00  0.00     0.167 HD
ATOM     51  C   UNL     1      -8.404  -5.292   7.808  1.00  0.00     0.034 A 
ATOM     52  C   UNL     1      -8.043   1.344   5.101  1.00  0.00     0.034 A 
ATOM     53  C   UNL     1      -7.909  -4.071   8.455  1.00  0.00     0.049 A 
ATOM     54  C   UNL     1      -8.423   1.222   6.566  1.00  0.00     0.074 A 
ATOM     55  C   UNL     1      -6.639  -3.551   8.645  1.00  0.00     0.029 A 
ATOM     56  N   UNL     1      -8.800  -3.052   8.782  1.00  0.00    -0.354 N 
ATOM     57  N   UNL     1      -8.325   0.122   7.260  1.00  0.00    -0.248 NA
ATOM     58  C   UNL     1      -8.964   2.327   7.353  1.00  0.00     0.031 C 
ATOM     59  C   UNL     1      -6.772  -2.188   9.020  1.00  0.00     0.029 A 
ATOM     60  C   UNL     1      -8.122  -1.888   9.091  1.00  0.00     0.049 A 
ATOM     61  H   UNL     1      -9.780  -3.148   8.793  1.00  0.00     0.167 HD
ATOM     62  C   UNL     1      -8.790   0.333   8.534  1.00  0.00     0.074 A 
ATOM     63  C   UNL     1      -9.153   1.740   8.548  1.00  0.00     0.031 C 
ATOM     64  C   UNL     1      -8.848  -0.676   9.457  1.00  0.00     0.034 A 
BRANCH  51  65
ATOM     65  C   UNL     1      -8.029  -6.688   8.284  1.00  0.00     0.023 A 
ATOM     66  C   UNL     1      -6.976  -6.838   9.215  1.00  0.00     0.031 A 
ATOM     67  C   UNL     1      -8.589  -7.896   7.829  1.00  0.00     0.131 A 
ATOM     68  C   UNL     1      -6.452  -8.104   9.545  1.00  0.00     0.055 A 
ATOM     69  C   UNL     1      -8.034  -9.154   8.108  1.00  0.00     0.041 A 
ATOM     70  F   UNL     1      -9.738  -7.931   7.145  1.00  0.00    -0.206 F 
ATOM     71  C   UNL     1      -6.947  -9.263   8.957  1.00  0.00     0.022 A 
BRANCH  68  72
ATOM     72  S   UNL     1      -5.106  -8.219  10.756  1.00  0.00     0.124 S 
ATOM     73  O   UNL     1      -4.061  -7.411  10.136  1.00  0.00    -0.237 OA
ATOM     74  O   UNL     1      -5.725  -7.668  11.956  1.00  0.00    -0.237 OA
ATOM     75  O   UNL     1      -4.824  -9.653  10.814  1.00  0.00    -0.744 OA
ENDBRANCH  68  72
ENDBRANCH  51  65
BRANCH  52  76
ATOM     76  C   UNL     1      -8.914   1.937   4.044  1.00  0.00     0.023 A 
ATOM     77  C   UNL     1      -8.280   2.449   2.894  1.00  0.00     0.031 A 
ATOM     78  C   UNL     1     -10.291   1.686   3.974  1.00  0.00     0.131 A 
ATOM     79  C   UNL     1      -8.979   2.541   1.683  1.00  0.00     0.055 A 
ATOM     80  C   UNL     1     -11.001   1.847   2.776  1.00  0.00     0.041 A 
ATOM     81  F   UNL     1     -10.947   1.169   5.023  1.00  0.00    -0.206 F 
ATOM     82  C   UNL     1     -10.338   2.239   1.613  1.00  0.00     0.022 A 
BRANCH  79  83
ATOM     83  S   UNL     1      -8.018   2.844   0.178  1.00  0.00     0.124 S 
ATOM     84  O   UNL     1      -7.534   4.204   0.393  1.00  0.00    -0.237 OA
ATOM     85  O   UNL     1      -6.996   1.799   0.246  1.00  0.00    -0.237 OA
ATOM     86  O   UNL     1      -8.985   2.688  -0.901  1.00  0.00    -0.744 OA
ENDBRANCH  79  83
ENDBRANCH  52  76
BRANCH  64  87
ATOM     87  C   UNL     1      -9.517  -0.605  10.817  1.00  0.00     0.023 A 
ATOM     88  C   UNL     1     -10.455   0.376  11.173  1.00  0.00     0.031 A 
ATOM     89  C   UNL     1      -9.280  -1.603  11.796  1.00  0.00     0.131 A 
ATOM     90  C   UNL     1     -11.043   0.396  12.453  1.00  0.00     0.055 A 
ATOM     91  C   UNL     1      -9.925  -1.628  13.037  1.00  0.00     0.041 A 
ATOM     92  F   UNL     1      -8.416  -2.607  11.588  1.00  0.00    -0.206 F 
ATOM     93  C   UNL     1     -10.803  -0.614  13.380  1.00  0.00     0.022 A 
BRANCH  90  94
ATOM     94  S   UNL     1     -12.084   1.810  12.900  1.00  0.00     0.124 S 
ATOM     95  O   UNL     1     -11.138   2.919  12.812  1.00  0.00    -0.237 OA
ATOM     96  O   UNL     1     -13.117   1.777  11.870  1.00  0.00    -0.237 OA
ATOM     97  O   UNL     1     -12.542   1.491  14.250  1.00  0.00    -0.744 OA
ENDBRANCH  90  94
ENDBRANCH  64  87
ENDBRANCH  38  39
ENDBRANCH  30  33
ENDBRANCH  28  29
ENDBRANCH  27  28
ENDBRANCH   1  27
TORSDOF 17
