REMARK SMILES CCCCCCCNC(=O)Oc1cccc(-c2ccc([C@@H](C)C(=O)NCCCCNC(=O)c3ccc(-c4c5nc(c(-c6cc(S(=O)(=O)[O-])ccc6F)c6ccc([nH]6)c(-c6cc(S(=O)(=O)[O-])ccc6F)c6nc(c(-c7cc(S(=O)(=O)[O-])ccc7F)c7ccc4[nH]7)C=C6)C=C5)cc3)cc2F)c1
REMARK SMILES IDX 21 1 22 2 20 3 17 4 18 5 97 6 19 7 96 8 98 9 16 10 12 11
REMARK SMILES IDX 13 12 99 13 14 14 15 15 11 16 9 17 8 18 10 20 7 21 6 22 5 23
REMARK SMILES IDX 4 24 3 25 2 26 1 27 23 28 24 29 25 30 26 32 27 33 28 34
REMARK SMILES IDX 29 35 30 36 31 37 32 39 33 40 34 41 95 42 35 43 94 44 36 45
REMARK SMILES IDX 37 46 38 47 88 48 39 49 93 50 87 51 89 52 40 53 92 54 86 55
REMARK SMILES IDX 85 56 41 58 73 59 53 60 72 61 54 62 57 63 71 64 90 65 55 66
REMARK SMILES IDX 56 67 70 69 91 70 58 71 42 72 43 73 51 74 44 75 50 76 52 77
REMARK SMILES IDX 49 78 45 79 46 80 47 81 48 82 74 83 75 84 83 85 76 86 82 87
REMARK SMILES IDX 84 88 81 89 77 90 78 91 79 92 80 93 59 94 60 95 68 96 61 97
REMARK SMILES IDX 67 98 69 99 66 100 62 101 63 102 64 103 65 104
REMARK H PARENT 8 19 25 31 30 38 89 57 57 68
REMARK Flexibility Score: inf
ROOT
ATOM      1  C   UNL     1     -10.437   5.832  -8.793  1.00  0.00     0.105 C 
ATOM      2  C   UNL     1     -11.387   6.896  -9.342  1.00  0.00     0.023 C 
ENDROOT
BRANCH   1   3
ATOM      3  C   UNL     1      -9.176   6.355  -8.123  1.00  0.00    -0.033 A 
ATOM      4  C   UNL     1      -6.694   7.128  -6.923  1.00  0.00     0.018 A 
ATOM      5  C   UNL     1      -7.156   7.714  -8.113  1.00  0.00     0.012 A 
ATOM      6  C   UNL     1      -7.537   6.178  -6.328  1.00  0.00     0.131 A 
ATOM      7  C   UNL     1      -8.390   7.367  -8.675  1.00  0.00     0.005 A 
ATOM      8  C   UNL     1      -8.740   5.780  -6.921  1.00  0.00     0.044 A 
ATOM      9  F   UNL     1      -7.212   5.617  -5.152  1.00  0.00    -0.206 F 
BRANCH   4  10
ATOM     10  C   UNL     1      -5.374   7.500  -6.367  1.00  0.00    -0.012 A 
ATOM     11  C   UNL     1      -3.287   6.925  -5.262  1.00  0.00     0.133 A 
ATOM     12  C   UNL     1      -2.818   8.229  -5.381  1.00  0.00     0.047 A 
ATOM     13  C   UNL     1      -4.546   6.556  -5.739  1.00  0.00     0.056 A 
ATOM     14  C   UNL     1      -3.619   9.179  -6.000  1.00  0.00     0.004 A 
ATOM     15  C   UNL     1      -4.883   8.819  -6.478  1.00  0.00     0.009 A 
BRANCH  11  16
ATOM     16  O   UNL     1      -2.492   6.034  -4.529  1.00  0.00    -0.410 OA
BRANCH  16  17
ATOM     17  C   UNL     1      -2.117   4.849  -5.141  1.00  0.00     0.412 C 
ATOM     18  N   UNL     1      -1.373   4.047  -4.321  1.00  0.00    -0.321 N 
ATOM     19  H   UNL     1      -1.063   3.192  -4.698  1.00  0.00     0.167 HD
ATOM     20  O   UNL     1      -2.381   4.511  -6.287  1.00  0.00    -0.224 OA
BRANCH  18  21
ATOM     21  C   UNL     1      -0.994   4.331  -2.952  1.00  0.00     0.119 C 
BRANCH  21  22
ATOM     22  C   UNL     1      -1.493   3.256  -1.987  1.00  0.00     0.021 C 
BRANCH  22  23
ATOM     23  C   UNL     1      -0.897   1.864  -2.223  1.00  0.00     0.002 C 
BRANCH  23  24
ATOM     24  C   UNL     1       0.632   1.787  -2.140  1.00  0.00     0.000 C 
BRANCH  24  25
ATOM     25  C   UNL     1       1.231   2.194  -0.789  1.00  0.00    -0.000 C 
BRANCH  25  26
ATOM     26  C   UNL     1       0.776   1.351   0.405  1.00  0.00    -0.003 C 
ATOM     27  C   UNL     1       1.138  -0.121   0.274  1.00  0.00     0.004 C 
ENDBRANCH  25  26
ENDBRANCH  24  25
ENDBRANCH  23  24
ENDBRANCH  22  23
ENDBRANCH  21  22
ENDBRANCH  18  21
ENDBRANCH  16  17
ENDBRANCH  11  16
ENDBRANCH   4  10
ENDBRANCH   1   3
BRANCH   1  28
ATOM     28  C   UNL     1     -10.184   4.659  -9.754  1.00  0.00     0.227 C 
ATOM     29  O   UNL     1     -10.528   3.517  -9.424  1.00  0.00    -0.274 OA
ATOM     30  N   UNL     1      -9.609   4.791 -10.980  1.00  0.00    -0.356 N 
ATOM     31  H   UNL     1      -9.567   3.953 -11.496  1.00  0.00     0.163 HD
BRANCH  30  32
ATOM     32  C   UNL     1      -9.047   5.936 -11.665  1.00  0.00     0.116 C 
BRANCH  32  33
ATOM     33  C   UNL     1      -7.525   6.004 -11.526  1.00  0.00     0.023 C 
BRANCH  33  34
ATOM     34  C   UNL     1      -6.750   5.222 -12.583  1.00  0.00     0.023 C 
BRANCH  34  35
ATOM     35  C   UNL     1      -6.971   5.676 -14.022  1.00  0.00     0.116 C 
BRANCH  35  36
ATOM     36  N   UNL     1      -6.661   7.082 -14.253  1.00  0.00    -0.352 N 
ATOM     37  C   UNL     1      -6.061   7.649 -15.357  1.00  0.00     0.251 C 
ATOM     38  H   UNL     1      -6.912   7.704 -13.532  1.00  0.00     0.163 HD
ATOM     39  O   UNL     1      -5.790   8.844 -15.376  1.00  0.00    -0.269 OA
BRANCH  37  40
ATOM     40  C   UNL     1      -5.703   6.771 -16.490  1.00  0.00     0.039 A 
ATOM     41  C   UNL     1      -4.373   6.720 -16.913  1.00  0.00     0.014 A 
ATOM     42  C   UNL     1      -6.659   5.910 -17.036  1.00  0.00     0.014 A 
ATOM     43  C   UNL     1      -3.978   5.724 -17.808  1.00  0.00     0.010 A 
ATOM     44  C   UNL     1      -6.247   4.874 -17.867  1.00  0.00     0.010 A 
ATOM     45  C   UNL     1      -4.899   4.754 -18.239  1.00  0.00    -0.014 A 
BRANCH  45  46
ATOM     46  C   UNL     1      -4.470   3.575 -19.036  1.00  0.00     0.031 A 
ATOM     47  C   UNL     1      -5.021   3.363 -20.418  1.00  0.00     0.074 A 
ATOM     48  C   UNL     1      -3.660   2.652 -18.476  1.00  0.00     0.049 A 
ATOM     49  N   UNL     1      -4.878   2.337 -21.216  1.00  0.00    -0.248 NA
ATOM     50  C   UNL     1      -5.867   4.437 -20.960  1.00  0.00     0.031 C 
ATOM     51  C   UNL     1      -3.088   2.733 -17.129  1.00  0.00     0.029 A 
ATOM     52  N   UNL     1      -3.190   1.456 -18.960  1.00  0.00    -0.354 N 
ATOM     53  C   UNL     1      -5.620   2.637 -22.353  1.00  0.00     0.074 A 
ATOM     54  C   UNL     1      -6.259   3.914 -22.113  1.00  0.00     0.031 C 
ATOM     55  C   UNL     1      -2.331   1.647 -16.905  1.00  0.00     0.029 A 
ATOM     56  C   UNL     1      -2.409   0.762 -18.062  1.00  0.00     0.049 A 
ATOM     57  H   UNL     1      -3.392   1.125 -19.865  1.00  0.00     0.167 HD
ATOM     58  C   UNL     1      -5.738   1.923 -23.499  1.00  0.00     0.034 A 
ATOM     59  C   UNL     1      -1.844  -0.459 -18.150  1.00  0.00     0.034 A 
ATOM     60  C   UNL     1      -5.089   0.654 -23.723  1.00  0.00     0.049 A 
ATOM     61  C   UNL     1      -2.050  -1.264 -19.410  1.00  0.00     0.074 A 
ATOM     62  C   UNL     1      -5.098  -0.126 -24.866  1.00  0.00     0.029 A 
ATOM     63  N   UNL     1      -4.327  -0.027 -22.783  1.00  0.00    -0.354 N 
ATOM     64  N   UNL     1      -2.713  -0.941 -20.497  1.00  0.00    -0.248 NA
ATOM     65  C   UNL     1      -1.433  -2.597 -19.455  1.00  0.00     0.031 C 
ATOM     66  C   UNL     1      -4.404  -1.309 -24.594  1.00  0.00     0.029 A 
ATOM     67  C   UNL     1      -3.896  -1.237 -23.307  1.00  0.00     0.049 A 
ATOM     68  H   UNL     1      -4.121   0.301 -21.878  1.00  0.00     0.167 HD
ATOM     69  C   UNL     1      -2.571  -2.023 -21.362  1.00  0.00     0.074 A 
ATOM     70  C   UNL     1      -1.742  -2.995 -20.680  1.00  0.00     0.031 C 
ATOM     71  C   UNL     1      -3.082  -2.201 -22.607  1.00  0.00     0.034 A 
BRANCH  58  72
ATOM     72  C   UNL     1      -6.615   2.490 -24.586  1.00  0.00     0.023 A 
ATOM     73  C   UNL     1      -6.302   3.701 -25.227  1.00  0.00     0.031 A 
ATOM     74  C   UNL     1      -7.782   1.815 -24.986  1.00  0.00     0.131 A 
ATOM     75  C   UNL     1      -7.176   4.232 -26.188  1.00  0.00     0.055 A 
ATOM     76  C   UNL     1      -8.608   2.310 -25.998  1.00  0.00     0.041 A 
ATOM     77  F   UNL     1      -8.144   0.666 -24.395  1.00  0.00    -0.206 F 
ATOM     78  C   UNL     1      -8.313   3.531 -26.596  1.00  0.00     0.022 A 
BRANCH  75  79
ATOM     79  S   UNL     1      -6.871   5.910 -26.802  1.00  0.00     0.124 S 
ATOM     80  O   UNL     1      -6.937   6.692 -25.570  1.00  0.00    -0.237 OA
ATOM     81  O   UNL     1      -5.552   5.788 -27.412  1.00  0.00    -0.237 OA
ATOM     82  O   UNL     1      -7.971   6.138 -27.736  1.00  0.00    -0.744 OA
ENDBRANCH  75  79
ENDBRANCH  58  72
BRANCH  59  83
ATOM     83  C   UNL     1      -1.062  -1.026 -17.011  1.00  0.00     0.023 A 
ATOM     84  C   UNL     1       0.296  -1.349 -17.159  1.00  0.00     0.031 A 
ATOM     85  C   UNL     1      -1.677  -1.320 -15.780  1.00  0.00     0.131 A 
ATOM     86  C   UNL     1       0.980  -2.000 -16.120  1.00  0.00     0.055 A 
ATOM     87  C   UNL     1      -0.975  -1.909 -14.726  1.00  0.00     0.041 A 
ATOM     88  F   UNL     1      -2.974  -1.035 -15.582  1.00  0.00    -0.206 F 
ATOM     89  C   UNL     1       0.358  -2.268 -14.899  1.00  0.00     0.022 A 
BRANCH  86  90
ATOM     90  S   UNL     1       2.665  -2.594 -16.430  1.00  0.00     0.124 S 
ATOM     91  O   UNL     1       2.467  -3.452 -17.593  1.00  0.00    -0.237 OA
ATOM     92  O   UNL     1       3.387  -1.348 -16.668  1.00  0.00    -0.237 OA
ATOM     93  O   UNL     1       3.014  -3.289 -15.194  1.00  0.00    -0.744 OA
ENDBRANCH  86  90
ENDBRANCH  59  83
BRANCH  71  94
ATOM     94  C   UNL     1      -2.730  -3.485 -23.315  1.00  0.00     0.023 A 
ATOM     95  C   UNL     1      -3.211  -4.728 -22.866  1.00  0.00     0.031 A 
ATOM     96  C   UNL     1      -1.906  -3.466 -24.453  1.00  0.00     0.131 A 
ATOM     97  C   UNL     1      -2.825  -5.905 -23.523  1.00  0.00     0.055 A 
ATOM     98  C   UNL     1      -1.574  -4.635 -25.139  1.00  0.00     0.041 A 
ATOM     99  F   UNL     1      -1.417  -2.308 -24.924  1.00  0.00    -0.206 F 
ATOM    100  C   UNL     1      -2.025  -5.865 -24.668  1.00  0.00     0.022 A 
BRANCH  97 101
ATOM    101  S   UNL     1      -3.322  -7.500 -22.817  1.00  0.00     0.124 S 
ATOM    102  O   UNL     1      -2.686  -7.461 -21.504  1.00  0.00    -0.237 OA
ATOM    103  O   UNL     1      -4.778  -7.405 -22.823  1.00  0.00    -0.237 OA
ATOM    104  O   UNL     1      -2.762  -8.477 -23.749  1.00  0.00    -0.744 OA
ENDBRANCH  97 101
ENDBRANCH  71  94
ENDBRANCH  45  46
ENDBRANCH  37  40
ENDBRANCH  35  36
ENDBRANCH  34  35
ENDBRANCH  33  34
ENDBRANCH  32  33
ENDBRANCH  30  32
ENDBRANCH   1  28
TORSDOF 24
