REMARK SMILES O=C(NCCCCNC(=O)[C@H]1CCCN(C(=O)C2CC[NH+](Cc3ccco3)CC2)C1)c1ccc(-c2c3nc(c(-c4cc(S(=O)(=O)[O-])ccc4F)c4ccc([nH]4)c(-c4cc(S(=O)(=O)[O-])ccc4F)c4nc(c(-c5cc(S(=O)(=O)[O-])ccc5F)c5ccc2[nH]5)C=C4)C=C3)cc1
REMARK SMILES IDX 6 1 5 2 4 3 3 4 1 5 2 6 31 8 32 9 93 10 33 11 92 12 34 13
REMARK SMILES IDX 35 14 36 15 86 16 37 17 91 18 85 19 87 20 38 21 90 22 84 23
REMARK SMILES IDX 83 24 39 26 71 27 51 28 70 29 52 30 55 31 69 32 88 33 53 34
REMARK SMILES IDX 54 35 68 37 89 38 56 39 40 40 41 41 49 42 42 43 48 44 50 45
REMARK SMILES IDX 47 46 43 47 44 48 45 49 46 50 72 51 73 52 81 53 74 54 80 55
REMARK SMILES IDX 82 56 79 57 75 58 76 59 77 60 78 61 57 62 58 63 66 64 59 65
REMARK SMILES IDX 65 66 67 67 64 68 60 69 61 70 62 71 63 72 7 73 8 74 9 75
REMARK SMILES IDX 10 77 11 78 12 79 30 80 13 81 15 82 14 83 16 84 17 85 18 86
REMARK SMILES IDX 19 87 29 88 20 89 28 90 21 91 22 93 23 94 24 95 27 96 25 97
REMARK SMILES IDX 26 98
REMARK H PARENT 3 7 87 25 55 36 8 76 21 92
REMARK Flexibility Score: inf
ROOT
ATOM      1  C   UNL     1       7.075  -5.799   8.191  1.00  0.00     0.023 C 
ENDROOT
BRANCH   1   2
ATOM      2  C   UNL     1       7.135  -5.413   9.663  1.00  0.00     0.023 C 
BRANCH   2   3
ATOM      3  C   UNL     1       6.185  -6.164  10.579  1.00  0.00     0.116 C 
BRANCH   3   4
ATOM      4  N   UNL     1       6.339  -7.612  10.531  1.00  0.00    -0.352 N 
ATOM      5  O   UNL     1       6.439  -9.701  11.386  1.00  0.00    -0.269 OA
ATOM      6  C   UNL     1       6.213  -8.508  11.567  1.00  0.00     0.251 C 
ATOM      7  H   UNL     1       6.559  -7.995   9.651  1.00  0.00     0.163 HD
BRANCH   6   8
ATOM      8  C   UNL     1       5.845  -8.002  12.905  1.00  0.00     0.039 A 
ATOM      9  C   UNL     1       4.755  -7.140  13.058  1.00  0.00     0.014 A 
ATOM     10  C   UNL     1       6.645  -8.336  14.000  1.00  0.00     0.014 A 
ATOM     11  C   UNL     1       4.553  -6.496  14.272  1.00  0.00     0.010 A 
ATOM     12  C   UNL     1       6.391  -7.747  15.239  1.00  0.00     0.010 A 
ATOM     13  C   UNL     1       5.366  -6.796  15.375  1.00  0.00    -0.014 A 
BRANCH  13  14
ATOM     14  C   UNL     1       5.121  -6.133  16.679  1.00  0.00     0.031 A 
ATOM     15  C   UNL     1       6.149  -5.216  17.277  1.00  0.00     0.074 A 
ATOM     16  C   UNL     1       3.971  -6.386  17.331  1.00  0.00     0.049 A 
ATOM     17  N   UNL     1       6.163  -4.642  18.452  1.00  0.00    -0.248 NA
ATOM     18  C   UNL     1       7.323  -4.916  16.445  1.00  0.00     0.031 C 
ATOM     19  C   UNL     1       2.898  -7.250  16.835  1.00  0.00     0.029 A 
ATOM     20  N   UNL     1       3.518  -5.956  18.550  1.00  0.00    -0.354 N 
ATOM     21  C   UNL     1       7.357  -3.932  18.516  1.00  0.00     0.074 A 
ATOM     22  C   UNL     1       8.052  -4.175  17.267  1.00  0.00     0.031 C 
ATOM     23  C   UNL     1       1.912  -7.288  17.742  1.00  0.00     0.029 A 
ATOM     24  C   UNL     1       2.314  -6.511  18.909  1.00  0.00     0.049 A 
ATOM     25  H   UNL     1       4.007  -5.313  19.113  1.00  0.00     0.167 HD
ATOM     26  C   UNL     1       7.824  -3.151  19.524  1.00  0.00     0.034 A 
ATOM     27  C   UNL     1       1.630  -6.449  20.067  1.00  0.00     0.034 A 
ATOM     28  C   UNL     1       7.108  -2.931  20.760  1.00  0.00     0.049 A 
ATOM     29  C   UNL     1       2.188  -5.629  21.195  1.00  0.00     0.074 A 
ATOM     30  C   UNL     1       7.464  -2.134  21.835  1.00  0.00     0.029 A 
ATOM     31  N   UNL     1       5.896  -3.524  21.094  1.00  0.00    -0.354 N 
ATOM     32  N   UNL     1       3.315  -4.957  21.243  1.00  0.00    -0.248 NA
ATOM     33  C   UNL     1       1.384  -5.554  22.419  1.00  0.00     0.031 C 
ATOM     34  C   UNL     1       6.505  -2.300  22.842  1.00  0.00     0.029 A 
ATOM     35  C   UNL     1       5.509  -3.139  22.369  1.00  0.00     0.049 A 
ATOM     36  H   UNL     1       5.385  -4.130  20.510  1.00  0.00     0.167 HD
ATOM     37  C   UNL     1       3.345  -4.359  22.497  1.00  0.00     0.074 A 
ATOM     38  C   UNL     1       2.123  -4.750  23.172  1.00  0.00     0.031 C 
ATOM     39  C   UNL     1       4.293  -3.549  23.035  1.00  0.00     0.034 A 
BRANCH  26  40
ATOM     40  C   UNL     1       9.193  -2.535  19.347  1.00  0.00     0.023 A 
ATOM     41  C   UNL     1       9.472  -1.628  18.309  1.00  0.00     0.031 A 
ATOM     42  C   UNL     1      10.252  -2.901  20.198  1.00  0.00     0.131 A 
ATOM     43  C   UNL     1      10.789  -1.193  18.092  1.00  0.00     0.055 A 
ATOM     44  C   UNL     1      11.543  -2.395  20.031  1.00  0.00     0.041 A 
ATOM     45  F   UNL     1      10.056  -3.777  21.195  1.00  0.00    -0.206 F 
ATOM     46  C   UNL     1      11.823  -1.551  18.960  1.00  0.00     0.022 A 
BRANCH  43  47
ATOM     47  S   UNL     1      11.163  -0.303  16.555  1.00  0.00     0.124 S 
ATOM     48  O   UNL     1      10.644  -1.223  15.545  1.00  0.00    -0.237 OA
ATOM     49  O   UNL     1      10.424   0.942  16.725  1.00  0.00    -0.237 OA
ATOM     50  O   UNL     1      12.619  -0.175  16.578  1.00  0.00    -0.744 OA
ENDBRANCH  43  47
ENDBRANCH  26  40
BRANCH  27  51
ATOM     51  C   UNL     1       0.378  -7.238  20.215  1.00  0.00     0.023 A 
ATOM     52  C   UNL     1      -0.873  -6.611  20.289  1.00  0.00     0.031 A 
ATOM     53  C   UNL     1       0.421  -8.645  20.236  1.00  0.00     0.131 A 
ATOM     54  C   UNL     1      -2.035  -7.392  20.395  1.00  0.00     0.055 A 
ATOM     55  C   UNL     1      -0.739  -9.416  20.299  1.00  0.00     0.041 A 
ATOM     56  F   UNL     1       1.597  -9.288  20.151  1.00  0.00    -0.206 F 
ATOM     57  C   UNL     1      -1.977  -8.789  20.384  1.00  0.00     0.022 A 
BRANCH  54  58
ATOM     58  S   UNL     1      -3.632  -6.553  20.570  1.00  0.00     0.124 S 
ATOM     59  O   UNL     1      -3.451  -5.828  21.823  1.00  0.00    -0.237 OA
ATOM     60  O   UNL     1      -3.683  -5.740  19.359  1.00  0.00    -0.237 OA
ATOM     61  O   UNL     1      -4.591  -7.654  20.618  1.00  0.00    -0.744 OA
ENDBRANCH  54  58
ENDBRANCH  27  51
BRANCH  39  62
ATOM     62  C   UNL     1       4.015  -2.988  24.405  1.00  0.00     0.023 A 
ATOM     63  C   UNL     1       4.050  -3.791  25.558  1.00  0.00     0.031 A 
ATOM     64  C   UNL     1       3.723  -1.621  24.554  1.00  0.00     0.131 A 
ATOM     65  C   UNL     1       3.763  -3.224  26.809  1.00  0.00     0.055 A 
ATOM     66  C   UNL     1       3.486  -1.053  25.806  1.00  0.00     0.041 A 
ATOM     67  F   UNL     1       3.675  -0.813  23.483  1.00  0.00    -0.206 F 
ATOM     68  C   UNL     1       3.498  -1.857  26.942  1.00  0.00     0.022 A 
BRANCH  65  69
ATOM     69  S   UNL     1       3.688  -4.305  28.264  1.00  0.00     0.124 S 
ATOM     70  O   UNL     1       2.581  -5.193  27.923  1.00  0.00    -0.237 OA
ATOM     71  O   UNL     1       5.014  -4.913  28.272  1.00  0.00    -0.237 OA
ATOM     72  O   UNL     1       3.425  -3.380  29.365  1.00  0.00    -0.744 OA
ENDBRANCH  65  69
ENDBRANCH  39  62
ENDBRANCH  13  14
ENDBRANCH   6   8
ENDBRANCH   3   4
ENDBRANCH   2   3
ENDBRANCH   1   2
BRANCH   1  73
ATOM     73  C   UNL     1       5.740  -5.559   7.467  1.00  0.00     0.116 C 
BRANCH  73  74
ATOM     74  N   UNL     1       5.551  -4.177   7.050  1.00  0.00    -0.356 N 
ATOM     75  C   UNL     1       5.793  -3.515   5.882  1.00  0.00     0.224 C 
ATOM     76  H   UNL     1       5.172  -3.603   7.754  1.00  0.00     0.163 HD
ATOM     77  O   UNL     1       5.405  -2.343   5.824  1.00  0.00    -0.275 OA
BRANCH  75  78
ATOM     78  C   UNL     1       6.447  -4.145   4.647  1.00  0.00     0.098 C 
ATOM     79  C   UNL     1       7.698  -4.984   4.963  1.00  0.00     0.017 C 
ATOM     80  C   UNL     1       5.370  -4.803   3.745  1.00  0.00     0.133 C 
ATOM     81  C   UNL     1       8.053  -6.018   3.917  1.00  0.00     0.022 C 
ATOM     82  N   UNL     1       5.932  -5.827   2.849  1.00  0.00    -0.342 N 
ATOM     83  C   UNL     1       6.777  -6.743   3.553  1.00  0.00     0.119 C 
BRANCH  82  84
ATOM     84  C   UNL     1       5.718  -5.817   1.484  1.00  0.00     0.226 C 
ATOM     85  O   UNL     1       4.918  -5.005   0.997  1.00  0.00    -0.275 OA
BRANCH  84  86
ATOM     86  C   UNL     1       6.404  -6.813   0.494  1.00  0.00     0.090 C 
ATOM     87  C   UNL     1       5.640  -8.111   0.252  1.00  0.00     0.075 C 
ATOM     88  C   UNL     1       7.911  -7.078   0.542  1.00  0.00     0.075 C 
ATOM     89  C   UNL     1       6.017  -9.216   1.225  1.00  0.00     0.263 C 
ATOM     90  C   UNL     1       8.378  -8.354   1.265  1.00  0.00     0.263 C 
ATOM     91  N   UNL     1       7.451  -9.486   1.316  1.00  0.00    -0.329 N 
ATOM     92  H   UNL     1       7.617  -9.927   0.411  1.00  0.00     0.348 HD
BRANCH  91  93
ATOM     93  C   UNL     1       7.797 -10.459   2.384  1.00  0.00     0.338 C 
BRANCH  93  94
ATOM     94  C   UNL     1       7.318 -10.135   3.774  1.00  0.00     0.157 A 
ATOM     95  C   UNL     1       6.104 -10.289   4.420  1.00  0.00     0.052 A 
ATOM     96  O   UNL     1       8.226  -9.595   4.644  1.00  0.00    -0.463 OA
ATOM     97  C   UNL     1       6.274  -9.803   5.739  1.00  0.00     0.042 A 
ATOM     98  C   UNL     1       7.589  -9.413   5.832  1.00  0.00     0.195 A 
ENDBRANCH  93  94
ENDBRANCH  91  93
ENDBRANCH  84  86
ENDBRANCH  82  84
ENDBRANCH  75  78
ENDBRANCH  73  74
ENDBRANCH   1  73
TORSDOF 18
