REMARK SMILES CC[NH2+][C@@]1(C(=O)NCCCCNC(=O)c2ccc(-c3c4nc(c(-c5cc(S(=O)(=O)[O-])ccc5F)c5ccc([nH]5)c(-c5cc(S(=O)(=O)[O-])ccc5F)c5nc(c(-c6cc(S(=O)(=O)[O-])ccc6F)c6ccc3[nH]6)C=C5)C=C4)cc2)CCC[C@@H](Sc2ncc(C)cn2)C1
REMARK SMILES IDX 10 1 9 2 8 3 7 4 5 5 6 6 4 8 78 9 90 10 79 11 81 12 80 13
REMARK SMILES IDX 3 14 2 17 1 18 82 19 83 20 84 21 89 22 85 23 88 24 86 25
REMARK SMILES IDX 87 26 11 27 12 28 13 29 14 31 15 32 16 33 77 34 17 35 76 36
REMARK SMILES IDX 18 37 19 38 20 39 70 40 21 41 75 42 69 43 71 44 22 45 74 46
REMARK SMILES IDX 68 47 67 48 23 50 55 51 35 52 54 53 36 54 39 55 53 56 72 57
REMARK SMILES IDX 37 58 38 59 52 61 73 62 40 63 24 64 25 65 33 66 26 67 32 68
REMARK SMILES IDX 34 69 31 70 27 71 28 72 29 73 30 74 56 75 57 76 65 77 58 78
REMARK SMILES IDX 64 79 66 80 63 81 59 82 60 83 61 84 62 85 41 86 42 87 50 88
REMARK SMILES IDX 43 89 49 90 51 91 48 92 44 93 45 94 46 95 47 96
REMARK H PARENT 7 7 3 15 3 16 12 30 71 49 39 60
REMARK Flexibility Score: inf
ROOT
ATOM      1  C   UNL     1      -3.359   5.151   5.742  1.00  0.00     0.023 C 
ENDROOT
BRANCH   1   2
ATOM      2  C   UNL     1      -1.964   4.775   5.259  1.00  0.00     0.023 C 
BRANCH   2   3
ATOM      3  C   UNL     1      -1.704   3.272   5.111  1.00  0.00     0.116 C 
BRANCH   3   4
ATOM      4  N   UNL     1      -1.862   2.839   3.743  1.00  0.00    -0.351 N 
ATOM      5  C   UNL     1      -1.024   2.604   2.705  1.00  0.00     0.281 C 
ATOM      6  O   UNL     1      -1.635   2.450   1.635  1.00  0.00    -0.268 OA
ATOM      7  H   UNL     1      -2.804   2.675   3.509  1.00  0.00     0.163 HD
BRANCH   5   8
ATOM      8  C   UNL     1       0.578   2.570   2.752  1.00  0.00     0.176 C 
ATOM      9  C   UNL     1       1.245   1.772   3.906  1.00  0.00     0.079 C 
ATOM     10  C   UNL     1       1.116   4.020   2.633  1.00  0.00     0.094 C 
ATOM     11  C   UNL     1       1.792   2.516   5.130  1.00  0.00     0.008 C 
ATOM     12  C   UNL     1       1.290   4.708   3.981  1.00  0.00     0.061 C 
ATOM     13  C   UNL     1       2.259   3.944   4.877  1.00  0.00     0.015 C 
BRANCH   8  14
ATOM     14  N   UNL     1       1.022   1.917   1.459  1.00  0.00    -0.334 N 
ATOM     15  H   UNL     1       0.622   2.451   0.687  1.00  0.00     0.347 HD
ATOM     16  H   UNL     1       2.042   1.920   1.486  1.00  0.00     0.347 HD
BRANCH  14  17
ATOM     17  C   UNL     1       0.638   0.515   1.280  1.00  0.00     0.257 C 
ATOM     18  C   UNL     1       1.069   0.057  -0.108  1.00  0.00     0.071 C 
ENDBRANCH  14  17
ENDBRANCH   8  14
BRANCH  12  19
ATOM     19  S   UNL     1       1.621   6.503   3.824  1.00  0.00    -0.083 SA
BRANCH  19  20
ATOM     20  C   UNL     1       3.368   6.498   3.592  1.00  0.00     0.187 A 
ATOM     21  N   UNL     1       3.850   6.010   2.440  1.00  0.00    -0.231 NA
ATOM     22  N   UNL     1       4.113   6.960   4.609  1.00  0.00    -0.231 NA
ATOM     23  C   UNL     1       5.189   6.001   2.314  1.00  0.00     0.119 A 
ATOM     24  C   UNL     1       5.444   6.926   4.432  1.00  0.00     0.119 A 
ATOM     25  C   UNL     1       6.052   6.446   3.292  1.00  0.00    -0.014 A 
ATOM     26  C   UNL     1       7.531   6.428   3.136  1.00  0.00     0.048 C 
ENDBRANCH  19  20
ENDBRANCH  12  19
ENDBRANCH   5   8
ENDBRANCH   3   4
ENDBRANCH   2   3
ENDBRANCH   1   2
BRANCH   1  27
ATOM     27  C   UNL     1      -3.721   4.624   7.123  1.00  0.00     0.116 C 
BRANCH  27  28
ATOM     28  N   UNL     1      -2.783   4.990   8.177  1.00  0.00    -0.352 N 
ATOM     29  C   UNL     1      -3.058   5.161   9.517  1.00  0.00     0.251 C 
ATOM     30  H   UNL     1      -1.848   5.132   7.900  1.00  0.00     0.163 HD
ATOM     31  O   UNL     1      -2.185   5.519  10.299  1.00  0.00    -0.269 OA
BRANCH  29  32
ATOM     32  C   UNL     1      -4.449   4.958   9.966  1.00  0.00     0.039 A 
ATOM     33  C   UNL     1      -5.123   6.017  10.577  1.00  0.00     0.014 A 
ATOM     34  C   UNL     1      -5.118   3.777   9.639  1.00  0.00     0.014 A 
ATOM     35  C   UNL     1      -6.501   5.925  10.776  1.00  0.00     0.010 A 
ATOM     36  C   UNL     1      -6.500   3.724   9.757  1.00  0.00     0.010 A 
ATOM     37  C   UNL     1      -7.207   4.799  10.319  1.00  0.00    -0.014 A 
BRANCH  37  38
ATOM     38  C   UNL     1      -8.686   4.719  10.415  1.00  0.00     0.031 A 
ATOM     39  C   UNL     1      -9.319   3.633  11.240  1.00  0.00     0.074 A 
ATOM     40  C   UNL     1      -9.453   5.556   9.688  1.00  0.00     0.049 A 
ATOM     41  N   UNL     1     -10.581   3.319  11.372  1.00  0.00    -0.248 NA
ATOM     42  C   UNL     1      -8.399   2.754  11.976  1.00  0.00     0.031 C 
ATOM     43  C   UNL     1      -8.954   6.611   8.801  1.00  0.00     0.029 A 
ATOM     44  N   UNL     1     -10.817   5.646   9.572  1.00  0.00    -0.354 N 
ATOM     45  C   UNL     1     -10.604   2.185  12.177  1.00  0.00     0.074 A 
ATOM     46  C   UNL     1      -9.226   1.833  12.444  1.00  0.00     0.031 C 
ATOM     47  C   UNL     1      -9.998   7.263   8.262  1.00  0.00     0.029 A 
ATOM     48  C   UNL     1     -11.236   6.650   8.730  1.00  0.00     0.049 A 
ATOM     49  H   UNL     1     -11.438   5.048  10.047  1.00  0.00     0.167 HD
ATOM     50  C   UNL     1     -11.676   1.515  12.668  1.00  0.00     0.034 A 
ATOM     51  C   UNL     1     -12.480   7.030   8.377  1.00  0.00     0.034 A 
ATOM     52  C   UNL     1     -13.041   1.907  12.423  1.00  0.00     0.049 A 
ATOM     53  C   UNL     1     -13.657   6.286   8.950  1.00  0.00     0.074 A 
ATOM     54  C   UNL     1     -14.203   1.365  12.943  1.00  0.00     0.029 A 
ATOM     55  N   UNL     1     -13.429   2.942  11.581  1.00  0.00    -0.354 N 
ATOM     56  N   UNL     1     -13.667   5.255   9.763  1.00  0.00    -0.248 NA
ATOM     57  C   UNL     1     -14.991   6.762   8.562  1.00  0.00     0.031 C 
ATOM     58  C   UNL     1     -15.293   2.035  12.375  1.00  0.00     0.029 A 
ATOM     59  C   UNL     1     -14.811   3.037  11.546  1.00  0.00     0.049 A 
ATOM     60  H   UNL     1     -12.811   3.524  11.082  1.00  0.00     0.167 HD
ATOM     61  C   UNL     1     -15.009   4.979  10.009  1.00  0.00     0.074 A 
ATOM     62  C   UNL     1     -15.776   5.956   9.263  1.00  0.00     0.031 C 
ATOM     63  C   UNL     1     -15.558   4.012  10.787  1.00  0.00     0.034 A 
BRANCH  50  64
ATOM     64  C   UNL     1     -11.396   0.282  13.496  1.00  0.00     0.023 A 
ATOM     65  C   UNL     1     -10.666   0.349  14.696  1.00  0.00     0.031 A 
ATOM     66  C   UNL     1     -11.804  -0.985  13.045  1.00  0.00     0.131 A 
ATOM     67  C   UNL     1     -10.274  -0.832  15.344  1.00  0.00     0.055 A 
ATOM     68  C   UNL     1     -11.491  -2.151  13.746  1.00  0.00     0.041 A 
ATOM     69  F   UNL     1     -12.488  -1.115  11.897  1.00  0.00    -0.206 F 
ATOM     70  C   UNL     1     -10.703  -2.081  14.892  1.00  0.00     0.022 A 
BRANCH  67  71
ATOM     71  S   UNL     1      -9.050  -0.717  16.678  1.00  0.00     0.124 S 
ATOM     72  O   UNL     1      -7.929  -0.075  15.993  1.00  0.00    -0.237 OA
ATOM     73  O   UNL     1      -9.741   0.095  17.672  1.00  0.00    -0.237 OA
ATOM     74  O   UNL     1      -8.822  -2.110  17.055  1.00  0.00    -0.744 OA
ENDBRANCH  67  71
ENDBRANCH  50  64
BRANCH  51  75
ATOM     75  C   UNL     1     -12.685   8.179   7.451  1.00  0.00     0.023 A 
ATOM     76  C   UNL     1     -13.258   9.374   7.912  1.00  0.00     0.031 A 
ATOM     77  C   UNL     1     -12.341   8.089   6.092  1.00  0.00     0.131 A 
ATOM     78  C   UNL     1     -13.508  10.422   7.013  1.00  0.00     0.055 A 
ATOM     79  C   UNL     1     -12.554   9.150   5.209  1.00  0.00     0.041 A 
ATOM     80  F   UNL     1     -11.781   6.971   5.606  1.00  0.00    -0.206 F 
ATOM     81  C   UNL     1     -13.151  10.322   5.666  1.00  0.00     0.022 A 
BRANCH  78  82
ATOM     82  S   UNL     1     -14.362  11.902   7.620  1.00  0.00     0.124 S 
ATOM     83  O   UNL     1     -15.627  11.346   8.086  1.00  0.00    -0.237 OA
ATOM     84  O   UNL     1     -13.449  12.376   8.655  1.00  0.00    -0.237 OA
ATOM     85  O   UNL     1     -14.452  12.754   6.436  1.00  0.00    -0.744 OA
ENDBRANCH  78  82
ENDBRANCH  51  75
BRANCH  63  86
ATOM     86  C   UNL     1     -17.060   4.003  10.899  1.00  0.00     0.023 A 
ATOM     87  C   UNL     1     -17.880   3.647   9.814  1.00  0.00     0.031 A 
ATOM     88  C   UNL     1     -17.678   4.370  12.107  1.00  0.00     0.131 A 
ATOM     89  C   UNL     1     -19.275   3.714   9.944  1.00  0.00     0.055 A 
ATOM     90  C   UNL     1     -19.066   4.384  12.247  1.00  0.00     0.041 A 
ATOM     91  F   UNL     1     -16.940   4.719  13.173  1.00  0.00    -0.206 F 
ATOM     92  C   UNL     1     -19.873   4.066  11.158  1.00  0.00     0.022 A 
BRANCH  89  93
ATOM     93  S   UNL     1     -20.302   3.410   8.480  1.00  0.00     0.124 S 
ATOM     94  O   UNL     1     -19.838   4.445   7.563  1.00  0.00    -0.237 OA
ATOM     95  O   UNL     1     -19.946   2.039   8.128  1.00  0.00    -0.237 OA
ATOM     96  O   UNL     1     -21.666   3.586   8.976  1.00  0.00    -0.744 OA
ENDBRANCH  89  93
ENDBRANCH  63  86
ENDBRANCH  37  38
ENDBRANCH  29  32
ENDBRANCH  27  28
ENDBRANCH   1  27
TORSDOF 18
