REMARK SMILES COc1ccc(Br)c([C@H]2[NH2+][C@H](C(=O)NCCCCNC(=O)c3ccc(-c4c5nc(c(-c6cc(S(=O)(=O)[O-])ccc6F)c6ccc([nH]6)c(-c6cc(S(=O)(=O)[O-])ccc6F)c6nc(c(-c7cc(S(=O)(=O)[O-])ccc7F)c7ccc4[nH]7)C=C6)C=C5)cc3)CS2)c1O
REMARK SMILES IDX 17 1 16 2 15 3 14 4 12 5 13 6 11 8 9 9 10 10 86 11 85 14
REMARK SMILES IDX 8 15 3 16 4 17 87 18 5 19 6 20 7 21 2 22 1 23 88 24 18 26
REMARK SMILES IDX 19 27 20 28 21 30 22 31 23 32 84 33 24 34 83 35 25 36 26 37
REMARK SMILES IDX 27 38 77 39 28 40 82 41 76 42 78 43 29 44 81 45 75 46 74 47
REMARK SMILES IDX 30 49 62 50 42 51 61 52 43 53 46 54 60 55 79 56 44 57 45 58
REMARK SMILES IDX 59 60 80 61 47 62 31 63 32 64 40 65 33 66 39 67 41 68 38 69
REMARK SMILES IDX 34 70 35 71 36 72 37 73 63 74 64 75 72 76 65 77 71 78 73 79
REMARK SMILES IDX 70 80 66 81 67 82 68 83 69 84 48 85 49 86 57 87 50 88 56 89
REMARK SMILES IDX 58 90 55 91 51 92 52 93 53 94 54 95
REMARK H PARENT 14 7 10 12 10 13 88 25 19 29 78 48 46 59
REMARK Flexibility Score: inf
ROOT
ATOM      1  C   UNL     1       0.698  -0.145  -3.141  1.00  0.00     0.023 C 
ENDROOT
BRANCH   1   2
ATOM      2  C   UNL     1       1.728   0.935  -2.811  1.00  0.00     0.023 C 
BRANCH   2   3
ATOM      3  C   UNL     1       2.653   0.607  -1.642  1.00  0.00     0.116 C 
BRANCH   3   4
ATOM      4  N   UNL     1       3.720  -0.297  -2.018  1.00  0.00    -0.351 N 
ATOM      5  C   UNL     1       5.001  -0.050  -2.410  1.00  0.00     0.279 C 
ATOM      6  O   UNL     1       5.704  -1.032  -2.681  1.00  0.00    -0.268 OA
ATOM      7  H   UNL     1       3.479  -1.251  -1.983  1.00  0.00     0.163 HD
BRANCH   5   8
ATOM      8  C   UNL     1       5.599   1.364  -2.502  1.00  0.00     0.283 C 
ATOM      9  C   UNL     1       4.364   3.417  -2.969  1.00  0.00     0.279 C 
ATOM     10  N   UNL     1       4.912   2.180  -3.535  1.00  0.00    -0.320 N 
ATOM     11  S   UNL     1       5.555   3.810  -1.642  1.00  0.00    -0.087 SA
ATOM     12  H   UNL     1       5.581   2.420  -4.267  1.00  0.00     0.348 HD
ATOM     13  H   UNL     1       4.139   1.632  -3.913  1.00  0.00     0.348 HD
ATOM     14  C   UNL     1       5.739   2.082  -1.171  1.00  0.00     0.151 C 
BRANCH   9  15
ATOM     15  C   UNL     1       4.048   4.512  -3.996  1.00  0.00     0.080 A 
ATOM     16  C   UNL     1       3.719   6.906  -4.510  1.00  0.00     0.161 A 
ATOM     17  C   UNL     1       3.395   6.638  -5.825  1.00  0.00     0.051 A 
ATOM     18  C   UNL     1       3.957   5.864  -3.600  1.00  0.00     0.169 A 
ATOM     19  C   UNL     1       3.350   5.314  -6.234  1.00  0.00     0.020 A 
ATOM     20  C   UNL     1       3.669   4.265  -5.344  1.00  0.00     0.032 A 
ATOM     21  Br  UNL     1       3.437   2.542  -6.136  1.00  0.00    -0.050 Br
BRANCH  16  22
ATOM     22  O   UNL     1       3.742   8.212  -4.090  1.00  0.00    -0.493 OA
ATOM     23  C   UNL     1       5.099   8.667  -4.022  1.00  0.00     0.278 C 
ENDBRANCH  16  22
BRANCH  18  24
ATOM     24  O   UNL     1       4.014   6.212  -2.274  1.00  0.00    -0.504 OA
ATOM     25  H   UNL     1       3.953   7.113  -2.023  1.00  0.00     0.293 HD
ENDBRANCH  18  24
ENDBRANCH   9  15
ENDBRANCH   5   8
ENDBRANCH   3   4
ENDBRANCH   2   3
ENDBRANCH   1   2
BRANCH   1  26
ATOM     26  C   UNL     1      -0.283  -0.469  -2.020  1.00  0.00     0.116 C 
BRANCH  26  27
ATOM     27  N   UNL     1      -1.040   0.684  -1.554  1.00  0.00    -0.352 N 
ATOM     28  C   UNL     1      -2.316   0.710  -1.042  1.00  0.00     0.251 C 
ATOM     29  H   UNL     1      -0.581   1.553  -1.613  1.00  0.00     0.163 HD
ATOM     30  O   UNL     1      -2.856   1.782  -0.782  1.00  0.00    -0.269 OA
BRANCH  28  31
ATOM     31  C   UNL     1      -3.043  -0.564  -0.860  1.00  0.00     0.039 A 
ATOM     32  C   UNL     1      -4.325  -0.693  -1.399  1.00  0.00     0.014 A 
ATOM     33  C   UNL     1      -2.436  -1.643  -0.212  1.00  0.00     0.014 A 
ATOM     34  C   UNL     1      -4.968  -1.931  -1.358  1.00  0.00     0.010 A 
ATOM     35  C   UNL     1      -3.049  -2.892  -0.234  1.00  0.00     0.010 A 
ATOM     36  C   UNL     1      -4.318  -3.050  -0.812  1.00  0.00    -0.014 A 
BRANCH  36  37
ATOM     37  C   UNL     1      -4.945  -4.396  -0.837  1.00  0.00     0.031 A 
ATOM     38  C   UNL     1      -5.301  -5.081   0.454  1.00  0.00     0.074 A 
ATOM     39  C   UNL     1      -5.120  -5.030  -2.013  1.00  0.00     0.049 A 
ATOM     40  N   UNL     1      -5.768  -6.286   0.651  1.00  0.00    -0.248 NA
ATOM     41  C   UNL     1      -5.066  -4.316   1.688  1.00  0.00     0.031 C 
ATOM     42  C   UNL     1      -4.766  -4.487  -3.327  1.00  0.00     0.029 A 
ATOM     43  N   UNL     1      -5.627  -6.273  -2.296  1.00  0.00    -0.354 N 
ATOM     44  C   UNL     1      -5.867  -6.432   2.031  1.00  0.00     0.074 A 
ATOM     45  C   UNL     1      -5.352  -5.213   2.618  1.00  0.00     0.031 C 
ATOM     46  C   UNL     1      -5.085  -5.384  -4.274  1.00  0.00     0.029 A 
ATOM     47  C   UNL     1      -5.628  -6.579  -3.637  1.00  0.00     0.049 A 
ATOM     48  H   UNL     1      -5.960  -6.889  -1.603  1.00  0.00     0.167 HD
ATOM     49  C   UNL     1      -6.363  -7.476   2.740  1.00  0.00     0.034 A 
ATOM     50  C   UNL     1      -6.012  -7.700  -4.278  1.00  0.00     0.034 A 
ATOM     51  C   UNL     1      -6.889  -8.677   2.137  1.00  0.00     0.049 A 
ATOM     52  C   UNL     1      -6.557  -8.850  -3.470  1.00  0.00     0.074 A 
ATOM     53  C   UNL     1      -7.473  -9.769   2.754  1.00  0.00     0.029 A 
ATOM     54  N   UNL     1      -6.889  -8.945   0.773  1.00  0.00    -0.354 N 
ATOM     55  N   UNL     1      -6.694  -8.952  -2.168  1.00  0.00    -0.248 NA
ATOM     56  C   UNL     1      -7.008 -10.030  -4.218  1.00  0.00     0.031 C 
ATOM     57  C   UNL     1      -7.772 -10.721   1.771  1.00  0.00     0.029 A 
ATOM     58  C   UNL     1      -7.438 -10.196   0.533  1.00  0.00     0.049 A 
ATOM     59  H   UNL     1      -6.549  -8.336   0.079  1.00  0.00     0.167 HD
ATOM     60  C   UNL     1      -7.273 -10.198  -1.945  1.00  0.00     0.074 A 
ATOM     61  C   UNL     1      -7.471 -10.802  -3.247  1.00  0.00     0.031 C 
ATOM     62  C   UNL     1      -7.615 -10.788  -0.772  1.00  0.00     0.034 A 
BRANCH  49  63
ATOM     63  C   UNL     1      -6.334  -7.364   4.246  1.00  0.00     0.023 A 
ATOM     64  C   UNL     1      -7.054  -6.365   4.925  1.00  0.00     0.031 A 
ATOM     65  C   UNL     1      -5.545  -8.240   5.012  1.00  0.00     0.131 A 
ATOM     66  C   UNL     1      -6.903  -6.210   6.311  1.00  0.00     0.055 A 
ATOM     67  C   UNL     1      -5.465  -8.134   6.402  1.00  0.00     0.041 A 
ATOM     68  F   UNL     1      -4.820  -9.202   4.420  1.00  0.00    -0.206 F 
ATOM     69  C   UNL     1      -6.133  -7.104   7.058  1.00  0.00     0.022 A 
BRANCH  66  70
ATOM     70  S   UNL     1      -7.604  -4.734   7.097  1.00  0.00     0.124 S 
ATOM     71  O   UNL     1      -6.915  -3.663   6.380  1.00  0.00    -0.237 OA
ATOM     72  O   UNL     1      -9.029  -4.875   6.819  1.00  0.00    -0.237 OA
ATOM     73  O   UNL     1      -7.224  -4.880   8.501  1.00  0.00    -0.744 OA
ENDBRANCH  66  70
ENDBRANCH  49  63
BRANCH  50  74
ATOM     74  C   UNL     1      -5.895  -7.801  -5.760  1.00  0.00     0.023 A 
ATOM     75  C   UNL     1      -7.038  -7.890  -6.571  1.00  0.00     0.031 A 
ATOM     76  C   UNL     1      -4.636  -7.847  -6.386  1.00  0.00     0.131 A 
ATOM     77  C   UNL     1      -6.901  -8.065  -7.956  1.00  0.00     0.055 A 
ATOM     78  C   UNL     1      -4.506  -7.973  -7.770  1.00  0.00     0.041 A 
ATOM     79  F   UNL     1      -3.513  -7.757  -5.657  1.00  0.00    -0.206 F 
ATOM     80  C   UNL     1      -5.643  -8.096  -8.563  1.00  0.00     0.022 A 
BRANCH  77  81
ATOM     81  S   UNL     1      -8.395  -8.326  -8.950  1.00  0.00     0.124 S 
ATOM     82  O   UNL     1      -8.965  -9.515  -8.325  1.00  0.00    -0.237 OA
ATOM     83  O   UNL     1      -9.122  -7.079  -8.737  1.00  0.00    -0.237 OA
ATOM     84  O   UNL     1      -7.876  -8.519 -10.302  1.00  0.00    -0.744 OA
ENDBRANCH  77  81
ENDBRANCH  50  74
BRANCH  62  85
ATOM     85  C   UNL     1      -8.276 -12.141  -0.857  1.00  0.00     0.023 A 
ATOM     86  C   UNL     1      -7.575 -13.280  -1.291  1.00  0.00     0.031 A 
ATOM     87  C   UNL     1      -9.631 -12.287  -0.512  1.00  0.00     0.131 A 
ATOM     88  C   UNL     1      -8.246 -14.505  -1.419  1.00  0.00     0.055 A 
ATOM     89  C   UNL     1     -10.279 -13.520  -0.588  1.00  0.00     0.041 A 
ATOM     90  F   UNL     1     -10.347 -11.231  -0.093  1.00  0.00    -0.206 F 
ATOM     91  C   UNL     1      -9.590 -14.636  -1.056  1.00  0.00     0.022 A 
BRANCH  88  92
ATOM     92  S   UNL     1      -7.362 -15.911  -2.146  1.00  0.00     0.124 S 
ATOM     93  O   UNL     1      -7.000 -15.394  -3.462  1.00  0.00    -0.237 OA
ATOM     94  O   UNL     1      -6.258 -16.103  -1.211  1.00  0.00    -0.237 OA
ATOM     95  O   UNL     1      -8.360 -16.979  -2.152  1.00  0.00    -0.744 OA
ENDBRANCH  88  92
ENDBRANCH  62  85
ENDBRANCH  36  37
ENDBRANCH  28  31
ENDBRANCH  26  27
ENDBRANCH   1  26
TORSDOF 17
