REMARK SMILES CCC[C@]1(C(=O)NCCCCNC(=O)c2ccc(-c3c4nc(c(-c5cc(S(=O)(=O)[O-])ccc5F)c5ccc([nH]5)c(-c5cc(S(=O)(=O)[O-])ccc5F)c5nc(c(-c6cc(S(=O)(=O)[O-])ccc6F)c6ccc3[nH]6)C=C5)C=C4)cc2)CCN(c2cncc(C(=O)OC)n2)C1
REMARK SMILES IDX 9 1 8 2 7 3 5 4 6 5 4 7 78 8 91 9 79 10 80 11 3 12 2 13 1 14
REMARK SMILES IDX 81 15 82 16 90 17 83 18 85 19 84 20 86 21 87 22 88 23 89 24
REMARK SMILES IDX 10 25 11 26 12 27 13 28 14 30 15 31 16 32 77 33 17 34 76 35
REMARK SMILES IDX 18 36 19 37 20 38 70 39 21 40 75 41 69 42 71 43 22 44 74 45
REMARK SMILES IDX 68 46 67 47 23 49 55 50 35 51 54 52 36 53 39 54 53 55 72 56
REMARK SMILES IDX 37 57 38 58 52 60 73 61 40 62 24 63 25 64 33 65 26 66 32 67
REMARK SMILES IDX 34 68 31 69 27 70 28 71 29 72 30 73 56 74 57 75 65 76 58 77
REMARK SMILES IDX 64 78 66 79 63 80 59 81 60 82 61 83 62 84 41 85 42 86 50 87
REMARK SMILES IDX 43 88 49 89 51 90 48 91 44 92 45 93 46 94 47 95
REMARK H PARENT 7 6 12 29 71 48 39 59
REMARK Flexibility Score: inf
ROOT
ATOM      1  C   UNL     1      -1.062  -1.147   6.271  1.00  0.00     0.023 C 
ENDROOT
BRANCH   1   2
ATOM      2  C   UNL     1      -0.170  -0.478   5.233  1.00  0.00     0.116 C 
BRANCH   2   3
ATOM      3  N   UNL     1       0.875  -1.362   4.745  1.00  0.00    -0.356 N 
ATOM      4  C   UNL     1       1.236  -1.730   3.483  1.00  0.00     0.228 C 
ATOM      5  O   UNL     1       2.210  -2.484   3.401  1.00  0.00    -0.274 OA
ATOM      6  H   UNL     1       1.422  -1.769   5.455  1.00  0.00     0.163 HD
BRANCH   4   7
ATOM      7  C   UNL     1       0.468  -1.268   2.222  1.00  0.00     0.068 C 
ATOM      8  C   UNL     1      -0.995  -1.764   2.289  1.00  0.00     0.040 C 
ATOM      9  C   UNL     1       0.397   0.274   2.183  1.00  0.00     0.135 C 
ATOM     10  C   UNL     1      -1.851  -0.595   1.824  1.00  0.00     0.119 C 
ATOM     11  N   UNL     1      -1.022   0.567   2.056  1.00  0.00    -0.354 N 
BRANCH   7  12
ATOM     12  C   UNL     1       1.182  -1.867   0.971  1.00  0.00     0.018 C 
BRANCH  12  13
ATOM     13  C   UNL     1       0.628  -1.573  -0.432  1.00  0.00    -0.002 C 
ATOM     14  C   UNL     1       0.986  -0.205  -0.994  1.00  0.00     0.004 C 
ENDBRANCH  12  13
ENDBRANCH   7  12
BRANCH  11  15
ATOM     15  C   UNL     1      -1.515   1.843   2.096  1.00  0.00     0.148 A 
ATOM     16  C   UNL     1      -2.611   2.163   2.912  1.00  0.00     0.157 A 
ATOM     17  N   UNL     1      -0.929   2.806   1.353  1.00  0.00    -0.221 NA
ATOM     18  N   UNL     1      -3.155   3.398   3.023  1.00  0.00    -0.258 NA
ATOM     19  C   UNL     1      -1.492   4.048   1.422  1.00  0.00     0.169 A 
ATOM     20  C   UNL     1      -2.567   4.337   2.251  1.00  0.00     0.147 A 
BRANCH  19  21
ATOM     21  C   UNL     1      -1.012   5.135   0.530  1.00  0.00     0.358 C 
ATOM     22  O   UNL     1      -1.463   6.269   0.560  1.00  0.00    -0.244 OA
BRANCH  21  23
ATOM     23  O   UNL     1      -0.068   4.687  -0.339  1.00  0.00    -0.464 OA
ATOM     24  C   UNL     1       0.362   5.679  -1.271  1.00  0.00     0.282 C 
ENDBRANCH  21  23
ENDBRANCH  19  21
ENDBRANCH  11  15
ENDBRANCH   4   7
ENDBRANCH   2   3
ENDBRANCH   1   2
BRANCH   1  25
ATOM     25  C   UNL     1      -0.381  -1.429   7.607  1.00  0.00     0.023 C 
BRANCH  25  26
ATOM     26  C   UNL     1       0.284  -0.222   8.260  1.00  0.00     0.116 C 
BRANCH  26  27
ATOM     27  N   UNL     1      -0.632   0.891   8.461  1.00  0.00    -0.352 N 
ATOM     28  C   UNL     1      -0.872   1.620   9.601  1.00  0.00     0.251 C 
ATOM     29  H   UNL     1      -1.153   1.159   7.670  1.00  0.00     0.163 HD
ATOM     30  O   UNL     1      -1.801   2.420   9.629  1.00  0.00    -0.269 OA
BRANCH  28  31
ATOM     31  C   UNL     1      -0.029   1.403  10.796  1.00  0.00     0.039 A 
ATOM     32  C   UNL     1      -0.644   1.262  12.041  1.00  0.00     0.014 A 
ATOM     33  C   UNL     1       1.361   1.307  10.682  1.00  0.00     0.014 A 
ATOM     34  C   UNL     1       0.131   0.951  13.159  1.00  0.00     0.010 A 
ATOM     35  C   UNL     1       2.119   0.909  11.779  1.00  0.00     0.010 A 
ATOM     36  C   UNL     1       1.512   0.729  13.031  1.00  0.00    -0.014 A 
BRANCH  36  37
ATOM     37  C   UNL     1       2.333   0.311  14.198  1.00  0.00     0.031 A 
ATOM     38  C   UNL     1       3.446   1.193  14.694  1.00  0.00     0.074 A 
ATOM     39  C   UNL     1       2.103  -0.883  14.780  1.00  0.00     0.049 A 
ATOM     40  N   UNL     1       4.294   0.987  15.670  1.00  0.00    -0.248 NA
ATOM     41  C   UNL     1       3.653   2.462  13.980  1.00  0.00     0.031 C 
ATOM     42  C   UNL     1       1.082  -1.846  14.359  1.00  0.00     0.029 A 
ATOM     43  N   UNL     1       2.710  -1.494  15.849  1.00  0.00    -0.354 N 
ATOM     44  C   UNL     1       5.135   2.094  15.682  1.00  0.00     0.074 A 
ATOM     45  C   UNL     1       4.741   2.931  14.570  1.00  0.00     0.031 C 
ATOM     46  C   UNL     1       1.108  -2.905  15.183  1.00  0.00     0.029 A 
ATOM     47  C   UNL     1       2.178  -2.725  16.159  1.00  0.00     0.049 A 
ATOM     48  H   UNL     1       3.456  -1.090  16.348  1.00  0.00     0.167 HD
ATOM     49  C   UNL     1       6.126   2.398  16.558  1.00  0.00     0.034 A 
ATOM     50  C   UNL     1       2.518  -3.612  17.115  1.00  0.00     0.034 A 
ATOM     51  C   UNL     1       6.503   1.552  17.664  1.00  0.00     0.049 A 
ATOM     52  C   UNL     1       3.646  -3.268  18.055  1.00  0.00     0.074 A 
ATOM     53  C   UNL     1       7.458   1.783  18.639  1.00  0.00     0.029 A 
ATOM     54  N   UNL     1       5.951   0.306  17.940  1.00  0.00    -0.354 N 
ATOM     55  N   UNL     1       4.396  -2.189  18.088  1.00  0.00    -0.248 NA
ATOM     56  C   UNL     1       3.963  -4.253  19.096  1.00  0.00     0.031 C 
ATOM     57  C   UNL     1       7.538   0.648  19.453  1.00  0.00     0.029 A 
ATOM     58  C   UNL     1       6.570  -0.256  19.046  1.00  0.00     0.049 A 
ATOM     59  H   UNL     1       5.225  -0.115  17.425  1.00  0.00     0.167 HD
ATOM     60  C   UNL     1       5.251  -2.356  19.174  1.00  0.00     0.074 A 
ATOM     61  C   UNL     1       4.909  -3.627  19.779  1.00  0.00     0.031 C 
ATOM     62  C   UNL     1       6.229  -1.532  19.633  1.00  0.00     0.034 A 
BRANCH  49  63
ATOM     63  C   UNL     1       6.883   3.687  16.332  1.00  0.00     0.023 A 
ATOM     64  C   UNL     1       6.241   4.938  16.373  1.00  0.00     0.031 A 
ATOM     65  C   UNL     1       8.259   3.666  16.046  1.00  0.00     0.131 A 
ATOM     66  C   UNL     1       6.954   6.103  16.056  1.00  0.00     0.055 A 
ATOM     67  C   UNL     1       8.983   4.838  15.819  1.00  0.00     0.041 A 
ATOM     68  F   UNL     1       8.925   2.502  15.969  1.00  0.00    -0.206 F 
ATOM     69  C   UNL     1       8.328   6.066  15.807  1.00  0.00     0.022 A 
BRANCH  66  70
ATOM     70  S   UNL     1       6.030   7.646  15.822  1.00  0.00     0.124 S 
ATOM     71  O   UNL     1       5.104   7.276  14.753  1.00  0.00    -0.237 OA
ATOM     72  O   UNL     1       5.436   7.861  17.136  1.00  0.00    -0.237 OA
ATOM     73  O   UNL     1       7.061   8.608  15.436  1.00  0.00    -0.744 OA
ENDBRANCH  66  70
ENDBRANCH  49  63
BRANCH  50  74
ATOM     74  C   UNL     1       1.796  -4.913  17.235  1.00  0.00     0.023 A 
ATOM     75  C   UNL     1       1.065  -5.232  18.391  1.00  0.00     0.031 A 
ATOM     76  C   UNL     1       1.868  -5.879  16.215  1.00  0.00     0.131 A 
ATOM     77  C   UNL     1       0.480  -6.502  18.521  1.00  0.00     0.055 A 
ATOM     78  C   UNL     1       1.233  -7.117  16.325  1.00  0.00     0.041 A 
ATOM     79  F   UNL     1       2.552  -5.627  15.088  1.00  0.00    -0.206 F 
ATOM     80  C   UNL     1       0.546  -7.441  17.490  1.00  0.00     0.022 A 
BRANCH  77  81
ATOM     81  S   UNL     1      -0.288  -6.946  20.104  1.00  0.00     0.124 S 
ATOM     82  O   UNL     1       0.823  -6.767  21.032  1.00  0.00    -0.237 OA
ATOM     83  O   UNL     1      -1.369  -5.971  20.200  1.00  0.00    -0.237 OA
ATOM     84  O   UNL     1      -0.714  -8.328  19.899  1.00  0.00    -0.744 OA
ENDBRANCH  77  81
ENDBRANCH  50  74
BRANCH  62  85
ATOM     85  C   UNL     1       6.964  -1.967  20.879  1.00  0.00     0.023 A 
ATOM     86  C   UNL     1       7.764  -3.123  20.904  1.00  0.00     0.031 A 
ATOM     87  C   UNL     1       6.841  -1.224  22.068  1.00  0.00     0.131 A 
ATOM     88  C   UNL     1       8.353  -3.540  22.108  1.00  0.00     0.055 A 
ATOM     89  C   UNL     1       7.489  -1.604  23.244  1.00  0.00     0.041 A 
ATOM     90  F   UNL     1       6.087  -0.114  22.106  1.00  0.00    -0.206 F 
ATOM     91  C   UNL     1       8.237  -2.777  23.273  1.00  0.00     0.022 A 
BRANCH  88  92
ATOM     92  S   UNL     1       9.175  -5.156  22.159  1.00  0.00     0.124 S 
ATOM     93  O   UNL     1       8.106  -6.053  21.732  1.00  0.00    -0.237 OA
ATOM     94  O   UNL     1      10.273  -4.978  21.214  1.00  0.00    -0.237 OA
ATOM     95  O   UNL     1       9.577  -5.292  23.558  1.00  0.00    -0.744 OA
ENDBRANCH  88  92
ENDBRANCH  62  85
ENDBRANCH  36  37
ENDBRANCH  28  31
ENDBRANCH  26  27
ENDBRANCH  25  26
ENDBRANCH   1  25
TORSDOF 19
