REMARK SMILES CC[C@@H](C(=O)NCCCCNC(=O)c1ccc(-c2c3nc(c(-c4cc(S(=O)(=O)[O-])ccc4F)c4ccc([nH]4)c(-c4cc(S(=O)(=O)[O-])ccc4F)c4nc(c(-c5cc(S(=O)(=O)[O-])ccc5F)c5ccc2[nH]5)C=C4)C=C3)cc1)N1C(=O)/C(=C/C(C)=C/c2ccccc2)SC1=S
REMARK SMILES IDX 8 1 7 2 6 3 4 4 5 5 3 7 2 8 1 9 77 10 78 11 92 12 79 13
REMARK SMILES IDX 80 14 91 15 93 16 81 17 82 18 83 19 84 20 85 21 86 22 90 23
REMARK SMILES IDX 87 24 89 25 88 26 9 27 10 28 11 29 12 30 13 32 14 33 15 34
REMARK SMILES IDX 76 35 16 36 75 37 17 38 18 39 19 40 69 41 20 42 74 43 68 44
REMARK SMILES IDX 70 45 21 46 73 47 67 48 66 49 22 51 54 52 34 53 53 54 35 55
REMARK SMILES IDX 38 56 52 57 71 58 36 59 37 60 51 62 72 63 39 64 23 65 24 66
REMARK SMILES IDX 32 67 25 68 31 69 33 70 30 71 26 72 27 73 28 74 29 75 55 76
REMARK SMILES IDX 56 77 64 78 57 79 63 80 65 81 62 82 58 83 59 84 60 85 61 86
REMARK SMILES IDX 40 87 41 88 49 89 42 90 48 91 50 92 47 93 43 94 44 95 45 96
REMARK SMILES IDX 46 97
REMARK H PARENT 6 6 11 31 70 50 38 61
REMARK Flexibility Score: inf
ROOT
ATOM      1  C   UNL     1       0.966  -1.411   1.975  1.00  0.00     0.023 C 
ENDROOT
BRANCH   1   2
ATOM      2  C   UNL     1       1.516  -2.129   0.735  1.00  0.00     0.116 C 
BRANCH   2   3
ATOM      3  N   UNL     1       0.414  -2.536  -0.120  1.00  0.00    -0.354 N 
ATOM      4  C   UNL     1      -0.089  -1.965  -1.256  1.00  0.00     0.243 C 
ATOM      5  O   UNL     1      -1.226  -2.309  -1.601  1.00  0.00    -0.273 OA
ATOM      6  H   UNL     1      -0.045  -3.358   0.165  1.00  0.00     0.163 HD
BRANCH   4   7
ATOM      7  C   UNL     1       0.738  -0.951  -2.098  1.00  0.00     0.181 C 
BRANCH   7   8
ATOM      8  C   UNL     1       0.504   0.502  -1.639  1.00  0.00     0.032 C 
ATOM      9  C   UNL     1       0.637   0.917  -0.194  1.00  0.00     0.006 C 
ENDBRANCH   7   8
BRANCH   7  10
ATOM     10  N   UNL     1       0.288  -1.174  -3.527  1.00  0.00    -0.280 N 
ATOM     11  C   UNL     1       0.449  -2.438  -4.099  1.00  0.00     0.266 C 
ATOM     12  C   UNL     1      -0.300  -0.271  -4.388  1.00  0.00     0.149 C 
ATOM     13  O   UNL     1       1.157  -3.337  -3.668  1.00  0.00    -0.268 OA
ATOM     14  C   UNL     1      -0.315  -2.521  -5.392  1.00  0.00     0.080 C 
ATOM     15  S   UNL     1      -1.335  -1.141  -5.496  1.00  0.00    -0.054 SA
ATOM     16  S   UNL     1      -0.029   1.360  -4.633  1.00  0.00    -0.052 S 
ATOM     17  C   UNL     1      -0.143  -3.463  -6.336  1.00  0.00     0.024 C 
BRANCH  17  18
ATOM     18  C   UNL     1      -0.766  -3.519  -7.673  1.00  0.00    -0.049 C 
ATOM     19  C   UNL     1      -1.137  -4.900  -8.144  1.00  0.00     0.044 C 
ATOM     20  C   UNL     1      -0.883  -2.410  -8.440  1.00  0.00     0.011 C 
BRANCH  20  21
ATOM     21  C   UNL     1      -1.550  -2.174  -9.736  1.00  0.00    -0.025 A 
ATOM     22  C   UNL     1      -1.102  -1.090 -10.509  1.00  0.00     0.008 A 
ATOM     23  C   UNL     1      -2.700  -2.852 -10.155  1.00  0.00     0.008 A 
ATOM     24  C   UNL     1      -1.764  -0.712 -11.680  1.00  0.00     0.001 A 
ATOM     25  C   UNL     1      -3.358  -2.483 -11.335  1.00  0.00     0.001 A 
ATOM     26  C   UNL     1      -2.891  -1.414 -12.096  1.00  0.00     0.000 A 
ENDBRANCH  20  21
ENDBRANCH  17  18
ENDBRANCH   7  10
ENDBRANCH   4   7
ENDBRANCH   2   3
ENDBRANCH   1   2
BRANCH   1  27
ATOM     27  C   UNL     1       0.528  -2.318   3.116  1.00  0.00     0.023 C 
BRANCH  27  28
ATOM     28  C   UNL     1       1.670  -2.986   3.854  1.00  0.00     0.116 C 
BRANCH  28  29
ATOM     29  N   UNL     1       2.593  -2.037   4.461  1.00  0.00    -0.352 N 
ATOM     30  C   UNL     1       3.146  -2.054   5.719  1.00  0.00     0.251 C 
ATOM     31  H   UNL     1       2.857  -1.279   3.892  1.00  0.00     0.163 HD
ATOM     32  O   UNL     1       3.807  -1.095   6.108  1.00  0.00    -0.269 OA
BRANCH  30  33
ATOM     33  C   UNL     1       2.902  -3.213   6.604  1.00  0.00     0.039 A 
ATOM     34  C   UNL     1       2.607  -2.993   7.950  1.00  0.00     0.014 A 
ATOM     35  C   UNL     1       2.928  -4.513   6.094  1.00  0.00     0.014 A 
ATOM     36  C   UNL     1       2.287  -4.077   8.770  1.00  0.00     0.010 A 
ATOM     37  C   UNL     1       2.493  -5.572   6.877  1.00  0.00     0.010 A 
ATOM     38  C   UNL     1       2.200  -5.372   8.233  1.00  0.00    -0.014 A 
BRANCH  38  39
ATOM     39  C   UNL     1       1.883  -6.543   9.087  1.00  0.00     0.031 A 
ATOM     40  C   UNL     1       2.897  -7.648   9.232  1.00  0.00     0.074 A 
ATOM     41  C   UNL     1       0.680  -6.633   9.687  1.00  0.00     0.049 A 
ATOM     42  N   UNL     1       2.807  -8.778   9.884  1.00  0.00    -0.248 NA
ATOM     43  C   UNL     1       4.167  -7.479   8.505  1.00  0.00     0.031 C 
ATOM     44  C   UNL     1      -0.404  -5.655   9.566  1.00  0.00     0.029 A 
ATOM     45  N   UNL     1       0.167  -7.593  10.521  1.00  0.00    -0.354 N 
ATOM     46  C   UNL     1       3.995  -9.457   9.628  1.00  0.00     0.074 A 
ATOM     47  C   UNL     1       4.745  -8.653   8.690  1.00  0.00     0.031 C 
ATOM     48  C   UNL     1      -1.435  -6.044  10.334  1.00  0.00     0.029 A 
ATOM     49  C   UNL     1      -1.103  -7.314  10.971  1.00  0.00     0.049 A 
ATOM     50  H   UNL     1       0.661  -8.406  10.775  1.00  0.00     0.167 HD
ATOM     51  C   UNL     1       4.439 -10.623  10.159  1.00  0.00     0.034 A 
ATOM     52  C   UNL     1      -1.901  -8.004  11.808  1.00  0.00     0.034 A 
ATOM     53  C   UNL     1       3.689 -11.391  11.120  1.00  0.00     0.049 A 
ATOM     54  C   UNL     1      -1.380  -9.289  12.402  1.00  0.00     0.074 A 
ATOM     55  C   UNL     1       4.054 -12.556  11.771  1.00  0.00     0.029 A 
ATOM     56  N   UNL     1       2.415 -11.066  11.571  1.00  0.00    -0.354 N 
ATOM     57  N   UNL     1      -0.228  -9.889  12.198  1.00  0.00    -0.248 NA
ATOM     58  C   UNL     1      -2.259  -9.978  13.353  1.00  0.00     0.031 C 
ATOM     59  C   UNL     1       2.980 -12.966  12.569  1.00  0.00     0.029 A 
ATOM     60  C   UNL     1       1.971 -12.019  12.474  1.00  0.00     0.049 A 
ATOM     61  H   UNL     1       1.902 -10.274  11.290  1.00  0.00     0.167 HD
ATOM     62  C   UNL     1      -0.236 -11.012  13.020  1.00  0.00     0.074 A 
ATOM     63  C   UNL     1      -1.493 -10.987  13.740  1.00  0.00     0.031 C 
ATOM     64  C   UNL     1       0.706 -11.980  13.169  1.00  0.00     0.034 A 
BRANCH  51  65
ATOM     65  C   UNL     1       5.788 -11.125   9.695  1.00  0.00     0.023 A 
ATOM     66  C   UNL     1       6.963 -10.377   9.896  1.00  0.00     0.031 A 
ATOM     67  C   UNL     1       5.897 -12.339   8.996  1.00  0.00     0.131 A 
ATOM     68  C   UNL     1       8.172 -10.799   9.323  1.00  0.00     0.055 A 
ATOM     69  C   UNL     1       7.122 -12.801   8.508  1.00  0.00     0.041 A 
ATOM     70  F   UNL     1       4.810 -13.088   8.752  1.00  0.00    -0.206 F 
ATOM     71  C   UNL     1       8.266 -12.021   8.654  1.00  0.00     0.022 A 
BRANCH  68  72
ATOM     72  S   UNL     1       9.577  -9.652   9.324  1.00  0.00     0.124 S 
ATOM     73  O   UNL     1       9.031  -8.519   8.579  1.00  0.00    -0.237 OA
ATOM     74  O   UNL     1       9.804  -9.431  10.747  1.00  0.00    -0.237 OA
ATOM     75  O   UNL     1      10.627 -10.395   8.631  1.00  0.00    -0.744 OA
ENDBRANCH  68  72
ENDBRANCH  51  65
BRANCH  52  76
ATOM     76  C   UNL     1      -3.261  -7.499  12.154  1.00  0.00     0.023 A 
ATOM     77  C   UNL     1      -3.581  -7.126  13.469  1.00  0.00     0.031 A 
ATOM     78  C   UNL     1      -4.277  -7.427  11.184  1.00  0.00     0.131 A 
ATOM     79  C   UNL     1      -4.894  -6.750  13.793  1.00  0.00     0.055 A 
ATOM     80  C   UNL     1      -5.569  -7.001  11.500  1.00  0.00     0.041 A 
ATOM     81  F   UNL     1      -4.025  -7.763   9.909  1.00  0.00    -0.206 F 
ATOM     82  C   UNL     1      -5.888  -6.674  12.815  1.00  0.00     0.022 A 
BRANCH  79  83
ATOM     83  S   UNL     1      -5.307  -6.447  15.533  1.00  0.00     0.124 S 
ATOM     84  O   UNL     1      -4.938  -7.715  16.152  1.00  0.00    -0.237 OA
ATOM     85  O   UNL     1      -4.455  -5.305  15.851  1.00  0.00    -0.237 OA
ATOM     86  O   UNL     1      -6.740  -6.162  15.498  1.00  0.00    -0.744 OA
ENDBRANCH  79  83
ENDBRANCH  52  76
BRANCH  64  87
ATOM     87  C   UNL     1       0.411 -13.063  14.177  1.00  0.00     0.023 A 
ATOM     88  C   UNL     1      -0.656 -13.961  14.001  1.00  0.00     0.031 A 
ATOM     89  C   UNL     1       1.184 -13.176  15.346  1.00  0.00     0.131 A 
ATOM     90  C   UNL     1      -0.969 -14.881  15.013  1.00  0.00     0.055 A 
ATOM     91  C   UNL     1       0.912 -14.140  16.317  1.00  0.00     0.041 A 
ATOM     92  F   UNL     1       2.216 -12.344  15.566  1.00  0.00    -0.206 F 
ATOM     93  C   UNL     1      -0.181 -14.987  16.162  1.00  0.00     0.022 A 
BRANCH  90  94
ATOM     94  S   UNL     1      -2.495 -15.849  14.862  1.00  0.00     0.124 S 
ATOM     95  O   UNL     1      -3.504 -14.805  14.714  1.00  0.00    -0.237 OA
ATOM     96  O   UNL     1      -2.235 -16.656  13.674  1.00  0.00    -0.237 OA
ATOM     97  O   UNL     1      -2.553 -16.595  16.118  1.00  0.00    -0.744 OA
ENDBRANCH  90  94
ENDBRANCH  64  87
ENDBRANCH  38  39
ENDBRANCH  30  33
ENDBRANCH  28  29
ENDBRANCH  27  28
ENDBRANCH   1  27
TORSDOF 18
