REMARK SMILES CC[C@H](CCO)CNc1cc(C(=O)NCCCCNC(=O)c2ccc(-c3c4nc(c(-c5cc(S(=O)(=O)[O-])ccc5F)c5ccc([nH]5)c(-c5cc(S(=O)(=O)[O-])ccc5F)c5nc(c(-c6cc(S(=O)(=O)[O-])ccc6F)c6ccc3[nH]6)C=C5)C=C4)cc2)ccn1
REMARK SMILES IDX 15 1 14 2 12 3 13 4 11 6 9 7 10 8 87 9 86 10 85 11 8 12 7 14
REMARK SMILES IDX 3 15 2 16 1 17 4 18 5 19 6 20 16 22 17 23 18 24 19 25 20 26
REMARK SMILES IDX 21 28 22 29 23 30 84 31 24 32 83 33 25 34 26 35 27 36 77 37
REMARK SMILES IDX 28 38 82 39 76 40 78 41 29 42 81 43 75 44 74 45 30 47 62 48
REMARK SMILES IDX 42 49 61 50 43 51 46 52 60 53 79 54 44 55 45 56 59 58 80 59
REMARK SMILES IDX 47 60 31 61 32 62 40 63 33 64 39 65 41 66 38 67 34 68 35 69
REMARK SMILES IDX 36 70 37 71 63 72 64 73 72 74 65 75 71 76 73 77 70 78 66 79
REMARK SMILES IDX 67 80 68 81 69 82 48 83 49 84 57 85 50 86 56 87 58 88 55 89
REMARK SMILES IDX 51 90 52 91 53 92 54 93
REMARK H PARENT 14 5 8 13 6 21 19 27 78 46 46 57
REMARK Flexibility Score: inf
ROOT
ATOM      1  C   UNL     1      -0.059   8.143   0.331  1.00  0.00     0.116 C 
ENDROOT
BRANCH   1   2
ATOM      2  N   UNL     1       0.761   8.925   1.236  1.00  0.00    -0.352 N 
ATOM      3  C   UNL     1       1.682   8.584   2.192  1.00  0.00     0.251 C 
ATOM      4  O   UNL     1       2.238   9.504   2.796  1.00  0.00    -0.269 OA
ATOM      5  H   UNL     1       0.630   9.897   1.145  1.00  0.00     0.163 HD
BRANCH   3   6
ATOM      6  C   UNL     1       2.089   7.185   2.503  1.00  0.00     0.044 A 
ATOM      7  C   UNL     1       1.862   4.792   2.470  1.00  0.00     0.126 A 
ATOM      8  C   UNL     1       1.326   6.052   2.240  1.00  0.00     0.060 A 
ATOM      9  N   UNL     1       3.051   4.624   3.071  1.00  0.00    -0.240 NA
ATOM     10  C   UNL     1       3.753   5.729   3.396  1.00  0.00     0.114 A 
ATOM     11  C   UNL     1       3.331   7.012   3.116  1.00  0.00     0.034 A 
BRANCH   7  12
ATOM     12  N   UNL     1       1.239   3.633   2.060  1.00  0.00    -0.370 N 
ATOM     13  H   UNL     1       1.288   2.832   2.631  1.00  0.00     0.162 HD
BRANCH  12  14
ATOM     14  C   UNL     1       0.512   3.569   0.802  1.00  0.00     0.118 C 
BRANCH  14  15
ATOM     15  C   UNL     1       0.905   2.295   0.010  1.00  0.00     0.010 C 
BRANCH  15  16
ATOM     16  C   UNL     1       0.453   2.462  -1.461  1.00  0.00     0.002 C 
ATOM     17  C   UNL     1       1.230   1.618  -2.461  1.00  0.00     0.004 C 
ENDBRANCH  15  16
BRANCH  15  18
ATOM     18  C   UNL     1       0.284   1.051   0.692  1.00  0.00     0.033 C 
BRANCH  18  19
ATOM     19  C   UNL     1       0.955  -0.286   0.396  1.00  0.00     0.156 C 
BRANCH  19  20
ATOM     20  O   UNL     1       2.329  -0.264   0.751  1.00  0.00    -0.396 OA
ATOM     21  H   UNL     1       2.785   0.418   0.234  1.00  0.00     0.210 HD
ENDBRANCH  19  20
ENDBRANCH  18  19
ENDBRANCH  15  18
ENDBRANCH  14  15
ENDBRANCH  12  14
ENDBRANCH   7  12
ENDBRANCH   3   6
ENDBRANCH   1   2
BRANCH   1  22
ATOM     22  C   UNL     1      -1.443   7.892   0.934  1.00  0.00     0.023 C 
BRANCH  22  23
ATOM     23  C   UNL     1      -2.418   9.062   0.769  1.00  0.00     0.023 C 
BRANCH  23  24
ATOM     24  C   UNL     1      -2.809   9.379  -0.673  1.00  0.00     0.116 C 
BRANCH  24  25
ATOM     25  N   UNL     1      -3.407   8.249  -1.367  1.00  0.00    -0.352 N 
ATOM     26  C   UNL     1      -4.362   8.258  -2.358  1.00  0.00     0.251 C 
ATOM     27  H   UNL     1      -3.087   7.360  -1.091  1.00  0.00     0.163 HD
ATOM     28  O   UNL     1      -4.829   7.202  -2.766  1.00  0.00    -0.269 OA
BRANCH  26  29
ATOM     29  C   UNL     1      -4.848   9.553  -2.881  1.00  0.00     0.039 A 
ATOM     30  C   UNL     1      -6.224   9.786  -2.919  1.00  0.00     0.014 A 
ATOM     31  C   UNL     1      -3.950  10.546  -3.281  1.00  0.00     0.014 A 
ATOM     32  C   UNL     1      -6.699  11.048  -3.281  1.00  0.00     0.010 A 
ATOM     33  C   UNL     1      -4.423  11.819  -3.586  1.00  0.00     0.010 A 
ATOM     34  C   UNL     1      -5.801  12.087  -3.572  1.00  0.00    -0.014 A 
BRANCH  34  35
ATOM     35  C   UNL     1      -6.281  13.469  -3.824  1.00  0.00     0.031 A 
ATOM     36  C   UNL     1      -6.092  14.104  -5.172  1.00  0.00     0.074 A 
ATOM     37  C   UNL     1      -6.816  14.176  -2.808  1.00  0.00     0.049 A 
ATOM     38  N   UNL     1      -6.366  15.324  -5.558  1.00  0.00    -0.248 NA
ATOM     39  C   UNL     1      -5.488  13.263  -6.215  1.00  0.00     0.031 C 
ATOM     40  C   UNL     1      -7.007  13.680  -1.443  1.00  0.00     0.029 A 
ATOM     41  N   UNL     1      -7.283  15.465  -2.759  1.00  0.00    -0.354 N 
ATOM     42  C   UNL     1      -5.961  15.402  -6.885  1.00  0.00     0.074 A 
ATOM     43  C   UNL     1      -5.371  14.121  -7.218  1.00  0.00     0.031 C 
ATOM     44  C   UNL     1      -7.565  14.646  -0.697  1.00  0.00     0.029 A 
ATOM     45  C   UNL     1      -7.733  15.843  -1.515  1.00  0.00     0.049 A 
ATOM     46  H   UNL     1      -7.296  16.063  -3.541  1.00  0.00     0.167 HD
ATOM     47  C   UNL     1      -6.088  16.439  -7.750  1.00  0.00     0.034 A 
ATOM     48  C   UNL     1      -8.213  17.024  -1.079  1.00  0.00     0.034 A 
ATOM     49  C   UNL     1      -6.684  17.706  -7.403  1.00  0.00     0.049 A 
ATOM     50  C   UNL     1      -8.324  18.168  -2.053  1.00  0.00     0.074 A 
ATOM     51  C   UNL     1      -6.918  18.802  -8.216  1.00  0.00     0.029 A 
ATOM     52  N   UNL     1      -7.133  18.054  -6.134  1.00  0.00    -0.354 N 
ATOM     53  N   UNL     1      -7.987  18.208  -3.321  1.00  0.00    -0.248 NA
ATOM     54  C   UNL     1      -8.889  19.422  -1.538  1.00  0.00     0.031 C 
ATOM     55  C   UNL     1      -7.449  19.830  -7.428  1.00  0.00     0.029 A 
ATOM     56  C   UNL     1      -7.612  19.356  -6.136  1.00  0.00     0.049 A 
ATOM     57  H   UNL     1      -7.113  17.462  -5.348  1.00  0.00     0.167 HD
ATOM     58  C   UNL     1      -8.323  19.485  -3.761  1.00  0.00     0.074 A 
ATOM     59  C   UNL     1      -8.903  20.176  -2.627  1.00  0.00     0.031 C 
ATOM     60  C   UNL     1      -8.169  20.037  -4.992  1.00  0.00     0.034 A 
BRANCH  47  61
ATOM     61  C   UNL     1      -5.545  16.246  -9.146  1.00  0.00     0.023 A 
ATOM     62  C   UNL     1      -6.078  15.279 -10.016  1.00  0.00     0.031 A 
ATOM     63  C   UNL     1      -4.465  17.020  -9.605  1.00  0.00     0.131 A 
ATOM     64  C   UNL     1      -5.482  15.057 -11.267  1.00  0.00     0.055 A 
ATOM     65  C   UNL     1      -3.927  16.849 -10.882  1.00  0.00     0.041 A 
ATOM     66  F   UNL     1      -3.901  17.945  -8.812  1.00  0.00    -0.206 F 
ATOM     67  C   UNL     1      -4.426  15.853 -11.716  1.00  0.00     0.022 A 
BRANCH  64  68
ATOM     68  S   UNL     1      -6.018  13.623 -12.239  1.00  0.00     0.124 S 
ATOM     69  O   UNL     1      -5.724  12.522 -11.325  1.00  0.00    -0.237 OA
ATOM     70  O   UNL     1      -7.430  13.905 -12.466  1.00  0.00    -0.237 OA
ATOM     71  O   UNL     1      -5.171  13.679 -13.428  1.00  0.00    -0.744 OA
ENDBRANCH  64  68
ENDBRANCH  47  61
BRANCH  48  72
ATOM     72  C   UNL     1      -8.611  17.196   0.346  1.00  0.00     0.023 A 
ATOM     73  C   UNL     1      -9.950  17.427   0.698  1.00  0.00     0.031 A 
ATOM     74  C   UNL     1      -7.652  17.170   1.374  1.00  0.00     0.131 A 
ATOM     75  C   UNL     1     -10.289  17.667   2.039  1.00  0.00     0.055 A 
ATOM     76  C   UNL     1      -8.001  17.362   2.712  1.00  0.00     0.041 A 
ATOM     77  F   UNL     1      -6.359  16.945   1.091  1.00  0.00    -0.206 F 
ATOM     78  C   UNL     1      -9.326  17.625   3.049  1.00  0.00     0.022 A 
BRANCH  75  79
ATOM     79  S   UNL     1     -12.002  18.112   2.434  1.00  0.00     0.124 S 
ATOM     80  O   UNL     1     -12.196  19.305   1.617  1.00  0.00    -0.237 OA
ATOM     81  O   UNL     1     -12.729  16.919   2.012  1.00  0.00    -0.237 OA
ATOM     82  O   UNL     1     -11.970  18.342   3.877  1.00  0.00    -0.744 OA
ENDBRANCH  75  79
ENDBRANCH  48  72
BRANCH  60  83
ATOM     83  C   UNL     1      -8.672  21.448  -5.172  1.00  0.00     0.023 A 
ATOM     84  C   UNL     1      -8.053  22.538  -4.535  1.00  0.00     0.031 A 
ATOM     85  C   UNL     1      -9.798  21.700  -5.975  1.00  0.00     0.131 A 
ATOM     86  C   UNL     1      -8.597  23.824  -4.667  1.00  0.00     0.055 A 
ATOM     87  C   UNL     1     -10.301  22.990  -6.148  1.00  0.00     0.041 A 
ATOM     88  F   UNL     1     -10.428  20.695  -6.604  1.00  0.00    -0.206 F 
ATOM     89  C   UNL     1      -9.708  24.059  -5.482  1.00  0.00     0.022 A 
BRANCH  86  90
ATOM     90  S   UNL     1      -7.886  25.176  -3.690  1.00  0.00     0.124 S 
ATOM     91  O   UNL     1      -8.065  24.691  -2.325  1.00  0.00    -0.237 OA
ATOM     92  O   UNL     1      -6.510  25.221  -4.174  1.00  0.00    -0.237 OA
ATOM     93  O   UNL     1      -8.707  26.330  -4.051  1.00  0.00    -0.744 OA
ENDBRANCH  86  90
ENDBRANCH  60  83
ENDBRANCH  34  35
ENDBRANCH  26  29
ENDBRANCH  24  25
ENDBRANCH  23  24
ENDBRANCH  22  23
ENDBRANCH   1  22
TORSDOF 21
