REMARK SMILES O=C(NCCCCNC(=O)c1ccc2c(=O)n(CCc3c[nH]c4ccccc34)c(=O)[nH]c2c1)c1ccc(-c2c3nc(c(-c4cc(S(=O)(=O)[O-])ccc4F)c4ccc([nH]4)c(-c4cc(S(=O)(=O)[O-])ccc4F)c4nc(c(-c5cc(S(=O)(=O)[O-])ccc5F)c5ccc2[nH]5)C=C4)C=C3)cc1
REMARK SMILES IDX 5 1 4 2 3 3 1 4 2 5 34 7 35 8 96 9 36 10 95 11 37 12 38 13
REMARK SMILES IDX 39 14 89 15 40 16 94 17 88 18 90 19 41 20 93 21 87 22 86 23
REMARK SMILES IDX 42 25 74 26 54 27 73 28 55 29 58 30 72 31 91 32 56 33 57 34
REMARK SMILES IDX 71 36 92 37 59 38 43 39 44 40 52 41 45 42 51 43 53 44 50 45
REMARK SMILES IDX 46 46 47 47 48 48 49 49 75 50 76 51 84 52 77 53 83 54 85 55
REMARK SMILES IDX 82 56 78 57 79 58 80 59 81 60 60 61 61 62 69 63 62 64 68 65
REMARK SMILES IDX 70 66 67 67 63 68 64 69 65 70 66 71 6 72 7 73 8 74 9 75
REMARK SMILES IDX 10 77 11 78 12 79 33 80 13 81 32 82 14 83 31 84 15 85 29 86
REMARK SMILES IDX 16 88 17 89 30 90 18 91 19 92 20 93 21 94 28 95 22 96 23 97
REMARK SMILES IDX 27 98 24 100 26 101 25 102
REMARK H PARENT 3 6 90 24 58 35 8 76 31 87 22 99
REMARK Flexibility Score: inf
ROOT
ATOM      1  C   UNL     1       5.304  -2.085   1.009  1.00  0.00     0.023 C 
ENDROOT
BRANCH   1   2
ATOM      2  C   UNL     1       4.739  -1.247  -0.133  1.00  0.00     0.116 C 
BRANCH   2   3
ATOM      3  N   UNL     1       3.284  -1.156  -0.132  1.00  0.00    -0.352 N 
ATOM      4  O   UNL     1       1.235  -0.262   0.085  1.00  0.00    -0.269 OA
ATOM      5  C   UNL     1       2.448  -0.071   0.026  1.00  0.00     0.251 C 
ATOM      6  H   UNL     1       2.820  -2.014  -0.267  1.00  0.00     0.163 HD
BRANCH   5   7
ATOM      7  C   UNL     1       2.976   1.312   0.148  1.00  0.00     0.039 A 
ATOM      8  C   UNL     1       2.359   2.198   1.040  1.00  0.00     0.014 A 
ATOM      9  C   UNL     1       4.037   1.767  -0.636  1.00  0.00     0.014 A 
ATOM     10  C   UNL     1       2.841   3.506   1.183  1.00  0.00     0.010 A 
ATOM     11  C   UNL     1       4.579   3.034  -0.420  1.00  0.00     0.010 A 
ATOM     12  C   UNL     1       3.974   3.931   0.472  1.00  0.00    -0.014 A 
BRANCH  12  13
ATOM     13  C   UNL     1       4.504   5.319   0.589  1.00  0.00     0.031 A 
ATOM     14  C   UNL     1       4.542   6.210  -0.627  1.00  0.00     0.074 A 
ATOM     15  C   UNL     1       4.998   5.767   1.761  1.00  0.00     0.049 A 
ATOM     16  N   UNL     1       5.038   7.413  -0.756  1.00  0.00    -0.248 NA
ATOM     17  C   UNL     1       3.973   5.665  -1.872  1.00  0.00     0.031 C 
ATOM     18  C   UNL     1       5.050   4.995   3.002  1.00  0.00     0.029 A 
ATOM     19  N   UNL     1       5.557   6.977   2.102  1.00  0.00    -0.354 N 
ATOM     20  C   UNL     1       4.858   7.757  -2.092  1.00  0.00     0.074 A 
ATOM     21  C   UNL     1       4.273   6.612  -2.748  1.00  0.00     0.031 C 
ATOM     22  C   UNL     1       5.580   5.755   3.972  1.00  0.00     0.029 A 
ATOM     23  C   UNL     1       5.955   7.055   3.418  1.00  0.00     0.049 A 
ATOM     24  H   UNL     1       5.663   7.719   1.463  1.00  0.00     0.167 HD
ATOM     25  C   UNL     1       5.120   8.934  -2.708  1.00  0.00     0.034 A 
ATOM     26  C   UNL     1       6.558   8.053   4.101  1.00  0.00     0.034 A 
ATOM     27  C   UNL     1       5.660  10.085  -2.034  1.00  0.00     0.049 A 
ATOM     28  C   UNL     1       6.849   9.354   3.391  1.00  0.00     0.074 A 
ATOM     29  C   UNL     1       5.902  11.342  -2.559  1.00  0.00     0.029 A 
ATOM     30  N   UNL     1       6.030  10.131  -0.698  1.00  0.00    -0.354 N 
ATOM     31  N   UNL     1       6.594   9.690   2.148  1.00  0.00    -0.248 NA
ATOM     32  C   UNL     1       7.496  10.418   4.173  1.00  0.00     0.031 C 
ATOM     33  C   UNL     1       6.484  12.124  -1.563  1.00  0.00     0.029 A 
ATOM     34  C   UNL     1       6.526  11.387  -0.390  1.00  0.00     0.049 A 
ATOM     35  H   UNL     1       5.952   9.382  -0.064  1.00  0.00     0.167 HD
ATOM     36  C   UNL     1       7.021  11.009   2.009  1.00  0.00     0.074 A 
ATOM     37  C   UNL     1       7.526  11.419   3.302  1.00  0.00     0.031 C 
ATOM     38  C   UNL     1       7.002  11.803   0.908  1.00  0.00     0.034 A 
BRANCH  25  39
ATOM     39  C   UNL     1       4.797   9.075  -4.177  1.00  0.00     0.023 A 
ATOM     40  C   UNL     1       5.818   9.382  -5.095  1.00  0.00     0.031 A 
ATOM     41  C   UNL     1       3.470   9.053  -4.642  1.00  0.00     0.131 A 
ATOM     42  C   UNL     1       5.491   9.701  -6.419  1.00  0.00     0.055 A 
ATOM     43  C   UNL     1       3.155   9.319  -5.975  1.00  0.00     0.041 A 
ATOM     44  F   UNL     1       2.457   8.769  -3.806  1.00  0.00    -0.206 F 
ATOM     45  C   UNL     1       4.167   9.661  -6.866  1.00  0.00     0.022 A 
BRANCH  42  46
ATOM     46  S   UNL     1       6.759  10.258  -7.590  1.00  0.00     0.124 S 
ATOM     47  O   UNL     1       6.621   9.282  -8.669  1.00  0.00    -0.237 OA
ATOM     48  O   UNL     1       6.306  11.609  -7.908  1.00  0.00    -0.237 OA
ATOM     49  O   UNL     1       8.001  10.170  -6.830  1.00  0.00    -0.744 OA
ENDBRANCH  42  46
ENDBRANCH  25  39
BRANCH  26  50
ATOM     50  C   UNL     1       6.859   7.869   5.554  1.00  0.00     0.023 A 
ATOM     51  C   UNL     1       7.722   6.848   5.996  1.00  0.00     0.031 A 
ATOM     52  C   UNL     1       6.213   8.649   6.528  1.00  0.00     0.131 A 
ATOM     53  C   UNL     1       7.857   6.591   7.367  1.00  0.00     0.055 A 
ATOM     54  C   UNL     1       6.412   8.441   7.895  1.00  0.00     0.041 A 
ATOM     55  F   UNL     1       5.371   9.627   6.161  1.00  0.00    -0.206 F 
ATOM     56  C   UNL     1       7.224   7.395   8.320  1.00  0.00     0.022 A 
BRANCH  53  57
ATOM     57  S   UNL     1       8.747   5.123   7.955  1.00  0.00     0.124 S 
ATOM     58  O   UNL     1       9.797   5.711   8.780  1.00  0.00    -0.237 OA
ATOM     59  O   UNL     1       7.698   4.411   8.682  1.00  0.00    -0.237 OA
ATOM     60  O   UNL     1       9.195   4.476   6.727  1.00  0.00    -0.744 OA
ENDBRANCH  53  57
ENDBRANCH  26  50
BRANCH  38  61
ATOM     61  C   UNL     1       7.523  13.218   1.014  1.00  0.00     0.023 A 
ATOM     62  C   UNL     1       6.669  14.303   0.729  1.00  0.00     0.031 A 
ATOM     63  C   UNL     1       8.889  13.485   1.210  1.00  0.00     0.131 A 
ATOM     64  C   UNL     1       7.198  15.592   0.592  1.00  0.00     0.055 A 
ATOM     65  C   UNL     1       9.401  14.781   1.131  1.00  0.00     0.041 A 
ATOM     66  F   UNL     1       9.748  12.486   1.469  1.00  0.00    -0.206 F 
ATOM     67  C   UNL     1       8.558  15.838   0.802  1.00  0.00     0.022 A 
BRANCH  64  68
ATOM     68  S   UNL     1       6.165  16.974   0.028  1.00  0.00     0.124 S 
ATOM     69  O   UNL     1       6.266  17.904   1.151  1.00  0.00    -0.237 OA
ATOM     70  O   UNL     1       6.852  17.392  -1.191  1.00  0.00    -0.237 OA
ATOM     71  O   UNL     1       4.849  16.375  -0.166  1.00  0.00    -0.744 OA
ENDBRANCH  64  68
ENDBRANCH  38  61
ENDBRANCH  12  13
ENDBRANCH   5   7
ENDBRANCH   2   3
ENDBRANCH   1   2
BRANCH   1  72
ATOM     72  C   UNL     1       5.076  -3.591   0.927  1.00  0.00     0.023 C 
BRANCH  72  73
ATOM     73  C   UNL     1       5.662  -4.334  -0.276  1.00  0.00     0.116 C 
BRANCH  73  74
ATOM     74  N   UNL     1       7.087  -4.208  -0.508  1.00  0.00    -0.352 N 
ATOM     75  C   UNL     1       7.927  -5.072  -1.183  1.00  0.00     0.251 C 
ATOM     76  H   UNL     1       7.512  -3.402  -0.135  1.00  0.00     0.163 HD
ATOM     77  O   UNL     1       9.107  -4.790  -1.366  1.00  0.00    -0.269 OA
BRANCH  75  78
ATOM     78  C   UNL     1       7.444  -6.379  -1.682  1.00  0.00     0.041 A 
ATOM     79  C   UNL     1       6.903  -6.495  -2.970  1.00  0.00     0.015 A 
ATOM     80  C   UNL     1       7.595  -7.512  -0.871  1.00  0.00     0.040 A 
ATOM     81  C   UNL     1       6.418  -7.733  -3.413  1.00  0.00     0.017 A 
ATOM     82  C   UNL     1       7.073  -8.733  -1.304  1.00  0.00     0.056 A 
ATOM     83  C   UNL     1       6.467  -8.838  -2.557  1.00  0.00     0.064 A 
ATOM     84  N   UNL     1       7.035  -9.824  -0.436  1.00  0.00    -0.307 N 
ATOM     85  C   UNL     1       5.698 -10.065  -2.860  1.00  0.00     0.264 A 
ATOM     86  C   UNL     1       6.207 -10.900  -0.622  1.00  0.00     0.328 A 
ATOM     87  H   UNL     1       7.631  -9.821   0.348  1.00  0.00     0.171 HD
ATOM     88  O   UNL     1       5.301 -10.274  -4.006  1.00  0.00    -0.268 OA
ATOM     89  N   UNL     1       5.431 -10.884  -1.771  1.00  0.00    -0.260 N 
ATOM     90  O   UNL     1       6.151 -11.778   0.238  1.00  0.00    -0.248 OA
BRANCH  89  91
ATOM     91  C   UNL     1       4.301 -11.805  -1.849  1.00  0.00     0.136 C 
BRANCH  91  92
ATOM     92  C   UNL     1       3.154 -11.401  -0.907  1.00  0.00     0.060 C 
BRANCH  92  93
ATOM     93  C   UNL     1       2.276 -10.250  -1.311  1.00  0.00    -0.021 A 
ATOM     94  C   UNL     1       0.992 -10.380  -1.810  1.00  0.00     0.087 A 
ATOM     95  C   UNL     1       2.516  -8.834  -1.282  1.00  0.00     0.003 A 
ATOM     96  N   UNL     1       0.369  -9.186  -1.573  1.00  0.00    -0.361 N 
ATOM     97  C   UNL     1       1.310  -8.194  -1.575  1.00  0.00     0.046 A 
ATOM     98  C   UNL     1       3.626  -8.018  -1.056  1.00  0.00     0.010 A 
ATOM     99  H   UNL     1      -0.596  -9.062  -1.426  1.00  0.00     0.166 HD
ATOM    100  C   UNL     1       1.178  -6.812  -1.760  1.00  0.00     0.026 A 
ATOM    101  C   UNL     1       3.553  -6.684  -1.465  1.00  0.00     0.001 A 
ATOM    102  C   UNL     1       2.353  -6.074  -1.791  1.00  0.00     0.002 A 
ENDBRANCH  92  93
ENDBRANCH  91  92
ENDBRANCH  89  91
ENDBRANCH  75  78
ENDBRANCH  73  74
ENDBRANCH  72  73
ENDBRANCH   1  72
TORSDOF 17
