REMARK SMILES NC(=O)N[C@@H]1CCCCC[C@H]1C(=O)NCCCCNC(=O)c1ccc(-c2c3nc(c(-c4cc(S(=O)(=O)[O-])ccc4F)c4ccc([nH]4)c(-c4cc(S(=O)(=O)[O-])ccc4F)c4nc(c(-c5cc(S(=O)(=O)[O-])ccc5F)c5ccc2[nH]5)C=C4)C=C3)cc1
REMARK SMILES IDX 16 1 15 2 14 3 12 4 13 5 11 7 5 8 4 9 1 10 2 11 3 14 6 16
REMARK SMILES IDX 10 18 9 19 8 20 7 21 17 23 18 24 19 25 20 26 21 28 22 29
REMARK SMILES IDX 23 30 84 31 24 32 83 33 25 34 26 35 27 36 77 37 28 38 82 39
REMARK SMILES IDX 76 40 78 41 29 42 81 43 75 44 74 45 30 47 62 48 42 49 61 50
REMARK SMILES IDX 43 51 46 52 60 53 79 54 44 55 45 56 59 58 80 59 47 60 31 61
REMARK SMILES IDX 32 62 40 63 33 64 39 65 41 66 38 67 34 68 35 69 36 70 37 71
REMARK SMILES IDX 63 72 64 73 72 74 65 75 71 76 73 77 70 78 66 79 67 80 68 81
REMARK SMILES IDX 69 82 48 83 49 84 57 85 50 86 56 87 58 88 55 89 51 90 52 91
REMARK SMILES IDX 53 92 54 93
REMARK H PARENT 14 6 1 12 1 13 4 15 19 27 78 46 46 57
REMARK Flexibility Score: 90.00
ROOT
ATOM      1  C   UNL     1       6.042  -3.995   0.553  1.00  0.00     0.023 C 
ENDROOT
BRANCH   1   2
ATOM      2  C   UNL     1       5.880  -2.575   0.022  1.00  0.00     0.116 C 
BRANCH   2   3
ATOM      3  N   UNL     1       5.184  -2.485  -1.237  1.00  0.00    -0.356 N 
ATOM      4  C   UNL     1       4.117  -1.741  -1.621  1.00  0.00     0.225 C 
ATOM      5  O   UNL     1       3.937  -1.647  -2.842  1.00  0.00    -0.275 OA
ATOM      6  H   UNL     1       5.547  -3.067  -1.943  1.00  0.00     0.163 HD
BRANCH   4   7
ATOM      7  C   UNL     1       3.128  -1.057  -0.658  1.00  0.00     0.101 C 
BRANCH   7   8
ATOM      8  C   UNL     1       2.348  -2.056   0.223  1.00  0.00     0.096 C 
BRANCH   8   9
ATOM      9  N   UNL     1       1.018  -2.388  -0.347  1.00  0.00    -0.335 N 
ATOM     10  N   UNL     1      -0.049  -0.338  -0.246  1.00  0.00    -0.352 N 
ATOM     11  C   UNL     1      -0.115  -1.661  -0.472  1.00  0.00     0.312 C 
ATOM     12  H   UNL     1      -0.858   0.216  -0.330  1.00  0.00     0.161 HD
ATOM     13  H   UNL     1       0.809   0.076   0.002  1.00  0.00     0.161 HD
ATOM     14  O   UNL     1      -1.181  -2.190  -0.761  1.00  0.00    -0.249 OA
ATOM     15  H   UNL     1       0.948  -3.305  -0.698  1.00  0.00     0.165 HD
ENDBRANCH   8   9
BRANCH   8  16
ATOM     16  C   UNL     1       2.147  -1.706   1.704  1.00  0.00     0.026 CG0
ATOM     17  G   UNL     1       3.416  -1.583   2.528  1.00  0.00     0.000 G0
ENDBRANCH   8  16
ENDBRANCH   7   8
BRANCH   7  18
ATOM     18  C   UNL     1       3.585   0.278  -0.048  1.00  0.00     0.015 C 
BRANCH  18  19
ATOM     19  C   UNL     1       4.549   0.334   1.129  1.00  0.00     0.001 C 
BRANCH  19  20
ATOM     20  C   UNL     1       4.062  -0.205   2.473  1.00  0.00     0.000 C 
BRANCH  20  21
ATOM     21  C   UNL     1       3.416  -1.583   2.528  1.00  0.00     0.002 CG0
ATOM     22  G   UNL     1       2.147  -1.706   1.704  1.00  0.00     0.000 G0
ENDBRANCH  20  21
ENDBRANCH  19  20
ENDBRANCH  18  19
ENDBRANCH   7  18
ENDBRANCH   4   7
ENDBRANCH   2   3
ENDBRANCH   1   2
BRANCH   1  23
ATOM     23  C   UNL     1       7.492  -4.430   0.757  1.00  0.00     0.023 C 
BRANCH  23  24
ATOM     24  C   UNL     1       8.390  -3.492   1.559  1.00  0.00     0.116 C 
BRANCH  24  25
ATOM     25  N   UNL     1       7.985  -3.272   2.939  1.00  0.00    -0.352 N 
ATOM     26  C   UNL     1       8.808  -3.158   4.046  1.00  0.00     0.251 C 
ATOM     27  H   UNL     1       7.017  -3.196   3.104  1.00  0.00     0.163 HD
ATOM     28  O   UNL     1       8.333  -2.995   5.164  1.00  0.00    -0.269 OA
BRANCH  26  29
ATOM     29  C   UNL     1      10.270  -3.303   3.854  1.00  0.00     0.039 A 
ATOM     30  C   UNL     1      10.941  -4.327   4.527  1.00  0.00     0.014 A 
ATOM     31  C   UNL     1      10.931  -2.535   2.893  1.00  0.00     0.014 A 
ATOM     32  C   UNL     1      12.244  -4.659   4.146  1.00  0.00     0.010 A 
ATOM     33  C   UNL     1      12.193  -2.927   2.457  1.00  0.00     0.010 A 
ATOM     34  C   UNL     1      12.856  -4.009   3.061  1.00  0.00    -0.014 A 
BRANCH  34  35
ATOM     35  C   UNL     1      14.165  -4.465   2.515  1.00  0.00     0.031 A 
ATOM     36  C   UNL     1      15.336  -3.521   2.478  1.00  0.00     0.074 A 
ATOM     37  C   UNL     1      14.272  -5.689   1.957  1.00  0.00     0.049 A 
ATOM     38  N   UNL     1      16.517  -3.683   1.937  1.00  0.00    -0.248 NA
ATOM     39  C   UNL     1      15.133  -2.201   3.092  1.00  0.00     0.031 C 
ATOM     40  C   UNL     1      13.192  -6.676   1.861  1.00  0.00     0.029 A 
ATOM     41  N   UNL     1      15.336  -6.311   1.349  1.00  0.00    -0.354 N 
ATOM     42  C   UNL     1      17.185  -2.476   2.118  1.00  0.00     0.074 A 
ATOM     43  C   UNL     1      16.251  -1.575   2.760  1.00  0.00     0.031 C 
ATOM     44  C   UNL     1      13.655  -7.781   1.255  1.00  0.00     0.029 A 
ATOM     45  C   UNL     1      15.048  -7.573   0.878  1.00  0.00     0.049 A 
ATOM     46  H   UNL     1      16.222  -5.892   1.257  1.00  0.00     0.167 HD
ATOM     47  C   UNL     1      18.465  -2.156   1.803  1.00  0.00     0.034 A 
ATOM     48  C   UNL     1      15.815  -8.458   0.209  1.00  0.00     0.034 A 
ATOM     49  C   UNL     1      19.395  -3.077   1.195  1.00  0.00     0.049 A 
ATOM     50  C   UNL     1      17.243  -8.094  -0.107  1.00  0.00     0.074 A 
ATOM     51  C   UNL     1      20.737  -2.887   0.913  1.00  0.00     0.029 A 
ATOM     52  N   UNL     1      19.079  -4.361   0.771  1.00  0.00    -0.354 N 
ATOM     53  N   UNL     1      17.881  -6.972   0.135  1.00  0.00    -0.248 NA
ATOM     54  C   UNL     1      18.056  -9.117  -0.776  1.00  0.00     0.031 C 
ATOM     55  C   UNL     1      21.216  -4.033   0.267  1.00  0.00     0.029 A 
ATOM     56  C   UNL     1      20.192  -4.965   0.206  1.00  0.00     0.049 A 
ATOM     57  H   UNL     1      18.193  -4.782   0.859  1.00  0.00     0.167 HD
ATOM     58  C   UNL     1      19.179  -7.167  -0.329  1.00  0.00     0.074 A 
ATOM     59  C   UNL     1      19.235  -8.517  -0.851  1.00  0.00     0.031 C 
ATOM     60  C   UNL     1      20.230  -6.308  -0.321  1.00  0.00     0.034 A 
BRANCH  47  61
ATOM     61  C   UNL     1      18.918  -0.746   2.099  1.00  0.00     0.023 A 
ATOM     62  C   UNL     1      18.935  -0.236   3.409  1.00  0.00     0.031 A 
ATOM     63  C   UNL     1      19.291   0.118   1.054  1.00  0.00     0.131 A 
ATOM     64  C   UNL     1      19.220   1.119   3.631  1.00  0.00     0.055 A 
ATOM     65  C   UNL     1      19.663   1.444   1.292  1.00  0.00     0.041 A 
ATOM     66  F   UNL     1      19.278  -0.304  -0.220  1.00  0.00    -0.206 F 
ATOM     67  C   UNL     1      19.609   1.957   2.584  1.00  0.00     0.022 A 
BRANCH  64  68
ATOM     68  S   UNL     1      18.908   1.806   5.280  1.00  0.00     0.124 S 
ATOM     69  O   UNL     1      17.483   1.529   5.449  1.00  0.00    -0.237 OA
ATOM     70  O   UNL     1      19.814   1.032   6.121  1.00  0.00    -0.237 OA
ATOM     71  O   UNL     1      19.247   3.220   5.133  1.00  0.00    -0.744 OA
ENDBRANCH  64  68
ENDBRANCH  47  61
BRANCH  48  72
ATOM     72  C   UNL     1      15.255  -9.773  -0.216  1.00  0.00     0.023 A 
ATOM     73  C   UNL     1      15.728 -10.974   0.337  1.00  0.00     0.031 A 
ATOM     74  C   UNL     1      14.264  -9.850  -1.210  1.00  0.00     0.131 A 
ATOM     75  C   UNL     1      15.241 -12.203  -0.138  1.00  0.00     0.055 A 
ATOM     76  C   UNL     1      13.749 -11.073  -1.646  1.00  0.00     0.041 A 
ATOM     77  F   UNL     1      13.771  -8.731  -1.765  1.00  0.00    -0.206 F 
ATOM     78  C   UNL     1      14.248 -12.260  -1.118  1.00  0.00     0.022 A 
BRANCH  75  79
ATOM     79  S   UNL     1      15.980 -13.734   0.496  1.00  0.00     0.124 S 
ATOM     80  O   UNL     1      17.383 -13.559   0.135  1.00  0.00    -0.237 OA
ATOM     81  O   UNL     1      15.669 -13.653   1.919  1.00  0.00    -0.237 OA
ATOM     82  O   UNL     1      15.272 -14.782  -0.236  1.00  0.00    -0.744 OA
ENDBRANCH  75  79
ENDBRANCH  48  72
BRANCH  60  83
ATOM     83  C   UNL     1      21.541  -6.827  -0.859  1.00  0.00     0.023 A 
ATOM     84  C   UNL     1      21.719  -7.115  -2.223  1.00  0.00     0.031 A 
ATOM     85  C   UNL     1      22.625  -7.040   0.011  1.00  0.00     0.131 A 
ATOM     86  C   UNL     1      22.937  -7.648  -2.670  1.00  0.00     0.055 A 
ATOM     87  C   UNL     1      23.853  -7.518  -0.448  1.00  0.00     0.041 A 
ATOM     88  F   UNL     1      22.509  -6.782   1.324  1.00  0.00    -0.206 F 
ATOM     89  C   UNL     1      24.010  -7.836  -1.794  1.00  0.00     0.022 A 
BRANCH  86  90
ATOM     90  S   UNL     1      23.078  -8.168  -4.402  1.00  0.00     0.124 S 
ATOM     91  O   UNL     1      22.023  -9.172  -4.504  1.00  0.00    -0.237 OA
ATOM     92  O   UNL     1      22.843  -6.921  -5.123  1.00  0.00    -0.237 OA
ATOM     93  O   UNL     1      24.440  -8.689  -4.495  1.00  0.00    -0.744 OA
ENDBRANCH  86  90
ENDBRANCH  60  83
ENDBRANCH  34  35
ENDBRANCH  26  29
ENDBRANCH  24  25
ENDBRANCH  23  24
ENDBRANCH   1  23
TORSDOF 15
