REMARK SMILES O=C(NCCCCNC(=O)c1c(C2CC2)nn(-c2ccc(Cl)c(F)c2)c1Cl)c1ccc(-c2c3nc(c(-c4cc(S(=O)(=O)[O-])ccc4F)c4ccc([nH]4)c(-c4cc(S(=O)(=O)[O-])ccc4F)c4nc(c(-c5cc(S(=O)(=O)[O-])ccc5F)c5ccc2[nH]5)C=C4)C=C3)cc1
REMARK SMILES IDX 4 1 3 2 1 3 2 4 28 6 29 7 90 8 30 9 89 10 31 11 32 12 33 13
REMARK SMILES IDX 83 14 34 15 88 16 82 17 84 18 35 19 87 20 81 21 80 22 36 24
REMARK SMILES IDX 68 25 48 26 67 27 49 28 52 29 66 30 85 31 50 32 51 33 65 35
REMARK SMILES IDX 86 36 53 37 37 38 38 39 46 40 39 41 45 42 47 43 44 44 40 45
REMARK SMILES IDX 41 46 42 47 43 48 69 49 70 50 78 51 71 52 77 53 79 54 76 55
REMARK SMILES IDX 72 56 73 57 74 58 75 59 54 60 55 61 63 62 56 63 62 64 64 65
REMARK SMILES IDX 61 66 57 67 58 68 59 69 60 70 5 71 6 72 7 73 8 74 9 75 10 77
REMARK SMILES IDX 11 78 12 79 26 80 16 81 17 82 27 83 13 84 14 85 15 86 18 87
REMARK SMILES IDX 19 88 25 89 20 90 23 91 21 92 24 93 22 94
REMARK H PARENT 3 5 84 23 52 34 8 76
REMARK Flexibility Score: inf
ROOT
ATOM      1  C   UNL     1       4.807   0.607   0.961  1.00  0.00     0.116 C 
ENDROOT
BRANCH   1   2
ATOM      2  N   UNL     1       3.407   0.238   1.036  1.00  0.00    -0.352 N 
ATOM      3  O   UNL     1       1.329  -0.327   0.547  1.00  0.00    -0.269 OA
ATOM      4  C   UNL     1       2.377   0.180   0.135  1.00  0.00     0.251 C 
ATOM      5  H   UNL     1       3.134  -0.032   1.943  1.00  0.00     0.163 HD
BRANCH   4   6
ATOM      6  C   UNL     1       2.417   0.712  -1.257  1.00  0.00     0.039 A 
ATOM      7  C   UNL     1       3.573   0.994  -1.985  1.00  0.00     0.014 A 
ATOM      8  C   UNL     1       1.170   0.918  -1.880  1.00  0.00     0.014 A 
ATOM      9  C   UNL     1       3.488   1.522  -3.275  1.00  0.00     0.010 A 
ATOM     10  C   UNL     1       1.080   1.427  -3.176  1.00  0.00     0.010 A 
ATOM     11  C   UNL     1       2.243   1.744  -3.873  1.00  0.00    -0.014 A 
BRANCH  11  12
ATOM     12  C   UNL     1       2.217   2.135  -5.287  1.00  0.00     0.031 A 
ATOM     13  C   UNL     1       2.749   1.117  -6.243  1.00  0.00     0.074 A 
ATOM     14  C   UNL     1       1.610   3.237  -5.773  1.00  0.00     0.049 A 
ATOM     15  N   UNL     1       3.699   1.242  -7.112  1.00  0.00    -0.248 NA
ATOM     16  C   UNL     1       2.187  -0.241  -6.171  1.00  0.00     0.031 C 
ATOM     17  C   UNL     1       0.770   4.187  -5.045  1.00  0.00     0.029 A 
ATOM     18  N   UNL     1       1.532   3.676  -7.067  1.00  0.00    -0.354 N 
ATOM     19  C   UNL     1       3.736   0.046  -7.829  1.00  0.00     0.074 A 
ATOM     20  C   UNL     1       2.877  -0.868  -7.123  1.00  0.00     0.031 C 
ATOM     21  C   UNL     1       0.099   4.956  -5.932  1.00  0.00     0.029 A 
ATOM     22  C   UNL     1       0.550   4.637  -7.278  1.00  0.00     0.049 A 
ATOM     23  H   UNL     1       2.118   3.341  -7.783  1.00  0.00     0.167 HD
ATOM     24  C   UNL     1       4.342  -0.056  -9.046  1.00  0.00     0.034 A 
ATOM     25  C   UNL     1       0.085   5.097  -8.470  1.00  0.00     0.034 A 
ATOM     26  C   UNL     1       5.287   1.013  -9.257  1.00  0.00     0.049 A 
ATOM     27  C   UNL     1       1.115   4.818  -9.497  1.00  0.00     0.074 A 
ATOM     28  C   UNL     1       6.411   1.457  -8.585  1.00  0.00     0.029 A 
ATOM     29  N   UNL     1       4.961   2.027 -10.127  1.00  0.00    -0.354 N 
ATOM     30  N   UNL     1       2.284   5.394  -9.529  1.00  0.00    -0.248 NA
ATOM     31  C   UNL     1       1.010   3.592 -10.272  1.00  0.00     0.031 C 
ATOM     32  C   UNL     1       6.376   2.877  -8.709  1.00  0.00     0.029 A 
ATOM     33  C   UNL     1       5.267   3.204  -9.491  1.00  0.00     0.049 A 
ATOM     34  H   UNL     1       4.582   1.927 -11.030  1.00  0.00     0.167 HD
ATOM     35  C   UNL     1       3.158   4.411  -9.961  1.00  0.00     0.074 A 
ATOM     36  C   UNL     1       2.303   3.363 -10.511  1.00  0.00     0.031 C 
ATOM     37  C   UNL     1       4.471   4.412  -9.585  1.00  0.00     0.034 A 
BRANCH  24  38
ATOM     38  C   UNL     1       3.887  -0.962 -10.172  1.00  0.00     0.023 A 
ATOM     39  C   UNL     1       4.646  -0.968 -11.361  1.00  0.00     0.031 A 
ATOM     40  C   UNL     1       2.624  -1.590 -10.251  1.00  0.00     0.131 A 
ATOM     41  C   UNL     1       4.119  -1.489 -12.557  1.00  0.00     0.055 A 
ATOM     42  C   UNL     1       2.135  -2.174 -11.425  1.00  0.00     0.041 A 
ATOM     43  F   UNL     1       1.755  -1.593  -9.234  1.00  0.00    -0.206 F 
ATOM     44  C   UNL     1       2.869  -2.098 -12.596  1.00  0.00     0.022 A 
BRANCH  41  45
ATOM     45  S   UNL     1       5.016  -1.181 -14.103  1.00  0.00     0.124 S 
ATOM     46  O   UNL     1       5.208   0.264 -14.050  1.00  0.00    -0.237 OA
ATOM     47  O   UNL     1       6.211  -1.998 -13.924  1.00  0.00    -0.237 OA
ATOM     48  O   UNL     1       4.089  -1.649 -15.131  1.00  0.00    -0.744 OA
ENDBRANCH  41  45
ENDBRANCH  24  38
BRANCH  25  49
ATOM     49  C   UNL     1      -1.306   5.510  -8.799  1.00  0.00     0.023 A 
ATOM     50  C   UNL     1      -1.620   6.314  -9.915  1.00  0.00     0.031 A 
ATOM     51  C   UNL     1      -2.394   4.909  -8.125  1.00  0.00     0.131 A 
ATOM     52  C   UNL     1      -2.968   6.495 -10.304  1.00  0.00     0.055 A 
ATOM     53  C   UNL     1      -3.723   5.103  -8.504  1.00  0.00     0.041 A 
ATOM     54  F   UNL     1      -2.196   4.039  -7.122  1.00  0.00    -0.206 F 
ATOM     55  C   UNL     1      -4.016   5.893  -9.602  1.00  0.00     0.022 A 
BRANCH  52  56
ATOM     56  S   UNL     1      -3.375   7.438 -11.809  1.00  0.00     0.124 S 
ATOM     57  O   UNL     1      -3.071   8.807 -11.409  1.00  0.00    -0.237 OA
ATOM     58  O   UNL     1      -2.491   6.840 -12.803  1.00  0.00    -0.237 OA
ATOM     59  O   UNL     1      -4.798   7.159 -12.011  1.00  0.00    -0.744 OA
ENDBRANCH  52  56
ENDBRANCH  25  49
BRANCH  37  60
ATOM     60  C   UNL     1       5.061   5.671  -8.984  1.00  0.00     0.023 A 
ATOM     61  C   UNL     1       4.545   6.339  -7.851  1.00  0.00     0.031 A 
ATOM     62  C   UNL     1       6.276   6.138  -9.517  1.00  0.00     0.131 A 
ATOM     63  C   UNL     1       5.236   7.437  -7.303  1.00  0.00     0.055 A 
ATOM     64  C   UNL     1       6.969   7.213  -8.960  1.00  0.00     0.041 A 
ATOM     65  F   UNL     1       6.836   5.528 -10.575  1.00  0.00    -0.206 F 
ATOM     66  C   UNL     1       6.447   7.871  -7.853  1.00  0.00     0.022 A 
BRANCH  63  67
ATOM     67  S   UNL     1       4.566   8.328  -5.863  1.00  0.00     0.124 S 
ATOM     68  O   UNL     1       3.169   8.548  -6.216  1.00  0.00    -0.237 OA
ATOM     69  O   UNL     1       4.811   7.389  -4.770  1.00  0.00    -0.237 OA
ATOM     70  O   UNL     1       5.379   9.544  -5.808  1.00  0.00    -0.744 OA
ENDBRANCH  63  67
ENDBRANCH  37  60
ENDBRANCH  11  12
ENDBRANCH   4   6
ENDBRANCH   1   2
BRANCH   1  71
ATOM     71  C   UNL     1       5.084   2.110   0.933  1.00  0.00     0.023 C 
BRANCH  71  72
ATOM     72  C   UNL     1       4.574   2.904   2.140  1.00  0.00     0.023 C 
BRANCH  72  73
ATOM     73  C   UNL     1       5.064   2.435   3.508  1.00  0.00     0.116 C 
BRANCH  73  74
ATOM     74  N   UNL     1       6.504   2.560   3.689  1.00  0.00    -0.352 N 
ATOM     75  C   UNL     1       7.212   2.986   4.794  1.00  0.00     0.256 C 
ATOM     76  H   UNL     1       7.051   2.304   2.911  1.00  0.00     0.163 HD
ATOM     77  O   UNL     1       8.437   2.961   4.766  1.00  0.00    -0.269 OA
BRANCH  75  78
ATOM     78  C   UNL     1       6.466   3.421   5.953  1.00  0.00     0.100 A 
ATOM     79  C   UNL     1       6.383   4.675   6.610  1.00  0.00     0.080 A 
ATOM     80  C   UNL     1       5.660   2.611   6.725  1.00  0.00     0.145 A 
ATOM     81  N   UNL     1       5.403   4.699   7.524  1.00  0.00    -0.170 NA
ATOM     82  N   UNL     1       4.956   3.422   7.585  1.00  0.00    -0.221 N 
ATOM     83  Cl  UNL     1       5.352   0.934   6.585  1.00  0.00    -0.061 Cl
BRANCH  79  84
ATOM     84  C   UNL     1       7.189   5.956   6.409  1.00  0.00     0.041 C 
ATOM     85  C   UNL     1       8.651   5.901   6.020  1.00  0.00     0.011 C 
ATOM     86  C   UNL     1       7.643   6.404   5.042  1.00  0.00     0.011 C 
ENDBRANCH  79  84
BRANCH  82  87
ATOM     87  C   UNL     1       3.821   3.119   8.376  1.00  0.00     0.069 A 
ATOM     88  C   UNL     1       2.714   3.981   8.320  1.00  0.00     0.030 A 
ATOM     89  C   UNL     1       3.772   1.962   9.158  1.00  0.00     0.069 A 
ATOM     90  C   UNL     1       1.532   3.641   8.985  1.00  0.00     0.026 A 
ATOM     91  C   UNL     1       2.601   1.654   9.844  1.00  0.00     0.143 A 
ATOM     92  C   UNL     1       1.476   2.472   9.745  1.00  0.00     0.076 A 
ATOM     93  F   UNL     1       2.577   0.546  10.601  1.00  0.00    -0.205 F 
ATOM     94  Cl  UNL     1       0.014   2.052  10.550  1.00  0.00    -0.081 Cl
ENDBRANCH  82  87
ENDBRANCH  75  78
ENDBRANCH  73  74
ENDBRANCH  72  73
ENDBRANCH  71  72
ENDBRANCH   1  71
TORSDOF 16
