REMARK SMILES O=C(CN(CC(F)(F)F)C(=O)CC[C@H]1CCC[NH2+]C1)NCCCCNC(=O)c1ccc(-c2c3nc(c(-c4cc(S(=O)(=O)[O-])ccc4F)c4ccc([nH]4)c(-c4cc(S(=O)(=O)[O-])ccc4F)c4nc(c(-c5cc(S(=O)(=O)[O-])ccc5F)c5ccc2[nH]5)C=C4)C=C3)cc1
REMARK SMILES IDX 21 1 20 2 1 3 2 4 3 6 4 7 5 8 6 9 7 10 8 11 9 12 10 13 11 14
REMARK SMILES IDX 12 15 13 16 14 17 15 18 19 19 16 20 18 21 17 22 22 25 23 26
REMARK SMILES IDX 24 27 25 28 26 29 27 31 28 32 29 33 90 34 30 35 89 36 31 37
REMARK SMILES IDX 32 38 33 39 83 40 34 41 88 42 82 43 84 44 35 45 87 46 81 47
REMARK SMILES IDX 80 48 36 50 68 51 48 52 67 53 49 54 52 55 66 56 85 57 50 58
REMARK SMILES IDX 51 59 65 61 86 62 53 63 37 64 38 65 46 66 39 67 45 68 47 69
REMARK SMILES IDX 44 70 40 71 41 72 42 73 43 74 69 75 70 76 78 77 71 78 77 79
REMARK SMILES IDX 79 80 76 81 72 82 73 83 74 84 75 85 54 86 55 87 63 88 56 89
REMARK SMILES IDX 62 90 64 91 61 92 57 93 58 94 59 95 60 96
REMARK H PARENT 20 5 18 23 18 24 25 30 84 49 52 60
REMARK Flexibility Score: inf
ROOT
ATOM      1  C   UNL     1       4.124  -1.738   3.973  1.00  0.00     0.116 C 
ENDROOT
BRANCH   1   2
ATOM      2  N   UNL     1       5.466  -1.293   3.623  1.00  0.00    -0.355 N 
ATOM      3  O   UNL     1       6.338  -3.384   3.302  1.00  0.00    -0.273 OA
ATOM      4  C   UNL     1       6.421  -2.166   3.133  1.00  0.00     0.239 C 
ATOM      5  H   UNL     1       5.700  -0.343   3.739  1.00  0.00     0.163 HD
BRANCH   4   6
ATOM      6  C   UNL     1       7.721  -1.540   2.556  1.00  0.00     0.219 C 
BRANCH   6   7
ATOM      7  N   UNL     1       7.606  -0.373   1.661  1.00  0.00    -0.324 N 
BRANCH   7   8
ATOM      8  C   UNL     1       8.651   0.665   1.760  1.00  0.00     0.235 C 
BRANCH   8   9
ATOM      9  C   UNL     1       9.857   0.594   0.815  1.00  0.00     0.406 C 
ATOM     10  F   UNL     1       9.505   0.321  -0.459  1.00  0.00    -0.169 F 
ATOM     11  F   UNL     1      10.495   1.791   0.803  1.00  0.00    -0.169 F 
ATOM     12  F   UNL     1      10.748  -0.337   1.212  1.00  0.00    -0.169 F 
ENDBRANCH   8   9
ENDBRANCH   7   8
BRANCH   7  13
ATOM     13  C   UNL     1       6.737  -0.469   0.574  1.00  0.00     0.223 C 
ATOM     14  O   UNL     1       6.081  -1.491   0.373  1.00  0.00    -0.275 OA
BRANCH  13  15
ATOM     15  C   UNL     1       6.544   0.739  -0.349  1.00  0.00     0.101 C 
BRANCH  15  16
ATOM     16  C   UNL     1       5.346   1.648  -0.011  1.00  0.00     0.019 C 
BRANCH  16  17
ATOM     17  C   UNL     1       5.518   2.743   1.079  1.00  0.00     0.045 C 
ATOM     18  C   UNL     1       5.535   2.133   2.484  1.00  0.00     0.015 C 
ATOM     19  C   UNL     1       6.673   3.717   0.786  1.00  0.00     0.264 C 
ATOM     20  C   UNL     1       6.162   2.979   3.584  1.00  0.00     0.062 C 
ATOM     21  N   UNL     1       6.979   4.581   1.920  1.00  0.00    -0.346 N 
ATOM     22  C   UNL     1       7.331   3.833   3.118  1.00  0.00     0.260 C 
ATOM     23  H   UNL     1       7.764   5.182   1.669  1.00  0.00     0.346 HD
ATOM     24  H   UNL     1       6.140   5.121   2.130  1.00  0.00     0.346 HD
ENDBRANCH  16  17
ENDBRANCH  15  16
ENDBRANCH  13  15
ENDBRANCH   7  13
ENDBRANCH   6   7
ENDBRANCH   4   6
ENDBRANCH   1   2
BRANCH   1  25
ATOM     25  C   UNL     1       3.696  -1.398   5.402  1.00  0.00     0.023 C 
BRANCH  25  26
ATOM     26  C   UNL     1       3.442   0.085   5.694  1.00  0.00     0.023 C 
BRANCH  26  27
ATOM     27  C   UNL     1       2.324   0.754   4.893  1.00  0.00     0.116 C 
BRANCH  27  28
ATOM     28  N   UNL     1       1.003   0.206   5.162  1.00  0.00    -0.352 N 
ATOM     29  C   UNL     1      -0.176   0.843   5.478  1.00  0.00     0.251 C 
ATOM     30  H   UNL     1       0.943  -0.775   5.109  1.00  0.00     0.163 HD
ATOM     31  O   UNL     1      -1.161   0.165   5.773  1.00  0.00    -0.269 OA
BRANCH  29  32
ATOM     32  C   UNL     1      -0.268   2.324   5.509  1.00  0.00     0.039 A 
ATOM     33  C   UNL     1      -0.980   2.932   6.550  1.00  0.00     0.014 A 
ATOM     34  C   UNL     1       0.321   3.120   4.524  1.00  0.00     0.014 A 
ATOM     35  C   UNL     1      -1.026   4.327   6.649  1.00  0.00     0.010 A 
ATOM     36  C   UNL     1       0.337   4.510   4.664  1.00  0.00     0.010 A 
ATOM     37  C   UNL     1      -0.327   5.131   5.734  1.00  0.00    -0.014 A 
BRANCH  37  38
ATOM     38  C   UNL     1      -0.267   6.613   5.890  1.00  0.00     0.031 A 
ATOM     39  C   UNL     1      -0.843   7.517   4.833  1.00  0.00     0.074 A 
ATOM     40  C   UNL     1       0.363   7.148   6.956  1.00  0.00     0.049 A 
ATOM     41  N   UNL     1      -0.808   8.824   4.750  1.00  0.00    -0.248 NA
ATOM     42  C   UNL     1      -1.525   6.862   3.708  1.00  0.00     0.031 C 
ATOM     43  C   UNL     1       0.993   6.384   8.035  1.00  0.00     0.029 A 
ATOM     44  N   UNL     1       0.591   8.457   7.305  1.00  0.00    -0.354 N 
ATOM     45  C   UNL     1      -1.456   9.148   3.562  1.00  0.00     0.074 A 
ATOM     46  C   UNL     1      -1.813   7.895   2.929  1.00  0.00     0.031 C 
ATOM     47  C   UNL     1       1.516   7.235   8.932  1.00  0.00     0.029 A 
ATOM     48  C   UNL     1       1.309   8.604   8.471  1.00  0.00     0.049 A 
ATOM     49  H   UNL     1       0.271   9.220   6.771  1.00  0.00     0.167 HD
ATOM     50  C   UNL     1      -1.745  10.374   3.057  1.00  0.00     0.034 A 
ATOM     51  C   UNL     1       1.767   9.711   9.091  1.00  0.00     0.034 A 
ATOM     52  C   UNL     1      -1.384  11.616   3.698  1.00  0.00     0.049 A 
ATOM     53  C   UNL     1       1.472  11.062   8.489  1.00  0.00     0.074 A 
ATOM     54  C   UNL     1      -1.666  12.910   3.293  1.00  0.00     0.029 A 
ATOM     55  N   UNL     1      -0.652  11.724   4.875  1.00  0.00    -0.354 N 
ATOM     56  N   UNL     1       0.821  11.351   7.385  1.00  0.00    -0.248 NA
ATOM     57  C   UNL     1       1.963  12.237   9.222  1.00  0.00     0.031 C 
ATOM     58  C   UNL     1      -1.043  13.796   4.179  1.00  0.00     0.029 A 
ATOM     59  C   UNL     1      -0.445  13.060   5.189  1.00  0.00     0.049 A 
ATOM     60  H   UNL     1      -0.327  10.963   5.408  1.00  0.00     0.167 HD
ATOM     61  C   UNL     1       0.799  12.742   7.311  1.00  0.00     0.074 A 
ATOM     62  C   UNL     1       1.487  13.231   8.488  1.00  0.00     0.031 C 
ATOM     63  C   UNL     1       0.254  13.541   6.358  1.00  0.00     0.034 A 
BRANCH  50  64
ATOM     64  C   UNL     1      -2.468  10.425   1.730  1.00  0.00     0.023 A 
ATOM     65  C   UNL     1      -3.754   9.879   1.568  1.00  0.00     0.031 A 
ATOM     66  C   UNL     1      -1.858  11.007   0.604  1.00  0.00     0.131 A 
ATOM     67  C   UNL     1      -4.351   9.850   0.299  1.00  0.00     0.055 A 
ATOM     68  C   UNL     1      -2.495  11.055  -0.638  1.00  0.00     0.041 A 
ATOM     69  F   UNL     1      -0.624  11.528   0.687  1.00  0.00    -0.206 F 
ATOM     70  C   UNL     1      -3.743  10.459  -0.800  1.00  0.00     0.022 A 
BRANCH  67  71
ATOM     71  S   UNL     1      -5.860   8.869   0.075  1.00  0.00     0.124 S 
ATOM     72  O   UNL     1      -5.413   7.543   0.495  1.00  0.00    -0.237 OA
ATOM     73  O   UNL     1      -6.805   9.536   0.963  1.00  0.00    -0.237 OA
ATOM     74  O   UNL     1      -6.144   8.998  -1.352  1.00  0.00    -0.744 OA
ENDBRANCH  67  71
ENDBRANCH  50  64
BRANCH  51  75
ATOM     75  C   UNL     1       2.573   9.596  10.342  1.00  0.00     0.023 A 
ATOM     76  C   UNL     1       2.109  10.125  11.557  1.00  0.00     0.031 A 
ATOM     77  C   UNL     1       3.844   8.993  10.330  1.00  0.00     0.131 A 
ATOM     78  C   UNL     1       2.928  10.084  12.697  1.00  0.00     0.055 A 
ATOM     79  C   UNL     1       4.630   8.902  11.480  1.00  0.00     0.041 A 
ATOM     80  F   UNL     1       4.337   8.470   9.196  1.00  0.00    -0.206 F 
ATOM     81  C   UNL     1       4.179   9.463  12.670  1.00  0.00     0.022 A 
BRANCH  78  82
ATOM     82  S   UNL     1       2.373  10.939  14.197  1.00  0.00     0.124 S 
ATOM     83  O   UNL     1       2.204  12.305  13.714  1.00  0.00    -0.237 OA
ATOM     84  O   UNL     1       1.149  10.216  14.522  1.00  0.00    -0.237 OA
ATOM     85  O   UNL     1       3.479  10.739  15.131  1.00  0.00    -0.744 OA
ENDBRANCH  78  82
ENDBRANCH  51  75
BRANCH  63  86
ATOM     86  C   UNL     1       0.339  15.034   6.579  1.00  0.00     0.023 A 
ATOM     87  C   UNL     1       1.568  15.717   6.578  1.00  0.00     0.031 A 
ATOM     88  C   UNL     1      -0.831  15.782   6.803  1.00  0.00     0.131 A 
ATOM     89  C   UNL     1       1.604  17.093   6.854  1.00  0.00     0.055 A 
ATOM     90  C   UNL     1      -0.794  17.161   7.012  1.00  0.00     0.041 A 
ATOM     91  F   UNL     1      -2.033  15.183   6.820  1.00  0.00    -0.206 F 
ATOM     92  C   UNL     1       0.429  17.822   7.052  1.00  0.00     0.022 A 
BRANCH  89  93
ATOM     93  S   UNL     1       3.217  17.901   7.048  1.00  0.00     0.124 S 
ATOM     94  O   UNL     1       3.813  17.131   8.135  1.00  0.00    -0.237 OA
ATOM     95  O   UNL     1       3.819  17.718   5.732  1.00  0.00    -0.237 OA
ATOM     96  O   UNL     1       2.871  19.281   7.384  1.00  0.00    -0.744 OA
ENDBRANCH  89  93
ENDBRANCH  63  86
ENDBRANCH  37  38
ENDBRANCH  29  32
ENDBRANCH  27  28
ENDBRANCH  26  27
ENDBRANCH  25  26
ENDBRANCH   1  25
TORSDOF 21
