REMARK SMILES CS(=O)(=O)c1ccc(C2=NN(c3ccc(C(=O)NCCCCNC(=O)c4ccc(-c5c6nc(c(-c7cc(S(=O)(=O)[O-])ccc7F)c7ccc([nH]7)c(-c7cc(S(=O)(=O)[O-])ccc7F)c7nc(c(-c8cc(S(=O)(=O)[O-])ccc8F)c8ccc5[nH]8)C=C7)C=C6)cc4)cc3)[C@H](c3ccccc3)C2)cc1
REMARK SMILES IDX 20 1 19 2 18 3 16 4 17 5 15 7 12 8 13 9 90 10 14 11 89 12
REMARK SMILES IDX 11 13 9 14 10 15 98 16 91 17 8 18 5 19 6 20 100 21 7 22
REMARK SMILES IDX 99 23 2 24 1 25 3 26 4 27 92 28 93 29 97 30 94 31 96 32
REMARK SMILES IDX 95 33 21 34 22 35 23 36 24 37 25 39 26 40 27 41 88 42 28 43
REMARK SMILES IDX 87 44 29 45 30 46 31 47 81 48 32 49 86 50 80 51 82 52 33 53
REMARK SMILES IDX 85 54 79 55 78 56 34 58 66 59 46 60 65 61 47 62 50 63 64 64
REMARK SMILES IDX 83 65 48 66 49 67 63 69 84 70 51 71 35 72 36 73 44 74 37 75
REMARK SMILES IDX 43 76 45 77 42 78 38 79 39 80 40 81 41 82 67 83 68 84 76 85
REMARK SMILES IDX 69 86 75 87 77 88 74 89 70 90 71 91 72 92 73 93 52 94 53 95
REMARK SMILES IDX 61 96 54 97 60 98 62 99 59 100 55 101 56 102 57 103 58 104
REMARK H PARENT 18 6 23 38 82 57 50 68
REMARK Flexibility Score: inf
ROOT
ATOM      1  C   UNL     1       1.676  -9.692 -11.910  1.00  0.00     0.023 C 
ENDROOT
BRANCH   1   2
ATOM      2  C   UNL     1       2.026  -8.349 -12.554  1.00  0.00     0.116 C 
BRANCH   2   3
ATOM      3  N   UNL     1       0.826  -7.618 -12.920  1.00  0.00    -0.352 N 
ATOM      4  C   UNL     1       0.200  -6.560 -12.306  1.00  0.00     0.251 C 
ATOM      5  O   UNL     1      -0.767  -6.037 -12.857  1.00  0.00    -0.269 OA
ATOM      6  H   UNL     1       0.388  -7.932 -13.744  1.00  0.00     0.163 HD
BRANCH   4   7
ATOM      7  C   UNL     1       0.705  -5.987 -11.033  1.00  0.00     0.039 A 
ATOM      8  C   UNL     1       1.793  -4.772  -8.742  1.00  0.00     0.060 A 
ATOM      9  C   UNL     1       1.210  -3.994  -9.746  1.00  0.00     0.029 A 
ATOM     10  C   UNL     1       1.745  -6.162  -8.857  1.00  0.00     0.029 A 
ATOM     11  C   UNL     1       0.664  -4.595 -10.884  1.00  0.00     0.016 A 
ATOM     12  C   UNL     1       1.194  -6.766  -9.984  1.00  0.00     0.016 A 
BRANCH   8  13
ATOM     13  N   UNL     1       2.429  -4.199  -7.659  1.00  0.00    -0.257 N 
ATOM     14  C   UNL     1       2.478  -3.223  -5.786  1.00  0.00     0.071 C 
ATOM     15  N   UNL     1       1.760  -4.030  -6.501  1.00  0.00    -0.176 NA
ATOM     16  C   UNL     1       3.734  -2.712  -6.444  1.00  0.00     0.091 C 
ATOM     17  C   UNL     1       3.762  -3.600  -7.702  1.00  0.00     0.144 C 
BRANCH  14  18
ATOM     18  C   UNL     1       2.057  -2.807  -4.439  1.00  0.00    -0.002 A 
ATOM     19  C   UNL     1       1.083  -2.062  -1.940  1.00  0.00     0.067 A 
ATOM     20  C   UNL     1       0.924  -3.380  -2.382  1.00  0.00     0.021 A 
ATOM     21  C   UNL     1       1.732  -1.115  -2.741  1.00  0.00     0.021 A 
ATOM     22  C   UNL     1       1.401  -3.747  -3.638  1.00  0.00     0.011 A 
ATOM     23  C   UNL     1       2.229  -1.494  -3.994  1.00  0.00     0.011 A 
BRANCH  19  24
ATOM     24  S   UNL     1       0.424  -1.665  -0.339  1.00  0.00     0.175 S 
ATOM     25  C   UNL     1       1.038  -0.066   0.102  1.00  0.00     0.163 C 
ATOM     26  O   UNL     1       1.015  -2.614   0.592  1.00  0.00    -0.224 OA
ATOM     27  O   UNL     1      -1.009  -1.558  -0.494  1.00  0.00    -0.224 OA
ENDBRANCH  19  24
ENDBRANCH  14  18
BRANCH  17  28
ATOM     28  C   UNL     1       4.833  -4.686  -7.790  1.00  0.00    -0.023 A 
ATOM     29  C   UNL     1       5.554  -5.173  -6.690  1.00  0.00     0.006 A 
ATOM     30  C   UNL     1       5.079  -5.281  -9.046  1.00  0.00     0.006 A 
ATOM     31  C   UNL     1       6.494  -6.200  -6.843  1.00  0.00     0.000 A 
ATOM     32  C   UNL     1       5.997  -6.324  -9.194  1.00  0.00     0.000 A 
ATOM     33  C   UNL     1       6.711  -6.779  -8.092  1.00  0.00     0.000 A 
ENDBRANCH  17  28
ENDBRANCH   8  13
ENDBRANCH   4   7
ENDBRANCH   2   3
ENDBRANCH   1   2
BRANCH   1  34
ATOM     34  C   UNL     1       1.219 -10.764 -12.899  1.00  0.00     0.023 C 
BRANCH  34  35
ATOM     35  C   UNL     1       2.279 -11.200 -13.901  1.00  0.00     0.116 C 
BRANCH  35  36
ATOM     36  N   UNL     1       3.466 -11.763 -13.272  1.00  0.00    -0.352 N 
ATOM     37  C   UNL     1       4.245 -12.803 -13.724  1.00  0.00     0.251 C 
ATOM     38  H   UNL     1       3.744 -11.351 -12.423  1.00  0.00     0.163 HD
ATOM     39  O   UNL     1       5.158 -13.245 -13.035  1.00  0.00    -0.269 OA
BRANCH  37  40
ATOM     40  C   UNL     1       3.925 -13.402 -15.036  1.00  0.00     0.039 A 
ATOM     41  C   UNL     1       3.681 -14.774 -15.115  1.00  0.00     0.014 A 
ATOM     42  C   UNL     1       3.771 -12.584 -16.158  1.00  0.00     0.014 A 
ATOM     43  C   UNL     1       3.200 -15.317 -16.309  1.00  0.00     0.010 A 
ATOM     44  C   UNL     1       3.225 -13.114 -17.320  1.00  0.00     0.010 A 
ATOM     45  C   UNL     1       2.925 -14.483 -17.405  1.00  0.00    -0.014 A 
BRANCH  45  46
ATOM     46  C   UNL     1       2.320 -15.009 -18.657  1.00  0.00     0.031 A 
ATOM     47  C   UNL     1       3.088 -14.916 -19.946  1.00  0.00     0.074 A 
ATOM     48  C   UNL     1       1.055 -15.476 -18.650  1.00  0.00     0.049 A 
ATOM     49  N   UNL     1       2.692 -15.164 -21.166  1.00  0.00    -0.248 NA
ATOM     50  C   UNL     1       4.478 -14.444 -19.846  1.00  0.00     0.031 C 
ATOM     51  C   UNL     1       0.200 -15.588 -17.466  1.00  0.00     0.029 A 
ATOM     52  N   UNL     1       0.259 -15.923 -19.675  1.00  0.00    -0.354 N 
ATOM     53  C   UNL     1       3.775 -14.859 -21.984  1.00  0.00     0.074 A 
ATOM     54  C   UNL     1       4.822 -14.353 -21.121  1.00  0.00     0.031 C 
ATOM     55  C   UNL     1      -0.994 -16.083 -17.831  1.00  0.00     0.029 A 
ATOM     56  C   UNL     1      -1.012 -16.272 -19.278  1.00  0.00     0.049 A 
ATOM     57  H   UNL     1       0.568 -15.988 -20.608  1.00  0.00     0.167 HD
ATOM     58  C   UNL     1       3.890 -15.006 -23.327  1.00  0.00     0.034 A 
ATOM     59  C   UNL     1      -2.078 -16.674 -20.001  1.00  0.00     0.034 A 
ATOM     60  C   UNL     1       2.840 -15.527 -24.167  1.00  0.00     0.049 A 
ATOM     61  C   UNL     1      -1.937 -16.797 -21.498  1.00  0.00     0.074 A 
ATOM     62  C   UNL     1       2.868 -15.770 -25.529  1.00  0.00     0.029 A 
ATOM     63  N   UNL     1       1.571 -15.880 -23.727  1.00  0.00    -0.354 N 
ATOM     64  N   UNL     1      -0.893 -16.542 -22.253  1.00  0.00    -0.248 NA
ATOM     65  C   UNL     1      -3.115 -17.267 -22.241  1.00  0.00     0.031 C 
ATOM     66  C   UNL     1       1.598 -16.203 -25.923  1.00  0.00     0.029 A 
ATOM     67  C   UNL     1       0.799 -16.309 -24.796  1.00  0.00     0.049 A 
ATOM     68  H   UNL     1       1.264 -15.833 -22.793  1.00  0.00     0.167 HD
ATOM     69  C   UNL     1      -1.279 -16.857 -23.554  1.00  0.00     0.074 A 
ATOM     70  C   UNL     1      -2.647 -17.325 -23.479  1.00  0.00     0.031 C 
ATOM     71  C   UNL     1      -0.565 -16.774 -24.705  1.00  0.00     0.034 A 
BRANCH  58  72
ATOM     72  C   UNL     1       5.187 -14.569 -23.965  1.00  0.00     0.023 A 
ATOM     73  C   UNL     1       6.411 -15.182 -23.645  1.00  0.00     0.031 A 
ATOM     74  C   UNL     1       5.204 -13.507 -24.886  1.00  0.00     0.131 A 
ATOM     75  C   UNL     1       7.607 -14.678 -24.178  1.00  0.00     0.055 A 
ATOM     76  C   UNL     1       6.389 -13.066 -25.480  1.00  0.00     0.041 A 
ATOM     77  F   UNL     1       4.071 -12.867 -25.215  1.00  0.00    -0.206 F 
ATOM     78  C   UNL     1       7.602 -13.642 -25.114  1.00  0.00     0.022 A 
BRANCH  75  79
ATOM     79  S   UNL     1       9.177 -15.300 -23.517  1.00  0.00     0.124 S 
ATOM     80  O   UNL     1       9.054 -14.961 -22.101  1.00  0.00    -0.237 OA
ATOM     81  O   UNL     1       9.117 -16.720 -23.842  1.00  0.00    -0.237 OA
ATOM     82  O   UNL     1      10.184 -14.534 -24.248  1.00  0.00    -0.744 OA
ENDBRANCH  75  79
ENDBRANCH  58  72
BRANCH  59  83
ATOM     83  C   UNL     1      -3.380 -16.968 -19.334  1.00  0.00     0.023 A 
ATOM     84  C   UNL     1      -3.927 -18.261 -19.357  1.00  0.00     0.031 A 
ATOM     85  C   UNL     1      -4.121 -15.951 -18.706  1.00  0.00     0.131 A 
ATOM     86  C   UNL     1      -5.199 -18.493 -18.811  1.00  0.00     0.055 A 
ATOM     87  C   UNL     1      -5.361 -16.199 -18.113  1.00  0.00     0.041 A 
ATOM     88  F   UNL     1      -3.643 -14.697 -18.651  1.00  0.00    -0.206 F 
ATOM     89  C   UNL     1      -5.913 -17.474 -18.177  1.00  0.00     0.022 A 
BRANCH  86  90
ATOM     90  S   UNL     1      -5.949 -20.131 -19.025  1.00  0.00     0.124 S 
ATOM     91  O   UNL     1      -5.954 -20.267 -20.477  1.00  0.00    -0.237 OA
ATOM     92  O   UNL     1      -5.015 -20.988 -18.303  1.00  0.00    -0.237 OA
ATOM     93  O   UNL     1      -7.265 -19.985 -18.407  1.00  0.00    -0.744 OA
ENDBRANCH  86  90
ENDBRANCH  59  83
BRANCH  71  94
ATOM     94  C   UNL     1      -1.231 -17.258 -25.968  1.00  0.00     0.023 A 
ATOM     95  C   UNL     1      -2.317 -16.578 -26.547  1.00  0.00     0.031 A 
ATOM     96  C   UNL     1      -0.756 -18.416 -26.611  1.00  0.00     0.131 A 
ATOM     97  C   UNL     1      -2.917 -17.084 -27.709  1.00  0.00     0.055 A 
ATOM     98  C   UNL     1      -1.321 -18.882 -27.798  1.00  0.00     0.041 A 
ATOM     99  F   UNL     1       0.277 -19.105 -26.101  1.00  0.00    -0.206 F 
ATOM    100  C   UNL     1      -2.415 -18.221 -28.349  1.00  0.00     0.022 A 
BRANCH  97 101
ATOM    101  S   UNL     1      -4.411 -16.275 -28.344  1.00  0.00     0.124 S 
ATOM    102  O   UNL     1      -5.334 -16.419 -27.223  1.00  0.00    -0.237 OA
ATOM    103  O   UNL     1      -3.943 -14.919 -28.614  1.00  0.00    -0.237 OA
ATOM    104  O   UNL     1      -4.749 -17.059 -29.531  1.00  0.00    -0.744 OA
ENDBRANCH  97 101
ENDBRANCH  71  94
ENDBRANCH  45  46
ENDBRANCH  37  40
ENDBRANCH  35  36
ENDBRANCH  34  35
ENDBRANCH   1  34
TORSDOF 18
