REMARK SMILES CC1=C(C)C[C@@H](C(=O)NCCCCNC(=O)c2ccc(-c3c4nc(c(-c5cc(S(=O)(=O)[O-])ccc5F)c5ccc([nH]5)c(-c5cc(S(=O)(=O)[O-])ccc5F)c5nc(c(-c6cc(S(=O)(=O)[O-])ccc6F)c6ccc3[nH]6)C=C5)C=C4)cc2)[C@@H](C(=O)NCC[NH+]2CCOCC2)C1
REMARK SMILES IDX 11 1 10 2 9 3 7 4 8 5 6 7 1 8 2 9 3 10 92 11 4 12 5 13 80 14
REMARK SMILES IDX 81 15 82 16 83 17 84 19 85 20 86 21 87 22 91 23 88 25 90 26
REMARK SMILES IDX 89 27 12 28 13 29 14 30 15 31 16 33 17 34 18 35 79 36 19 37
REMARK SMILES IDX 78 38 20 39 21 40 22 41 72 42 23 43 77 44 71 45 73 46 24 47
REMARK SMILES IDX 76 48 70 49 69 50 25 52 57 53 37 54 56 55 38 56 41 57 55 58
REMARK SMILES IDX 74 59 39 60 40 61 54 63 75 64 42 65 26 66 27 67 35 68 28 69
REMARK SMILES IDX 34 70 36 71 33 72 29 73 30 74 31 75 32 76 58 77 59 78 67 79
REMARK SMILES IDX 60 80 66 81 68 82 65 83 61 84 62 85 63 86 64 87 43 88 44 89
REMARK SMILES IDX 52 90 45 91 51 92 53 93 50 94 46 95 47 96 48 97 49 98
REMARK H PARENT 9 6 83 18 86 24 14 32 73 51 41 62
REMARK Flexibility Score: inf
ROOT
ATOM      1  C   UNL     1       0.358   2.953   2.757  1.00  0.00     0.023 C 
ENDROOT
BRANCH   1   2
ATOM      2  C   UNL     1      -0.488   2.251   1.175  1.00  0.00     0.116 C 
BRANCH   2   3
ATOM      3  N   UNL     1      -1.642   2.786   0.296  1.00  0.00    -0.356 N 
ATOM      4  C   UNL     1      -1.784   3.760  -0.643  1.00  0.00     0.224 C 
ATOM      5  O   UNL     1      -2.886   4.199  -0.956  1.00  0.00    -0.275 OA
ATOM      6  H   UNL     1      -2.484   2.301   0.456  1.00  0.00     0.163 HD
BRANCH   4   7
ATOM      7  C   UNL     1      -0.546   4.139  -1.351  1.00  0.00     0.095 C 
ATOM      8  C   UNL     1       1.754   0.415  -0.655  1.00  0.00     0.039 C 
ATOM      9  C   UNL     1       1.174   1.717  -1.188  1.00  0.00    -0.074 C 
ATOM     10  C   UNL     1       0.052   1.734  -1.942  1.00  0.00    -0.074 C 
ATOM     11  C   UNL     1       1.646   3.082  -0.519  1.00  0.00     0.045 C 
ATOM     12  C   UNL     1      -0.908   0.570  -2.125  1.00  0.00     0.039 C 
ATOM     13  C   UNL     1      -0.431   3.069  -2.447  1.00  0.00     0.045 C 
ATOM     14  C   UNL     1       0.515   4.238  -0.260  1.00  0.00     0.095 C 
BRANCH  14  15
ATOM     15  C   UNL     1      -0.293   4.869   1.203  1.00  0.00     0.224 C 
ATOM     16  O   UNL     1       0.037   6.039   1.488  1.00  0.00    -0.275 OA
ATOM     17  N   UNL     1      -1.295   4.286   2.138  1.00  0.00    -0.350 N 
ATOM     18  H   UNL     1      -1.823   5.023   2.521  1.00  0.00     0.163 HD
BRANCH  17  19
ATOM     19  C   UNL     1      -1.915   2.704   2.848  1.00  0.00     0.177 C 
BRANCH  19  20
ATOM     20  C   UNL     1      -0.845   1.109   3.336  1.00  0.00     0.283 C 
BRANCH  20  21
ATOM     21  N   UNL     1       0.300   0.619   4.483  1.00  0.00    -0.330 N 
ATOM     22  C   UNL     1       1.699   1.171   4.635  1.00  0.00     0.291 C 
ATOM     23  C   UNL     1       0.034  -0.013   5.813  1.00  0.00     0.291 C 
ATOM     24  H   UNL     1       0.115   0.020   3.679  1.00  0.00     0.348 HD
ATOM     25  C   UNL     1       2.761   0.194   5.175  1.00  0.00     0.221 C 
ATOM     26  C   UNL     1       1.115  -1.007   6.258  1.00  0.00     0.221 C 
ATOM     27  O   UNL     1       2.379  -0.378   6.413  1.00  0.00    -0.370 OA
ENDBRANCH  20  21
ENDBRANCH  19  20
ENDBRANCH  17  19
ENDBRANCH  14  15
ENDBRANCH   4   7
ENDBRANCH   2   3
ENDBRANCH   1   2
BRANCH   1  28
ATOM     28  C   UNL     1      -0.347   3.319   4.485  1.00  0.00     0.023 C 
BRANCH  28  29
ATOM     29  C   UNL     1      -1.659   2.623   5.541  1.00  0.00     0.116 C 
BRANCH  29  30
ATOM     30  N   UNL     1      -2.301   1.288   5.235  1.00  0.00    -0.352 N 
ATOM     31  C   UNL     1      -3.134   0.291   5.640  1.00  0.00     0.251 C 
ATOM     32  H   UNL     1      -1.968   1.022   4.348  1.00  0.00     0.163 HD
ATOM     33  O   UNL     1      -3.175  -0.784   5.071  1.00  0.00    -0.269 OA
BRANCH  31  34
ATOM     34  C   UNL     1      -3.729   0.448   6.917  1.00  0.00     0.039 A 
ATOM     35  C   UNL     1      -3.159  -0.207   8.018  1.00  0.00     0.014 A 
ATOM     36  C   UNL     1      -4.713   1.411   6.948  1.00  0.00     0.014 A 
ATOM     37  C   UNL     1      -3.590   0.180   9.258  1.00  0.00     0.010 A 
ATOM     38  C   UNL     1      -5.083   1.842   8.180  1.00  0.00     0.010 A 
ATOM     39  C   UNL     1      -4.539   1.206   9.313  1.00  0.00    -0.014 A 
BRANCH  39  40
ATOM     40  C   UNL     1      -5.158   1.562  10.572  1.00  0.00     0.031 A 
ATOM     41  C   UNL     1      -6.581   1.157  10.730  1.00  0.00     0.074 A 
ATOM     42  C   UNL     1      -4.464   2.341  11.406  1.00  0.00     0.049 A 
ATOM     43  N   UNL     1      -7.447   1.555  11.610  1.00  0.00    -0.248 NA
ATOM     44  C   UNL     1      -7.123   0.240   9.705  1.00  0.00     0.031 C 
ATOM     45  C   UNL     1      -3.071   2.764  11.224  1.00  0.00     0.029 A 
ATOM     46  N   UNL     1      -4.855   2.939  12.560  1.00  0.00    -0.354 N 
ATOM     47  C   UNL     1      -8.642   0.963  11.230  1.00  0.00     0.074 A 
ATOM     48  C   UNL     1      -8.412   0.253   9.995  1.00  0.00     0.031 C 
ATOM     49  C   UNL     1      -2.722   3.552  12.253  1.00  0.00     0.029 A 
ATOM     50  C   UNL     1      -3.881   3.725  13.118  1.00  0.00     0.049 A 
ATOM     51  H   UNL     1      -5.748   2.820  12.957  1.00  0.00     0.167 HD
ATOM     52  C   UNL     1      -9.815   1.003  11.894  1.00  0.00     0.034 A 
ATOM     53  C   UNL     1      -3.962   4.506  14.205  1.00  0.00     0.034 A 
ATOM     54  C   UNL     1      -9.954   1.721  13.132  1.00  0.00     0.049 A 
ATOM     55  C   UNL     1      -5.282   4.522  14.932  1.00  0.00     0.074 A 
ATOM     56  C   UNL     1     -11.053   1.816  13.958  1.00  0.00     0.029 A 
ATOM     57  N   UNL     1      -8.938   2.473  13.720  1.00  0.00    -0.354 N 
ATOM     58  N   UNL     1      -6.410   3.923  14.613  1.00  0.00    -0.248 NA
ATOM     59  C   UNL     1      -5.334   5.295  16.172  1.00  0.00     0.031 C 
ATOM     60  C   UNL     1     -10.726   2.682  15.005  1.00  0.00     0.029 A 
ATOM     61  C   UNL     1      -9.394   3.057  14.886  1.00  0.00     0.049 A 
ATOM     62  H   UNL     1      -8.028   2.574  13.357  1.00  0.00     0.167 HD
ATOM     63  C   UNL     1      -7.303   4.222  15.635  1.00  0.00     0.074 A 
ATOM     64  C   UNL     1      -6.564   5.034  16.587  1.00  0.00     0.031 C 
ATOM     65  C   UNL     1      -8.607   3.870  15.787  1.00  0.00     0.034 A 
BRANCH  52  66
ATOM     66  C   UNL     1     -10.987   0.290  11.275  1.00  0.00     0.023 A 
ATOM     67  C   UNL     1     -10.963  -1.093  11.015  1.00  0.00     0.031 A 
ATOM     68  C   UNL     1     -12.125   1.013  10.881  1.00  0.00     0.131 A 
ATOM     69  C   UNL     1     -12.020  -1.694  10.316  1.00  0.00     0.055 A 
ATOM     70  C   UNL     1     -13.213   0.392  10.266  1.00  0.00     0.041 A 
ATOM     71  F   UNL     1     -12.187   2.341  11.062  1.00  0.00    -0.206 F 
ATOM     72  C   UNL     1     -13.159  -0.967   9.968  1.00  0.00     0.022 A 
BRANCH  69  73
ATOM     73  S   UNL     1     -11.818  -3.402   9.739  1.00  0.00     0.124 S 
ATOM     74  O   UNL     1     -10.654  -3.282   8.864  1.00  0.00    -0.237 OA
ATOM     75  O   UNL     1     -11.608  -4.134  10.982  1.00  0.00    -0.237 OA
ATOM     76  O   UNL     1     -13.078  -3.683   9.053  1.00  0.00    -0.744 OA
ENDBRANCH  69  73
ENDBRANCH  52  66
BRANCH  53  77
ATOM     77  C   UNL     1      -2.786   5.287  14.661  1.00  0.00     0.023 A 
ATOM     78  C   UNL     1      -2.191   5.018  15.901  1.00  0.00     0.031 A 
ATOM     79  C   UNL     1      -2.240   6.317  13.875  1.00  0.00     0.131 A 
ATOM     80  C   UNL     1      -1.127   5.810  16.351  1.00  0.00     0.055 A 
ATOM     81  C   UNL     1      -1.141   7.064  14.301  1.00  0.00     0.041 A 
ATOM     82  F   UNL     1      -2.758   6.601  12.669  1.00  0.00    -0.206 F 
ATOM     83  C   UNL     1      -0.589   6.824  15.555  1.00  0.00     0.022 A 
BRANCH  80  84
ATOM     84  S   UNL     1      -0.525   5.559  18.042  1.00  0.00     0.124 S 
ATOM     85  O   UNL     1      -1.748   5.727  18.819  1.00  0.00    -0.237 OA
ATOM     86  O   UNL     1       0.009   4.203  17.973  1.00  0.00    -0.237 OA
ATOM     87  O   UNL     1       0.471   6.614  18.207  1.00  0.00    -0.744 OA
ENDBRANCH  80  84
ENDBRANCH  53  77
BRANCH  65  88
ATOM     88  C   UNL     1      -9.278   4.340  17.050  1.00  0.00     0.023 A 
ATOM     89  C   UNL     1      -9.477   5.705  17.308  1.00  0.00     0.031 A 
ATOM     90  C   UNL     1      -9.702   3.408  18.013  1.00  0.00     0.131 A 
ATOM     91  C   UNL     1     -10.005   6.106  18.541  1.00  0.00     0.055 A 
ATOM     92  C   UNL     1     -10.309   3.811  19.200  1.00  0.00     0.041 A 
ATOM     93  F   UNL     1      -9.534   2.091  17.812  1.00  0.00    -0.206 F 
ATOM     94  C   UNL     1     -10.445   5.168  19.479  1.00  0.00     0.022 A 
BRANCH  91  95
ATOM     95  S   UNL     1      -9.977   7.869  18.954  1.00  0.00     0.124 S 
ATOM     96  O   UNL     1      -8.559   8.186  18.822  1.00  0.00    -0.237 OA
ATOM     97  O   UNL     1     -10.855   8.442  17.939  1.00  0.00    -0.237 OA
ATOM     98  O   UNL     1     -10.498   7.908  20.319  1.00  0.00    -0.744 OA
ENDBRANCH  91  95
ENDBRANCH  65  88
ENDBRANCH  39  40
ENDBRANCH  31  34
ENDBRANCH  29  30
ENDBRANCH  28  29
ENDBRANCH   1  28
TORSDOF 18
