REMARK SMILES C[C@@H]1CCCC[C@H]1NC(=O)C[N@@H+]1CCO[C@H](CC(=O)NCCCCNC(=O)c2ccc(-c3c4nc(c(-c5cc(S(=O)(=O)[O-])ccc5F)c5ccc([nH]5)c(-c5cc(S(=O)(=O)[O-])ccc5F)c5nc(c(-c6cc(S(=O)(=O)[O-])ccc6F)c6ccc3[nH]6)C=C5)C=C4)cc2)C1
REMARK SMILES IDX 22 1 21 2 20 3 18 4 19 5 17 7 16 8 12 9 13 10 91 11 14 13
REMARK SMILES IDX 15 14 11 15 9 16 8 17 10 19 7 20 1 21 2 22 3 23 4 24 6 25
REMARK SMILES IDX 5 26 23 27 24 28 25 29 26 30 27 32 28 33 29 34 90 35 30 36
REMARK SMILES IDX 89 37 31 38 32 39 33 40 83 41 34 42 88 43 82 44 84 45 35 46
REMARK SMILES IDX 87 47 81 48 80 49 36 51 68 52 48 53 67 54 49 55 52 56 66 57
REMARK SMILES IDX 85 58 50 59 51 60 65 62 86 63 53 64 37 65 38 66 46 67 39 68
REMARK SMILES IDX 45 69 47 70 44 71 40 72 41 73 42 74 43 75 69 76 70 77 78 78
REMARK SMILES IDX 71 79 77 80 79 81 76 82 72 83 73 84 74 85 75 86 54 87 55 88
REMARK SMILES IDX 63 89 56 90 62 91 64 92 61 93 57 94 58 95 59 96 60 97
REMARK H PARENT 20 6 12 12 8 18 25 31 84 50 52 61
REMARK Flexibility Score: inf
ROOT
ATOM      1  C   UNL     1       1.887  -4.795   1.174  1.00  0.00     0.023 C 
ENDROOT
BRANCH   1   2
ATOM      2  C   UNL     1       1.343  -5.531  -0.065  1.00  0.00     0.116 C 
BRANCH   2   3
ATOM      3  N   UNL     1       1.137  -4.781  -1.295  1.00  0.00    -0.356 N 
ATOM      4  C   UNL     1       1.782  -4.801  -2.500  1.00  0.00     0.222 C 
ATOM      5  O   UNL     1       1.107  -4.501  -3.490  1.00  0.00    -0.275 OA
ATOM      6  H   UNL     1       0.392  -4.138  -1.251  1.00  0.00     0.163 HD
BRANCH   4   7
ATOM      7  C   UNL     1       3.259  -5.117  -2.650  1.00  0.00     0.138 C 
BRANCH   7   8
ATOM      8  C   UNL     1       4.302  -4.005  -2.354  1.00  0.00     0.182 C 
ATOM      9  N   UNL     1       3.455  -1.705  -1.550  1.00  0.00    -0.323 N 
ATOM     10  C   UNL     1       4.467  -1.132  -2.453  1.00  0.00     0.291 C 
ATOM     11  C   UNL     1       3.989  -3.038  -1.198  1.00  0.00     0.295 C 
ATOM     12  H   UNL     1       3.297  -1.114  -0.735  1.00  0.00     0.348 HD
ATOM     13  C   UNL     1       4.660  -1.972  -3.726  1.00  0.00     0.222 C 
ATOM     14  O   UNL     1       4.853  -3.384  -3.534  1.00  0.00    -0.366 OA
BRANCH   9  15
ATOM     15  C   UNL     1       2.140  -1.833  -2.221  1.00  0.00     0.363 C 
BRANCH  15  16
ATOM     16  C   UNL     1       1.493  -0.546  -2.703  1.00  0.00     0.275 C 
ATOM     17  N   UNL     1       0.346  -0.121  -2.093  1.00  0.00    -0.348 N 
ATOM     18  H   UNL     1      -0.319   0.323  -2.667  1.00  0.00     0.163 HD
ATOM     19  O   UNL     1       1.902   0.061  -3.695  1.00  0.00    -0.268 OA
BRANCH  17  20
ATOM     20  C   UNL     1       0.003  -0.257  -0.679  1.00  0.00     0.085 C 
ATOM     21  C   UNL     1       0.712   0.672   1.601  1.00  0.00     0.010 C 
ATOM     22  C   UNL     1       0.652   0.911   0.090  1.00  0.00     0.008 C 
ATOM     23  C   UNL     1      -0.063   2.229  -0.246  1.00  0.00     0.005 C 
ATOM     24  C   UNL     1      -1.577   2.158  -0.046  1.00  0.00     0.000 C 
ATOM     25  C   UNL     1      -1.514  -0.329  -0.490  1.00  0.00     0.025 C 
ATOM     26  C   UNL     1      -2.215   0.990  -0.791  1.00  0.00     0.002 C 
ENDBRANCH  17  20
ENDBRANCH  15  16
ENDBRANCH   9  15
ENDBRANCH   7   8
ENDBRANCH   4   7
ENDBRANCH   2   3
ENDBRANCH   1   2
BRANCH   1  27
ATOM     27  C   UNL     1       1.429  -3.356   1.456  1.00  0.00     0.023 C 
BRANCH  27  28
ATOM     28  C   UNL     1      -0.026  -3.167   1.888  1.00  0.00     0.116 C 
BRANCH  28  29
ATOM     29  N   UNL     1      -0.205  -3.448   3.299  1.00  0.00    -0.352 N 
ATOM     30  C   UNL     1      -0.875  -2.742   4.272  1.00  0.00     0.251 C 
ATOM     31  H   UNL     1       0.222  -4.278   3.612  1.00  0.00     0.163 HD
ATOM     32  O   UNL     1      -0.649  -3.033   5.446  1.00  0.00    -0.269 OA
BRANCH  30  33
ATOM     33  C   UNL     1      -1.853  -1.657   3.964  1.00  0.00     0.039 A 
ATOM     34  C   UNL     1      -2.025  -0.631   4.904  1.00  0.00     0.014 A 
ATOM     35  C   UNL     1      -2.693  -1.687   2.849  1.00  0.00     0.014 A 
ATOM     36  C   UNL     1      -3.028   0.336   4.737  1.00  0.00     0.010 A 
ATOM     37  C   UNL     1      -3.649  -0.676   2.648  1.00  0.00     0.010 A 
ATOM     38  C   UNL     1      -3.860   0.327   3.607  1.00  0.00    -0.014 A 
BRANCH  38  39
ATOM     39  C   UNL     1      -4.999   1.294   3.488  1.00  0.00     0.031 A 
ATOM     40  C   UNL     1      -6.428   0.792   3.454  1.00  0.00     0.074 A 
ATOM     41  C   UNL     1      -4.776   2.625   3.434  1.00  0.00     0.049 A 
ATOM     42  N   UNL     1      -7.549   1.470   3.384  1.00  0.00    -0.248 NA
ATOM     43  C   UNL     1      -6.618  -0.665   3.475  1.00  0.00     0.031 C 
ATOM     44  C   UNL     1      -3.457   3.260   3.430  1.00  0.00     0.029 A 
ATOM     45  N   UNL     1      -5.651   3.686   3.383  1.00  0.00    -0.354 N 
ATOM     46  C   UNL     1      -8.570   0.523   3.345  1.00  0.00     0.074 A 
ATOM     47  C   UNL     1      -7.927  -0.774   3.319  1.00  0.00     0.031 C 
ATOM     48  C   UNL     1      -3.611   4.595   3.418  1.00  0.00     0.029 A 
ATOM     49  C   UNL     1      -5.035   4.918   3.379  1.00  0.00     0.049 A 
ATOM     50  H   UNL     1      -6.628   3.574   3.353  1.00  0.00     0.167 HD
ATOM     51  C   UNL     1      -9.916   0.705   3.364  1.00  0.00     0.034 A 
ATOM     52  C   UNL     1      -5.551   6.165   3.351  1.00  0.00     0.034 A 
ATOM     53  C   UNL     1     -10.557   1.997   3.409  1.00  0.00     0.049 A 
ATOM     54  C   UNL     1      -7.051   6.346   3.352  1.00  0.00     0.074 A 
ATOM     55  C   UNL     1     -11.911   2.286   3.472  1.00  0.00     0.029 A 
ATOM     56  N   UNL     1      -9.896   3.218   3.390  1.00  0.00    -0.354 N 
ATOM     57  N   UNL     1      -7.996   5.435   3.365  1.00  0.00    -0.248 NA
ATOM     58  C   UNL     1      -7.550   7.728   3.355  1.00  0.00     0.031 C 
ATOM     59  C   UNL     1     -12.069   3.676   3.418  1.00  0.00     0.029 A 
ATOM     60  C   UNL     1     -10.813   4.259   3.413  1.00  0.00     0.049 A 
ATOM     61  H   UNL     1      -8.918   3.329   3.365  1.00  0.00     0.167 HD
ATOM     62  C   UNL     1      -9.199   6.138   3.420  1.00  0.00     0.074 A 
ATOM     63  C   UNL     1      -8.857   7.544   3.457  1.00  0.00     0.031 C 
ATOM     64  C   UNL     1     -10.472   5.663   3.443  1.00  0.00     0.034 A 
BRANCH  51  65
ATOM     65  C   UNL     1     -10.785  -0.534   3.314  1.00  0.00     0.023 A 
ATOM     66  C   UNL     1     -10.741  -1.511   4.324  1.00  0.00     0.031 A 
ATOM     67  C   UNL     1     -11.650  -0.757   2.227  1.00  0.00     0.131 A 
ATOM     68  C   UNL     1     -11.472  -2.701   4.185  1.00  0.00     0.055 A 
ATOM     69  C   UNL     1     -12.447  -1.901   2.140  1.00  0.00     0.041 A 
ATOM     70  F   UNL     1     -11.725   0.128   1.220  1.00  0.00    -0.206 F 
ATOM     71  C   UNL     1     -12.347  -2.890   3.114  1.00  0.00     0.022 A 
BRANCH  68  72
ATOM     72  S   UNL     1     -11.136  -4.062   5.336  1.00  0.00     0.124 S 
ATOM     73  O   UNL     1      -9.707  -4.280   5.124  1.00  0.00    -0.237 OA
ATOM     74  O   UNL     1     -11.512  -3.489   6.622  1.00  0.00    -0.237 OA
ATOM     75  O   UNL     1     -12.000  -5.139   4.855  1.00  0.00    -0.744 OA
ENDBRANCH  68  72
ENDBRANCH  51  65
BRANCH  52  76
ATOM     76  C   UNL     1      -4.652   7.359   3.320  1.00  0.00     0.023 A 
ATOM     77  C   UNL     1      -4.652   8.299   4.365  1.00  0.00     0.031 A 
ATOM     78  C   UNL     1      -3.829   7.613   2.209  1.00  0.00     0.131 A 
ATOM     79  C   UNL     1      -3.890   9.474   4.251  1.00  0.00     0.055 A 
ATOM     80  C   UNL     1      -3.027   8.753   2.128  1.00  0.00     0.041 A 
ATOM     81  F   UNL     1      -3.789   6.749   1.182  1.00  0.00    -0.206 F 
ATOM     82  C   UNL     1      -3.067   9.700   3.147  1.00  0.00     0.022 A 
BRANCH  79  83
ATOM     83  S   UNL     1      -4.068  10.753   5.527  1.00  0.00     0.124 S 
ATOM     84  O   UNL     1      -5.493  11.043   5.460  1.00  0.00    -0.237 OA
ATOM     85  O   UNL     1      -3.608  10.054   6.723  1.00  0.00    -0.237 OA
ATOM     86  O   UNL     1      -3.188  11.824   5.058  1.00  0.00    -0.744 OA
ENDBRANCH  79  83
ENDBRANCH  52  76
BRANCH  64  87
ATOM     87  C   UNL     1     -11.588   6.677   3.570  1.00  0.00     0.023 A 
ATOM     88  C   UNL     1     -11.830   7.648   2.582  1.00  0.00     0.031 A 
ATOM     89  C   UNL     1     -12.401   6.692   4.719  1.00  0.00     0.131 A 
ATOM     90  C   UNL     1     -12.803   8.638   2.796  1.00  0.00     0.055 A 
ATOM     91  C   UNL     1     -13.416   7.634   4.892  1.00  0.00     0.041 A 
ATOM     92  F   UNL     1     -12.218   5.793   5.699  1.00  0.00    -0.206 F 
ATOM     93  C   UNL     1     -13.609   8.627   3.936  1.00  0.00     0.022 A 
BRANCH  90  94
ATOM     94  S   UNL     1     -12.910  10.020   1.625  1.00  0.00     0.124 S 
ATOM     95  O   UNL     1     -11.543  10.531   1.632  1.00  0.00    -0.237 OA
ATOM     96  O   UNL     1     -13.335   9.355   0.397  1.00  0.00    -0.237 OA
ATOM     97  O   UNL     1     -13.906  10.904   2.228  1.00  0.00    -0.744 OA
ENDBRANCH  90  94
ENDBRANCH  64  87
ENDBRANCH  38  39
ENDBRANCH  30  33
ENDBRANCH  28  29
ENDBRANCH  27  28
ENDBRANCH   1  27
TORSDOF 18
