REMARK SMILES Cc1cc(=O)n2cc(-c3ccccc3)nc2n1[C@H](C)C(=O)NCCCCNC(=O)c1ccc(-c2c3nc(c(-c4cc(S(=O)(=O)[O-])ccc4F)c4ccc([nH]4)c(-c4cc(S(=O)(=O)[O-])ccc4F)c4nc(c(-c5cc(S(=O)(=O)[O-])ccc5F)c5ccc2[nH]5)C=C4)C=C3)cc1
REMARK SMILES IDX 25 1 24 2 23 3 22 4 20 5 21 6 18 8 19 9 17 10 1 11 2 12 3 13
REMARK SMILES IDX 4 14 16 15 5 16 6 17 15 18 7 19 8 20 9 21 10 22 14 23 11 24
REMARK SMILES IDX 13 25 12 26 26 27 27 28 28 29 29 31 30 32 31 33 92 34 32 35
REMARK SMILES IDX 91 36 33 37 34 38 35 39 85 40 36 41 90 42 84 43 86 44 37 45
REMARK SMILES IDX 89 46 83 47 82 48 38 50 70 51 50 52 69 53 51 54 54 55 68 56
REMARK SMILES IDX 87 57 52 58 53 59 67 61 88 62 55 63 39 64 40 65 48 66 41 67
REMARK SMILES IDX 47 68 49 69 46 70 42 71 43 72 44 73 45 74 71 75 72 76 80 77
REMARK SMILES IDX 73 78 79 79 81 80 78 81 74 82 75 83 76 84 77 85 56 86 57 87
REMARK SMILES IDX 65 88 58 89 64 90 66 91 63 92 59 93 60 94 61 95 62 96
REMARK H PARENT 22 7 27 30 86 49 54 60
REMARK Flexibility Score: inf
ROOT
ATOM      1  C   UNL     1      -1.943  -5.838   2.707  1.00  0.00     0.023 C 
ENDROOT
BRANCH   1   2
ATOM      2  C   UNL     1      -0.780  -4.845   2.849  1.00  0.00     0.023 C 
BRANCH   2   3
ATOM      3  C   UNL     1       0.339  -4.986   1.816  1.00  0.00     0.116 C 
BRANCH   3   4
ATOM      4  N   UNL     1      -0.137  -4.704   0.476  1.00  0.00    -0.354 N 
ATOM      5  C   UNL     1       0.240  -3.724  -0.393  1.00  0.00     0.242 C 
ATOM      6  O   UNL     1      -0.371  -3.656  -1.467  1.00  0.00    -0.273 OA
ATOM      7  H   UNL     1      -0.838  -5.311   0.144  1.00  0.00     0.163 HD
BRANCH   5   8
ATOM      8  C   UNL     1       1.343  -2.703  -0.056  1.00  0.00     0.176 C 
ATOM      9  C   UNL     1       0.711  -1.694   0.907  1.00  0.00     0.042 C 
BRANCH   8  10
ATOM     10  N   UNL     1       2.663  -3.337   0.320  1.00  0.00    -0.303 N 
ATOM     11  C   UNL     1       2.583  -4.948  -1.672  1.00  0.00     0.065 C 
ATOM     12  C   UNL     1       3.284  -4.341  -0.478  1.00  0.00     0.024 A 
ATOM     13  C   UNL     1       4.530  -4.792  -0.227  1.00  0.00     0.093 A 
ATOM     14  C   UNL     1       5.323  -4.221   0.865  1.00  0.00     0.259 A 
ATOM     15  C   UNL     1       3.384  -2.795   1.364  1.00  0.00     0.218 A 
ATOM     16  O   UNL     1       6.483  -4.535   1.128  1.00  0.00    -0.269 OA
ATOM     17  N   UNL     1       4.679  -3.239   1.595  1.00  0.00    -0.251 N 
ATOM     18  N   UNL     1       3.059  -1.875   2.251  1.00  0.00    -0.212 NA
ATOM     19  C   UNL     1       5.187  -2.510   2.646  1.00  0.00     0.127 A 
ATOM     20  C   UNL     1       4.172  -1.672   3.026  1.00  0.00     0.091 A 
BRANCH  20  21
ATOM     21  C   UNL     1       4.252  -0.711   4.103  1.00  0.00     0.002 A 
ATOM     22  C   UNL     1       5.262   0.259   4.117  1.00  0.00     0.010 A 
ATOM     23  C   UNL     1       3.320  -0.750   5.145  1.00  0.00     0.010 A 
ATOM     24  C   UNL     1       5.342   1.177   5.166  1.00  0.00     0.001 A 
ATOM     25  C   UNL     1       3.411   0.161   6.201  1.00  0.00     0.001 A 
ATOM     26  C   UNL     1       4.420   1.124   6.210  1.00  0.00     0.000 A 
ENDBRANCH  20  21
ENDBRANCH   8  10
ENDBRANCH   5   8
ENDBRANCH   3   4
ENDBRANCH   2   3
ENDBRANCH   1   2
BRANCH   1  27
ATOM     27  C   UNL     1      -1.540  -7.299   2.853  1.00  0.00     0.116 C 
BRANCH  27  28
ATOM     28  N   UNL     1      -0.998  -7.603   4.174  1.00  0.00    -0.352 N 
ATOM     29  C   UNL     1      -0.500  -8.809   4.630  1.00  0.00     0.251 C 
ATOM     30  H   UNL     1      -0.986  -6.858   4.818  1.00  0.00     0.163 HD
ATOM     31  O   UNL     1      -0.441  -9.038   5.832  1.00  0.00    -0.269 OA
BRANCH  29  32
ATOM     32  C   UNL     1      -0.060  -9.811   3.642  1.00  0.00     0.039 A 
ATOM     33  C   UNL     1      -0.368 -11.164   3.795  1.00  0.00     0.014 A 
ATOM     34  C   UNL     1       0.643  -9.364   2.525  1.00  0.00     0.014 A 
ATOM     35  C   UNL     1      -0.042 -12.048   2.767  1.00  0.00     0.010 A 
ATOM     36  C   UNL     1       0.835 -10.206   1.457  1.00  0.00     0.010 A 
ATOM     37  C   UNL     1       0.536 -11.559   1.586  1.00  0.00    -0.014 A 
BRANCH  37  38
ATOM     38  C   UNL     1       0.753 -12.436   0.438  1.00  0.00     0.031 A 
ATOM     39  C   UNL     1      -0.435 -13.207  -0.018  1.00  0.00     0.074 A 
ATOM     40  C   UNL     1       1.884 -12.427  -0.299  1.00  0.00     0.049 A 
ATOM     41  N   UNL     1      -0.612 -14.483   0.065  1.00  0.00    -0.248 NA
ATOM     42  C   UNL     1      -1.613 -12.482  -0.515  1.00  0.00     0.031 C 
ATOM     43  C   UNL     1       3.058 -11.560  -0.163  1.00  0.00     0.029 A 
ATOM     44  N   UNL     1       2.169 -13.139  -1.423  1.00  0.00    -0.354 N 
ATOM     45  C   UNL     1      -1.824 -14.760  -0.557  1.00  0.00     0.074 A 
ATOM     46  C   UNL     1      -2.469 -13.485  -0.737  1.00  0.00     0.031 C 
ATOM     47  C   UNL     1       3.804 -11.627  -1.287  1.00  0.00     0.029 A 
ATOM     48  C   UNL     1       3.258 -12.664  -2.144  1.00  0.00     0.049 A 
ATOM     49  H   UNL     1       1.646 -13.925  -1.702  1.00  0.00     0.167 HD
ATOM     50  C   UNL     1      -2.098 -16.003  -1.046  1.00  0.00     0.034 A 
ATOM     51  C   UNL     1       3.680 -13.083  -3.365  1.00  0.00     0.034 A 
ATOM     52  C   UNL     1      -1.141 -16.972  -0.560  1.00  0.00     0.049 A 
ATOM     53  C   UNL     1       3.196 -14.480  -3.509  1.00  0.00     0.074 A 
ATOM     54  C   UNL     1      -0.759 -17.406   0.695  1.00  0.00     0.029 A 
ATOM     55  N   UNL     1      -0.126 -17.358  -1.409  1.00  0.00    -0.354 N 
ATOM     56  N   UNL     1       3.602 -15.453  -2.735  1.00  0.00    -0.248 NA
ATOM     57  C   UNL     1       1.910 -14.705  -4.155  1.00  0.00     0.031 C 
ATOM     58  C   UNL     1       0.659 -17.533   0.615  1.00  0.00     0.029 A 
ATOM     59  C   UNL     1       1.045 -17.257  -0.699  1.00  0.00     0.049 A 
ATOM     60  H   UNL     1      -0.222 -17.649  -2.344  1.00  0.00     0.167 HD
ATOM     61  C   UNL     1       2.458 -16.184  -2.447  1.00  0.00     0.074 A 
ATOM     62  C   UNL     1       1.471 -15.741  -3.432  1.00  0.00     0.031 C 
ATOM     63  C   UNL     1       2.320 -16.865  -1.271  1.00  0.00     0.034 A 
BRANCH  50  64
ATOM     64  C   UNL     1      -3.004 -16.324  -2.212  1.00  0.00     0.023 A 
ATOM     65  C   UNL     1      -3.196 -17.686  -2.526  1.00  0.00     0.031 A 
ATOM     66  C   UNL     1      -3.437 -15.401  -3.186  1.00  0.00     0.131 A 
ATOM     67  C   UNL     1      -3.685 -18.078  -3.783  1.00  0.00     0.055 A 
ATOM     68  C   UNL     1      -3.988 -15.795  -4.410  1.00  0.00     0.041 A 
ATOM     69  F   UNL     1      -3.265 -14.081  -3.055  1.00  0.00    -0.206 F 
ATOM     70  C   UNL     1      -4.083 -17.140  -4.730  1.00  0.00     0.022 A 
BRANCH  67  71
ATOM     71  S   UNL     1      -3.623 -19.836  -4.221  1.00  0.00     0.124 S 
ATOM     72  O   UNL     1      -2.212 -20.142  -4.015  1.00  0.00    -0.237 OA
ATOM     73  O   UNL     1      -4.556 -20.418  -3.261  1.00  0.00    -0.237 OA
ATOM     74  O   UNL     1      -4.069 -19.854  -5.612  1.00  0.00    -0.744 OA
ENDBRANCH  67  71
ENDBRANCH  50  64
BRANCH  51  75
ATOM     75  C   UNL     1       4.244 -12.249  -4.465  1.00  0.00     0.023 A 
ATOM     76  C   UNL     1       4.894 -12.801  -5.589  1.00  0.00     0.031 A 
ATOM     77  C   UNL     1       3.942 -10.867  -4.532  1.00  0.00     0.131 A 
ATOM     78  C   UNL     1       5.213 -11.987  -6.703  1.00  0.00     0.055 A 
ATOM     79  C   UNL     1       4.268 -10.067  -5.630  1.00  0.00     0.041 A 
ATOM     80  F   UNL     1       3.240 -10.257  -3.564  1.00  0.00    -0.206 F 
ATOM     81  C   UNL     1       4.898 -10.627  -6.727  1.00  0.00     0.022 A 
BRANCH  78  82
ATOM     82  S   UNL     1       5.945 -12.714  -8.206  1.00  0.00     0.124 S 
ATOM     83  O   UNL     1       7.331 -12.923  -7.803  1.00  0.00    -0.237 OA
ATOM     84  O   UNL     1       5.138 -13.913  -8.403  1.00  0.00    -0.237 OA
ATOM     85  O   UNL     1       5.748 -11.674  -9.217  1.00  0.00    -0.744 OA
ENDBRANCH  78  82
ENDBRANCH  51  75
BRANCH  63  86
ATOM     86  C   UNL     1       3.526 -17.032  -0.371  1.00  0.00     0.023 A 
ATOM     87  C   UNL     1       4.213 -15.966   0.253  1.00  0.00     0.031 A 
ATOM     88  C   UNL     1       3.858 -18.341   0.019  1.00  0.00     0.131 A 
ATOM     89  C   UNL     1       5.190 -16.235   1.232  1.00  0.00     0.055 A 
ATOM     90  C   UNL     1       4.810 -18.603   1.004  1.00  0.00     0.041 A 
ATOM     91  F   UNL     1       3.212 -19.393  -0.511  1.00  0.00    -0.206 F 
ATOM     92  C   UNL     1       5.480 -17.550   1.615  1.00  0.00     0.022 A 
BRANCH  89  93
ATOM     93  S   UNL     1       6.073 -14.871   2.058  1.00  0.00     0.124 S 
ATOM     94  O   UNL     1       6.725 -14.179   0.951  1.00  0.00    -0.237 OA
ATOM     95  O   UNL     1       4.997 -14.143   2.724  1.00  0.00    -0.237 OA
ATOM     96  O   UNL     1       6.991 -15.558   2.968  1.00  0.00    -0.744 OA
ENDBRANCH  89  93
ENDBRANCH  63  86
ENDBRANCH  37  38
ENDBRANCH  29  32
ENDBRANCH  27  28
ENDBRANCH   1  27
TORSDOF 16
