REMARK SMILES O=C(NCCCCNC(=O)[C@@]1(CCc2ccccc2)CCC[N@@H+](Cc2cccnc2)C1)c1ccc(-c2c3nc(c(-c4cc(S(=O)(=O)[O-])ccc4F)c4ccc([nH]4)c(-c4cc(S(=O)(=O)[O-])ccc4F)c4nc(c(-c5cc(S(=O)(=O)[O-])ccc5F)c5ccc2[nH]5)C=C4)C=C3)cc1
REMARK SMILES IDX 5 1 4 2 3 3 1 4 2 5 32 7 33 8 94 9 34 10 93 11 35 12 36 13
REMARK SMILES IDX 37 14 87 15 38 16 92 17 86 18 88 19 39 20 91 21 85 22 84 23
REMARK SMILES IDX 40 25 72 26 52 27 71 28 53 29 56 30 70 31 89 32 54 33 55 34
REMARK SMILES IDX 69 36 90 37 57 38 41 39 42 40 50 41 43 42 49 43 51 44 48 45
REMARK SMILES IDX 44 46 45 47 46 48 47 49 73 50 74 51 82 52 75 53 81 54 83 55
REMARK SMILES IDX 80 56 76 57 77 58 78 59 79 60 58 61 59 62 67 63 60 64 66 65
REMARK SMILES IDX 68 66 65 67 61 68 62 69 63 70 64 71 6 72 7 73 8 74 9 75
REMARK SMILES IDX 10 77 11 78 20 79 31 80 21 81 23 82 22 83 12 85 13 86 14 87
REMARK SMILES IDX 15 88 19 89 16 90 18 91 17 92 24 93 25 94 26 95 30 96 27 97
REMARK SMILES IDX 29 98 28 99
REMARK H PARENT 3 6 88 24 56 35 8 76 23 84
REMARK Flexibility Score: inf
ROOT
ATOM      1  C   UNL     1       4.312   1.885   2.332  1.00  0.00     0.023 C 
ENDROOT
BRANCH   1   2
ATOM      2  C   UNL     1       3.771   3.166   1.743  1.00  0.00     0.116 C 
BRANCH   2   3
ATOM      3  N   UNL     1       4.511   3.612   0.574  1.00  0.00    -0.352 N 
ATOM      4  O   UNL     1       4.801   4.256  -1.565  1.00  0.00    -0.269 OA
ATOM      5  C   UNL     1       4.025   4.041  -0.637  1.00  0.00     0.251 C 
ATOM      6  H   UNL     1       5.492   3.604   0.662  1.00  0.00     0.163 HD
BRANCH   5   7
ATOM      7  C   UNL     1       2.568   4.221  -0.818  1.00  0.00     0.039 A 
ATOM      8  C   UNL     1       1.792   4.793   0.193  1.00  0.00     0.014 A 
ATOM      9  C   UNL     1       1.970   3.811  -2.013  1.00  0.00     0.014 A 
ATOM     10  C   UNL     1       0.412   4.824   0.073  1.00  0.00     0.010 A 
ATOM     11  C   UNL     1       0.590   3.949  -2.179  1.00  0.00     0.010 A 
ATOM     12  C   UNL     1      -0.201   4.445  -1.131  1.00  0.00    -0.014 A 
BRANCH  12  13
ATOM     13  C   UNL     1      -1.654   4.688  -1.299  1.00  0.00     0.031 A 
ATOM     14  C   UNL     1      -2.618   3.556  -1.500  1.00  0.00     0.074 A 
ATOM     15  C   UNL     1      -2.090   5.962  -1.240  1.00  0.00     0.049 A 
ATOM     16  N   UNL     1      -3.912   3.602  -1.686  1.00  0.00    -0.248 NA
ATOM     17  C   UNL     1      -2.057   2.197  -1.503  1.00  0.00     0.031 C 
ATOM     18  C   UNL     1      -1.231   7.135  -1.042  1.00  0.00     0.029 A 
ATOM     19  N   UNL     1      -3.352   6.489  -1.314  1.00  0.00    -0.354 N 
ATOM     20  C   UNL     1      -4.323   2.284  -1.845  1.00  0.00     0.074 A 
ATOM     21  C   UNL     1      -3.131   1.464  -1.763  1.00  0.00     0.031 C 
ATOM     22  C   UNL     1      -1.994   8.232  -0.952  1.00  0.00     0.029 A 
ATOM     23  C   UNL     1      -3.383   7.857  -1.177  1.00  0.00     0.049 A 
ATOM     24  H   UNL     1      -4.158   5.942  -1.452  1.00  0.00     0.167 HD
ATOM     25  C   UNL     1      -5.580   1.810  -2.037  1.00  0.00     0.034 A 
ATOM     26  C   UNL     1      -4.411   8.722  -1.255  1.00  0.00     0.034 A 
ATOM     27  C   UNL     1      -6.749   2.655  -2.120  1.00  0.00     0.049 A 
ATOM     28  C   UNL     1      -5.783   8.174  -1.524  1.00  0.00     0.074 A 
ATOM     29  C   UNL     1      -8.071   2.286  -2.305  1.00  0.00     0.029 A 
ATOM     30  N   UNL     1      -6.738   4.043  -2.032  1.00  0.00    -0.354 N 
ATOM     31  N   UNL     1      -6.154   6.925  -1.684  1.00  0.00    -0.248 NA
ATOM     32  C   UNL     1      -6.872   9.150  -1.627  1.00  0.00     0.031 C 
ATOM     33  C   UNL     1      -8.846   3.449  -2.394  1.00  0.00     0.029 A 
ATOM     34  C   UNL     1      -8.023   4.545  -2.188  1.00  0.00     0.049 A 
ATOM     35  H   UNL     1      -5.934   4.591  -1.881  1.00  0.00     0.167 HD
ATOM     36  C   UNL     1      -7.527   6.964  -1.892  1.00  0.00     0.074 A 
ATOM     37  C   UNL     1      -7.918   8.358  -1.813  1.00  0.00     0.031 C 
ATOM     38  C   UNL     1      -8.388   5.941  -2.128  1.00  0.00     0.034 A 
BRANCH  25  39
ATOM     39  C   UNL     1      -5.742   0.319  -2.221  1.00  0.00     0.023 A 
ATOM     40  C   UNL     1      -5.433  -0.594  -1.197  1.00  0.00     0.031 A 
ATOM     41  C   UNL     1      -6.193  -0.200  -3.449  1.00  0.00     0.131 A 
ATOM     42  C   UNL     1      -5.516  -1.975  -1.440  1.00  0.00     0.055 A 
ATOM     43  C   UNL     1      -6.346  -1.572  -3.659  1.00  0.00     0.041 A 
ATOM     44  F   UNL     1      -6.483   0.619  -4.472  1.00  0.00    -0.206 F 
ATOM     45  C   UNL     1      -5.993  -2.470  -2.655  1.00  0.00     0.022 A 
BRANCH  42  46
ATOM     46  S   UNL     1      -4.862  -3.117  -0.190  1.00  0.00     0.124 S 
ATOM     47  O   UNL     1      -3.474  -2.675  -0.081  1.00  0.00    -0.237 OA
ATOM     48  O   UNL     1      -5.712  -2.843   0.963  1.00  0.00    -0.237 OA
ATOM     49  O   UNL     1      -5.042  -4.433  -0.800  1.00  0.00    -0.744 OA
ENDBRANCH  42  46
ENDBRANCH  25  39
BRANCH  26  50
ATOM     50  C   UNL     1      -4.170  10.186  -1.118  1.00  0.00     0.023 A 
ATOM     51  C   UNL     1      -4.723  10.914  -0.055  1.00  0.00     0.031 A 
ATOM     52  C   UNL     1      -3.387  10.880  -2.060  1.00  0.00     0.131 A 
ATOM     53  C   UNL     1      -4.513  12.299   0.024  1.00  0.00     0.055 A 
ATOM     54  C   UNL     1      -3.136  12.248  -1.946  1.00  0.00     0.041 A 
ATOM     55  F   UNL     1      -2.830  10.229  -3.093  1.00  0.00    -0.206 F 
ATOM     56  C   UNL     1      -3.712  12.968  -0.905  1.00  0.00     0.022 A 
BRANCH  53  57
ATOM     57  S   UNL     1      -5.368  13.232   1.323  1.00  0.00     0.124 S 
ATOM     58  O   UNL     1      -6.765  12.913   1.048  1.00  0.00    -0.237 OA
ATOM     59  O   UNL     1      -4.803  12.650   2.535  1.00  0.00    -0.237 OA
ATOM     60  O   UNL     1      -4.980  14.616   1.058  1.00  0.00    -0.744 OA
ENDBRANCH  53  57
ENDBRANCH  26  50
BRANCH  38  61
ATOM     61  C   UNL     1      -9.842   6.310  -2.281  1.00  0.00     0.023 A 
ATOM     62  C   UNL     1     -10.301   7.056  -3.380  1.00  0.00     0.031 A 
ATOM     63  C   UNL     1     -10.773   5.938  -1.295  1.00  0.00     0.131 A 
ATOM     64  C   UNL     1     -11.643   7.459  -3.437  1.00  0.00     0.055 A 
ATOM     65  C   UNL     1     -12.119   6.290  -1.388  1.00  0.00     0.041 A 
ATOM     66  F   UNL     1     -10.385   5.229  -0.223  1.00  0.00    -0.206 F 
ATOM     67  C   UNL     1     -12.559   7.067  -2.457  1.00  0.00     0.022 A 
BRANCH  64  68
ATOM     68  S   UNL     1     -12.158   8.586  -4.762  1.00  0.00     0.124 S 
ATOM     69  O   UNL     1     -11.293   9.739  -4.531  1.00  0.00    -0.237 OA
ATOM     70  O   UNL     1     -11.875   7.807  -5.963  1.00  0.00    -0.237 OA
ATOM     71  O   UNL     1     -13.576   8.811  -4.489  1.00  0.00    -0.744 OA
ENDBRANCH  64  68
ENDBRANCH  38  61
ENDBRANCH  12  13
ENDBRANCH   5   7
ENDBRANCH   2   3
ENDBRANCH   1   2
BRANCH   1  72
ATOM     72  C   UNL     1       5.752   1.959   2.819  1.00  0.00     0.023 C 
BRANCH  72  73
ATOM     73  C   UNL     1       6.025   2.877   4.020  1.00  0.00     0.116 C 
BRANCH  73  74
ATOM     74  N   UNL     1       5.262   2.574   5.220  1.00  0.00    -0.355 N 
ATOM     75  C   UNL     1       5.464   1.768   6.300  1.00  0.00     0.231 C 
ATOM     76  H   UNL     1       4.407   3.061   5.262  1.00  0.00     0.163 HD
ATOM     77  O   UNL     1       4.593   1.837   7.177  1.00  0.00    -0.274 OA
BRANCH  75  78
ATOM     78  C   UNL     1       6.699   0.867   6.499  1.00  0.00     0.098 C 
ATOM     79  C   UNL     1       7.793   1.839   7.040  1.00  0.00     0.028 C 
ATOM     80  C   UNL     1       6.413  -0.170   7.619  1.00  0.00     0.279 C 
ATOM     81  C   UNL     1       8.989   1.145   7.700  1.00  0.00     0.063 C 
ATOM     82  N   UNL     1       7.661  -0.885   7.938  1.00  0.00    -0.330 N 
ATOM     83  C   UNL     1       8.586   0.002   8.636  1.00  0.00     0.262 C 
ATOM     84  H   UNL     1       8.103  -1.136   7.054  1.00  0.00     0.348 HD
BRANCH  78  85
ATOM     85  C   UNL     1       7.178   0.091   5.242  1.00  0.00     0.027 C 
BRANCH  85  86
ATOM     86  C   UNL     1       6.480  -1.224   4.777  1.00  0.00     0.037 C 
BRANCH  86  87
ATOM     87  C   UNL     1       5.005  -1.480   4.522  1.00  0.00    -0.048 A 
ATOM     88  C   UNL     1       3.952  -0.606   4.774  1.00  0.00     0.004 A 
ATOM     89  C   UNL     1       4.650  -2.743   4.007  1.00  0.00     0.004 A 
ATOM     90  C   UNL     1       2.615  -0.943   4.526  1.00  0.00     0.000 A 
ATOM     91  C   UNL     1       3.316  -3.093   3.756  1.00  0.00     0.000 A 
ATOM     92  C   UNL     1       2.295  -2.189   4.014  1.00  0.00     0.000 A 
ENDBRANCH  86  87
ENDBRANCH  85  86
ENDBRANCH  78  85
BRANCH  82  93
ATOM     93  C   UNL     1       7.481  -2.205   8.539  1.00  0.00     0.300 C 
BRANCH  93  94
ATOM     94  C   UNL     1       6.776  -2.256   9.863  1.00  0.00     0.025 A 
ATOM     95  C   UNL     1       5.381  -2.249   9.948  1.00  0.00     0.013 A 
ATOM     96  C   UNL     1       7.489  -2.327  11.054  1.00  0.00     0.120 A 
ATOM     97  C   UNL     1       4.765  -2.287  11.193  1.00  0.00     0.021 A 
ATOM     98  N   UNL     1       6.920  -2.378  12.280  1.00  0.00    -0.264 NA
ATOM     99  C   UNL     1       5.569  -2.349  12.318  1.00  0.00     0.111 A 
ENDBRANCH  93  94
ENDBRANCH  82  93
ENDBRANCH  75  78
ENDBRANCH  73  74
ENDBRANCH  72  73
ENDBRANCH   1  72
TORSDOF 19
