REMARK SMILES C[C@H]1[C@@H](C(=O)NCCCCNC(=O)c2ccc(-c3c4nc(c(-c5cc(S(=O)(=O)[O-])ccc5F)c5ccc([nH]5)c(-c5cc(S(=O)(=O)[O-])ccc5F)c5nc(c(-c6cc(S(=O)(=O)[O-])ccc6F)c6ccc3[nH]6)C=C5)C=C4)cc2)CCN1C(=O)c1cc2cc(F)ccc2s1
REMARK SMILES IDX 9 1 8 2 7 3 6 4 4 5 5 6 3 8 1 9 2 10 79 11 77 12 78 13 80 14
REMARK SMILES IDX 81 15 82 16 83 17 91 18 84 19 90 20 85 21 89 22 86 23 88 24
REMARK SMILES IDX 87 25 10 26 11 27 12 28 13 30 14 31 15 32 76 33 16 34 75 35
REMARK SMILES IDX 17 36 18 37 19 38 69 39 20 40 74 41 68 42 70 43 21 44 73 45
REMARK SMILES IDX 67 46 66 47 22 49 54 50 34 51 53 52 35 53 38 54 52 55 71 56
REMARK SMILES IDX 36 57 37 58 51 60 72 61 39 62 23 63 24 64 32 65 25 66 31 67
REMARK SMILES IDX 33 68 30 69 26 70 27 71 28 72 29 73 55 74 56 75 64 76 57 77
REMARK SMILES IDX 63 78 65 79 62 80 58 81 59 82 60 83 61 84 40 85 41 86 49 87
REMARK SMILES IDX 42 88 48 89 50 90 47 91 43 92 44 93 45 94 46 95
REMARK H PARENT 6 7 11 29 70 48 38 59
REMARK Flexibility Score: inf
ROOT
ATOM      1  C   UNL     1       4.201   0.732  -3.158  1.00  0.00     0.023 C 
ENDROOT
BRANCH   1   2
ATOM      2  C   UNL     1       3.391   0.544  -1.885  1.00  0.00     0.023 C 
BRANCH   2   3
ATOM      3  C   UNL     1       2.742   1.819  -1.344  1.00  0.00     0.116 C 
BRANCH   3   4
ATOM      4  N   UNL     1       1.399   1.905  -1.864  1.00  0.00    -0.356 N 
ATOM      5  C   UNL     1       0.237   1.414  -1.363  1.00  0.00     0.225 C 
ATOM      6  O   UNL     1      -0.703   1.355  -2.161  1.00  0.00    -0.275 OA
ATOM      7  H   UNL     1       1.312   2.396  -2.713  1.00  0.00     0.163 HD
BRANCH   5   8
ATOM      8  C   UNL     1       0.063   1.106   0.134  1.00  0.00     0.102 C 
ATOM      9  C   UNL     1       1.857  -0.818   0.496  1.00  0.00     0.032 C 
ATOM     10  C   UNL     1       0.479  -0.252   0.749  1.00  0.00     0.094 C 
ATOM     11  N   UNL     1      -0.624  -1.170   0.459  1.00  0.00    -0.334 N 
ATOM     12  C   UNL     1      -1.457   1.030   0.407  1.00  0.00     0.037 C 
ATOM     13  C   UNL     1      -1.783  -0.408   0.019  1.00  0.00     0.121 C 
BRANCH  11  14
ATOM     14  C   UNL     1      -0.849  -2.270   1.276  1.00  0.00     0.264 C 
ATOM     15  O   UNL     1      -1.811  -2.303   2.043  1.00  0.00    -0.268 OA
BRANCH  14  16
ATOM     16  C   UNL     1       0.036  -3.408   1.158  1.00  0.00     0.093 A 
ATOM     17  C   UNL     1       0.548  -4.159   2.196  1.00  0.00     0.034 A 
ATOM     18  S   UNL     1       0.240  -4.211  -0.334  1.00  0.00    -0.130 S 
ATOM     19  C   UNL     1       0.550  -5.550   1.849  1.00  0.00    -0.004 A 
ATOM     20  C   UNL     1       0.326  -5.733   0.479  1.00  0.00     0.035 A 
ATOM     21  C   UNL     1       0.600  -6.688   2.683  1.00  0.00     0.048 A 
ATOM     22  C   UNL     1       0.141  -7.012  -0.078  1.00  0.00     0.022 A 
ATOM     23  C   UNL     1       0.318  -7.939   2.143  1.00  0.00     0.123 A 
ATOM     24  C   UNL     1       0.086  -8.107   0.787  1.00  0.00     0.041 A 
ATOM     25  F   UNL     1       0.217  -8.994   2.963  1.00  0.00    -0.207 F 
ENDBRANCH  14  16
ENDBRANCH  11  14
ENDBRANCH   5   8
ENDBRANCH   3   4
ENDBRANCH   2   3
ENDBRANCH   1   2
BRANCH   1  26
ATOM     26  C   UNL     1       5.503   1.480  -2.943  1.00  0.00     0.116 C 
BRANCH  26  27
ATOM     27  N   UNL     1       6.409   0.822  -2.009  1.00  0.00    -0.352 N 
ATOM     28  C   UNL     1       7.784   0.736  -2.074  1.00  0.00     0.251 C 
ATOM     29  H   UNL     1       5.986   0.384  -1.234  1.00  0.00     0.163 HD
ATOM     30  O   UNL     1       8.408   0.082  -1.255  1.00  0.00    -0.269 OA
BRANCH  28  31
ATOM     31  C   UNL     1       8.463   1.408  -3.200  1.00  0.00     0.039 A 
ATOM     32  C   UNL     1       9.314   0.664  -4.018  1.00  0.00     0.014 A 
ATOM     33  C   UNL     1       8.137   2.728  -3.518  1.00  0.00     0.014 A 
ATOM     34  C   UNL     1       9.766   1.221  -5.214  1.00  0.00     0.010 A 
ATOM     35  C   UNL     1       8.498   3.236  -4.757  1.00  0.00     0.010 A 
ATOM     36  C   UNL     1       9.318   2.490  -5.618  1.00  0.00    -0.014 A 
BRANCH  36  37
ATOM     37  C   UNL     1       9.704   3.073  -6.928  1.00  0.00     0.031 A 
ATOM     38  C   UNL     1      10.453   4.378  -6.961  1.00  0.00     0.074 A 
ATOM     39  C   UNL     1       9.306   2.485  -8.073  1.00  0.00     0.049 A 
ATOM     40  N   UNL     1      10.777   5.124  -7.985  1.00  0.00    -0.248 NA
ATOM     41  C   UNL     1      10.842   4.943  -5.660  1.00  0.00     0.031 C 
ATOM     42  C   UNL     1       8.517   1.253  -8.167  1.00  0.00     0.029 A 
ATOM     43  N   UNL     1       9.502   2.849  -9.382  1.00  0.00    -0.354 N 
ATOM     44  C   UNL     1      11.376   6.258  -7.449  1.00  0.00     0.074 A 
ATOM     45  C   UNL     1      11.298   6.135  -6.010  1.00  0.00     0.031 C 
ATOM     46  C   UNL     1       8.326   0.948  -9.461  1.00  0.00     0.029 A 
ATOM     47  C   UNL     1       8.939   1.981 -10.290  1.00  0.00     0.049 A 
ATOM     48  H   UNL     1       9.998   3.656  -9.646  1.00  0.00     0.167 HD
ATOM     49  C   UNL     1      11.968   7.292  -8.096  1.00  0.00     0.034 A 
ATOM     50  C   UNL     1       8.919   2.018 -11.636  1.00  0.00     0.034 A 
ATOM     51  C   UNL     1      12.074   7.374  -9.531  1.00  0.00     0.049 A 
ATOM     52  C   UNL     1       9.610   3.161 -12.338  1.00  0.00     0.074 A 
ATOM     53  C   UNL     1      12.712   8.333 -10.297  1.00  0.00     0.029 A 
ATOM     54  N   UNL     1      11.529   6.454 -10.418  1.00  0.00    -0.354 N 
ATOM     55  N   UNL     1      10.221   4.200 -11.817  1.00  0.00    -0.248 NA
ATOM     56  C   UNL     1       9.619   3.128 -13.805  1.00  0.00     0.031 C 
ATOM     57  C   UNL     1      12.510   8.021 -11.646  1.00  0.00     0.029 A 
ATOM     58  C   UNL     1      11.800   6.832 -11.723  1.00  0.00     0.049 A 
ATOM     59  H   UNL     1      11.024   5.650 -10.158  1.00  0.00     0.167 HD
ATOM     60  C   UNL     1      10.712   4.930 -12.896  1.00  0.00     0.074 A 
ATOM     61  C   UNL     1      10.338   4.203 -14.092  1.00  0.00     0.031 C 
ATOM     62  C   UNL     1      11.411   6.093 -12.900  1.00  0.00     0.034 A 
BRANCH  49  63
ATOM     63  C   UNL     1      12.528   8.408  -7.247  1.00  0.00     0.023 A 
ATOM     64  C   UNL     1      13.555   8.180  -6.314  1.00  0.00     0.031 A 
ATOM     65  C   UNL     1      11.992   9.705  -7.328  1.00  0.00     0.131 A 
ATOM     66  C   UNL     1      13.943   9.200  -5.434  1.00  0.00     0.055 A 
ATOM     67  C   UNL     1      12.448  10.742  -6.511  1.00  0.00     0.041 A 
ATOM     68  F   UNL     1      10.996   9.982  -8.184  1.00  0.00    -0.206 F 
ATOM     69  C   UNL     1      13.416  10.488  -5.543  1.00  0.00     0.022 A 
BRANCH  66  70
ATOM     70  S   UNL     1      15.023   8.773  -4.041  1.00  0.00     0.124 S 
ATOM     71  O   UNL     1      14.213   7.782  -3.335  1.00  0.00    -0.237 OA
ATOM     72  O   UNL     1      16.215   8.263  -4.709  1.00  0.00    -0.237 OA
ATOM     73  O   UNL     1      15.195  10.042  -3.338  1.00  0.00    -0.744 OA
ENDBRANCH  66  70
ENDBRANCH  49  63
BRANCH  50  74
ATOM     74  C   UNL     1       8.235   0.948 -12.416  1.00  0.00     0.023 A 
ATOM     75  C   UNL     1       8.966   0.074 -13.235  1.00  0.00     0.031 A 
ATOM     76  C   UNL     1       6.837   0.807 -12.384  1.00  0.00     0.131 A 
ATOM     77  C   UNL     1       8.296  -0.872 -14.026  1.00  0.00     0.055 A 
ATOM     78  C   UNL     1       6.177  -0.167 -13.137  1.00  0.00     0.041 A 
ATOM     79  F   UNL     1       6.091   1.610 -11.609  1.00  0.00    -0.206 F 
ATOM     80  C   UNL     1       6.906  -1.005 -13.974  1.00  0.00     0.022 A 
BRANCH  77  81
ATOM     81  S   UNL     1       9.263  -1.878 -15.185  1.00  0.00     0.124 S 
ATOM     82  O   UNL     1       9.901  -0.856 -16.006  1.00  0.00    -0.237 OA
ATOM     83  O   UNL     1      10.140  -2.617 -14.283  1.00  0.00    -0.237 OA
ATOM     84  O   UNL     1       8.250  -2.683 -15.864  1.00  0.00    -0.744 OA
ENDBRANCH  77  81
ENDBRANCH  50  74
BRANCH  62  85
ATOM     85  C   UNL     1      11.850   6.619 -14.243  1.00  0.00     0.023 A 
ATOM     86  C   UNL     1      10.926   7.111 -15.180  1.00  0.00     0.031 A 
ATOM     87  C   UNL     1      13.213   6.619 -14.589  1.00  0.00     0.131 A 
ATOM     88  C   UNL     1      11.371   7.535 -16.440  1.00  0.00     0.055 A 
ATOM     89  C   UNL     1      13.656   7.094 -15.823  1.00  0.00     0.041 A 
ATOM     90  F   UNL     1      14.136   6.159 -13.729  1.00  0.00    -0.206 F 
ATOM     91  C   UNL     1      12.732   7.544 -16.762  1.00  0.00     0.022 A 
BRANCH  88  92
ATOM     92  S   UNL     1      10.140   8.001 -17.687  1.00  0.00     0.124 S 
ATOM     93  O   UNL     1       9.357   6.776 -17.813  1.00  0.00    -0.237 OA
ATOM     94  O   UNL     1       9.463   9.127 -17.051  1.00  0.00    -0.237 OA
ATOM     95  O   UNL     1      10.947   8.344 -18.856  1.00  0.00    -0.744 OA
ENDBRANCH  88  92
ENDBRANCH  62  85
ENDBRANCH  36  37
ENDBRANCH  28  31
ENDBRANCH  26  27
ENDBRANCH   1  26
TORSDOF 16
