REMARK SMILES Cc1cc2n(n1)[C@H](C(F)(F)F)CCN2C(=O)c1cnn([C@@H](C)C(=O)NCCCCNC(=O)c2ccc(-c3c4nc(c(-c5cc(S(=O)(=O)[O-])ccc5F)c5ccc([nH]5)c(-c5cc(S(=O)(=O)[O-])ccc5F)c5nc(c(-c6cc(S(=O)(=O)[O-])ccc6F)c6ccc3[nH]6)C=C5)C=C4)cc2)c1
REMARK SMILES IDX 27 1 26 2 25 3 23 4 24 5 21 7 22 8 20 9 17 10 18 11 96 12
REMARK SMILES IDX 19 13 15 14 16 15 14 16 1 17 2 18 3 19 6 20 4 21 5 22 7 23
REMARK SMILES IDX 13 24 12 25 8 26 9 27 10 28 11 29 28 30 29 31 30 32 31 33
REMARK SMILES IDX 32 35 33 36 34 37 95 38 35 39 94 40 36 41 37 42 38 43 88 44
REMARK SMILES IDX 39 45 93 46 87 47 89 48 40 49 92 50 86 51 85 52 41 54 73 55
REMARK SMILES IDX 53 56 72 57 54 58 57 59 71 60 90 61 55 62 56 63 70 65 91 66
REMARK SMILES IDX 58 67 42 68 43 69 51 70 44 71 50 72 52 73 49 74 45 75 46 76
REMARK SMILES IDX 47 77 48 78 74 79 75 80 83 81 76 82 82 83 84 84 81 85 77 86
REMARK SMILES IDX 78 87 79 88 80 89 59 90 60 91 68 92 61 93 67 94 69 95 66 96
REMARK SMILES IDX 62 97 63 98 64 99 65 100
REMARK H PARENT 25 6 30 34 89 53 57 64
REMARK Flexibility Score: inf
ROOT
ATOM      1  C   UNL     1       2.962 -10.677  -2.394  1.00  0.00     0.023 C 
ENDROOT
BRANCH   1   2
ATOM      2  C   UNL     1       2.865 -11.596  -1.167  1.00  0.00     0.116 C 
BRANCH   2   3
ATOM      3  N   UNL     1       3.997 -11.434  -0.268  1.00  0.00    -0.354 N 
ATOM      4  C   UNL     1       4.137 -10.727   0.889  1.00  0.00     0.244 C 
ATOM      5  O   UNL     1       5.284 -10.642   1.349  1.00  0.00    -0.273 OA
ATOM      6  H   UNL     1       4.806 -11.922  -0.544  1.00  0.00     0.163 HD
BRANCH   4   7
ATOM      7  C   UNL     1       2.986 -10.061   1.642  1.00  0.00     0.193 C 
ATOM      8  C   UNL     1       1.908 -11.017   2.142  1.00  0.00     0.044 C 
BRANCH   7   9
ATOM      9  N   UNL     1       2.471  -8.890   0.941  1.00  0.00    -0.260 N 
ATOM     10  C   UNL     1       2.020  -6.830   0.291  1.00  0.00     0.078 A 
ATOM     11  C   UNL     1       1.643  -7.793  -0.657  1.00  0.00     0.149 A 
ATOM     12  C   UNL     1       2.613  -7.574   1.298  1.00  0.00     0.123 A 
ATOM     13  N   UNL     1       1.724  -9.024  -0.168  1.00  0.00    -0.180 NA
BRANCH  10  14
ATOM     14  C   UNL     1       1.928  -5.396   0.215  1.00  0.00     0.262 C 
ATOM     15  O   UNL     1       2.869  -4.650   0.424  1.00  0.00    -0.269 OA
BRANCH  14  16
ATOM     16  N   UNL     1       0.577  -4.899  -0.065  1.00  0.00    -0.293 N 
ATOM     17  C   UNL     1       0.847   0.118  -0.144  1.00  0.00     0.069 C 
ATOM     18  C   UNL     1       0.423  -1.301  -0.206  1.00  0.00     0.062 A 
ATOM     19  C   UNL     1       1.232  -2.457  -0.089  1.00  0.00     0.072 A 
ATOM     20  N   UNL     1      -0.865  -1.618  -0.383  1.00  0.00    -0.176 NA
ATOM     21  C   UNL     1       0.361  -3.519  -0.147  1.00  0.00     0.134 A 
ATOM     22  N   UNL     1      -0.876  -2.954  -0.294  1.00  0.00    -0.237 N 
ATOM     23  C   UNL     1      -2.111  -3.696  -0.401  1.00  0.00     0.216 C 
ATOM     24  C   UNL     1      -0.626  -5.776  -0.026  1.00  0.00     0.130 C 
ATOM     25  C   UNL     1      -1.832  -5.163  -0.745  1.00  0.00     0.059 C 
BRANCH  23  26
ATOM     26  C   UNL     1      -2.930  -3.563   0.863  1.00  0.00     0.410 C 
ATOM     27  F   UNL     1      -2.315  -4.157   1.911  1.00  0.00    -0.169 F 
ATOM     28  F   UNL     1      -3.201  -2.289   1.199  1.00  0.00    -0.169 F 
ATOM     29  F   UNL     1      -4.123  -4.189   0.700  1.00  0.00    -0.169 F 
ENDBRANCH  23  26
ENDBRANCH  14  16
ENDBRANCH  10  14
ENDBRANCH   7   9
ENDBRANCH   4   7
ENDBRANCH   2   3
ENDBRANCH   1   2
BRANCH   1  30
ATOM     30  C   UNL     1       3.951 -11.098  -3.485  1.00  0.00     0.023 C 
BRANCH  30  31
ATOM     31  C   UNL     1       3.633 -12.427  -4.151  1.00  0.00     0.116 C 
BRANCH  31  32
ATOM     32  N   UNL     1       2.336 -12.433  -4.827  1.00  0.00    -0.352 N 
ATOM     33  C   UNL     1       1.707 -13.514  -5.420  1.00  0.00     0.251 C 
ATOM     34  H   UNL     1       1.858 -11.573  -4.864  1.00  0.00     0.163 HD
ATOM     35  O   UNL     1       0.855 -13.344  -6.283  1.00  0.00    -0.269 OA
BRANCH  33  36
ATOM     36  C   UNL     1       2.077 -14.866  -4.965  1.00  0.00     0.039 A 
ATOM     37  C   UNL     1       2.316 -15.914  -5.857  1.00  0.00     0.014 A 
ATOM     38  C   UNL     1       2.239 -15.041  -3.592  1.00  0.00     0.014 A 
ATOM     39  C   UNL     1       2.805 -17.120  -5.356  1.00  0.00     0.010 A 
ATOM     40  C   UNL     1       2.860 -16.167  -3.122  1.00  0.00     0.010 A 
ATOM     41  C   UNL     1       3.093 -17.232  -3.986  1.00  0.00    -0.014 A 
BRANCH  41  42
ATOM     42  C   UNL     1       3.786 -18.395  -3.435  1.00  0.00     0.031 A 
ATOM     43  C   UNL     1       5.131 -18.627  -4.029  1.00  0.00     0.074 A 
ATOM     44  C   UNL     1       3.373 -19.012  -2.304  1.00  0.00     0.049 A 
ATOM     45  N   UNL     1       5.495 -19.578  -4.822  1.00  0.00    -0.248 NA
ATOM     46  C   UNL     1       6.148 -17.569  -3.881  1.00  0.00     0.031 C 
ATOM     47  C   UNL     1       2.233 -18.648  -1.450  1.00  0.00     0.029 A 
ATOM     48  N   UNL     1       3.952 -20.022  -1.599  1.00  0.00    -0.354 N 
ATOM     49  C   UNL     1       6.860 -19.394  -5.030  1.00  0.00     0.074 A 
ATOM     50  C   UNL     1       7.124 -18.031  -4.664  1.00  0.00     0.031 C 
ATOM     51  C   UNL     1       2.345 -19.261  -0.250  1.00  0.00     0.029 A 
ATOM     52  C   UNL     1       3.458 -20.191  -0.303  1.00  0.00     0.049 A 
ATOM     53  H   UNL     1       4.663 -20.590  -1.974  1.00  0.00     0.167 HD
ATOM     54  C   UNL     1       7.694 -20.462  -5.190  1.00  0.00     0.034 A 
ATOM     55  C   UNL     1       3.931 -21.022   0.667  1.00  0.00     0.034 A 
ATOM     56  C   UNL     1       6.926 -21.663  -5.454  1.00  0.00     0.049 A 
ATOM     57  C   UNL     1       4.728 -22.063  -0.027  1.00  0.00     0.074 A 
ATOM     58  C   UNL     1       6.022 -22.048  -6.424  1.00  0.00     0.029 A 
ATOM     59  N   UNL     1       6.738 -22.536  -4.404  1.00  0.00    -0.354 N 
ATOM     60  N   UNL     1       4.206 -22.921  -0.860  1.00  0.00    -0.248 NA
ATOM     61  C   UNL     1       6.156 -21.837  -0.188  1.00  0.00     0.031 C 
ATOM     62  C   UNL     1       5.025 -22.791  -5.723  1.00  0.00     0.029 A 
ATOM     63  C   UNL     1       5.418 -22.910  -4.387  1.00  0.00     0.049 A 
ATOM     64  H   UNL     1       7.431 -22.839  -3.775  1.00  0.00     0.167 HD
ATOM     65  C   UNL     1       5.108 -22.994  -1.911  1.00  0.00     0.074 A 
ATOM     66  C   UNL     1       6.337 -22.395  -1.390  1.00  0.00     0.031 C 
ATOM     67  C   UNL     1       4.684 -23.260  -3.183  1.00  0.00     0.034 A 
BRANCH  54  68
ATOM     68  C   UNL     1       9.132 -20.535  -4.699  1.00  0.00     0.023 A 
ATOM     69  C   UNL     1       9.795 -21.767  -4.871  1.00  0.00     0.031 A 
ATOM     70  C   UNL     1       9.778 -19.617  -3.841  1.00  0.00     0.131 A 
ATOM     71  C   UNL     1      10.935 -22.093  -4.116  1.00  0.00     0.055 A 
ATOM     72  C   UNL     1      10.950 -19.922  -3.140  1.00  0.00     0.041 A 
ATOM     73  F   UNL     1       9.286 -18.407  -3.557  1.00  0.00    -0.206 F 
ATOM     74  C   UNL     1      11.515 -21.179  -3.244  1.00  0.00     0.022 A 
BRANCH  71  75
ATOM     75  S   UNL     1      11.525 -23.804  -4.153  1.00  0.00     0.124 S 
ATOM     76  O   UNL     1      10.316 -24.532  -3.786  1.00  0.00    -0.237 OA
ATOM     77  O   UNL     1      11.966 -23.936  -5.537  1.00  0.00    -0.237 OA
ATOM     78  O   UNL     1      12.590 -23.814  -3.153  1.00  0.00    -0.744 OA
ENDBRANCH  71  75
ENDBRANCH  54  68
BRANCH  55  79
ATOM     79  C   UNL     1       4.011 -20.768   2.136  1.00  0.00     0.023 A 
ATOM     80  C   UNL     1       4.117 -21.793   3.105  1.00  0.00     0.031 A 
ATOM     81  C   UNL     1       4.240 -19.449   2.588  1.00  0.00     0.131 A 
ATOM     82  C   UNL     1       4.441 -21.476   4.450  1.00  0.00     0.055 A 
ATOM     83  C   UNL     1       4.565 -19.144   3.913  1.00  0.00     0.041 A 
ATOM     84  F   UNL     1       4.239 -18.414   1.732  1.00  0.00    -0.206 F 
ATOM     85  C   UNL     1       4.676 -20.159   4.848  1.00  0.00     0.022 A 
BRANCH  82  86
ATOM     86  S   UNL     1       4.635 -22.789   5.706  1.00  0.00     0.124 S 
ATOM     87  O   UNL     1       3.294 -23.356   5.774  1.00  0.00    -0.237 OA
ATOM     88  O   UNL     1       5.671 -23.631   5.121  1.00  0.00    -0.237 OA
ATOM     89  O   UNL     1       5.049 -22.056   6.905  1.00  0.00    -0.744 OA
ENDBRANCH  82  86
ENDBRANCH  55  79
BRANCH  67  90
ATOM     90  C   UNL     1       3.278 -23.800  -3.369  1.00  0.00     0.023 A 
ATOM     91  C   UNL     1       2.086 -23.140  -2.986  1.00  0.00     0.031 A 
ATOM     92  C   UNL     1       3.154 -25.009  -4.076  1.00  0.00     0.131 A 
ATOM     93  C   UNL     1       0.834 -23.706  -3.308  1.00  0.00     0.055 A 
ATOM     94  C   UNL     1       1.916 -25.552  -4.411  1.00  0.00     0.041 A 
ATOM     95  F   UNL     1       4.249 -25.670  -4.487  1.00  0.00    -0.206 F 
ATOM     96  C   UNL     1       0.750 -24.905  -4.023  1.00  0.00     0.022 A 
BRANCH  93  97
ATOM     97  S   UNL     1      -0.720 -22.905  -2.784  1.00  0.00     0.124 S 
ATOM     98  O   UNL     1      -0.490 -22.599  -1.377  1.00  0.00    -0.237 OA
ATOM     99  O   UNL     1      -0.802 -21.755  -3.681  1.00  0.00    -0.237 OA
ATOM    100  O   UNL     1      -1.732 -23.935  -3.025  1.00  0.00    -0.744 OA
ENDBRANCH  93  97
ENDBRANCH  67  90
ENDBRANCH  41  42
ENDBRANCH  33  36
ENDBRANCH  31  32
ENDBRANCH  30  31
ENDBRANCH   1  30
TORSDOF 18
