REMARK SMILES Cc1ccc(C)n1-c1ccc(O)cc1C(=O)NCCCCNC(=O)c1ccc(-c2c3nc(c(-c4cc(S(=O)(=O)[O-])ccc4F)c4ccc([nH]4)c(-c4cc(S(=O)(=O)[O-])ccc4F)c4nc(c(-c5cc(S(=O)(=O)[O-])ccc5F)c5ccc2[nH]5)C=C4)C=C3)cc1
REMARK SMILES IDX 20 1 19 2 18 3 17 4 15 5 16 6 14 8 8 9 9 10 10 11 13 12
REMARK SMILES IDX 11 13 7 14 1 15 2 16 3 17 4 18 5 19 6 20 12 21 21 23 22 24
REMARK SMILES IDX 23 25 24 27 25 28 26 29 87 30 27 31 86 32 28 33 29 34 30 35
REMARK SMILES IDX 80 36 31 37 85 38 79 39 81 40 32 41 84 42 78 43 77 44 33 46
REMARK SMILES IDX 65 47 45 48 64 49 46 50 49 51 63 52 82 53 47 54 48 55 62 57
REMARK SMILES IDX 83 58 50 59 34 60 35 61 43 62 36 63 42 64 44 65 41 66 37 67
REMARK SMILES IDX 38 68 39 69 40 70 66 71 67 72 75 73 68 74 74 75 76 76 73 77
REMARK SMILES IDX 69 78 70 79 71 80 72 81 51 82 52 83 60 84 53 85 59 86 61 87
REMARK SMILES IDX 58 88 54 89 55 90 56 91 57 92
REMARK H PARENT 17 7 12 22 22 26 81 45 49 56
REMARK Flexibility Score: inf
ROOT
ATOM      1  C   UNL     1       4.063  -3.205   3.698  1.00  0.00     0.023 C 
ENDROOT
BRANCH   1   2
ATOM      2  C   UNL     1       3.488  -2.182   2.700  1.00  0.00     0.023 C 
BRANCH   2   3
ATOM      3  C   UNL     1       2.147  -1.512   2.970  1.00  0.00     0.116 C 
BRANCH   3   4
ATOM      4  N   UNL     1       2.001  -0.769   4.191  1.00  0.00    -0.352 N 
ATOM      5  C   UNL     1       1.028   0.110   4.604  1.00  0.00     0.253 C 
ATOM      6  O   UNL     1       1.080   0.427   5.798  1.00  0.00    -0.269 OA
ATOM      7  H   UNL     1       2.723  -0.915   4.845  1.00  0.00     0.163 HD
BRANCH   5   8
ATOM      8  C   UNL     1      -0.013   0.790   3.752  1.00  0.00     0.067 A 
ATOM      9  C   UNL     1      -0.721   0.355   2.618  1.00  0.00     0.058 A 
ATOM     10  C   UNL     1      -1.682   1.188   1.989  1.00  0.00     0.031 A 
ATOM     11  C   UNL     1      -1.959   2.461   2.470  1.00  0.00     0.048 A 
ATOM     12  C   UNL     1      -0.324   2.096   4.212  1.00  0.00     0.062 A 
ATOM     13  C   UNL     1      -1.275   2.905   3.586  1.00  0.00     0.116 A 
BRANCH   9  14
ATOM     14  N   UNL     1      -0.631  -0.933   2.050  1.00  0.00    -0.318 N 
ATOM     15  C   UNL     1       0.410  -0.187  -0.164  1.00  0.00     0.065 C 
ATOM     16  C   UNL     1      -0.228  -1.194   0.738  1.00  0.00     0.020 A 
ATOM     17  C   UNL     1      -0.394  -2.546   0.507  1.00  0.00     0.023 A 
ATOM     18  C   UNL     1      -0.928  -3.121   1.678  1.00  0.00     0.023 A 
ATOM     19  C   UNL     1      -1.077  -2.117   2.619  1.00  0.00     0.020 A 
ATOM     20  C   UNL     1      -1.592  -2.242   4.012  1.00  0.00     0.065 C 
ENDBRANCH   9  14
BRANCH  13  21
ATOM     21  O   UNL     1      -1.515   4.141   4.111  1.00  0.00    -0.508 OA
ATOM     22  H   UNL     1      -2.148   4.705   3.712  1.00  0.00     0.293 HD
ENDBRANCH  13  21
ENDBRANCH   5   8
ENDBRANCH   3   4
ENDBRANCH   2   3
ENDBRANCH   1   2
BRANCH   1  23
ATOM     23  C   UNL     1       3.152  -3.848   4.753  1.00  0.00     0.116 C 
BRANCH  23  24
ATOM     24  N   UNL     1       2.941  -5.263   4.536  1.00  0.00    -0.352 N 
ATOM     25  C   UNL     1       2.876  -6.277   5.470  1.00  0.00     0.251 C 
ATOM     26  H   UNL     1       2.830  -5.540   3.598  1.00  0.00     0.163 HD
ATOM     27  O   UNL     1       2.481  -7.379   5.101  1.00  0.00    -0.269 OA
BRANCH  25  28
ATOM     28  C   UNL     1       3.359  -6.082   6.871  1.00  0.00     0.039 A 
ATOM     29  C   UNL     1       4.710  -6.273   7.116  1.00  0.00     0.014 A 
ATOM     30  C   UNL     1       2.500  -5.941   7.974  1.00  0.00     0.014 A 
ATOM     31  C   UNL     1       5.185  -6.314   8.444  1.00  0.00     0.010 A 
ATOM     32  C   UNL     1       2.980  -6.056   9.325  1.00  0.00     0.010 A 
ATOM     33  C   UNL     1       4.335  -6.293   9.599  1.00  0.00    -0.014 A 
BRANCH  33  34
ATOM     34  C   UNL     1       4.892  -7.029  10.849  1.00  0.00     0.031 A 
ATOM     35  C   UNL     1       5.479  -8.301  10.327  1.00  0.00     0.074 A 
ATOM     36  C   UNL     1       4.958  -6.898  12.219  1.00  0.00     0.049 A 
ATOM     37  N   UNL     1       4.802  -9.125   9.576  1.00  0.00    -0.248 NA
ATOM     38  C   UNL     1       6.930  -8.509  10.318  1.00  0.00     0.031 C 
ATOM     39  C   UNL     1       4.383  -5.847  13.063  1.00  0.00     0.029 A 
ATOM     40  N   UNL     1       5.597  -7.702  13.192  1.00  0.00    -0.354 N 
ATOM     41  C   UNL     1       5.676 -10.137   9.273  1.00  0.00     0.074 A 
ATOM     42  C   UNL     1       6.995  -9.584   9.530  1.00  0.00     0.031 C 
ATOM     43  C   UNL     1       4.782  -5.991  14.358  1.00  0.00     0.029 A 
ATOM     44  C   UNL     1       5.618  -7.179  14.514  1.00  0.00     0.049 A 
ATOM     45  H   UNL     1       6.003  -8.570  12.967  1.00  0.00     0.167 HD
ATOM     46  C   UNL     1       5.265 -11.425   9.448  1.00  0.00     0.034 A 
ATOM     47  C   UNL     1       6.218  -7.668  15.657  1.00  0.00     0.034 A 
ATOM     48  C   UNL     1       5.973 -12.080  10.516  1.00  0.00     0.049 A 
ATOM     49  C   UNL     1       6.515  -9.090  15.454  1.00  0.00     0.074 A 
ATOM     50  C   UNL     1       7.303 -12.224  10.854  1.00  0.00     0.029 A 
ATOM     51  N   UNL     1       5.251 -12.307  11.669  1.00  0.00    -0.354 N 
ATOM     52  N   UNL     1       5.598  -9.997  15.550  1.00  0.00    -0.248 NA
ATOM     53  C   UNL     1       7.867  -9.586  15.222  1.00  0.00     0.031 C 
ATOM     54  C   UNL     1       7.351 -12.085  12.268  1.00  0.00     0.029 A 
ATOM     55  C   UNL     1       6.053 -12.088  12.771  1.00  0.00     0.049 A 
ATOM     56  H   UNL     1       4.307 -12.583  11.701  1.00  0.00     0.167 HD
ATOM     57  C   UNL     1       6.145 -11.081  14.939  1.00  0.00     0.074 A 
ATOM     58  C   UNL     1       7.577 -10.872  15.010  1.00  0.00     0.031 C 
ATOM     59  C   UNL     1       5.394 -11.734  14.019  1.00  0.00     0.034 A 
BRANCH  46  60
ATOM     60  C   UNL     1       3.825 -11.693   9.111  1.00  0.00     0.023 A 
ATOM     61  C   UNL     1       3.509 -12.441   7.970  1.00  0.00     0.031 A 
ATOM     62  C   UNL     1       2.761 -11.144   9.856  1.00  0.00     0.131 A 
ATOM     63  C   UNL     1       2.167 -12.575   7.574  1.00  0.00     0.055 A 
ATOM     64  C   UNL     1       1.437 -11.231   9.432  1.00  0.00     0.041 A 
ATOM     65  F   UNL     1       2.999 -10.522  11.023  1.00  0.00    -0.206 F 
ATOM     66  C   UNL     1       1.135 -11.941   8.275  1.00  0.00     0.022 A 
BRANCH  63  67
ATOM     67  S   UNL     1       1.783 -13.624   6.145  1.00  0.00     0.124 S 
ATOM     68  O   UNL     1       2.527 -12.985   5.066  1.00  0.00    -0.237 OA
ATOM     69  O   UNL     1       2.289 -14.924   6.572  1.00  0.00    -0.237 OA
ATOM     70  O   UNL     1       0.326 -13.540   6.029  1.00  0.00    -0.744 OA
ENDBRANCH  63  67
ENDBRANCH  46  60
BRANCH  47  71
ATOM     71  C   UNL     1       6.556  -7.237  17.078  1.00  0.00     0.023 A 
ATOM     72  C   UNL     1       6.768  -8.221  18.107  1.00  0.00     0.031 A 
ATOM     73  C   UNL     1       7.005  -5.949  17.380  1.00  0.00     0.131 A 
ATOM     74  C   UNL     1       7.457  -7.929  19.304  1.00  0.00     0.055 A 
ATOM     75  C   UNL     1       7.658  -5.649  18.594  1.00  0.00     0.041 A 
ATOM     76  F   UNL     1       6.922  -4.968  16.469  1.00  0.00    -0.206 F 
ATOM     77  C   UNL     1       7.908  -6.638  19.547  1.00  0.00     0.022 A 
BRANCH  74  78
ATOM     78  S   UNL     1       7.973  -9.271  20.445  1.00  0.00     0.124 S 
ATOM     79  O   UNL     1       6.757  -9.540  21.201  1.00  0.00    -0.237 OA
ATOM     80  O   UNL     1       8.418 -10.320  19.531  1.00  0.00    -0.237 OA
ATOM     81  O   UNL     1       9.053  -8.657  21.220  1.00  0.00    -0.744 OA
ENDBRANCH  74  78
ENDBRANCH  47  71
BRANCH  59  82
ATOM     82  C   UNL     1       3.874 -11.808  14.258  1.00  0.00     0.023 A 
ATOM     83  C   UNL     1       3.056 -10.791  14.824  1.00  0.00     0.031 A 
ATOM     84  C   UNL     1       3.217 -13.009  13.942  1.00  0.00     0.131 A 
ATOM     85  C   UNL     1       1.690 -11.006  15.097  1.00  0.00     0.055 A 
ATOM     86  C   UNL     1       1.848 -13.204  14.155  1.00  0.00     0.041 A 
ATOM     87  F   UNL     1       3.901 -14.036  13.410  1.00  0.00    -0.206 F 
ATOM     88  C   UNL     1       1.082 -12.210  14.753  1.00  0.00     0.022 A 
BRANCH  85  89
ATOM     89  S   UNL     1       0.719  -9.748  15.997  1.00  0.00     0.124 S 
ATOM     90  O   UNL     1       1.571  -9.409  17.131  1.00  0.00    -0.237 OA
ATOM     91  O   UNL     1       0.543  -8.700  14.996  1.00  0.00    -0.237 OA
ATOM     92  O   UNL     1      -0.509 -10.461  16.357  1.00  0.00    -0.744 OA
ENDBRANCH  85  89
ENDBRANCH  59  82
ENDBRANCH  33  34
ENDBRANCH  25  28
ENDBRANCH  23  24
ENDBRANCH   1  23
TORSDOF 16
