REMARK SMILES CCN(CC)c1ncc(NC(=O)c2ccc(C)cc2)cc1C(=O)NCCCCNC(=O)c1ccc(-c2c3nc(c(-c4cc(S(=O)(=O)[O-])ccc4F)c4ccc([nH]4)c(-c4cc(S(=O)(=O)[O-])ccc4F)c4nc(c(-c5cc(S(=O)(=O)[O-])ccc5F)c5ccc2[nH]5)C=C4)C=C3)cc1
REMARK SMILES IDX 27 1 26 2 25 3 24 4 22 5 23 6 21 8 6 9 7 10 8 11 20 12 9 13
REMARK SMILES IDX 3 14 2 15 1 16 4 17 5 18 10 19 11 20 12 22 13 23 14 24 19 25
REMARK SMILES IDX 15 26 18 27 16 28 17 29 28 30 29 31 30 32 31 34 32 35 33 36
REMARK SMILES IDX 94 37 34 38 93 39 35 40 36 41 37 42 87 43 38 44 92 45 86 46
REMARK SMILES IDX 88 47 39 48 91 49 85 50 84 51 40 53 72 54 52 55 71 56 53 57
REMARK SMILES IDX 56 58 70 59 89 60 54 61 55 62 69 64 90 65 57 66 41 67 42 68
REMARK SMILES IDX 50 69 43 70 49 71 51 72 48 73 44 74 45 75 46 76 47 77 73 78
REMARK SMILES IDX 74 79 82 80 75 81 81 82 83 83 80 84 76 85 77 86 78 87 79 88
REMARK SMILES IDX 58 89 59 90 67 91 60 92 66 93 68 94 65 95 61 96 62 97 63 98
REMARK SMILES IDX 64 99
REMARK H PARENT 24 7 10 21 29 33 88 52 56 63
REMARK Flexibility Score: inf
ROOT
ATOM      1  C   UNL     1       5.343   2.732   0.122  1.00  0.00     0.023 C 
ENDROOT
BRANCH   1   2
ATOM      2  C   UNL     1       5.759   1.276   0.360  1.00  0.00     0.023 C 
BRANCH   2   3
ATOM      3  C   UNL     1       5.309   0.661   1.688  1.00  0.00     0.116 C 
BRANCH   3   4
ATOM      4  N   UNL     1       3.872   0.400   1.802  1.00  0.00    -0.352 N 
ATOM      5  C   UNL     1       3.030  -0.677   1.606  1.00  0.00     0.255 C 
ATOM      6  O   UNL     1       1.898  -0.544   2.079  1.00  0.00    -0.269 OA
ATOM      7  H   UNL     1       3.379   1.200   2.095  1.00  0.00     0.163 HD
BRANCH   5   8
ATOM      8  C   UNL     1       3.386  -1.933   0.876  1.00  0.00     0.084 A 
ATOM      9  C   UNL     1       2.409  -2.715   0.213  1.00  0.00     0.141 A 
ATOM     10  N   UNL     1       2.736  -3.903  -0.362  1.00  0.00    -0.236 NA
ATOM     11  C   UNL     1       4.015  -4.331  -0.317  1.00  0.00     0.139 A 
ATOM     12  C   UNL     1       4.694  -2.443   0.917  1.00  0.00     0.045 A 
ATOM     13  C   UNL     1       5.046  -3.615   0.252  1.00  0.00     0.060 A 
BRANCH   9  14
ATOM     14  N   UNL     1       1.071  -2.375   0.082  1.00  0.00    -0.357 N 
BRANCH  14  15
ATOM     15  C   UNL     1       0.688  -1.528  -1.041  1.00  0.00     0.114 C 
ATOM     16  C   UNL     1       0.544  -0.072  -0.633  1.00  0.00     0.027 C 
ENDBRANCH  14  15
BRANCH  14  17
ATOM     17  C   UNL     1       0.089  -3.336   0.594  1.00  0.00     0.114 C 
ATOM     18  C   UNL     1      -0.184  -4.510  -0.346  1.00  0.00     0.027 C 
ENDBRANCH  14  17
ENDBRANCH   9  14
BRANCH  13  19
ATOM     19  N   UNL     1       6.404  -3.988   0.245  1.00  0.00    -0.321 N 
ATOM     20  C   UNL     1       7.098  -4.902  -0.517  1.00  0.00     0.255 C 
ATOM     21  H   UNL     1       6.957  -3.509   0.904  1.00  0.00     0.170 HD
ATOM     22  O   UNL     1       8.213  -5.282  -0.165  1.00  0.00    -0.269 OA
BRANCH  20  23
ATOM     23  C   UNL     1       6.568  -5.425  -1.799  1.00  0.00     0.040 A 
ATOM     24  C   UNL     1       6.783  -6.775  -2.097  1.00  0.00     0.014 A 
ATOM     25  C   UNL     1       5.917  -4.607  -2.729  1.00  0.00     0.014 A 
ATOM     26  C   UNL     1       6.275  -7.322  -3.276  1.00  0.00     0.004 A 
ATOM     27  C   UNL     1       5.387  -5.162  -3.897  1.00  0.00     0.004 A 
ATOM     28  C   UNL     1       5.543  -6.528  -4.167  1.00  0.00    -0.051 A 
ATOM     29  C   UNL     1       4.981  -7.130  -5.420  1.00  0.00     0.044 C 
ENDBRANCH  20  23
ENDBRANCH  13  19
ENDBRANCH   5   8
ENDBRANCH   3   4
ENDBRANCH   2   3
ENDBRANCH   1   2
BRANCH   1  30
ATOM     30  C   UNL     1       5.790   3.731   1.189  1.00  0.00     0.116 C 
BRANCH  30  31
ATOM     31  N   UNL     1       7.139   4.262   1.068  1.00  0.00    -0.352 N 
ATOM     32  C   UNL     1       7.843   5.060   1.963  1.00  0.00     0.251 C 
ATOM     33  H   UNL     1       7.619   4.024   0.242  1.00  0.00     0.163 HD
ATOM     34  O   UNL     1       8.887   5.604   1.633  1.00  0.00    -0.269 OA
BRANCH  32  35
ATOM     35  C   UNL     1       7.376   5.163   3.372  1.00  0.00     0.039 A 
ATOM     36  C   UNL     1       8.315   4.923   4.385  1.00  0.00     0.014 A 
ATOM     37  C   UNL     1       6.025   5.264   3.688  1.00  0.00     0.014 A 
ATOM     38  C   UNL     1       7.877   4.530   5.649  1.00  0.00     0.010 A 
ATOM     39  C   UNL     1       5.586   4.780   4.907  1.00  0.00     0.010 A 
ATOM     40  C   UNL     1       6.512   4.343   5.859  1.00  0.00    -0.014 A 
BRANCH  40  41
ATOM     41  C   UNL     1       5.972   3.553   6.962  1.00  0.00     0.031 A 
ATOM     42  C   UNL     1       5.234   4.191   8.070  1.00  0.00     0.074 A 
ATOM     43  C   UNL     1       6.103   2.208   6.939  1.00  0.00     0.049 A 
ATOM     44  N   UNL     1       5.053   3.649   9.227  1.00  0.00    -0.248 NA
ATOM     45  C   UNL     1       4.714   5.550   7.992  1.00  0.00     0.031 C 
ATOM     46  C   UNL     1       5.413   1.230   7.776  1.00  0.00     0.029 A 
ATOM     47  N   UNL     1       7.100   1.475   6.302  1.00  0.00    -0.354 N 
ATOM     48  C   UNL     1       4.163   4.428   9.927  1.00  0.00     0.074 A 
ATOM     49  C   UNL     1       4.100   5.656   9.175  1.00  0.00     0.031 C 
ATOM     50  C   UNL     1       6.137   0.101   7.811  1.00  0.00     0.029 A 
ATOM     51  C   UNL     1       7.381   0.361   7.113  1.00  0.00     0.049 A 
ATOM     52  H   UNL     1       7.529   1.695   5.444  1.00  0.00     0.167 HD
ATOM     53  C   UNL     1       3.491   3.874  10.979  1.00  0.00     0.034 A 
ATOM     54  C   UNL     1       8.629   0.164   7.628  1.00  0.00     0.034 A 
ATOM     55  C   UNL     1       4.077   2.579  11.351  1.00  0.00     0.049 A 
ATOM     56  C   UNL     1       8.663   0.157   9.140  1.00  0.00     0.074 A 
ATOM     57  C   UNL     1       3.670   1.265  11.186  1.00  0.00     0.029 A 
ATOM     58  N   UNL     1       5.402   2.525  11.781  1.00  0.00    -0.354 N 
ATOM     59  N   UNL     1       7.696   0.598   9.897  1.00  0.00    -0.248 NA
ATOM     60  C   UNL     1       9.793  -0.340   9.917  1.00  0.00     0.031 C 
ATOM     61  C   UNL     1       4.787   0.424  11.445  1.00  0.00     0.029 A 
ATOM     62  C   UNL     1       5.860   1.221  11.811  1.00  0.00     0.049 A 
ATOM     63  H   UNL     1       5.939   3.311  12.031  1.00  0.00     0.167 HD
ATOM     64  C   UNL     1       8.049   0.481  11.219  1.00  0.00     0.074 A 
ATOM     65  C   UNL     1       9.362  -0.140  11.175  1.00  0.00     0.031 C 
ATOM     66  C   UNL     1       7.228   0.918  12.225  1.00  0.00     0.034 A 
BRANCH  53  67
ATOM     67  C   UNL     1       2.158   4.359  11.544  1.00  0.00     0.023 A 
ATOM     68  C   UNL     1       1.455   3.518  12.440  1.00  0.00     0.031 A 
ATOM     69  C   UNL     1       1.466   5.535  11.184  1.00  0.00     0.131 A 
ATOM     70  C   UNL     1       0.147   3.823  12.879  1.00  0.00     0.055 A 
ATOM     71  C   UNL     1       0.176   5.848  11.636  1.00  0.00     0.041 A 
ATOM     72  F   UNL     1       1.970   6.457  10.363  1.00  0.00    -0.206 F 
ATOM     73  C   UNL     1      -0.498   4.986  12.477  1.00  0.00     0.022 A 
BRANCH  70  74
ATOM     74  S   UNL     1      -0.738   2.650  13.944  1.00  0.00     0.124 S 
ATOM     75  O   UNL     1      -0.790   1.454  13.109  1.00  0.00    -0.237 OA
ATOM     76  O   UNL     1       0.124   2.586  15.118  1.00  0.00    -0.237 OA
ATOM     77  O   UNL     1      -2.030   3.300  14.164  1.00  0.00    -0.744 OA
ENDBRANCH  70  74
ENDBRANCH  53  67
BRANCH  54  78
ATOM     78  C   UNL     1       9.712   0.644   6.722  1.00  0.00     0.023 A 
ATOM     79  C   UNL     1       9.748   0.080   5.427  1.00  0.00     0.031 A 
ATOM     80  C   UNL     1      10.376   1.860   6.928  1.00  0.00     0.131 A 
ATOM     81  C   UNL     1      10.266   0.812   4.351  1.00  0.00     0.055 A 
ATOM     82  C   UNL     1      10.967   2.551   5.862  1.00  0.00     0.041 A 
ATOM     83  F   UNL     1      10.348   2.461   8.127  1.00  0.00    -0.206 F 
ATOM     84  C   UNL     1      10.872   2.052   4.560  1.00  0.00     0.022 A 
BRANCH  81  85
ATOM     85  S   UNL     1       9.880   0.258   2.659  1.00  0.00     0.124 S 
ATOM     86  O   UNL     1      11.002  -0.626   2.366  1.00  0.00    -0.237 OA
ATOM     87  O   UNL     1       8.578  -0.393   2.808  1.00  0.00    -0.237 OA
ATOM     88  O   UNL     1       9.835   1.501   1.895  1.00  0.00    -0.744 OA
ENDBRANCH  81  85
ENDBRANCH  54  78
BRANCH  66  89
ATOM     89  C   UNL     1       7.595   1.030  13.696  1.00  0.00     0.023 A 
ATOM     90  C   UNL     1       8.908   0.941  14.186  1.00  0.00     0.031 A 
ATOM     91  C   UNL     1       6.606   1.308  14.675  1.00  0.00     0.131 A 
ATOM     92  C   UNL     1       9.188   1.033  15.564  1.00  0.00     0.055 A 
ATOM     93  C   UNL     1       6.895   1.477  16.034  1.00  0.00     0.041 A 
ATOM     94  F   UNL     1       5.311   1.441  14.355  1.00  0.00    -0.206 F 
ATOM     95  C   UNL     1       8.193   1.322  16.491  1.00  0.00     0.022 A 
BRANCH  92  96
ATOM     96  S   UNL     1      10.882   0.703  16.120  1.00  0.00     0.124 S 
ATOM     97  O   UNL     1      11.072  -0.683  15.700  1.00  0.00    -0.237 OA
ATOM     98  O   UNL     1      11.653   1.698  15.383  1.00  0.00    -0.237 OA
ATOM     99  O   UNL     1      10.819   0.909  17.565  1.00  0.00    -0.744 OA
ENDBRANCH  92  96
ENDBRANCH  66  89
ENDBRANCH  40  41
ENDBRANCH  32  35
ENDBRANCH  30  31
ENDBRANCH   1  30
TORSDOF 19
