REMARK SMILES CCCC[C@@H](Sc1nc(OCCC2CCCCC2)cc(OCCC2CCCCC2)n1)C(=O)NCCCCNC(=O)c1ccc(-c2c3nc(c(-c4cc(S(=O)(=O)[O-])ccc4F)c4ccc([nH]4)c(-c4cc(S(=O)(=O)[O-])ccc4F)c4nc(c(-c5cc(S(=O)(=O)[O-])ccc5F)c5ccc2[nH]5)C=C4)C=C3)cc1
REMARK SMILES IDX 34 1 33 2 31 3 32 4 5 6 4 7 3 8 2 9 1 10 6 11 7 12 8 13
REMARK SMILES IDX 30 14 9 15 20 16 19 17 10 18 11 19 12 20 13 21 14 22 18 23
REMARK SMILES IDX 15 24 17 25 16 26 21 27 22 28 23 29 24 30 25 31 29 32 26 33
REMARK SMILES IDX 28 34 27 35 35 36 36 37 37 38 38 39 39 40 40 42 41 43 42 44
REMARK SMILES IDX 103 45 43 46 102 47 44 48 45 49 46 50 96 51 47 52 101 53
REMARK SMILES IDX 95 54 97 55 48 56 100 57 94 58 93 59 49 61 81 62 61 63 80 64
REMARK SMILES IDX 62 65 65 66 79 67 98 68 63 69 64 70 78 72 99 73 66 74 50 75
REMARK SMILES IDX 51 76 59 77 52 78 58 79 60 80 57 81 53 82 54 83 55 84 56 85
REMARK SMILES IDX 82 86 83 87 91 88 84 89 90 90 92 91 89 92 85 93 86 94 87 95
REMARK SMILES IDX 88 96 67 97 68 98 76 99 69 100 75 101 77 102 74 103 70 104
REMARK SMILES IDX 71 105 72 106 73 107
REMARK H PARENT 33 5 38 41 97 60 65 71
REMARK Flexibility Score: inf
ROOT
ATOM      1  C   UNL     1      -0.505   5.472  -2.233  1.00  0.00     0.116 C 
ENDROOT
BRANCH   1   2
ATOM      2  N   UNL     1      -1.196   4.324  -2.807  1.00  0.00    -0.355 N 
ATOM      3  C   UNL     1      -1.542   3.119  -2.247  1.00  0.00     0.233 C 
ATOM      4  O   UNL     1      -2.153   2.308  -2.950  1.00  0.00    -0.274 OA
ATOM      5  H   UNL     1      -1.458   4.430  -3.749  1.00  0.00     0.163 HD
BRANCH   3   6
ATOM      6  C   UNL     1      -1.170   2.779  -0.785  1.00  0.00     0.144 C 
BRANCH   6   7
ATOM      7  C   UNL     1       0.383   2.817  -0.718  1.00  0.00     0.025 C 
BRANCH   7   8
ATOM      8  C   UNL     1       1.169   2.124   0.388  1.00  0.00     0.001 C 
BRANCH   8   9
ATOM      9  C   UNL     1       0.877   0.645   0.631  1.00  0.00    -0.003 C 
ATOM     10  C   UNL     1       1.346  -0.255  -0.498  1.00  0.00     0.004 C 
ENDBRANCH   8   9
ENDBRANCH   7   8
ENDBRANCH   6   7
BRANCH   6  11
ATOM     11  S   UNL     1      -2.329   3.883   0.190  1.00  0.00    -0.073 SA
BRANCH  11  12
ATOM     12  C   UNL     1      -2.180   3.356   1.866  1.00  0.00     0.195 A 
ATOM     13  N   UNL     1      -2.683   4.211   2.785  1.00  0.00    -0.187 NA
ATOM     14  N   UNL     1      -1.286   2.400   2.121  1.00  0.00    -0.187 NA
ATOM     15  C   UNL     1      -2.007   4.306   3.929  1.00  0.00     0.221 A 
ATOM     16  C   UNL     1      -0.624   2.552   3.259  1.00  0.00     0.221 A 
ATOM     17  C   UNL     1      -0.845   3.620   4.077  1.00  0.00     0.136 A 
BRANCH  15  18
ATOM     18  O   UNL     1      -2.543   5.125   4.895  1.00  0.00    -0.477 OA
BRANCH  18  19
ATOM     19  C   UNL     1      -1.791   5.395   6.090  1.00  0.00     0.231 C 
BRANCH  19  20
ATOM     20  C   UNL     1      -2.151   4.546   7.336  1.00  0.00     0.045 C 
BRANCH  20  21
ATOM     21  C   UNL     1      -2.117   3.020   7.141  1.00  0.00    -0.008 C 
ATOM     22  C   UNL     1      -1.467   2.247   8.301  1.00  0.00     0.004 C 
ATOM     23  C   UNL     1      -3.511   2.443   6.891  1.00  0.00     0.004 C 
ATOM     24  C   UNL     1      -1.341   0.755   7.966  1.00  0.00     0.000 C 
ATOM     25  C   UNL     1      -3.387   0.998   6.421  1.00  0.00     0.000 C 
ATOM     26  C   UNL     1      -2.624   0.126   7.417  1.00  0.00     0.000 C 
ENDBRANCH  20  21
ENDBRANCH  19  20
ENDBRANCH  18  19
ENDBRANCH  15  18
BRANCH  16  27
ATOM     27  O   UNL     1       0.507   1.787   3.422  1.00  0.00    -0.477 OA
BRANCH  27  28
ATOM     28  C   UNL     1       0.434   0.870   4.515  1.00  0.00     0.231 C 
BRANCH  28  29
ATOM     29  C   UNL     1       1.794   0.792   5.260  1.00  0.00     0.045 C 
BRANCH  29  30
ATOM     30  C   UNL     1       2.482   2.154   5.462  1.00  0.00    -0.008 C 
ATOM     31  C   UNL     1       1.649   3.134   6.281  1.00  0.00     0.004 C 
ATOM     32  C   UNL     1       3.842   2.135   6.172  1.00  0.00     0.004 C 
ATOM     33  C   UNL     1       2.130   4.532   5.911  1.00  0.00     0.000 C 
ATOM     34  C   UNL     1       4.468   3.551   6.205  1.00  0.00     0.000 C 
ATOM     35  C   UNL     1       3.509   4.714   6.521  1.00  0.00     0.000 C 
ENDBRANCH  29  30
ENDBRANCH  28  29
ENDBRANCH  27  28
ENDBRANCH  16  27
ENDBRANCH  11  12
ENDBRANCH   6  11
ENDBRANCH   3   6
ENDBRANCH   1   2
BRANCH   1  36
ATOM     36  C   UNL     1       0.882   5.655  -2.852  1.00  0.00     0.023 C 
BRANCH  36  37
ATOM     37  C   UNL     1       0.853   6.215  -4.272  1.00  0.00     0.023 C 
BRANCH  37  38
ATOM     38  C   UNL     1       0.139   7.554  -4.409  1.00  0.00     0.116 C 
BRANCH  38  39
ATOM     39  N   UNL     1       0.723   8.598  -3.577  1.00  0.00    -0.352 N 
ATOM     40  C   UNL     1       0.955   9.911  -3.912  1.00  0.00     0.251 C 
ATOM     41  H   UNL     1       0.984   8.331  -2.666  1.00  0.00     0.163 HD
ATOM     42  O   UNL     1       1.588  10.645  -3.159  1.00  0.00    -0.269 OA
BRANCH  40  43
ATOM     43  C   UNL     1       0.461  10.400  -5.214  1.00  0.00     0.039 A 
ATOM     44  C   UNL     1       1.355  11.009  -6.095  1.00  0.00     0.014 A 
ATOM     45  C   UNL     1      -0.863  10.159  -5.592  1.00  0.00     0.014 A 
ATOM     46  C   UNL     1       0.938  11.306  -7.393  1.00  0.00     0.010 A 
ATOM     47  C   UNL     1      -1.249  10.379  -6.908  1.00  0.00     0.010 A 
ATOM     48  C   UNL     1      -0.352  10.950  -7.824  1.00  0.00    -0.014 A 
BRANCH  48  49
ATOM     49  C   UNL     1      -0.783  11.160  -9.230  1.00  0.00     0.031 A 
ATOM     50  C   UNL     1      -1.929  12.085  -9.530  1.00  0.00     0.074 A 
ATOM     51  C   UNL     1      -0.190  10.468 -10.223  1.00  0.00     0.049 A 
ATOM     52  N   UNL     1      -2.513  12.338 -10.673  1.00  0.00    -0.248 NA
ATOM     53  C   UNL     1      -2.516  12.796  -8.384  1.00  0.00     0.031 C 
ATOM     54  C   UNL     1       0.910   9.515 -10.051  1.00  0.00     0.029 A 
ATOM     55  N   UNL     1      -0.430  10.453 -11.574  1.00  0.00    -0.354 N 
ATOM     56  C   UNL     1      -3.538  13.231 -10.383  1.00  0.00     0.074 A 
ATOM     57  C   UNL     1      -3.542  13.414  -8.948  1.00  0.00     0.031 C 
ATOM     58  C   UNL     1       1.268   9.035 -11.253  1.00  0.00     0.029 A 
ATOM     59  C   UNL     1       0.392   9.600 -12.274  1.00  0.00     0.049 A 
ATOM     60  H   UNL     1      -1.127  11.001 -12.003  1.00  0.00     0.167 HD
ATOM     61  C   UNL     1      -4.381  13.861 -11.239  1.00  0.00     0.034 A 
ATOM     62  C   UNL     1       0.427   9.297 -13.588  1.00  0.00     0.034 A 
ATOM     63  C   UNL     1      -4.363  13.665 -12.668  1.00  0.00     0.049 A 
ATOM     64  C   UNL     1      -0.560   9.965 -14.513  1.00  0.00     0.074 A 
ATOM     65  C   UNL     1      -5.141  14.281 -13.632  1.00  0.00     0.029 A 
ATOM     66  N   UNL     1      -3.530  12.777 -13.339  1.00  0.00    -0.354 N 
ATOM     67  N   UNL     1      -1.495  10.843 -14.231  1.00  0.00    -0.248 NA
ATOM     68  C   UNL     1      -0.481   9.606 -15.935  1.00  0.00     0.031 C 
ATOM     69  C   UNL     1      -4.834  13.712 -14.873  1.00  0.00     0.029 A 
ATOM     70  C   UNL     1      -3.802  12.803 -14.699  1.00  0.00     0.049 A 
ATOM     71  H   UNL     1      -2.847  12.212 -12.911  1.00  0.00     0.167 HD
ATOM     72  C   UNL     1      -2.092  11.166 -15.447  1.00  0.00     0.074 A 
ATOM     73  C   UNL     1      -1.402  10.399 -16.463  1.00  0.00     0.031 C 
ATOM     74  C   UNL     1      -3.113  12.024 -15.701  1.00  0.00     0.034 A 
BRANCH  61  75
ATOM     75  C   UNL     1      -5.403  14.798 -10.638  1.00  0.00     0.023 A 
ATOM     76  C   UNL     1      -5.018  15.934  -9.903  1.00  0.00     0.031 A 
ATOM     77  C   UNL     1      -6.778  14.534 -10.764  1.00  0.00     0.131 A 
ATOM     78  C   UNL     1      -5.987  16.710  -9.252  1.00  0.00     0.055 A 
ATOM     79  C   UNL     1      -7.743  15.363 -10.188  1.00  0.00     0.041 A 
ATOM     80  F   UNL     1      -7.208  13.453 -11.433  1.00  0.00    -0.206 F 
ATOM     81  C   UNL     1      -7.349  16.449  -9.412  1.00  0.00     0.022 A 
BRANCH  78  82
ATOM     82  S   UNL     1      -5.434  17.962  -8.061  1.00  0.00     0.124 S 
ATOM     83  O   UNL     1      -4.662  17.153  -7.120  1.00  0.00    -0.237 OA
ATOM     84  O   UNL     1      -4.666  18.876  -8.898  1.00  0.00    -0.237 OA
ATOM     85  O   UNL     1      -6.682  18.503  -7.527  1.00  0.00    -0.744 OA
ENDBRANCH  78  82
ENDBRANCH  61  75
BRANCH  62  86
ATOM     86  C   UNL     1       1.417   8.313 -14.113  1.00  0.00     0.023 A 
ATOM     87  C   UNL     1       2.403   8.704 -15.033  1.00  0.00     0.031 A 
ATOM     88  C   UNL     1       1.365   6.958 -13.741  1.00  0.00     0.131 A 
ATOM     89  C   UNL     1       3.264   7.744 -15.587  1.00  0.00     0.055 A 
ATOM     90  C   UNL     1       2.262   6.017 -14.251  1.00  0.00     0.041 A 
ATOM     91  F   UNL     1       0.444   6.529 -12.863  1.00  0.00    -0.206 F 
ATOM     92  C   UNL     1       3.210   6.406 -15.191  1.00  0.00     0.022 A 
BRANCH  89  93
ATOM     93  S   UNL     1       4.401   8.256 -16.905  1.00  0.00     0.124 S 
ATOM     94  O   UNL     1       3.477   8.774 -17.907  1.00  0.00    -0.237 OA
ATOM     95  O   UNL     1       5.230   9.244 -16.223  1.00  0.00    -0.237 OA
ATOM     96  O   UNL     1       5.083   7.015 -17.266  1.00  0.00    -0.744 OA
ENDBRANCH  89  93
ENDBRANCH  62  86
BRANCH  74  97
ATOM     97  C   UNL     1      -3.510  12.213 -17.146  1.00  0.00     0.023 A 
ATOM     98  C   UNL     1      -4.087  11.177 -17.900  1.00  0.00     0.031 A 
ATOM     99  C   UNL     1      -3.303  13.453 -17.777  1.00  0.00     0.131 A 
ATOM    100  C   UNL     1      -4.389  11.383 -19.255  1.00  0.00     0.055 A 
ATOM    101  C   UNL     1      -3.665  13.672 -19.106  1.00  0.00     0.041 A 
ATOM    102  F   UNL     1      -2.751  14.478 -17.107  1.00  0.00    -0.206 F 
ATOM    103  C   UNL     1      -4.200  12.630 -19.857  1.00  0.00     0.022 A 
BRANCH 100 104
ATOM    104  S   UNL     1      -4.950   9.973 -20.248  1.00  0.00     0.124 S 
ATOM    105  O   UNL     1      -3.834   9.042 -20.111  1.00  0.00    -0.237 OA
ATOM    106  O   UNL     1      -6.186   9.588 -19.575  1.00  0.00    -0.237 OA
ATOM    107  O   UNL     1      -5.123  10.540 -21.584  1.00  0.00    -0.744 OA
ENDBRANCH 100 104
ENDBRANCH  74  97
ENDBRANCH  48  49
ENDBRANCH  40  43
ENDBRANCH  38  39
ENDBRANCH  37  38
ENDBRANCH  36  37
ENDBRANCH   1  36
TORSDOF 27
