REMARK SMILES CC1(C)[C@H](C(=O)N(Cc2ccccc2)Cc2ccccc2)CC[C@@]1(C)C(=O)NCCCCNC(=O)c1ccc(-c2c3nc(c(-c4cc(S(=O)(=O)[O-])ccc4F)c4ccc([nH]4)c(-c4cc(S(=O)(=O)[O-])ccc4F)c4nc(c(-c5cc(S(=O)(=O)[O-])ccc5F)c5ccc2[nH]5)C=C4)C=C3)cc1
REMARK SMILES IDX 30 1 29 2 28 3 26 4 27 5 24 7 1 8 2 9 3 10 4 11 22 12 23 13
REMARK SMILES IDX 25 14 5 15 6 16 7 17 8 18 9 19 10 20 14 21 11 22 13 23 12 24
REMARK SMILES IDX 15 25 16 26 17 27 21 28 18 29 20 30 19 31 31 32 32 33 33 34
REMARK SMILES IDX 34 35 35 37 36 38 37 39 98 40 38 41 97 42 39 43 40 44 41 45
REMARK SMILES IDX 91 46 42 47 96 48 90 49 92 50 43 51 95 52 89 53 88 54 44 56
REMARK SMILES IDX 76 57 56 58 75 59 57 60 60 61 74 62 93 63 58 64 59 65 73 67
REMARK SMILES IDX 94 68 61 69 45 70 46 71 54 72 47 73 53 74 55 75 52 76 48 77
REMARK SMILES IDX 49 78 50 79 51 80 77 81 78 82 86 83 79 84 85 85 87 86 84 87
REMARK SMILES IDX 80 88 81 89 82 90 83 91 62 92 63 93 71 94 64 95 70 96 72 97
REMARK SMILES IDX 69 98 65 99 66 100 67 101 68 102
REMARK H PARENT 28 6 33 36 92 55 60 66
REMARK Flexibility Score: inf
ROOT
ATOM      1  C   UNL     1       0.859   5.131  -1.202  1.00  0.00     0.023 C 
ENDROOT
BRANCH   1   2
ATOM      2  C   UNL     1       1.208   3.811  -0.511  1.00  0.00     0.116 C 
BRANCH   2   3
ATOM      3  N   UNL     1       0.001   3.173  -0.034  1.00  0.00    -0.356 N 
ATOM      4  C   UNL     1      -0.867   2.317  -0.632  1.00  0.00     0.226 C 
ATOM      5  O   UNL     1      -1.978   2.233  -0.098  1.00  0.00    -0.274 OA
ATOM      6  H   UNL     1      -0.234   3.401   0.895  1.00  0.00     0.163 HD
BRANCH   4   7
ATOM      7  C   UNL     1      -0.472   1.396  -1.815  1.00  0.00     0.052 C 
ATOM      8  C   UNL     1       0.312  -0.109   0.227  1.00  0.00     0.013 C 
ATOM      9  C   UNL     1       0.314   0.085  -1.314  1.00  0.00    -0.010 C 
ATOM     10  C   UNL     1       1.786   0.111  -1.700  1.00  0.00     0.013 C 
ATOM     11  C   UNL     1      -0.506  -1.097  -1.929  1.00  0.00     0.085 C 
ATOM     12  C   UNL     1      -1.363  -0.530  -3.044  1.00  0.00     0.015 C 
ATOM     13  C   UNL     1      -1.782   0.804  -2.438  1.00  0.00     0.018 C 
ATOM     14  C   UNL     1       0.178   2.165  -2.992  1.00  0.00     0.022 C 
BRANCH  11  15
ATOM     15  C   UNL     1       0.042  -2.517  -2.118  1.00  0.00     0.226 C 
ATOM     16  O   UNL     1      -0.481  -3.380  -1.390  1.00  0.00    -0.275 OA
ATOM     17  N   UNL     1       1.014  -2.908  -3.031  1.00  0.00    -0.334 N 
BRANCH  17  18
ATOM     18  C   UNL     1       1.554  -2.143  -4.172  1.00  0.00     0.155 C 
BRANCH  18  19
ATOM     19  C   UNL     1       3.047  -1.828  -4.166  1.00  0.00    -0.029 A 
ATOM     20  C   UNL     1       4.042  -2.770  -3.876  1.00  0.00     0.005 A 
ATOM     21  C   UNL     1       3.478  -0.529  -4.500  1.00  0.00     0.005 A 
ATOM     22  C   UNL     1       5.387  -2.400  -3.767  1.00  0.00     0.000 A 
ATOM     23  C   UNL     1       4.819  -0.151  -4.380  1.00  0.00     0.000 A 
ATOM     24  C   UNL     1       5.772  -1.084  -3.990  1.00  0.00     0.000 A 
ENDBRANCH  18  19
ENDBRANCH  17  18
BRANCH  17  25
ATOM     25  C   UNL     1       1.310  -4.350  -3.010  1.00  0.00     0.155 C 
BRANCH  25  26
ATOM     26  C   UNL     1       2.081  -4.842  -1.795  1.00  0.00    -0.029 A 
ATOM     27  C   UNL     1       2.069  -6.211  -1.488  1.00  0.00     0.005 A 
ATOM     28  C   UNL     1       2.814  -3.984  -0.960  1.00  0.00     0.005 A 
ATOM     29  C   UNL     1       2.744  -6.698  -0.366  1.00  0.00     0.000 A 
ATOM     30  C   UNL     1       3.487  -4.469   0.162  1.00  0.00     0.000 A 
ATOM     31  C   UNL     1       3.449  -5.826   0.461  1.00  0.00     0.000 A 
ENDBRANCH  25  26
ENDBRANCH  17  25
ENDBRANCH  11  15
ENDBRANCH   4   7
ENDBRANCH   2   3
ENDBRANCH   1   2
BRANCH   1  32
ATOM     32  C   UNL     1       0.495   6.258  -0.229  1.00  0.00     0.023 C 
BRANCH  32  33
ATOM     33  C   UNL     1       1.599   6.627   0.753  1.00  0.00     0.116 C 
BRANCH  33  34
ATOM     34  N   UNL     1       2.847   6.988   0.097  1.00  0.00    -0.352 N 
ATOM     35  C   UNL     1       3.802   7.877   0.537  1.00  0.00     0.251 C 
ATOM     36  H   UNL     1       3.030   6.545  -0.763  1.00  0.00     0.163 HD
ATOM     37  O   UNL     1       4.752   8.174  -0.168  1.00  0.00    -0.269 OA
BRANCH  35  38
ATOM     38  C   UNL     1       3.611   8.486   1.868  1.00  0.00     0.039 A 
ATOM     39  C   UNL     1       3.555   9.877   1.976  1.00  0.00     0.014 A 
ATOM     40  C   UNL     1       3.390   7.668   2.978  1.00  0.00     0.014 A 
ATOM     41  C   UNL     1       3.209  10.452   3.200  1.00  0.00     0.010 A 
ATOM     42  C   UNL     1       2.976   8.241   4.173  1.00  0.00     0.010 A 
ATOM     43  C   UNL     1       2.884   9.637   4.296  1.00  0.00    -0.014 A 
BRANCH  43  44
ATOM     44  C   UNL     1       2.478  10.208   5.603  1.00  0.00     0.031 A 
ATOM     45  C   UNL     1       3.344   9.969   6.807  1.00  0.00     0.074 A 
ATOM     46  C   UNL     1       1.300  10.850   5.726  1.00  0.00     0.049 A 
ATOM     47  N   UNL     1       3.112  10.233   8.066  1.00  0.00    -0.248 NA
ATOM     48  C   UNL     1       4.627   9.296   6.555  1.00  0.00     0.031 C 
ATOM     49  C   UNL     1       0.364  11.122   4.634  1.00  0.00     0.029 A 
ATOM     50  N   UNL     1       0.684  11.379   6.831  1.00  0.00    -0.354 N 
ATOM     51  C   UNL     1       4.208   9.733   8.761  1.00  0.00     0.074 A 
ATOM     52  C   UNL     1       5.061   9.086   7.787  1.00  0.00     0.031 C 
ATOM     53  C   UNL     1      -0.694  11.790   5.120  1.00  0.00     0.029 A 
ATOM     54  C   UNL     1      -0.537  11.950   6.563  1.00  0.00     0.049 A 
ATOM     55  H   UNL     1       1.079  11.352   7.732  1.00  0.00     0.167 HD
ATOM     56  C   UNL     1       4.489   9.828  10.085  1.00  0.00     0.034 A 
ATOM     57  C   UNL     1      -1.431  12.526   7.390  1.00  0.00     0.034 A 
ATOM     58  C   UNL     1       3.628  10.491  11.034  1.00  0.00     0.049 A 
ATOM     59  C   UNL     1      -1.123  12.589   8.864  1.00  0.00     0.074 A 
ATOM     60  C   UNL     1       3.825  10.691  12.388  1.00  0.00     0.029 A 
ATOM     61  N   UNL     1       2.397  11.058  10.724  1.00  0.00    -0.354 N 
ATOM     62  N   UNL     1      -0.072  12.137   9.509  1.00  0.00    -0.248 NA
ATOM     63  C   UNL     1      -2.121  13.242   9.721  1.00  0.00     0.031 C 
ATOM     64  C   UNL     1       2.690  11.326  12.907  1.00  0.00     0.029 A 
ATOM     65  C   UNL     1       1.814  11.587  11.864  1.00  0.00     0.049 A 
ATOM     66  H   UNL     1       1.998  11.081   9.824  1.00  0.00     0.167 HD
ATOM     67  C   UNL     1      -0.263  12.491  10.842  1.00  0.00     0.074 A 
ATOM     68  C   UNL     1      -1.534  13.185  10.908  1.00  0.00     0.031 C 
ATOM     69  C   UNL     1       0.546  12.277  11.910  1.00  0.00     0.034 A 
BRANCH  56  70
ATOM     70  C   UNL     1       5.761   9.167  10.563  1.00  0.00     0.023 A 
ATOM     71  C   UNL     1       7.019   9.539  10.053  1.00  0.00     0.031 A 
ATOM     72  C   UNL     1       5.715   8.092  11.468  1.00  0.00     0.131 A 
ATOM     73  C   UNL     1       8.152   8.768  10.349  1.00  0.00     0.055 A 
ATOM     74  C   UNL     1       6.866   7.394  11.842  1.00  0.00     0.041 A 
ATOM     75  F   UNL     1       4.545   7.676  11.977  1.00  0.00    -0.206 F 
ATOM     76  C   UNL     1       8.090   7.714  11.261  1.00  0.00     0.022 A 
BRANCH  73  77
ATOM     77  S   UNL     1       9.651   9.031   9.361  1.00  0.00     0.124 S 
ATOM     78  O   UNL     1       9.149   8.824   8.004  1.00  0.00    -0.237 OA
ATOM     79  O   UNL     1      10.019  10.399   9.705  1.00  0.00    -0.237 OA
ATOM     80  O   UNL     1      10.565   7.997   9.842  1.00  0.00    -0.744 OA
ENDBRANCH  73  77
ENDBRANCH  56  70
BRANCH  57  81
ATOM     81  C   UNL     1      -2.692  13.103   6.848  1.00  0.00     0.023 A 
ATOM     82  C   UNL     1      -2.907  14.490   6.865  1.00  0.00     0.031 A 
ATOM     83  C   UNL     1      -3.703  12.283   6.319  1.00  0.00     0.131 A 
ATOM     84  C   UNL     1      -4.119  15.015   6.392  1.00  0.00     0.055 A 
ATOM     85  C   UNL     1      -4.891  12.813   5.811  1.00  0.00     0.041 A 
ATOM     86  F   UNL     1      -3.542  10.951   6.271  1.00  0.00    -0.206 F 
ATOM     87  C   UNL     1      -5.107  14.188   5.854  1.00  0.00     0.022 A 
BRANCH  84  88
ATOM     88  S   UNL     1      -4.404  16.801   6.534  1.00  0.00     0.124 S 
ATOM     89  O   UNL     1      -4.343  16.997   7.978  1.00  0.00    -0.237 OA
ATOM     90  O   UNL     1      -3.292  17.348   5.763  1.00  0.00    -0.237 OA
ATOM     91  O   UNL     1      -5.724  16.983   5.934  1.00  0.00    -0.744 OA
ENDBRANCH  84  88
ENDBRANCH  57  81
BRANCH  69  92
ATOM     92  C   UNL     1       0.113  12.864  13.229  1.00  0.00     0.023 A 
ATOM     93  C   UNL     1      -0.980  12.355  13.951  1.00  0.00     0.031 A 
ATOM     94  C   UNL     1       0.827  13.946  13.777  1.00  0.00     0.131 A 
ATOM     95  C   UNL     1      -1.350  12.953  15.165  1.00  0.00     0.055 A 
ATOM     96  C   UNL     1       0.484  14.504  15.008  1.00  0.00     0.041 A 
ATOM     97  F   UNL     1       1.878  14.469  13.126  1.00  0.00    -0.206 F 
ATOM     98  C   UNL     1      -0.615  14.013  15.706  1.00  0.00     0.022 A 
BRANCH  95  99
ATOM     99  S   UNL     1      -2.844  12.365  16.010  1.00  0.00     0.124 S 
ATOM    100  O   UNL     1      -3.881  12.649  15.023  1.00  0.00    -0.237 OA
ATOM    101  O   UNL     1      -2.544  10.955  16.232  1.00  0.00    -0.237 OA
ATOM    102  O   UNL     1      -2.899  13.183  17.220  1.00  0.00    -0.744 OA
ENDBRANCH  95  99
ENDBRANCH  69  92
ENDBRANCH  43  44
ENDBRANCH  35  38
ENDBRANCH  33  34
ENDBRANCH  32  33
ENDBRANCH   1  32
TORSDOF 19
