REMARK SMILES C[C@@H](C(=O)NCCCCNC(=O)c1ccc(-c2c3nc(c(-c4cc(S(=O)(=O)[O-])ccc4F)c4ccc([nH]4)c(-c4cc(S(=O)(=O)[O-])ccc4F)c4nc(c(-c5cc(S(=O)(=O)[O-])ccc5F)c5ccc2[nH]5)C=C4)C=C3)cc1)N1C(=O)CSc2cccn2-c2ccccc21
REMARK SMILES IDX 6 1 5 2 3 3 4 4 2 6 1 7 76 8 77 9 78 10 91 12 86 13 90 14
REMARK SMILES IDX 87 15 89 16 88 17 85 18 81 19 84 20 82 21 83 22 80 23 79 24
REMARK SMILES IDX 7 26 8 27 9 28 10 29 11 30 12 32 13 33 14 34 75 35 15 36
REMARK SMILES IDX 74 37 16 38 17 39 18 40 68 41 19 42 73 43 67 44 69 45 20 46
REMARK SMILES IDX 72 47 66 48 65 49 21 51 53 52 33 53 52 54 34 55 37 56 51 57
REMARK SMILES IDX 70 58 35 59 36 60 50 62 71 63 38 64 22 65 23 66 31 67 24 68
REMARK SMILES IDX 30 69 32 70 29 71 25 72 26 73 27 74 28 75 54 76 55 77 63 78
REMARK SMILES IDX 56 79 62 80 64 81 61 82 57 83 58 84 59 85 60 86 39 87 40 88
REMARK SMILES IDX 48 89 41 90 47 91 49 92 46 93 42 94 43 95 44 96 45 97
REMARK H PARENT 5 5 10 31 69 50 37 61
REMARK Flexibility Score: 80.00
ROOT
ATOM      1  C   UNL     1       1.948   1.509  -0.868  1.00  0.00     0.116 C 
ENDROOT
BRANCH   1   2
ATOM      2  N   UNL     1       0.931   1.458  -1.934  1.00  0.00    -0.354 N 
ATOM      3  C   UNL     1      -0.341   0.899  -1.996  1.00  0.00     0.242 C 
ATOM      4  O   UNL     1      -1.016   1.111  -3.006  1.00  0.00    -0.273 OA
ATOM      5  H   UNL     1       1.206   1.907  -2.766  1.00  0.00     0.163 HD
BRANCH   3   6
ATOM      6  C   UNL     1      -0.836  -0.050  -0.863  1.00  0.00     0.176 C 
ATOM      7  C   UNL     1      -0.076  -1.369  -0.966  1.00  0.00     0.042 C 
BRANCH   6   8
ATOM      8  N   UNL     1      -2.294  -0.088  -0.556  1.00  0.00    -0.297 N 
BRANCH   8   9
ATOM      9  C   UNL     1      -2.750   0.979   0.215  1.00  0.00     0.238 CG0
ATOM     10  O   UNL     1      -2.918   2.108  -0.242  1.00  0.00    -0.274 OA
ATOM     11  G   UNL     1      -3.039   0.637   1.669  1.00  0.00     0.000 G0
ENDBRANCH   8   9
BRANCH   8  12
ATOM     12  C   UNL     1      -3.267  -1.138  -0.724  1.00  0.00     0.069 A 
ATOM     13  C   UNL     1      -3.633  -2.055   0.295  1.00  0.00     0.070 A 
ATOM     14  C   UNL     1      -4.265  -0.879  -1.688  1.00  0.00     0.028 A 
ATOM     15  C   UNL     1      -4.930  -2.627   0.359  1.00  0.00     0.029 A 
ATOM     16  C   UNL     1      -5.551  -1.456  -1.623  1.00  0.00     0.002 A 
ATOM     17  C   UNL     1      -5.895  -2.305  -0.581  1.00  0.00     0.002 A 
BRANCH  13  18
ATOM     18  N   UNL     1      -2.707  -2.533   1.250  1.00  0.00    -0.310 N 
ATOM     19  C   UNL     1      -1.664  -1.897   1.888  1.00  0.00     0.080 A 
ATOM     20  C   UNL     1      -2.578  -3.890   1.524  1.00  0.00     0.092 A 
ATOM     21  C   UNL     1      -0.679  -2.853   2.075  1.00  0.00     0.035 A 
ATOM     22  C   UNL     1      -1.256  -4.118   1.829  1.00  0.00     0.021 A 
BRANCH  19  23
ATOM     23  S   UNL     1      -1.652  -0.244   2.457  1.00  0.00    -0.098 SA
BRANCH  23  24
ATOM     24  C   UNL     1      -3.039   0.637   1.669  1.00  0.00     0.177 CG0
ATOM     25  G   UNL     1      -2.750   0.979   0.215  1.00  0.00     0.000 G0
ENDBRANCH  23  24
ENDBRANCH  19  23
ENDBRANCH  13  18
ENDBRANCH   8  12
ENDBRANCH   6   8
ENDBRANCH   3   6
ENDBRANCH   1   2
BRANCH   1  26
ATOM     26  C   UNL     1       3.259   0.748  -1.171  1.00  0.00     0.023 C 
BRANCH  26  27
ATOM     27  C   UNL     1       4.214   1.378  -2.205  1.00  0.00     0.023 C 
BRANCH  27  28
ATOM     28  C   UNL     1       5.235   2.412  -1.688  1.00  0.00     0.116 C 
BRANCH  28  29
ATOM     29  N   UNL     1       6.363   1.833  -0.962  1.00  0.00    -0.352 N 
ATOM     30  C   UNL     1       7.735   1.970  -1.118  1.00  0.00     0.251 C 
ATOM     31  H   UNL     1       6.101   1.234  -0.226  1.00  0.00     0.163 HD
ATOM     32  O   UNL     1       8.473   1.309  -0.407  1.00  0.00    -0.269 OA
BRANCH  30  33
ATOM     33  C   UNL     1       8.331   2.868  -2.151  1.00  0.00     0.039 A 
ATOM     34  C   UNL     1       9.463   2.427  -2.855  1.00  0.00     0.014 A 
ATOM     35  C   UNL     1       7.830   4.142  -2.414  1.00  0.00     0.014 A 
ATOM     36  C   UNL     1      10.006   3.202  -3.893  1.00  0.00     0.010 A 
ATOM     37  C   UNL     1       8.336   4.890  -3.484  1.00  0.00     0.010 A 
ATOM     38  C   UNL     1       9.408   4.416  -4.260  1.00  0.00    -0.014 A 
BRANCH  38  39
ATOM     39  C   UNL     1       9.823   5.179  -5.475  1.00  0.00     0.031 A 
ATOM     40  C   UNL     1      10.341   6.587  -5.359  1.00  0.00     0.074 A 
ATOM     41  C   UNL     1       9.600   4.659  -6.700  1.00  0.00     0.049 A 
ATOM     42  N   UNL     1      10.534   7.484  -6.293  1.00  0.00    -0.248 NA
ATOM     43  C   UNL     1      10.651   7.052  -4.002  1.00  0.00     0.031 C 
ATOM     44  C   UNL     1       9.080   3.316  -6.965  1.00  0.00     0.029 A 
ATOM     45  N   UNL     1       9.739   5.212  -7.952  1.00  0.00    -0.354 N 
ATOM     46  C   UNL     1      10.959   8.634  -5.636  1.00  0.00     0.074 A 
ATOM     47  C   UNL     1      10.956   8.323  -4.220  1.00  0.00     0.031 C 
ATOM     48  C   UNL     1       8.924   3.158  -8.288  1.00  0.00     0.029 A 
ATOM     49  C   UNL     1       9.277   4.402  -8.965  1.00  0.00     0.049 A 
ATOM     50  H   UNL     1      10.132   6.101  -8.109  1.00  0.00     0.167 HD
ATOM     51  C   UNL     1      11.322   9.833  -6.164  1.00  0.00     0.034 A 
ATOM     52  C   UNL     1       9.106   4.638 -10.282  1.00  0.00     0.034 A 
ATOM     53  C   UNL     1      11.326  10.126  -7.580  1.00  0.00     0.049 A 
ATOM     54  C   UNL     1       9.479   5.982 -10.850  1.00  0.00     0.074 A 
ATOM     55  C   UNL     1      11.744  11.281  -8.220  1.00  0.00     0.029 A 
ATOM     56  N   UNL     1      10.875   9.268  -8.575  1.00  0.00    -0.354 N 
ATOM     57  N   UNL     1       9.918   7.048 -10.222  1.00  0.00    -0.248 NA
ATOM     58  C   UNL     1       9.341   6.154 -12.302  1.00  0.00     0.031 C 
ATOM     59  C   UNL     1      11.476  11.151  -9.588  1.00  0.00     0.029 A 
ATOM     60  C   UNL     1      10.968   9.883  -9.817  1.00  0.00     0.049 A 
ATOM     61  H   UNL     1      10.538   8.355  -8.422  1.00  0.00     0.167 HD
ATOM     62  C   UNL     1      10.135   8.007 -11.208  1.00  0.00     0.074 A 
ATOM     63  C   UNL     1       9.779   7.394 -12.471  1.00  0.00     0.031 C 
ATOM     64  C   UNL     1      10.600   9.275 -11.076  1.00  0.00     0.034 A 
BRANCH  51  65
ATOM     65  C   UNL     1      11.698  10.931  -5.194  1.00  0.00     0.023 A 
ATOM     66  C   UNL     1      12.781  10.798  -4.307  1.00  0.00     0.031 A 
ATOM     67  C   UNL     1      10.932  12.108  -5.118  1.00  0.00     0.131 A 
ATOM     68  C   UNL     1      13.002  11.770  -3.319  1.00  0.00     0.055 A 
ATOM     69  C   UNL     1      11.217  13.117  -4.195  1.00  0.00     0.041 A 
ATOM     70  F   UNL     1       9.876  12.291  -5.927  1.00  0.00    -0.206 F 
ATOM     71  C   UNL     1      12.244  12.941  -3.273  1.00  0.00     0.022 A 
BRANCH  68  72
ATOM     72  S   UNL     1      14.169  11.390  -1.983  1.00  0.00     0.124 S 
ATOM     73  O   UNL     1      13.639  10.125  -1.478  1.00  0.00    -0.237 OA
ATOM     74  O   UNL     1      15.443  11.312  -2.690  1.00  0.00    -0.237 OA
ATOM     75  O   UNL     1      14.027  12.523  -1.071  1.00  0.00    -0.744 OA
ENDBRANCH  68  72
ENDBRANCH  51  65
BRANCH  52  76
ATOM     76  C   UNL     1       8.504   3.585 -11.148  1.00  0.00     0.023 A 
ATOM     77  C   UNL     1       9.261   2.926 -12.128  1.00  0.00     0.031 A 
ATOM     78  C   UNL     1       7.153   3.221 -10.999  1.00  0.00     0.131 A 
ATOM     79  C   UNL     1       8.656   1.953 -12.939  1.00  0.00     0.055 A 
ATOM     80  C   UNL     1       6.568   2.222 -11.778  1.00  0.00     0.041 A 
ATOM     81  F   UNL     1       6.389   3.817 -10.070  1.00  0.00    -0.206 F 
ATOM     82  C   UNL     1       7.320   1.586 -12.761  1.00  0.00     0.022 A 
BRANCH  79  83
ATOM     83  S   UNL     1       9.634   1.194 -14.266  1.00  0.00     0.124 S 
ATOM     84  O   UNL     1       9.944   2.348 -15.102  1.00  0.00    -0.237 OA
ATOM     85  O   UNL     1      10.752   0.617 -13.528  1.00  0.00    -0.237 OA
ATOM     86  O   UNL     1       8.713   0.225 -14.855  1.00  0.00    -0.744 OA
ENDBRANCH  79  83
ENDBRANCH  52  76
BRANCH  64  87
ATOM     87  C   UNL     1      10.809  10.075 -12.340  1.00  0.00     0.023 A 
ATOM     88  C   UNL     1       9.735  10.531 -13.124  1.00  0.00     0.031 A 
ATOM     89  C   UNL     1      12.114  10.398 -12.755  1.00  0.00     0.131 A 
ATOM     90  C   UNL     1       9.987  11.257 -14.300  1.00  0.00     0.055 A 
ATOM     91  C   UNL     1      12.357  11.163 -13.897  1.00  0.00     0.041 A 
ATOM     92  F   UNL     1      13.178   9.985 -12.047  1.00  0.00    -0.206 F 
ATOM     93  C   UNL     1      11.290  11.591 -14.681  1.00  0.00     0.022 A 
BRANCH  90  94
ATOM     94  S   UNL     1       8.591  11.716 -15.366  1.00  0.00     0.124 S 
ATOM     95  O   UNL     1       8.045  10.412 -15.728  1.00  0.00    -0.237 OA
ATOM     96  O   UNL     1       7.769  12.527 -14.474  1.00  0.00    -0.237 OA
ATOM     97  O   UNL     1       9.222  12.449 -16.462  1.00  0.00    -0.744 OA
ENDBRANCH  90  94
ENDBRANCH  64  87
ENDBRANCH  38  39
ENDBRANCH  30  33
ENDBRANCH  28  29
ENDBRANCH  27  28
ENDBRANCH  26  27
ENDBRANCH   1  26
TORSDOF 15
