REMARK SMILES CC(C)c1ccc(C(=O)NC[C@H]2CC[C@@H](C(=O)NCCCCNC(=O)c3ccc(-c4c5nc(c(-c6cc(S(=O)(=O)[O-])ccc6F)c6ccc([nH]6)c(-c6cc(S(=O)(=O)[O-])ccc6F)c6nc(c(-c7cc(S(=O)(=O)[O-])ccc7F)c7ccc4[nH]7)C=C6)C=C5)cc3)O2)cc1
REMARK SMILES IDX 20 1 19 2 18 3 16 4 17 5 15 7 12 8 13 9 89 10 14 11 11 12
REMARK SMILES IDX 10 13 8 14 9 15 7 17 4 18 5 19 91 20 6 21 90 22 2 23 1 24
REMARK SMILES IDX 3 25 21 26 22 27 23 28 24 29 25 31 26 32 27 33 88 34 28 35
REMARK SMILES IDX 87 36 29 37 30 38 31 39 81 40 32 41 86 42 80 43 82 44 33 45
REMARK SMILES IDX 85 46 79 47 78 48 34 50 66 51 46 52 65 53 47 54 50 55 64 56
REMARK SMILES IDX 83 57 48 58 49 59 63 61 84 62 51 63 35 64 36 65 44 66 37 67
REMARK SMILES IDX 43 68 45 69 42 70 38 71 39 72 40 73 41 74 67 75 68 76 76 77
REMARK SMILES IDX 69 78 75 79 77 80 74 81 70 82 71 83 72 84 73 85 52 86 53 87
REMARK SMILES IDX 61 88 54 89 60 90 62 91 59 92 55 93 56 94 57 95 58 96
REMARK H PARENT 18 6 10 16 23 30 82 49 50 60
REMARK Flexibility Score: inf
ROOT
ATOM      1  C   UNL     1     -10.523  -6.451   2.349  1.00  0.00     0.023 C 
ENDROOT
BRANCH   1   2
ATOM      2  C   UNL     1     -10.051  -5.019   2.614  1.00  0.00     0.116 C 
BRANCH   2   3
ATOM      3  N   UNL     1      -9.404  -4.908   3.908  1.00  0.00    -0.354 N 
ATOM      4  C   UNL     1      -8.076  -4.840   4.216  1.00  0.00     0.249 C 
ATOM      5  O   UNL     1      -7.758  -4.854   5.408  1.00  0.00    -0.272 OA
ATOM      6  H   UNL     1     -10.015  -4.878   4.680  1.00  0.00     0.163 HD
BRANCH   4   7
ATOM      7  C   UNL     1      -7.031  -4.708   3.096  1.00  0.00     0.207 C 
ATOM      8  C   UNL     1      -5.315  -3.163   2.636  1.00  0.00     0.138 C 
ATOM      9  C   UNL     1      -4.738  -4.571   2.600  1.00  0.00     0.037 C 
ATOM     10  O   UNL     1      -6.737  -3.324   2.820  1.00  0.00    -0.363 OA
ATOM     11  C   UNL     1      -5.700  -5.346   3.462  1.00  0.00     0.045 C 
BRANCH   8  12
ATOM     12  C   UNL     1      -4.688  -2.299   3.754  1.00  0.00     0.148 C 
BRANCH  12  13
ATOM     13  N   UNL     1      -4.959  -0.878   3.562  1.00  0.00    -0.349 N 
ATOM     14  C   UNL     1      -5.680   0.061   4.252  1.00  0.00     0.251 C 
ATOM     15  O   UNL     1      -5.567   1.229   3.866  1.00  0.00    -0.269 OA
ATOM     16  H   UNL     1      -4.528  -0.512   2.756  1.00  0.00     0.163 HD
BRANCH  14  17
ATOM     17  C   UNL     1      -6.548  -0.225   5.428  1.00  0.00     0.039 A 
ATOM     18  C   UNL     1      -8.261  -0.574   7.670  1.00  0.00    -0.045 A 
ATOM     19  C   UNL     1      -7.707   0.678   7.383  1.00  0.00     0.005 A 
ATOM     20  C   UNL     1      -7.947  -1.642   6.819  1.00  0.00     0.005 A 
ATOM     21  C   UNL     1      -6.864   0.848   6.277  1.00  0.00     0.014 A 
ATOM     22  C   UNL     1      -7.123  -1.462   5.702  1.00  0.00     0.014 A 
BRANCH  18  23
ATOM     23  C   UNL     1      -9.169  -0.832   8.861  1.00  0.00     0.013 C 
ATOM     24  C   UNL     1      -8.346  -1.305  10.061  1.00  0.00     0.012 C 
ATOM     25  C   UNL     1     -10.051   0.357   9.254  1.00  0.00     0.012 C 
ENDBRANCH  18  23
ENDBRANCH  14  17
ENDBRANCH  12  13
ENDBRANCH   8  12
ENDBRANCH   4   7
ENDBRANCH   2   3
ENDBRANCH   1   2
BRANCH   1  26
ATOM     26  C   UNL     1     -11.615  -6.956   3.300  1.00  0.00     0.023 C 
BRANCH  26  27
ATOM     27  C   UNL     1     -12.902  -6.134   3.323  1.00  0.00     0.116 C 
BRANCH  27  28
ATOM     28  N   UNL     1     -13.582  -6.107   2.038  1.00  0.00    -0.352 N 
ATOM     29  C   UNL     1     -14.925  -6.248   1.766  1.00  0.00     0.251 C 
ATOM     30  H   UNL     1     -13.002  -5.970   1.254  1.00  0.00     0.163 HD
ATOM     31  O   UNL     1     -15.307  -6.331   0.607  1.00  0.00    -0.269 OA
BRANCH  29  32
ATOM     32  C   UNL     1     -15.892  -6.336   2.885  1.00  0.00     0.039 A 
ATOM     33  C   UNL     1     -16.843  -7.361   2.879  1.00  0.00     0.014 A 
ATOM     34  C   UNL     1     -15.846  -5.428   3.946  1.00  0.00     0.014 A 
ATOM     35  C   UNL     1     -17.695  -7.525   3.976  1.00  0.00     0.010 A 
ATOM     36  C   UNL     1     -16.654  -5.629   5.062  1.00  0.00     0.010 A 
ATOM     37  C   UNL     1     -17.578  -6.686   5.096  1.00  0.00    -0.014 A 
BRANCH  37  38
ATOM     38  C   UNL     1     -18.405  -6.885   6.316  1.00  0.00     0.031 A 
ATOM     39  C   UNL     1     -19.378  -5.818   6.739  1.00  0.00     0.074 A 
ATOM     40  C   UNL     1     -18.217  -7.973   7.090  1.00  0.00     0.049 A 
ATOM     41  N   UNL     1     -20.054  -5.706   7.853  1.00  0.00    -0.248 NA
ATOM     42  C   UNL     1     -19.594  -4.718   5.787  1.00  0.00     0.031 C 
ATOM     43  C   UNL     1     -17.293  -9.070   6.797  1.00  0.00     0.029 A 
ATOM     44  N   UNL     1     -18.774  -8.324   8.296  1.00  0.00    -0.354 N 
ATOM     45  C   UNL     1     -20.767  -4.516   7.744  1.00  0.00     0.074 A 
ATOM     46  C   UNL     1     -20.394  -3.920   6.478  1.00  0.00     0.031 C 
ATOM     47  C   UNL     1     -17.348  -9.970   7.793  1.00  0.00     0.029 A 
ATOM     48  C   UNL     1     -18.267  -9.491   8.821  1.00  0.00     0.049 A 
ATOM     49  H   UNL     1     -19.471  -7.791   8.742  1.00  0.00     0.167 HD
ATOM     50  C   UNL     1     -21.664  -3.982   8.610  1.00  0.00     0.034 A 
ATOM     51  C   UNL     1     -18.493 -10.091  10.008  1.00  0.00     0.034 A 
ATOM     52  C   UNL     1     -22.030  -4.590   9.865  1.00  0.00     0.049 A 
ATOM     53  C   UNL     1     -19.460  -9.454  10.976  1.00  0.00     0.074 A 
ATOM     54  C   UNL     1     -22.936  -4.140  10.812  1.00  0.00     0.029 A 
ATOM     55  N   UNL     1     -21.511  -5.782  10.351  1.00  0.00    -0.354 N 
ATOM     56  N   UNL     1     -20.132  -8.332  10.854  1.00  0.00    -0.248 NA
ATOM     57  C   UNL     1     -19.704 -10.165  12.239  1.00  0.00     0.031 C 
ATOM     58  C   UNL     1     -22.926  -5.032  11.890  1.00  0.00     0.029 A 
ATOM     59  C   UNL     1     -22.065  -6.074  11.588  1.00  0.00     0.049 A 
ATOM     60  H   UNL     1     -20.846  -6.339   9.886  1.00  0.00     0.167 HD
ATOM     61  C   UNL     1     -20.907  -8.228  12.006  1.00  0.00     0.074 A 
ATOM     62  C   UNL     1     -20.624  -9.400  12.807  1.00  0.00     0.031 C 
ATOM     63  C   UNL     1     -21.779  -7.254  12.368  1.00  0.00     0.034 A 
BRANCH  50  64
ATOM     64  C   UNL     1     -22.291  -2.664   8.228  1.00  0.00     0.023 A 
ATOM     65  C   UNL     1     -23.113  -2.546   7.093  1.00  0.00     0.031 A 
ATOM     66  C   UNL     1     -22.046  -1.506   8.986  1.00  0.00     0.131 A 
ATOM     67  C   UNL     1     -23.597  -1.288   6.706  1.00  0.00     0.055 A 
ATOM     68  C   UNL     1     -22.598  -0.270   8.641  1.00  0.00     0.041 A 
ATOM     69  F   UNL     1     -21.253  -1.552  10.068  1.00  0.00    -0.206 F 
ATOM     70  C   UNL     1     -23.366  -0.153   7.487  1.00  0.00     0.022 A 
BRANCH  67  71
ATOM     71  S   UNL     1     -24.415  -1.136   5.096  1.00  0.00     0.124 S 
ATOM     72  O   UNL     1     -23.351  -1.554   4.186  1.00  0.00    -0.237 OA
ATOM     73  O   UNL     1     -25.542  -2.053   5.225  1.00  0.00    -0.237 OA
ATOM     74  O   UNL     1     -24.767   0.281   5.023  1.00  0.00    -0.744 OA
ENDBRANCH  67  71
ENDBRANCH  50  64
BRANCH  51  75
ATOM     75  C   UNL     1     -17.774 -11.345  10.375  1.00  0.00     0.023 A 
ATOM     76  C   UNL     1     -18.474 -12.542  10.592  1.00  0.00     0.031 A 
ATOM     77  C   UNL     1     -16.382 -11.351  10.578  1.00  0.00     0.131 A 
ATOM     78  C   UNL     1     -17.793 -13.678  11.056  1.00  0.00     0.055 A 
ATOM     79  C   UNL     1     -15.700 -12.499  10.984  1.00  0.00     0.041 A 
ATOM     80  F   UNL     1     -15.662 -10.235  10.381  1.00  0.00    -0.206 F 
ATOM     81  C   UNL     1     -16.409 -13.668  11.242  1.00  0.00     0.022 A 
BRANCH  78  82
ATOM     82  S   UNL     1     -18.761 -15.140  11.521  1.00  0.00     0.124 S 
ATOM     83  O   UNL     1     -19.690 -14.583  12.498  1.00  0.00    -0.237 OA
ATOM     84  O   UNL     1     -19.338 -15.538  10.241  1.00  0.00    -0.237 OA
ATOM     85  O   UNL     1     -17.758 -16.054  12.062  1.00  0.00    -0.744 OA
ENDBRANCH  78  82
ENDBRANCH  51  75
BRANCH  63  86
ATOM     86  C   UNL     1     -22.542  -7.454  13.653  1.00  0.00     0.023 A 
ATOM     87  C   UNL     1     -21.916  -7.383  14.909  1.00  0.00     0.031 A 
ATOM     88  C   UNL     1     -23.924  -7.713  13.613  1.00  0.00     0.131 A 
ATOM     89  C   UNL     1     -22.664  -7.609  16.074  1.00  0.00     0.055 A 
ATOM     90  C   UNL     1     -24.672  -7.888  14.777  1.00  0.00     0.041 A 
ATOM     91  F   UNL     1     -24.570  -7.791  12.438  1.00  0.00    -0.206 F 
ATOM     92  C   UNL     1     -24.041  -7.846  16.017  1.00  0.00     0.022 A 
BRANCH  89  93
ATOM     93  S   UNL     1     -21.804  -7.649  17.671  1.00  0.00     0.124 S 
ATOM     94  O   UNL     1     -20.880  -8.764  17.490  1.00  0.00    -0.237 OA
ATOM     95  O   UNL     1     -21.198  -6.323  17.734  1.00  0.00    -0.237 OA
ATOM     96  O   UNL     1     -22.878  -7.883  18.634  1.00  0.00    -0.744 OA
ENDBRANCH  89  93
ENDBRANCH  63  86
ENDBRANCH  37  38
ENDBRANCH  29  32
ENDBRANCH  27  28
ENDBRANCH  26  27
ENDBRANCH   1  26
TORSDOF 18
