REMARK SMILES CC(C)(C)OC(=O)N1CC(Cc2ccc(C(=O)NCCCCNC(=O)c3ccc(-c4c5nc(c(-c6cc(S(=O)(=O)[O-])ccc6F)c6ccc([nH]6)c(-c6cc(S(=O)(=O)[O-])ccc6F)c6nc(c(-c7cc(S(=O)(=O)[O-])ccc7F)c7ccc4[nH]7)C=C6)C=C5)cc3)cc2)C1
REMARK SMILES IDX 20 1 19 2 18 3 16 4 17 5 15 7 12 8 13 9 90 10 14 11 89 12
REMARK SMILES IDX 11 13 10 14 6 15 7 16 8 17 9 18 91 19 5 20 2 21 1 22 3 23
REMARK SMILES IDX 4 24 21 25 22 26 23 27 24 28 25 30 26 31 27 32 88 33 28 34
REMARK SMILES IDX 87 35 29 36 30 37 31 38 81 39 32 40 86 41 80 42 82 43 33 44
REMARK SMILES IDX 85 45 79 46 78 47 34 49 66 50 46 51 65 52 47 53 50 54 64 55
REMARK SMILES IDX 83 56 48 57 49 58 63 60 84 61 51 62 35 63 36 64 44 65 37 66
REMARK SMILES IDX 43 67 45 68 42 69 38 70 39 71 40 72 41 73 67 74 68 75 76 76
REMARK SMILES IDX 69 77 75 78 77 79 74 80 70 81 71 82 72 83 73 84 52 85 53 86
REMARK SMILES IDX 61 87 54 88 60 89 62 90 59 91 55 92 56 93 57 94 58 95
REMARK H PARENT 18 6 23 29 82 48 50 59
REMARK Flexibility Score: inf
ROOT
ATOM      1  C   UNL     1       7.028  11.116  -1.482  1.00  0.00     0.023 C 
ENDROOT
BRANCH   1   2
ATOM      2  C   UNL     1       7.443   9.778  -0.864  1.00  0.00     0.116 C 
BRANCH   2   3
ATOM      3  N   UNL     1       7.917   9.950   0.498  1.00  0.00    -0.352 N 
ATOM      4  C   UNL     1       7.326   9.657   1.702  1.00  0.00     0.251 C 
ATOM      5  O   UNL     1       7.984   9.789   2.732  1.00  0.00    -0.269 OA
ATOM      6  H   UNL     1       8.816  10.345   0.570  1.00  0.00     0.163 HD
BRANCH   4   7
ATOM      7  C   UNL     1       5.935   9.143   1.801  1.00  0.00     0.039 A 
ATOM      8  C   UNL     1       3.334   8.104   2.115  1.00  0.00    -0.048 A 
ATOM      9  C   UNL     1       4.374   7.660   2.937  1.00  0.00     0.004 A 
ATOM     10  C   UNL     1       3.600   9.095   1.160  1.00  0.00     0.004 A 
ATOM     11  C   UNL     1       5.663   8.181   2.783  1.00  0.00     0.014 A 
ATOM     12  C   UNL     1       4.885   9.623   1.018  1.00  0.00     0.014 A 
BRANCH   8  13
ATOM     13  C   UNL     1       1.941   7.542   2.240  1.00  0.00     0.042 C 
BRANCH  13  14
ATOM     14  C   UNL     1       1.668   6.562   1.108  1.00  0.00     0.033 C 
ATOM     15  C   UNL     1       0.142   3.795   0.030  1.00  0.00     0.410 C 
ATOM     16  O   UNL     1      -0.901   3.908  -0.599  1.00  0.00    -0.224 OA
ATOM     17  N   UNL     1       0.686   4.815   0.743  1.00  0.00    -0.307 N 
ATOM     18  C   UNL     1       0.189   6.149   0.981  1.00  0.00     0.128 C 
ATOM     19  C   UNL     1       1.985   5.059   1.330  1.00  0.00     0.128 C 
BRANCH  15  20
ATOM     20  O   UNL     1       0.880   2.660   0.133  1.00  0.00    -0.444 OA
BRANCH  20  21
ATOM     21  C   UNL     1       0.491   1.450  -0.572  1.00  0.00     0.106 C 
ATOM     22  C   UNL     1       1.285   0.323   0.106  1.00  0.00     0.056 C 
ATOM     23  C   UNL     1       0.921   1.562  -2.036  1.00  0.00     0.056 C 
ATOM     24  C   UNL     1      -1.003   1.111  -0.451  1.00  0.00     0.056 C 
ENDBRANCH  20  21
ENDBRANCH  15  20
ENDBRANCH  13  14
ENDBRANCH   8  13
ENDBRANCH   4   7
ENDBRANCH   2   3
ENDBRANCH   1   2
BRANCH   1  25
ATOM     25  C   UNL     1       8.195  12.014  -1.905  1.00  0.00     0.023 C 
BRANCH  25  26
ATOM     26  C   UNL     1       9.051  11.473  -3.047  1.00  0.00     0.116 C 
BRANCH  26  27
ATOM     27  N   UNL     1       8.295  11.249  -4.268  1.00  0.00    -0.352 N 
ATOM     28  C   UNL     1       8.715  11.357  -5.572  1.00  0.00     0.251 C 
ATOM     29  H   UNL     1       7.355  10.984  -4.144  1.00  0.00     0.163 HD
ATOM     30  O   UNL     1       7.902  11.238  -6.484  1.00  0.00    -0.269 OA
BRANCH  28  31
ATOM     31  C   UNL     1      10.133  11.661  -5.866  1.00  0.00     0.039 A 
ATOM     32  C   UNL     1      10.425  12.671  -6.787  1.00  0.00     0.014 A 
ATOM     33  C   UNL     1      11.167  10.968  -5.231  1.00  0.00     0.014 A 
ATOM     34  C   UNL     1      11.754  13.033  -7.021  1.00  0.00     0.010 A 
ATOM     35  C   UNL     1      12.488  11.365  -5.426  1.00  0.00     0.010 A 
ATOM     36  C   UNL     1      12.793  12.406  -6.316  1.00  0.00    -0.014 A 
BRANCH  36  37
ATOM     37  C   UNL     1      14.207  12.823  -6.496  1.00  0.00     0.031 A 
ATOM     38  C   UNL     1      15.191  11.883  -7.134  1.00  0.00     0.074 A 
ATOM     39  C   UNL     1      14.614  14.017  -6.024  1.00  0.00     0.049 A 
ATOM     40  N   UNL     1      16.484  12.012  -7.282  1.00  0.00    -0.248 NA
ATOM     41  C   UNL     1      14.647  10.617  -7.649  1.00  0.00     0.031 C 
ATOM     42  C   UNL     1      13.757  14.998  -5.355  1.00  0.00     0.029 A 
ATOM     43  N   UNL     1      15.855  14.601  -6.017  1.00  0.00    -0.354 N 
ATOM     44  C   UNL     1      16.913  10.843  -7.900  1.00  0.00     0.074 A 
ATOM     45  C   UNL     1      15.747   9.996  -8.049  1.00  0.00     0.031 C 
ATOM     46  C   UNL     1      14.498  16.064  -5.008  1.00  0.00     0.029 A 
ATOM     47  C   UNL     1      15.885  15.828  -5.395  1.00  0.00     0.049 A 
ATOM     48  H   UNL     1      16.650  14.182  -6.419  1.00  0.00     0.167 HD
ATOM     49  C   UNL     1      18.159  10.514  -8.323  1.00  0.00     0.034 A 
ATOM     50  C   UNL     1      16.916  16.660  -5.152  1.00  0.00     0.034 A 
ATOM     51  C   UNL     1      19.311  11.368  -8.171  1.00  0.00     0.049 A 
ATOM     52  C   UNL     1      18.294  16.271  -5.625  1.00  0.00     0.074 A 
ATOM     53  C   UNL     1      20.617  11.142  -8.573  1.00  0.00     0.029 A 
ATOM     54  N   UNL     1      19.295  12.620  -7.569  1.00  0.00    -0.354 N 
ATOM     55  N   UNL     1      18.678  15.169  -6.227  1.00  0.00    -0.248 NA
ATOM     56  C   UNL     1      19.372  17.242  -5.397  1.00  0.00     0.031 C 
ATOM     57  C   UNL     1      21.396  12.236  -8.179  1.00  0.00     0.029 A 
ATOM     58  C   UNL     1      20.567  13.171  -7.580  1.00  0.00     0.049 A 
ATOM     59  H   UNL     1      18.497  13.053  -7.190  1.00  0.00     0.167 HD
ATOM     60  C   UNL     1      20.038  15.330  -6.474  1.00  0.00     0.074 A 
ATOM     61  C   UNL     1      20.402  16.637  -5.969  1.00  0.00     0.031 C 
ATOM     62  C   UNL     1      20.909  14.476  -7.069  1.00  0.00     0.034 A 
BRANCH  49  63
ATOM     63  C   UNL     1      18.330   9.162  -8.970  1.00  0.00     0.023 A 
ATOM     64  C   UNL     1      17.702   8.851 -10.189  1.00  0.00     0.031 A 
ATOM     65  C   UNL     1      19.095   8.161  -8.347  1.00  0.00     0.131 A 
ATOM     66  C   UNL     1      17.786   7.551 -10.707  1.00  0.00     0.055 A 
ATOM     67  C   UNL     1      19.239   6.891  -8.909  1.00  0.00     0.041 A 
ATOM     68  F   UNL     1      19.701   8.395  -7.173  1.00  0.00    -0.206 F 
ATOM     69  C   UNL     1      18.570   6.574 -10.088  1.00  0.00     0.022 A 
BRANCH  66  70
ATOM     70  S   UNL     1      16.750   7.118 -12.131  1.00  0.00     0.124 S 
ATOM     71  O   UNL     1      15.409   7.309 -11.586  1.00  0.00    -0.237 OA
ATOM     72  O   UNL     1      17.175   8.084 -13.138  1.00  0.00    -0.237 OA
ATOM     73  O   UNL     1      17.111   5.729 -12.408  1.00  0.00    -0.744 OA
ENDBRANCH  66  70
ENDBRANCH  49  63
BRANCH  50  74
ATOM     74  C   UNL     1      16.702  17.936  -4.415  1.00  0.00     0.023 A 
ATOM     75  C   UNL     1      16.883  19.175  -5.047  1.00  0.00     0.031 A 
ATOM     76  C   UNL     1      16.362  17.933  -3.050  1.00  0.00     0.131 A 
ATOM     77  C   UNL     1      16.775  20.361  -4.305  1.00  0.00     0.055 A 
ATOM     78  C   UNL     1      16.209  19.116  -2.327  1.00  0.00     0.041 A 
ATOM     79  F   UNL     1      16.169  16.773  -2.402  1.00  0.00    -0.206 F 
ATOM     80  C   UNL     1      16.431  20.340  -2.951  1.00  0.00     0.022 A 
BRANCH  77  81
ATOM     81  S   UNL     1      17.183  21.931  -5.115  1.00  0.00     0.124 S 
ATOM     82  O   UNL     1      18.527  21.669  -5.616  1.00  0.00    -0.237 OA
ATOM     83  O   UNL     1      16.131  22.032  -6.122  1.00  0.00    -0.237 OA
ATOM     84  O   UNL     1      17.100  22.906  -4.029  1.00  0.00    -0.744 OA
ENDBRANCH  77  81
ENDBRANCH  50  74
BRANCH  62  85
ATOM     85  C   UNL     1      22.323  14.964  -7.246  1.00  0.00     0.023 A 
ATOM     86  C   UNL     1      23.191  15.123  -6.152  1.00  0.00     0.031 A 
ATOM     87  C   UNL     1      22.799  15.292  -8.527  1.00  0.00     0.131 A 
ATOM     88  C   UNL     1      24.476  15.648  -6.353  1.00  0.00     0.055 A 
ATOM     89  C   UNL     1      24.095  15.769  -8.727  1.00  0.00     0.041 A 
ATOM     90  F   UNL     1      22.008  15.157  -9.604  1.00  0.00    -0.206 F 
ATOM     91  C   UNL     1      24.937  15.960  -7.635  1.00  0.00     0.022 A 
BRANCH  88  92
ATOM     92  S   UNL     1      25.515  15.987  -4.906  1.00  0.00     0.124 S 
ATOM     93  O   UNL     1      24.702  16.946  -4.165  1.00  0.00    -0.237 OA
ATOM     94  O   UNL     1      25.651  14.665  -4.303  1.00  0.00    -0.237 OA
ATOM     95  O   UNL     1      26.743  16.531  -5.485  1.00  0.00    -0.744 OA
ENDBRANCH  88  92
ENDBRANCH  62  85
ENDBRANCH  36  37
ENDBRANCH  28  31
ENDBRANCH  26  27
ENDBRANCH  25  26
ENDBRANCH   1  25
TORSDOF 18
