REMARK SMILES C[NH2+][C@](C)(C(=O)NCCCCNC(=O)c1ccc(-c2c3nc(c(-c4cc(S(=O)(=O)[O-])ccc4F)c4ccc([nH]4)c(-c4cc(S(=O)(=O)[O-])ccc4F)c4nc(c(-c5cc(S(=O)(=O)[O-])ccc5F)c5ccc2[nH]5)C=C4)C=C3)cc1)c1cccc(Cl)c1
REMARK SMILES IDX 10 1 9 2 8 3 7 4 5 5 6 6 3 8 4 9 2 10 1 11 78 14 79 15 84 16
REMARK SMILES IDX 80 17 82 18 81 19 83 20 11 21 12 22 13 23 14 25 15 26 16 27
REMARK SMILES IDX 77 28 17 29 76 30 18 31 19 32 20 33 70 34 21 35 75 36 69 37
REMARK SMILES IDX 71 38 22 39 74 40 68 41 67 42 23 44 55 45 35 46 54 47 36 48
REMARK SMILES IDX 39 49 53 50 72 51 37 52 38 53 52 55 73 56 40 57 24 58 25 59
REMARK SMILES IDX 33 60 26 61 32 62 34 63 31 64 27 65 28 66 29 67 30 68 56 69
REMARK SMILES IDX 57 70 65 71 58 72 64 73 66 74 63 75 59 76 60 77 61 78 62 79
REMARK SMILES IDX 41 80 42 81 50 82 43 83 49 84 51 85 48 86 44 87 45 88 46 89
REMARK SMILES IDX 47 90
REMARK H PARENT 7 7 2 12 2 13 12 24 71 43 39 54
REMARK Flexibility Score: inf
ROOT
ATOM      1  C   UNL     1       0.946   6.176  -0.785  1.00  0.00     0.023 C 
ENDROOT
BRANCH   1   2
ATOM      2  C   UNL     1       1.271   4.775  -0.266  1.00  0.00     0.023 C 
BRANCH   2   3
ATOM      3  C   UNL     1       0.068   3.983   0.236  1.00  0.00     0.116 C 
BRANCH   3   4
ATOM      4  N   UNL     1      -0.799   3.551  -0.844  1.00  0.00    -0.350 N 
ATOM      5  C   UNL     1      -1.266   2.344  -1.286  1.00  0.00     0.285 C 
ATOM      6  O   UNL     1      -2.020   2.467  -2.261  1.00  0.00    -0.267 OA
ATOM      7  H   UNL     1      -1.128   4.303  -1.386  1.00  0.00     0.163 HD
BRANCH   5   8
ATOM      8  C   UNL     1      -0.875   0.926  -0.652  1.00  0.00     0.198 C 
ATOM      9  C   UNL     1       0.671   0.836  -0.590  1.00  0.00     0.096 C 
BRANCH   8  10
ATOM     10  N   UNL     1      -1.559   0.696   0.652  1.00  0.00    -0.332 N 
ATOM     11  C   UNL     1      -1.393   1.620   1.745  1.00  0.00     0.332 C 
ATOM     12  H   UNL     1      -2.558   0.658   0.453  1.00  0.00     0.347 HD
ATOM     13  H   UNL     1      -1.105  -0.149   1.000  1.00  0.00     0.347 HD
ENDBRANCH   8  10
BRANCH   8  14
ATOM     14  C   UNL     1      -1.368  -0.315  -1.504  1.00  0.00     0.023 A 
ATOM     15  C   UNL     1      -2.534  -0.297  -2.291  1.00  0.00     0.011 A 
ATOM     16  C   UNL     1      -0.733  -1.574  -1.362  1.00  0.00     0.031 A 
ATOM     17  C   UNL     1      -2.987  -1.436  -2.971  1.00  0.00     0.002 A 
ATOM     18  C   UNL     1      -1.202  -2.715  -2.020  1.00  0.00     0.041 A 
ATOM     19  C   UNL     1      -2.319  -2.648  -2.838  1.00  0.00     0.020 A 
ATOM     20  Cl  UNL     1      -0.403  -4.222  -1.782  1.00  0.00    -0.084 Cl
ENDBRANCH   8  14
ENDBRANCH   5   8
ENDBRANCH   3   4
ENDBRANCH   2   3
ENDBRANCH   1   2
BRANCH   1  21
ATOM     21  C   UNL     1       0.136   7.059   0.161  1.00  0.00     0.116 C 
BRANCH  21  22
ATOM     22  N   UNL     1       0.714   7.163   1.494  1.00  0.00    -0.352 N 
ATOM     23  C   UNL     1       0.946   8.287   2.257  1.00  0.00     0.251 C 
ATOM     24  H   UNL     1       0.976   6.310   1.909  1.00  0.00     0.163 HD
ATOM     25  O   UNL     1       1.529   8.194   3.327  1.00  0.00    -0.269 OA
BRANCH  23  26
ATOM     26  C   UNL     1       0.524   9.603   1.736  1.00  0.00     0.039 A 
ATOM     27  C   UNL     1       1.472  10.623   1.638  1.00  0.00     0.014 A 
ATOM     28  C   UNL     1      -0.780   9.795   1.271  1.00  0.00     0.014 A 
ATOM     29  C   UNL     1       1.142  11.805   0.971  1.00  0.00     0.010 A 
ATOM     30  C   UNL     1      -1.086  10.945   0.551  1.00  0.00     0.010 A 
ATOM     31  C   UNL     1      -0.119  11.948   0.372  1.00  0.00    -0.014 A 
BRANCH  31  32
ATOM     32  C   UNL     1      -0.437  13.110  -0.497  1.00  0.00     0.031 A 
ATOM     33  C   UNL     1      -1.521  14.070  -0.103  1.00  0.00     0.074 A 
ATOM     34  C   UNL     1       0.183  13.233  -1.687  1.00  0.00     0.049 A 
ATOM     35  N   UNL     1      -2.035  15.062  -0.783  1.00  0.00    -0.248 NA
ATOM     36  C   UNL     1      -2.126  13.867   1.221  1.00  0.00     0.031 C 
ATOM     37  C   UNL     1       1.225  12.338  -2.196  1.00  0.00     0.029 A 
ATOM     38  N   UNL     1       0.014  14.148  -2.696  1.00  0.00    -0.354 N 
ATOM     39  C   UNL     1      -3.033  15.596   0.023  1.00  0.00     0.074 A 
ATOM     40  C   UNL     1      -3.087  14.778   1.218  1.00  0.00     0.031 C 
ATOM     41  C   UNL     1       1.610  12.755  -3.413  1.00  0.00     0.029 A 
ATOM     42  C   UNL     1       0.809  13.914  -3.794  1.00  0.00     0.049 A 
ATOM     43  H   UNL     1      -0.617  14.902  -2.640  1.00  0.00     0.167 HD
ATOM     44  C   UNL     1      -3.817  16.679  -0.204  1.00  0.00     0.034 A 
ATOM     45  C   UNL     1       0.869  14.544  -4.983  1.00  0.00     0.034 A 
ATOM     46  C   UNL     1      -3.743  17.485  -1.399  1.00  0.00     0.049 A 
ATOM     47  C   UNL     1      -0.052  15.707  -5.238  1.00  0.00     0.074 A 
ATOM     48  C   UNL     1      -4.429  18.649  -1.699  1.00  0.00     0.029 A 
ATOM     49  N   UNL     1      -2.946  17.200  -2.501  1.00  0.00    -0.354 N 
ATOM     50  N   UNL     1      -0.953  16.235  -4.443  1.00  0.00    -0.248 NA
ATOM     51  C   UNL     1       0.049  16.355  -6.552  1.00  0.00     0.031 C 
ATOM     52  C   UNL     1      -4.098  19.030  -3.005  1.00  0.00     0.029 A 
ATOM     53  C   UNL     1      -3.157  18.140  -3.498  1.00  0.00     0.049 A 
ATOM     54  H   UNL     1      -2.323  16.441  -2.564  1.00  0.00     0.167 HD
ATOM     55  C   UNL     1      -1.518  17.287  -5.157  1.00  0.00     0.074 A 
ATOM     56  C   UNL     1      -0.844  17.328  -6.440  1.00  0.00     0.031 C 
ATOM     57  C   UNL     1      -2.501  18.146  -4.784  1.00  0.00     0.034 A 
BRANCH  44  58
ATOM     58  C   UNL     1      -4.834  17.028   0.854  1.00  0.00     0.023 A 
ATOM     59  C   UNL     1      -4.446  17.398   2.154  1.00  0.00     0.031 A 
ATOM     60  C   UNL     1      -6.210  16.950   0.576  1.00  0.00     0.131 A 
ATOM     61  C   UNL     1      -5.417  17.590   3.148  1.00  0.00     0.055 A 
ATOM     62  C   UNL     1      -7.173  17.223   1.549  1.00  0.00     0.041 A 
ATOM     63  F   UNL     1      -6.641  16.585  -0.641  1.00  0.00    -0.206 F 
ATOM     64  C   UNL     1      -6.779  17.528   2.849  1.00  0.00     0.022 A 
BRANCH  61  65
ATOM     65  S   UNL     1      -4.868  17.769   4.867  1.00  0.00     0.124 S 
ATOM     66  O   UNL     1      -4.123  16.529   5.071  1.00  0.00    -0.237 OA
ATOM     67  O   UNL     1      -4.074  18.991   4.819  1.00  0.00    -0.237 OA
ATOM     68  O   UNL     1      -6.119  17.866   5.617  1.00  0.00    -0.744 OA
ENDBRANCH  61  65
ENDBRANCH  44  58
BRANCH  45  69
ATOM     69  C   UNL     1       1.809  14.072  -6.038  1.00  0.00     0.023 A 
ATOM     70  C   UNL     1       2.895  14.863  -6.441  1.00  0.00     0.031 A 
ATOM     71  C   UNL     1       1.617  12.834  -6.677  1.00  0.00     0.131 A 
ATOM     72  C   UNL     1       3.733  14.422  -7.478  1.00  0.00     0.055 A 
ATOM     73  C   UNL     1       2.478  12.381  -7.679  1.00  0.00     0.041 A 
ATOM     74  F   UNL     1       0.596  12.037  -6.323  1.00  0.00    -0.206 F 
ATOM     75  C   UNL     1       3.538  13.182  -8.091  1.00  0.00     0.022 A 
BRANCH  72  76
ATOM     76  S   UNL     1       5.053  15.524  -8.055  1.00  0.00     0.124 S 
ATOM     77  O   UNL     1       4.297  16.691  -8.494  1.00  0.00    -0.237 OA
ATOM     78  O   UNL     1       5.854  15.695  -6.847  1.00  0.00    -0.237 OA
ATOM     79  O   UNL     1       5.694  14.757  -9.120  1.00  0.00    -0.744 OA
ENDBRANCH  72  76
ENDBRANCH  45  69
BRANCH  57  80
ATOM     80  C   UNL     1      -2.888  19.207  -5.781  1.00  0.00     0.023 A 
ATOM     81  C   UNL     1      -3.577  18.885  -6.963  1.00  0.00     0.031 A 
ATOM     82  C   UNL     1      -2.558  20.553  -5.549  1.00  0.00     0.131 A 
ATOM     83  C   UNL     1      -3.876  19.893  -7.892  1.00  0.00     0.055 A 
ATOM     84  C   UNL     1      -2.904  21.559  -6.452  1.00  0.00     0.041 A 
ATOM     85  F   UNL     1      -1.898  20.912  -4.436  1.00  0.00    -0.206 F 
ATOM     86  C   UNL     1      -3.558  21.230  -7.636  1.00  0.00     0.022 A 
BRANCH  83  87
ATOM     87  S   UNL     1      -4.635  19.427  -9.472  1.00  0.00     0.124 S 
ATOM     88  O   UNL     1      -3.603  18.583 -10.065  1.00  0.00    -0.237 OA
ATOM     89  O   UNL     1      -5.852  18.743  -9.047  1.00  0.00    -0.237 OA
ATOM     90  O   UNL     1      -4.849  20.709 -10.141  1.00  0.00    -0.744 OA
ENDBRANCH  83  87
ENDBRANCH  57  80
ENDBRANCH  31  32
ENDBRANCH  23  26
ENDBRANCH  21  22
ENDBRANCH   1  21
TORSDOF 16
