REMARK SMILES CC(=O)N1CC[NH2+]C[C@@H]1c1ccc(C(=O)NCCCCNC(=O)c2ccc(-c3c4nc(c(-c5cc(S(=O)(=O)[O-])ccc5F)c5ccc([nH]5)c(-c5cc(S(=O)(=O)[O-])ccc5F)c5nc(c(-c6cc(S(=O)(=O)[O-])ccc6F)c6ccc3[nH]6)C=C5)C=C4)cc2)cc1
REMARK SMILES IDX 19 1 18 2 17 3 16 4 14 5 15 6 13 8 10 9 11 10 88 11 12 12
REMARK SMILES IDX 87 13 9 14 4 15 5 16 6 17 8 18 7 19 2 22 1 23 3 24 20 25
REMARK SMILES IDX 21 26 22 27 23 29 24 30 25 31 86 32 26 33 85 34 27 35 28 36
REMARK SMILES IDX 29 37 79 38 30 39 84 40 78 41 80 42 31 43 83 44 77 45 76 46
REMARK SMILES IDX 32 48 64 49 44 50 63 51 45 52 48 53 62 54 81 55 46 56 47 57
REMARK SMILES IDX 61 59 82 60 49 61 33 62 34 63 42 64 35 65 41 66 43 67 40 68
REMARK SMILES IDX 36 69 37 70 38 71 39 72 65 73 66 74 74 75 67 76 73 77 75 78
REMARK SMILES IDX 72 79 68 80 69 81 70 82 71 83 50 84 51 85 59 86 52 87 58 88
REMARK SMILES IDX 60 89 57 90 53 91 54 92 55 93 56 94
REMARK H PARENT 16 7 7 20 7 21 21 28 80 47 48 58
REMARK Flexibility Score: inf
ROOT
ATOM      1  C   UNL     1       0.427   2.330  10.466  1.00  0.00     0.023 C 
ENDROOT
BRANCH   1   2
ATOM      2  C   UNL     1       0.775   2.146   8.986  1.00  0.00     0.023 C 
BRANCH   2   3
ATOM      3  C   UNL     1       2.143   2.711   8.590  1.00  0.00     0.116 C 
BRANCH   3   4
ATOM      4  N   UNL     1       3.196   1.741   8.809  1.00  0.00    -0.352 N 
ATOM      5  C   UNL     1       3.762   0.778   8.013  1.00  0.00     0.251 C 
ATOM      6  O   UNL     1       4.696   0.136   8.498  1.00  0.00    -0.269 OA
ATOM      7  H   UNL     1       3.585   1.780   9.712  1.00  0.00     0.163 HD
BRANCH   5   8
ATOM      8  C   UNL     1       3.326   0.455   6.618  1.00  0.00     0.039 A 
ATOM      9  C   UNL     1       2.564  -0.481   4.026  1.00  0.00    -0.020 A 
ATOM     10  C   UNL     1       3.794  -0.845   4.596  1.00  0.00     0.007 A 
ATOM     11  C   UNL     1       1.792   0.452   4.726  1.00  0.00     0.007 A 
ATOM     12  C   UNL     1       4.165  -0.384   5.868  1.00  0.00     0.014 A 
ATOM     13  C   UNL     1       2.138   0.866   6.019  1.00  0.00     0.014 A 
BRANCH   9  14
ATOM     14  C   UNL     1       2.089  -1.130   2.716  1.00  0.00     0.170 C 
ATOM     15  N   UNL     1       0.710  -0.740   2.323  1.00  0.00    -0.325 N 
ATOM     16  C   UNL     1      -0.382  -1.338   3.112  1.00  0.00     0.181 C 
ATOM     17  C   UNL     1      -0.212  -2.860   3.272  1.00  0.00     0.282 C 
ATOM     18  C   UNL     1       2.140  -2.689   2.785  1.00  0.00     0.290 C 
ATOM     19  N   UNL     1       1.137  -3.276   3.701  1.00  0.00    -0.343 N 
ATOM     20  H   UNL     1       1.204  -4.293   3.676  1.00  0.00     0.346 HD
ATOM     21  H   UNL     1       1.310  -2.951   4.652  1.00  0.00     0.346 HD
BRANCH  15  22
ATOM     22  C   UNL     1       0.382   0.090   1.265  1.00  0.00     0.220 C 
ATOM     23  C   UNL     1       1.443   0.347   0.227  1.00  0.00     0.114 C 
ATOM     24  O   UNL     1      -0.749   0.554   1.113  1.00  0.00    -0.275 OA
ENDBRANCH  15  22
ENDBRANCH   9  14
ENDBRANCH   5   8
ENDBRANCH   3   4
ENDBRANCH   2   3
ENDBRANCH   1   2
BRANCH   1  25
ATOM     25  C   UNL     1       0.241   3.782  10.896  1.00  0.00     0.116 C 
BRANCH  25  26
ATOM     26  N   UNL     1      -0.831   4.462  10.187  1.00  0.00    -0.352 N 
ATOM     27  C   UNL     1      -1.551   5.561  10.601  1.00  0.00     0.251 C 
ATOM     28  H   UNL     1      -1.071   4.092   9.306  1.00  0.00     0.163 HD
ATOM     29  O   UNL     1      -2.500   5.963   9.944  1.00  0.00    -0.269 OA
BRANCH  27  30
ATOM     30  C   UNL     1      -1.186   6.204  11.881  1.00  0.00     0.039 A 
ATOM     31  C   UNL     1      -2.171   6.368  12.857  1.00  0.00     0.014 A 
ATOM     32  C   UNL     1       0.136   6.576  12.137  1.00  0.00     0.014 A 
ATOM     33  C   UNL     1      -1.813   6.837  14.123  1.00  0.00     0.010 A 
ATOM     34  C   UNL     1       0.501   6.981  13.417  1.00  0.00     0.010 A 
ATOM     35  C   UNL     1      -0.468   7.108  14.424  1.00  0.00    -0.014 A 
BRANCH  35  36
ATOM     36  C   UNL     1      -0.049   7.523  15.787  1.00  0.00     0.031 A 
ATOM     37  C   UNL     1       0.543   8.888  16.003  1.00  0.00     0.074 A 
ATOM     38  C   UNL     1      -0.125   6.645  16.807  1.00  0.00     0.049 A 
ATOM     39  N   UNL     1       1.073   9.400  17.083  1.00  0.00    -0.248 NA
ATOM     40  C   UNL     1       0.570   9.782  14.836  1.00  0.00     0.031 C 
ATOM     41  C   UNL     1      -0.645   5.278  16.709  1.00  0.00     0.029 A 
ATOM     42  N   UNL     1       0.247   6.763  18.122  1.00  0.00    -0.354 N 
ATOM     43  C   UNL     1       1.512  10.669  16.724  1.00  0.00     0.074 A 
ATOM     44  C   UNL     1       1.236  10.823  15.311  1.00  0.00     0.031 C 
ATOM     45  C   UNL     1      -0.572   4.693  17.916  1.00  0.00     0.029 A 
ATOM     46  C   UNL     1       0.039   5.621  18.862  1.00  0.00     0.049 A 
ATOM     47  H   UNL     1       0.629   7.588  18.501  1.00  0.00     0.167 HD
ATOM     48  C   UNL     1       2.072  11.626  17.506  1.00  0.00     0.034 A 
ATOM     49  C   UNL     1       0.322   5.350  20.151  1.00  0.00     0.034 A 
ATOM     50  C   UNL     1       2.324  11.460  18.916  1.00  0.00     0.049 A 
ATOM     51  C   UNL     1       0.960   6.423  20.997  1.00  0.00     0.074 A 
ATOM     52  C   UNL     1       2.838  12.380  19.814  1.00  0.00     0.029 A 
ATOM     53  N   UNL     1       2.085  10.296  19.635  1.00  0.00    -0.354 N 
ATOM     54  N   UNL     1       1.330   7.635  20.653  1.00  0.00    -0.248 NA
ATOM     55  C   UNL     1       1.210   6.095  22.407  1.00  0.00     0.031 C 
ATOM     56  C   UNL     1       2.964  11.754  21.060  1.00  0.00     0.029 A 
ATOM     57  C   UNL     1       2.464  10.465  20.957  1.00  0.00     0.049 A 
ATOM     58  H   UNL     1       1.702   9.470  19.259  1.00  0.00     0.167 HD
ATOM     59  C   UNL     1       1.825   8.223  21.813  1.00  0.00     0.074 A 
ATOM     60  C   UNL     1       1.698   7.237  22.866  1.00  0.00     0.031 C 
ATOM     61  C   UNL     1       2.334   9.469  21.994  1.00  0.00     0.034 A 
BRANCH  48  62
ATOM     62  C   UNL     1       2.468  12.921  16.838  1.00  0.00     0.023 A 
ATOM     63  C   UNL     1       1.513  13.765  16.244  1.00  0.00     0.031 A 
ATOM     64  C   UNL     1       3.819  13.301  16.764  1.00  0.00     0.131 A 
ATOM     65  C   UNL     1       1.928  14.902  15.535  1.00  0.00     0.055 A 
ATOM     66  C   UNL     1       4.218  14.478  16.127  1.00  0.00     0.041 A 
ATOM     67  F   UNL     1       4.778  12.526  17.295  1.00  0.00    -0.206 F 
ATOM     68  C   UNL     1       3.272  15.278  15.493  1.00  0.00     0.022 A 
BRANCH  65  69
ATOM     69  S   UNL     1       0.701  15.798  14.545  1.00  0.00     0.124 S 
ATOM     70  O   UNL     1       0.252  14.759  13.622  1.00  0.00    -0.237 OA
ATOM     71  O   UNL     1      -0.268  16.221  15.550  1.00  0.00    -0.237 OA
ATOM     72  O   UNL     1       1.475  16.875  13.932  1.00  0.00    -0.744 OA
ENDBRANCH  65  69
ENDBRANCH  48  62
BRANCH  49  73
ATOM     73  C   UNL     1       0.019   4.009  20.727  1.00  0.00     0.023 A 
ATOM     74  C   UNL     1      -0.936   3.859  21.744  1.00  0.00     0.031 A 
ATOM     75  C   UNL     1       0.713   2.863  20.299  1.00  0.00     0.131 A 
ATOM     76  C   UNL     1      -1.139   2.602  22.334  1.00  0.00     0.055 A 
ATOM     77  C   UNL     1       0.472   1.605  20.854  1.00  0.00     0.041 A 
ATOM     78  F   UNL     1       1.632   2.950  19.324  1.00  0.00    -0.206 F 
ATOM     79  C   UNL     1      -0.450   1.472  21.888  1.00  0.00     0.022 A 
BRANCH  76  80
ATOM     80  S   UNL     1      -2.261   2.481  23.754  1.00  0.00     0.124 S 
ATOM     81  O   UNL     1      -1.659   3.423  24.690  1.00  0.00    -0.237 OA
ATOM     82  O   UNL     1      -3.535   2.884  23.168  1.00  0.00    -0.237 OA
ATOM     83  O   UNL     1      -2.172   1.074  24.139  1.00  0.00    -0.744 OA
ENDBRANCH  76  80
ENDBRANCH  49  73
BRANCH  61  84
ATOM     84  C   UNL     1       2.740   9.845  23.396  1.00  0.00     0.023 A 
ATOM     85  C   UNL     1       3.847   9.255  24.031  1.00  0.00     0.031 A 
ATOM     86  C   UNL     1       2.003  10.808  24.107  1.00  0.00     0.131 A 
ATOM     87  C   UNL     1       4.156   9.599  25.355  1.00  0.00     0.055 A 
ATOM     88  C   UNL     1       2.348  11.186  25.405  1.00  0.00     0.041 A 
ATOM     89  F   UNL     1       0.936  11.402  23.547  1.00  0.00    -0.206 F 
ATOM     90  C   UNL     1       3.424  10.572  26.040  1.00  0.00     0.022 A 
BRANCH  87  91
ATOM     91  S   UNL     1       5.487   8.703  26.201  1.00  0.00     0.124 S 
ATOM     92  O   UNL     1       5.006   7.326  26.152  1.00  0.00    -0.237 OA
ATOM     93  O   UNL     1       6.646   9.002  25.365  1.00  0.00    -0.237 OA
ATOM     94  O   UNL     1       5.514   9.304  27.533  1.00  0.00    -0.744 OA
ENDBRANCH  87  91
ENDBRANCH  61  84
ENDBRANCH  35  36
ENDBRANCH  27  30
ENDBRANCH  25  26
ENDBRANCH   1  25
TORSDOF 16
