REMARK SMILES CC1(C)CCC[C@@](C)(CCC(=O)NCCCCNC(=O)c2ccc(-c3c4nc(c(-c5cc(S(=O)(=O)[O-])ccc5F)c5ccc([nH]5)c(-c5cc(S(=O)(=O)[O-])ccc5F)c5nc(c(-c6cc(S(=O)(=O)[O-])ccc6F)c6ccc3[nH]6)C=C5)C=C4)cc2)C1=O
REMARK SMILES IDX 16 1 15 2 14 3 13 4 11 5 12 6 10 8 9 9 7 10 1 11 2 12 3 13
REMARK SMILES IDX 4 14 84 15 5 16 85 17 6 18 8 19 17 20 18 21 19 22 20 24
REMARK SMILES IDX 21 25 22 26 83 27 23 28 82 29 24 30 25 31 26 32 76 33 27 34
REMARK SMILES IDX 81 35 75 36 77 37 28 38 80 39 74 40 73 41 29 43 61 44 41 45
REMARK SMILES IDX 60 46 42 47 45 48 59 49 78 50 43 51 44 52 58 54 79 55 46 56
REMARK SMILES IDX 30 57 31 58 39 59 32 60 38 61 40 62 37 63 33 64 34 65 35 66
REMARK SMILES IDX 36 67 62 68 63 69 71 70 64 71 70 72 72 73 69 74 65 75 66 76
REMARK SMILES IDX 67 77 68 78 47 79 48 80 56 81 49 82 55 83 57 84 54 85 50 86
REMARK SMILES IDX 51 87 52 88 53 89
REMARK H PARENT 13 7 18 23 77 42 45 53
REMARK Flexibility Score: inf
ROOT
ATOM      1  C   UNL     1       4.116   3.193  -5.665  1.00  0.00     0.023 C 
ENDROOT
BRANCH   1   2
ATOM      2  C   UNL     1       3.970   2.320  -4.434  1.00  0.00     0.023 C 
BRANCH   2   3
ATOM      3  C   UNL     1       5.272   1.689  -3.915  1.00  0.00     0.116 C 
BRANCH   3   4
ATOM      4  N   UNL     1       5.508   2.054  -2.524  1.00  0.00    -0.356 N 
ATOM      5  C   UNL     1       5.313   1.377  -1.358  1.00  0.00     0.220 C 
ATOM      6  O   UNL     1       5.432   2.000  -0.300  1.00  0.00    -0.275 OA
ATOM      7  H   UNL     1       5.879   2.958  -2.405  1.00  0.00     0.163 HD
BRANCH   5   8
ATOM      8  C   UNL     1       4.984  -0.106  -1.344  1.00  0.00     0.101 C 
BRANCH   8   9
ATOM      9  C   UNL     1       3.575  -0.465  -0.817  1.00  0.00     0.024 C 
BRANCH   9  10
ATOM     10  C   UNL     1       2.396  -0.437  -1.837  1.00  0.00     0.027 C 
ATOM     11  C   UNL     1       0.172  -0.353   0.882  1.00  0.00     0.019 C 
ATOM     12  C   UNL     1      -0.010  -0.347  -0.642  1.00  0.00     0.024 C 
ATOM     13  C   UNL     1      -1.327  -1.059  -1.004  1.00  0.00     0.019 C 
ATOM     14  C   UNL     1      -0.123   1.094  -1.160  1.00  0.00     0.014 C 
ATOM     15  C   UNL     1       1.162  -1.152  -1.240  1.00  0.00     0.144 C 
ATOM     16  C   UNL     1       1.220   1.776  -1.249  1.00  0.00     0.002 C 
ATOM     17  O   UNL     1       1.158  -2.387  -1.151  1.00  0.00    -0.298 OA
ATOM     18  C   UNL     1       2.062   1.000  -2.237  1.00  0.00     0.014 C 
ATOM     19  C   UNL     1       2.767  -1.242  -3.106  1.00  0.00     0.020 C 
ENDBRANCH   9  10
ENDBRANCH   8   9
ENDBRANCH   5   8
ENDBRANCH   3   4
ENDBRANCH   2   3
ENDBRANCH   1   2
BRANCH   1  20
ATOM     20  C   UNL     1       4.561   2.431  -6.898  1.00  0.00     0.116 C 
BRANCH  20  21
ATOM     21  N   UNL     1       3.526   1.565  -7.457  1.00  0.00    -0.352 N 
ATOM     22  C   UNL     1       2.877   1.637  -8.674  1.00  0.00     0.251 C 
ATOM     23  H   UNL     1       3.249   0.817  -6.880  1.00  0.00     0.163 HD
ATOM     24  O   UNL     1       1.960   0.861  -8.932  1.00  0.00    -0.269 OA
BRANCH  22  25
ATOM     25  C   UNL     1       3.252   2.702  -9.628  1.00  0.00     0.039 A 
ATOM     26  C   UNL     1       2.259   3.510 -10.185  1.00  0.00     0.014 A 
ATOM     27  C   UNL     1       4.596   2.987  -9.855  1.00  0.00     0.014 A 
ATOM     28  C   UNL     1       2.624   4.689 -10.841  1.00  0.00     0.010 A 
ATOM     29  C   UNL     1       4.945   4.229 -10.364  1.00  0.00     0.010 A 
ATOM     30  C   UNL     1       3.965   5.104 -10.858  1.00  0.00    -0.014 A 
BRANCH  30  31
ATOM     31  C   UNL     1       4.383   6.439 -11.373  1.00  0.00     0.031 A 
ATOM     32  C   UNL     1       5.464   6.527 -12.421  1.00  0.00     0.074 A 
ATOM     33  C   UNL     1       3.888   7.567 -10.821  1.00  0.00     0.049 A 
ATOM     34  N   UNL     1       6.111   7.574 -12.864  1.00  0.00    -0.248 NA
ATOM     35  C   UNL     1       5.925   5.253 -12.996  1.00  0.00     0.031 C 
ATOM     36  C   UNL     1       2.897   7.627  -9.742  1.00  0.00     0.029 A 
ATOM     37  N   UNL     1       4.161   8.888 -11.083  1.00  0.00    -0.354 N 
ATOM     38  C   UNL     1       7.086   7.078 -13.723  1.00  0.00     0.074 A 
ATOM     39  C   UNL     1       6.996   5.635 -13.671  1.00  0.00     0.031 C 
ATOM     40  C   UNL     1       2.614   8.911  -9.470  1.00  0.00     0.029 A 
ATOM     41  C   UNL     1       3.439   9.770 -10.310  1.00  0.00     0.049 A 
ATOM     42  H   UNL     1       4.812   9.177 -11.762  1.00  0.00     0.167 HD
ATOM     43  C   UNL     1       7.952   7.760 -14.513  1.00  0.00     0.034 A 
ATOM     44  C   UNL     1       3.448  11.118 -10.277  1.00  0.00     0.034 A 
ATOM     45  C   UNL     1       7.978   9.197 -14.608  1.00  0.00     0.049 A 
ATOM     46  C   UNL     1       4.378  11.858 -11.204  1.00  0.00     0.074 A 
ATOM     47  C   UNL     1       8.743   9.994 -15.440  1.00  0.00     0.029 A 
ATOM     48  N   UNL     1       7.191  10.054 -13.850  1.00  0.00    -0.354 N 
ATOM     49  N   UNL     1       5.260  11.374 -12.049  1.00  0.00    -0.248 NA
ATOM     50  C   UNL     1       4.310  13.325 -11.178  1.00  0.00     0.031 C 
ATOM     51  C   UNL     1       8.453  11.333 -15.153  1.00  0.00     0.029 A 
ATOM     52  C   UNL     1       7.463  11.371 -14.184  1.00  0.00     0.049 A 
ATOM     53  H   UNL     1       6.535   9.768 -13.174  1.00  0.00     0.167 HD
ATOM     54  C   UNL     1       5.833  12.479 -12.671  1.00  0.00     0.074 A 
ATOM     55  C   UNL     1       5.185  13.650 -12.118  1.00  0.00     0.031 C 
ATOM     56  C   UNL     1       6.808  12.524 -13.614  1.00  0.00     0.034 A 
BRANCH  43  57
ATOM     57  C   UNL     1       8.933   6.948 -15.328  1.00  0.00     0.023 A 
ATOM     58  C   UNL     1       8.500   6.023 -16.294  1.00  0.00     0.031 A 
ATOM     59  C   UNL     1      10.315   7.056 -15.097  1.00  0.00     0.131 A 
ATOM     60  C   UNL     1       9.425   5.171 -16.914  1.00  0.00     0.055 A 
ATOM     61  C   UNL     1      11.241   6.271 -15.789  1.00  0.00     0.041 A 
ATOM     62  F   UNL     1      10.791   7.909 -14.175  1.00  0.00    -0.206 F 
ATOM     63  C   UNL     1      10.796   5.307 -16.689  1.00  0.00     0.022 A 
BRANCH  60  64
ATOM     64  S   UNL     1       8.794   3.775 -17.884  1.00  0.00     0.124 S 
ATOM     65  O   UNL     1       8.037   3.037 -16.875  1.00  0.00    -0.237 OA
ATOM     66  O   UNL     1       8.005   4.438 -18.916  1.00  0.00    -0.237 OA
ATOM     67  O   UNL     1      10.006   3.108 -18.355  1.00  0.00    -0.744 OA
ENDBRANCH  60  64
ENDBRANCH  43  57
BRANCH  44  68
ATOM     68  C   UNL     1       2.552  11.863  -9.347  1.00  0.00     0.023 A 
ATOM     69  C   UNL     1       1.510  12.665  -9.840  1.00  0.00     0.031 A 
ATOM     70  C   UNL     1       2.747  11.819  -7.955  1.00  0.00     0.131 A 
ATOM     71  C   UNL     1       0.733  13.428  -8.954  1.00  0.00     0.055 A 
ATOM     72  C   UNL     1       1.940  12.543  -7.074  1.00  0.00     0.041 A 
ATOM     73  F   UNL     1       3.722  11.060  -7.430  1.00  0.00    -0.206 F 
ATOM     74  C   UNL     1       0.934  13.364  -7.574  1.00  0.00     0.022 A 
BRANCH  71  75
ATOM     75  S   UNL     1      -0.499  14.569  -9.641  1.00  0.00     0.124 S 
ATOM     76  O   UNL     1       0.325  15.421 -10.491  1.00  0.00    -0.237 OA
ATOM     77  O   UNL     1      -1.404  13.656 -10.332  1.00  0.00    -0.237 OA
ATOM     78  O   UNL     1      -1.058  15.220  -8.458  1.00  0.00    -0.744 OA
ENDBRANCH  71  75
ENDBRANCH  44  68
BRANCH  56  79
ATOM     79  C   UNL     1       7.195  13.886 -14.128  1.00  0.00     0.023 A 
ATOM     80  C   UNL     1       7.868  14.815 -13.317  1.00  0.00     0.031 A 
ATOM     81  C   UNL     1       6.877  14.260 -15.445  1.00  0.00     0.131 A 
ATOM     82  C   UNL     1       8.157  16.093 -13.814  1.00  0.00     0.055 A 
ATOM     83  C   UNL     1       7.216  15.514 -15.953  1.00  0.00     0.041 A 
ATOM     84  F   UNL     1       6.234  13.409 -16.261  1.00  0.00    -0.206 F 
ATOM     85  C   UNL     1       7.849  16.444 -15.132  1.00  0.00     0.022 A 
BRANCH  82  86
ATOM     86  S   UNL     1       8.871  17.323 -12.689  1.00  0.00     0.124 S 
ATOM     87  O   UNL     1       7.851  17.409 -11.648  1.00  0.00    -0.237 OA
ATOM     88  O   UNL     1      10.129  16.696 -12.298  1.00  0.00    -0.237 OA
ATOM     89  O   UNL     1       9.007  18.515 -13.525  1.00  0.00    -0.744 OA
ENDBRANCH  82  86
ENDBRANCH  56  79
ENDBRANCH  30  31
ENDBRANCH  22  25
ENDBRANCH  20  21
ENDBRANCH   1  20
TORSDOF 16
