REMARK SMILES COC(=O)c1cccc(-c2cnc(Cl)cc2C(=O)NCCCCNC(=O)c2ccc(-c3c4nc(c(-c5cc(S(=O)(=O)[O-])ccc5F)c5ccc([nH]5)c(-c5cc(S(=O)(=O)[O-])ccc5F)c5nc(c(-c6cc(S(=O)(=O)[O-])ccc6F)c6ccc3[nH]6)C=C5)C=C4)cc2)c1
REMARK SMILES IDX 21 1 20 2 19 3 17 4 18 5 16 7 10 8 11 9 12 10 15 11 13 12
REMARK SMILES IDX 14 13 9 14 5 15 6 16 90 17 7 18 8 19 3 20 4 21 2 22 1 23
REMARK SMILES IDX 22 24 23 25 24 26 25 27 26 29 27 30 28 31 89 32 29 33 88 34
REMARK SMILES IDX 30 35 31 36 32 37 82 38 33 39 87 40 81 41 83 42 34 43 86 44
REMARK SMILES IDX 80 45 79 46 35 48 67 49 47 50 66 51 48 52 51 53 65 54 84 55
REMARK SMILES IDX 49 56 50 57 64 59 85 60 52 61 36 62 37 63 45 64 38 65 44 66
REMARK SMILES IDX 46 67 43 68 39 69 40 70 41 71 42 72 68 73 69 74 77 75 70 76
REMARK SMILES IDX 76 77 78 78 75 79 71 80 72 81 73 82 74 83 53 84 54 85 62 86
REMARK SMILES IDX 55 87 61 88 63 89 60 90 56 91 57 92 58 93 59 94
REMARK H PARENT 19 6 24 28 83 47 51 58
REMARK Flexibility Score: inf
ROOT
ATOM      1  C   UNL     1      -6.583   1.591   2.984  1.00  0.00     0.023 C 
ENDROOT
BRANCH   1   2
ATOM      2  C   UNL     1      -6.029   2.698   3.881  1.00  0.00     0.116 C 
BRANCH   2   3
ATOM      3  N   UNL     1      -4.582   2.713   3.839  1.00  0.00    -0.352 N 
ATOM      4  C   UNL     1      -3.606   3.384   3.154  1.00  0.00     0.252 C 
ATOM      5  O   UNL     1      -2.470   3.049   3.490  1.00  0.00    -0.269 OA
ATOM      6  H   UNL     1      -4.197   2.067   4.474  1.00  0.00     0.163 HD
BRANCH   4   7
ATOM      7  C   UNL     1      -3.814   4.461   2.117  1.00  0.00     0.052 A 
ATOM      8  C   UNL     1      -2.702   5.179   1.593  1.00  0.00     0.013 A 
ATOM      9  C   UNL     1      -2.984   6.266   0.752  1.00  0.00     0.122 A 
ATOM     10  N   UNL     1      -4.216   6.673   0.387  1.00  0.00    -0.244 NA
ATOM     11  C   UNL     1      -5.087   4.822   1.665  1.00  0.00     0.055 A 
ATOM     12  C   UNL     1      -5.229   5.927   0.844  1.00  0.00     0.129 A 
ATOM     13  Cl  UNL     1      -6.783   6.457   0.345  1.00  0.00    -0.062 Cl
BRANCH   8  14
ATOM     14  C   UNL     1      -1.282   4.866   1.838  1.00  0.00    -0.015 A 
ATOM     15  C   UNL     1       0.601   3.312   1.720  1.00  0.00     0.060 A 
ATOM     16  C   UNL     1       1.398   4.226   2.416  1.00  0.00     0.016 A 
ATOM     17  C   UNL     1      -0.723   3.649   1.403  1.00  0.00     0.024 A 
ATOM     18  C   UNL     1       0.878   5.462   2.799  1.00  0.00     0.002 A 
ATOM     19  C   UNL     1      -0.453   5.775   2.518  1.00  0.00     0.009 A 
BRANCH  15  20
ATOM     20  C   UNL     1       1.179   1.981   1.399  1.00  0.00     0.337 C 
ATOM     21  O   UNL     1       2.192   1.547   1.923  1.00  0.00    -0.246 OA
BRANCH  20  22
ATOM     22  O   UNL     1       0.453   1.361   0.435  1.00  0.00    -0.465 OA
ATOM     23  C   UNL     1       0.941   0.065   0.083  1.00  0.00     0.282 C 
ENDBRANCH  20  22
ENDBRANCH  15  20
ENDBRANCH   8  14
ENDBRANCH   4   7
ENDBRANCH   2   3
ENDBRANCH   1   2
BRANCH   1  24
ATOM     24  C   UNL     1      -6.480   0.185   3.595  1.00  0.00     0.023 C 
BRANCH  24  25
ATOM     25  C   UNL     1      -7.138   0.018   4.965  1.00  0.00     0.116 C 
BRANCH  25  26
ATOM     26  N   UNL     1      -8.512   0.491   4.995  1.00  0.00    -0.352 N 
ATOM     27  C   UNL     1      -9.576   0.017   5.722  1.00  0.00     0.251 C 
ATOM     28  H   UNL     1      -8.708   1.259   4.411  1.00  0.00     0.163 HD
ATOM     29  O   UNL     1     -10.698   0.466   5.510  1.00  0.00    -0.269 OA
BRANCH  27  30
ATOM     30  C   UNL     1      -9.369  -1.052   6.721  1.00  0.00     0.039 A 
ATOM     31  C   UNL     1     -10.274  -2.114   6.760  1.00  0.00     0.014 A 
ATOM     32  C   UNL     1      -8.292  -1.013   7.612  1.00  0.00     0.014 A 
ATOM     33  C   UNL     1     -10.070  -3.161   7.658  1.00  0.00     0.010 A 
ATOM     34  C   UNL     1      -8.046  -2.097   8.451  1.00  0.00     0.010 A 
ATOM     35  C   UNL     1      -8.937  -3.178   8.491  1.00  0.00    -0.014 A 
BRANCH  35  36
ATOM     36  C   UNL     1      -8.690  -4.325   9.402  1.00  0.00     0.031 A 
ATOM     37  C   UNL     1      -8.695  -4.129  10.894  1.00  0.00     0.074 A 
ATOM     38  C   UNL     1      -8.441  -5.542   8.879  1.00  0.00     0.049 A 
ATOM     39  N   UNL     1      -8.550  -5.017  11.845  1.00  0.00    -0.248 NA
ATOM     40  C   UNL     1      -8.854  -2.751  11.381  1.00  0.00     0.031 C 
ATOM     41  C   UNL     1      -8.355  -5.840   7.447  1.00  0.00     0.029 A 
ATOM     42  N   UNL     1      -8.229  -6.755   9.482  1.00  0.00    -0.354 N 
ATOM     43  C   UNL     1      -8.591  -4.305  13.039  1.00  0.00     0.074 A 
ATOM     44  C   UNL     1      -8.700  -2.906  12.686  1.00  0.00     0.031 C 
ATOM     45  C   UNL     1      -8.168  -7.159   7.283  1.00  0.00     0.029 A 
ATOM     46  C   UNL     1      -8.078  -7.795   8.594  1.00  0.00     0.049 A 
ATOM     47  H   UNL     1      -8.190  -6.871  10.459  1.00  0.00     0.167 HD
ATOM     48  C   UNL     1      -8.567  -4.778  14.311  1.00  0.00     0.034 A 
ATOM     49  C   UNL     1      -7.897  -9.113   8.810  1.00  0.00     0.034 A 
ATOM     50  C   UNL     1      -8.464  -6.180  14.638  1.00  0.00     0.049 A 
ATOM     51  C   UNL     1      -7.859  -9.614  10.231  1.00  0.00     0.074 A 
ATOM     52  C   UNL     1      -8.499  -6.779  15.885  1.00  0.00     0.029 A 
ATOM     53  N   UNL     1      -8.288  -7.203  13.713  1.00  0.00    -0.354 N 
ATOM     54  N   UNL     1      -7.979  -8.939  11.351  1.00  0.00    -0.248 NA
ATOM     55  C   UNL     1      -7.676 -11.059  10.415  1.00  0.00     0.031 C 
ATOM     56  C   UNL     1      -8.260  -8.148  15.720  1.00  0.00     0.029 A 
ATOM     57  C   UNL     1      -8.172  -8.422  14.365  1.00  0.00     0.049 A 
ATOM     58  H   UNL     1      -8.252  -7.080  12.737  1.00  0.00     0.167 HD
ATOM     59  C   UNL     1      -7.927  -9.884  12.372  1.00  0.00     0.074 A 
ATOM     60  C   UNL     1      -7.775 -11.175  11.731  1.00  0.00     0.031 C 
ATOM     61  C   UNL     1      -8.008  -9.703  13.715  1.00  0.00     0.034 A 
BRANCH  48  62
ATOM     62  C   UNL     1      -8.619  -3.763  15.432  1.00  0.00     0.023 A 
ATOM     63  C   UNL     1      -9.704  -2.882  15.588  1.00  0.00     0.031 A 
ATOM     64  C   UNL     1      -7.548  -3.646  16.336  1.00  0.00     0.131 A 
ATOM     65  C   UNL     1      -9.653  -1.869  16.558  1.00  0.00     0.055 A 
ATOM     66  C   UNL     1      -7.546  -2.696  17.360  1.00  0.00     0.041 A 
ATOM     67  F   UNL     1      -6.472  -4.442  16.229  1.00  0.00    -0.206 F 
ATOM     68  C   UNL     1      -8.594  -1.787  17.463  1.00  0.00     0.022 A 
BRANCH  65  69
ATOM     69  S   UNL     1     -10.904  -0.555  16.502  1.00  0.00     0.124 S 
ATOM     70  O   UNL     1     -10.740  -0.049  15.141  1.00  0.00    -0.237 OA
ATOM     71  O   UNL     1     -12.139  -1.283  16.770  1.00  0.00    -0.237 OA
ATOM     72  O   UNL     1     -10.480   0.367  17.555  1.00  0.00    -0.744 OA
ENDBRANCH  65  69
ENDBRANCH  48  62
BRANCH  49  73
ATOM     73  C   UNL     1      -7.765 -10.055   7.662  1.00  0.00     0.023 A 
ATOM     74  C   UNL     1      -8.726 -11.054   7.435  1.00  0.00     0.031 A 
ATOM     75  C   UNL     1      -6.664  -9.990   6.790  1.00  0.00     0.131 A 
ATOM     76  C   UNL     1      -8.545 -11.975   6.391  1.00  0.00     0.055 A 
ATOM     77  C   UNL     1      -6.516 -10.874   5.720  1.00  0.00     0.041 A 
ATOM     78  F   UNL     1      -5.719  -9.050   6.958  1.00  0.00    -0.206 F 
ATOM     79  C   UNL     1      -7.455 -11.883   5.524  1.00  0.00     0.022 A 
BRANCH  76  80
ATOM     80  S   UNL     1      -9.718 -13.350   6.232  1.00  0.00     0.124 S 
ATOM     81  O   UNL     1      -9.585 -14.004   7.529  1.00  0.00    -0.237 OA
ATOM     82  O   UNL     1     -10.974 -12.649   5.991  1.00  0.00    -0.237 OA
ATOM     83  O   UNL     1      -9.200 -14.107   5.095  1.00  0.00    -0.744 OA
ENDBRANCH  76  80
ENDBRANCH  49  73
BRANCH  61  84
ATOM     84  C   UNL     1      -7.988 -10.943  14.579  1.00  0.00     0.023 A 
ATOM     85  C   UNL     1      -6.863 -11.782  14.654  1.00  0.00     0.031 A 
ATOM     86  C   UNL     1      -9.126 -11.297  15.327  1.00  0.00     0.131 A 
ATOM     87  C   UNL     1      -6.922 -12.966  15.406  1.00  0.00     0.055 A 
ATOM     88  C   UNL     1      -9.154 -12.438  16.130  1.00  0.00     0.041 A 
ATOM     89  F   UNL     1     -10.232 -10.537  15.291  1.00  0.00    -0.206 F 
ATOM     90  C   UNL     1      -8.053 -13.288  16.160  1.00  0.00     0.022 A 
BRANCH  87  91
ATOM     91  S   UNL     1      -5.541 -14.136  15.298  1.00  0.00     0.124 S 
ATOM     92  O   UNL     1      -5.481 -14.403  13.864  1.00  0.00    -0.237 OA
ATOM     93  O   UNL     1      -4.433 -13.364  15.849  1.00  0.00    -0.237 OA
ATOM     94  O   UNL     1      -5.980 -15.262  16.120  1.00  0.00    -0.744 OA
ENDBRANCH  87  91
ENDBRANCH  61  84
ENDBRANCH  35  36
ENDBRANCH  27  30
ENDBRANCH  25  26
ENDBRANCH  24  25
ENDBRANCH   1  24
TORSDOF 17
