REMARK SMILES O=C(NCCCCNC(=O)[C@H](NC(=O)c1ccc(Br)nc1)c1ccccc1)c1ccc(-c2c3nc(c(-c4cc(S(=O)(=O)[O-])ccc4F)c4ccc([nH]4)c(-c4cc(S(=O)(=O)[O-])ccc4F)c4nc(c(-c5cc(S(=O)(=O)[O-])ccc5F)c5ccc2[nH]5)C=C4)C=C3)cc1
REMARK SMILES IDX 5 1 4 2 3 3 1 4 2 5 28 7 29 8 90 9 30 10 89 11 31 12 32 13
REMARK SMILES IDX 33 14 83 15 34 16 88 17 82 18 84 19 35 20 87 21 81 22 80 23
REMARK SMILES IDX 36 25 68 26 48 27 67 28 49 29 52 30 66 31 85 32 50 33 51 34
REMARK SMILES IDX 65 36 86 37 53 38 37 39 38 40 46 41 39 42 45 43 47 44 44 45
REMARK SMILES IDX 40 46 41 47 42 48 43 49 69 50 70 51 78 52 71 53 77 54 79 55
REMARK SMILES IDX 76 56 72 57 73 58 74 59 75 60 54 61 55 62 63 63 56 64 62 65
REMARK SMILES IDX 64 66 61 67 57 68 58 69 59 70 60 71 6 72 7 73 8 74 9 75
REMARK SMILES IDX 10 77 11 78 22 79 23 80 27 81 24 82 26 83 25 84 12 85 13 86
REMARK SMILES IDX 14 88 15 89 16 90 21 91 17 92 20 93 18 94 19 95
REMARK H PARENT 3 6 84 24 52 35 8 76 12 87
REMARK Flexibility Score: inf
ROOT
ATOM      1  C   UNL     1       7.922   8.186   0.069  1.00  0.00     0.023 C 
ENDROOT
BRANCH   1   2
ATOM      2  C   UNL     1       7.869   9.700   0.236  1.00  0.00     0.116 C 
BRANCH   2   3
ATOM      3  N   UNL     1       9.168  10.281   0.534  1.00  0.00    -0.352 N 
ATOM      4  O   UNL     1      10.889  11.715   0.262  1.00  0.00    -0.269 OA
ATOM      5  C   UNL     1       9.721  11.429   0.018  1.00  0.00     0.251 C 
ATOM      6  H   UNL     1       9.720   9.793   1.186  1.00  0.00     0.163 HD
BRANCH   5   7
ATOM      7  C   UNL     1       8.901  12.302  -0.849  1.00  0.00     0.039 A 
ATOM      8  C   UNL     1       7.609  12.670  -0.462  1.00  0.00     0.014 A 
ATOM      9  C   UNL     1       9.432  12.758  -2.058  1.00  0.00     0.014 A 
ATOM     10  C   UNL     1       6.813  13.412  -1.327  1.00  0.00     0.010 A 
ATOM     11  C   UNL     1       8.655  13.562  -2.896  1.00  0.00     0.010 A 
ATOM     12  C   UNL     1       7.336  13.887  -2.541  1.00  0.00    -0.014 A 
BRANCH  12  13
ATOM     13  C   UNL     1       6.526  14.819  -3.364  1.00  0.00     0.031 A 
ATOM     14  C   UNL     1       6.016  14.425  -4.720  1.00  0.00     0.074 A 
ATOM     15  C   UNL     1       6.260  16.041  -2.858  1.00  0.00     0.049 A 
ATOM     16  N   UNL     1       5.310  15.129  -5.567  1.00  0.00    -0.248 NA
ATOM     17  C   UNL     1       6.342  13.070  -5.191  1.00  0.00     0.031 C 
ATOM     18  C   UNL     1       6.723  16.526  -1.553  1.00  0.00     0.029 A 
ATOM     19  N   UNL     1       5.543  17.092  -3.365  1.00  0.00    -0.354 N 
ATOM     20  C   UNL     1       5.120  14.316  -6.678  1.00  0.00     0.074 A 
ATOM     21  C   UNL     1       5.800  13.067  -6.403  1.00  0.00     0.031 C 
ATOM     22  C   UNL     1       6.258  17.768  -1.355  1.00  0.00     0.029 A 
ATOM     23  C   UNL     1       5.526  18.194  -2.540  1.00  0.00     0.049 A 
ATOM     24  H   UNL     1       5.084  17.062  -4.235  1.00  0.00     0.167 HD
ATOM     25  C   UNL     1       4.441  14.594  -7.818  1.00  0.00     0.034 A 
ATOM     26  C   UNL     1       5.011  19.424  -2.731  1.00  0.00     0.034 A 
ATOM     27  C   UNL     1       3.761  15.844  -8.065  1.00  0.00     0.049 A 
ATOM     28  C   UNL     1       4.299  19.711  -4.024  1.00  0.00     0.074 A 
ATOM     29  C   UNL     1       2.976  16.196  -9.150  1.00  0.00     0.029 A 
ATOM     30  N   UNL     1       3.800  16.952  -7.229  1.00  0.00    -0.354 N 
ATOM     31  N   UNL     1       4.081  18.907  -5.040  1.00  0.00    -0.248 NA
ATOM     32  C   UNL     1       3.767  21.067  -4.199  1.00  0.00     0.031 C 
ATOM     33  C   UNL     1       2.601  17.537  -9.004  1.00  0.00     0.029 A 
ATOM     34  C   UNL     1       3.094  18.002  -7.796  1.00  0.00     0.049 A 
ATOM     35  H   UNL     1       4.261  16.986  -6.359  1.00  0.00     0.167 HD
ATOM     36  C   UNL     1       3.377  19.662  -5.972  1.00  0.00     0.074 A 
ATOM     37  C   UNL     1       3.181  20.971  -5.383  1.00  0.00     0.031 C 
ATOM     38  C   UNL     1       2.936  19.309  -7.205  1.00  0.00     0.034 A 
BRANCH  25  39
ATOM     39  C   UNL     1       4.431  13.554  -8.910  1.00  0.00     0.023 A 
ATOM     40  C   UNL     1       3.741  12.338  -8.777  1.00  0.00     0.031 A 
ATOM     41  C   UNL     1       5.095  13.809 -10.125  1.00  0.00     0.131 A 
ATOM     42  C   UNL     1       3.758  11.407  -9.829  1.00  0.00     0.055 A 
ATOM     43  C   UNL     1       5.061  12.904 -11.187  1.00  0.00     0.041 A 
ATOM     44  F   UNL     1       5.784  14.947 -10.300  1.00  0.00    -0.206 F 
ATOM     45  C   UNL     1       4.394  11.691 -11.040  1.00  0.00     0.022 A 
BRANCH  42  46
ATOM     46  S   UNL     1       2.999   9.780  -9.566  1.00  0.00     0.124 S 
ATOM     47  O   UNL     1       3.797   9.256  -8.461  1.00  0.00    -0.237 OA
ATOM     48  O   UNL     1       1.618  10.123  -9.249  1.00  0.00    -0.237 OA
ATOM     49  O   UNL     1       3.194   9.100 -10.845  1.00  0.00    -0.744 OA
ENDBRANCH  42  46
ENDBRANCH  25  39
BRANCH  26  50
ATOM     50  C   UNL     1       5.203  20.489  -1.706  1.00  0.00     0.023 A 
ATOM     51  C   UNL     1       4.108  21.077  -1.057  1.00  0.00     0.031 A 
ATOM     52  C   UNL     1       6.490  20.968  -1.398  1.00  0.00     0.131 A 
ATOM     53  C   UNL     1       4.316  22.144  -0.168  1.00  0.00     0.055 A 
ATOM     54  C   UNL     1       6.695  21.988  -0.469  1.00  0.00     0.041 A 
ATOM     55  F   UNL     1       7.572  20.439  -1.991  1.00  0.00    -0.206 F 
ATOM     56  C   UNL     1       5.602  22.594   0.140  1.00  0.00     0.022 A 
BRANCH  53  57
ATOM     57  S   UNL     1       2.868  23.008   0.500  1.00  0.00     0.124 S 
ATOM     58  O   UNL     1       2.141  23.358  -0.715  1.00  0.00    -0.237 OA
ATOM     59  O   UNL     1       2.262  21.977   1.336  1.00  0.00    -0.237 OA
ATOM     60  O   UNL     1       3.450  24.135   1.226  1.00  0.00    -0.744 OA
ENDBRANCH  53  57
ENDBRANCH  26  50
BRANCH  38  61
ATOM     61  C   UNL     1       2.191  20.365  -7.979  1.00  0.00     0.023 A 
ATOM     62  C   UNL     1       2.843  21.514  -8.460  1.00  0.00     0.031 A 
ATOM     63  C   UNL     1       0.810  20.240  -8.208  1.00  0.00     0.131 A 
ATOM     64  C   UNL     1       2.103  22.522  -9.094  1.00  0.00     0.055 A 
ATOM     65  C   UNL     1       0.089  21.219  -8.892  1.00  0.00     0.041 A 
ATOM     66  F   UNL     1       0.139  19.164  -7.766  1.00  0.00    -0.206 F 
ATOM     67  C   UNL     1       0.733  22.375  -9.327  1.00  0.00     0.022 A 
BRANCH  64  68
ATOM     68  S   UNL     1       2.939  24.070  -9.533  1.00  0.00     0.124 S 
ATOM     69  O   UNL     1       3.381  24.555  -8.229  1.00  0.00    -0.237 OA
ATOM     70  O   UNL     1       3.993  23.613 -10.433  1.00  0.00    -0.237 OA
ATOM     71  O   UNL     1       1.886  24.862 -10.165  1.00  0.00    -0.744 OA
ENDBRANCH  64  68
ENDBRANCH  38  61
ENDBRANCH  12  13
ENDBRANCH   5   7
ENDBRANCH   2   3
ENDBRANCH   1   2
BRANCH   1  72
ATOM     72  C   UNL     1       8.378   7.412   1.308  1.00  0.00     0.023 C 
BRANCH  72  73
ATOM     73  C   UNL     1       7.556   7.684   2.565  1.00  0.00     0.116 C 
BRANCH  73  74
ATOM     74  N   UNL     1       6.186   7.220   2.425  1.00  0.00    -0.354 N 
ATOM     75  C   UNL     1       5.556   6.179   3.061  1.00  0.00     0.247 C 
ATOM     76  H   UNL     1       5.632   7.722   1.785  1.00  0.00     0.163 HD
ATOM     77  O   UNL     1       4.427   5.867   2.683  1.00  0.00    -0.272 OA
BRANCH  75  78
ATOM     78  C   UNL     1       6.321   5.418   4.168  1.00  0.00     0.202 C 
BRANCH  78  79
ATOM     79  C   UNL     1       5.409   4.716   5.167  1.00  0.00    -0.016 A 
ATOM     80  C   UNL     1       4.722   5.489   6.119  1.00  0.00     0.006 A 
ATOM     81  C   UNL     1       5.282   3.318   5.224  1.00  0.00     0.006 A 
ATOM     82  C   UNL     1       3.973   4.880   7.127  1.00  0.00     0.000 A 
ATOM     83  C   UNL     1       4.540   2.711   6.239  1.00  0.00     0.000 A 
ATOM     84  C   UNL     1       3.894   3.491   7.194  1.00  0.00     0.000 A 
ENDBRANCH  78  79
BRANCH  78  85
ATOM     85  N   UNL     1       7.268   4.503   3.526  1.00  0.00    -0.336 N 
ATOM     86  C   UNL     1       8.569   4.223   3.842  1.00  0.00     0.253 C 
ATOM     87  H   UNL     1       6.913   4.014   2.749  1.00  0.00     0.165 HD
ATOM     88  O   UNL     1       9.246   3.523   3.095  1.00  0.00    -0.269 OA
BRANCH  86  89
ATOM     89  C   UNL     1       9.200   4.798   5.044  1.00  0.00     0.058 A 
ATOM     90  C   UNL     1       8.626   4.763   6.314  1.00  0.00     0.018 A 
ATOM     91  C   UNL     1      10.458   5.372   4.916  1.00  0.00     0.126 A 
ATOM     92  C   UNL     1       9.289   5.365   7.383  1.00  0.00     0.037 A 
ATOM     93  N   UNL     1      11.126   5.961   5.939  1.00  0.00    -0.249 NA
ATOM     94  C   UNL     1      10.524   5.952   7.149  1.00  0.00     0.106 A 
ATOM     95  Br  UNL     1      11.430   6.779   8.594  1.00  0.00    -0.029 Br
ENDBRANCH  86  89
ENDBRANCH  78  85
ENDBRANCH  75  78
ENDBRANCH  73  74
ENDBRANCH  72  73
ENDBRANCH   1  72
TORSDOF 17
