REMARK SMILES Cc1cscc1C(=O)Nc1cc(Br)ccc1C(=O)NCCCCNC(=O)c1ccc(-c2c3nc(c(-c4cc(S(=O)(=O)[O-])ccc4F)c4ccc([nH]4)c(-c4cc(S(=O)(=O)[O-])ccc4F)c4nc(c(-c5cc(S(=O)(=O)[O-])ccc5F)c5ccc2[nH]5)C=C4)C=C3)cc1
REMARK SMILES IDX 22 1 21 2 20 3 19 4 17 5 18 6 16 8 10 9 11 10 12 11 15 12
REMARK SMILES IDX 13 13 14 14 9 15 7 16 8 17 6 19 1 20 2 21 3 22 4 23 5 24
REMARK SMILES IDX 23 25 24 26 25 27 26 29 27 30 28 31 89 32 29 33 88 34 30 35
REMARK SMILES IDX 31 36 32 37 82 38 33 39 87 40 81 41 83 42 34 43 86 44 80 45
REMARK SMILES IDX 79 46 35 48 67 49 47 50 66 51 48 52 51 53 65 54 84 55 49 56
REMARK SMILES IDX 50 57 64 59 85 60 52 61 36 62 37 63 45 64 38 65 44 66 46 67
REMARK SMILES IDX 43 68 39 69 40 70 41 71 42 72 68 73 69 74 77 75 70 76 76 77
REMARK SMILES IDX 78 78 75 79 71 80 72 81 73 82 74 83 53 84 54 85 62 86 55 87
REMARK SMILES IDX 61 88 63 89 60 90 56 91 57 92 58 93 59 94
REMARK H PARENT 19 7 9 18 24 28 83 47 51 58
REMARK Flexibility Score: inf
ROOT
ATOM      1  C   UNL     1       2.373   5.381   3.083  1.00  0.00     0.023 C 
ENDROOT
BRANCH   1   2
ATOM      2  C   UNL     1       1.911   3.978   2.699  1.00  0.00     0.023 C 
BRANCH   2   3
ATOM      3  C   UNL     1       2.719   3.253   1.631  1.00  0.00     0.116 C 
BRANCH   3   4
ATOM      4  N   UNL     1       4.109   3.002   1.919  1.00  0.00    -0.352 N 
ATOM      5  C   UNL     1       5.013   2.101   1.405  1.00  0.00     0.253 C 
ATOM      6  O   UNL     1       6.152   2.166   1.879  1.00  0.00    -0.269 OA
ATOM      7  H   UNL     1       4.484   3.588   2.617  1.00  0.00     0.163 HD
BRANCH   5   8
ATOM      8  C   UNL     1       4.755   1.030   0.373  1.00  0.00     0.063 A 
ATOM      9  C   UNL     1       3.791   0.979  -0.656  1.00  0.00     0.055 A 
ATOM     10  C   UNL     1       3.790  -0.071  -1.595  1.00  0.00     0.042 A 
ATOM     11  C   UNL     1       4.693  -1.123  -1.480  1.00  0.00     0.020 A 
ATOM     12  C   UNL     1       5.629  -0.079   0.477  1.00  0.00     0.017 A 
ATOM     13  Br  UNL     1       4.667  -2.529  -2.740  1.00  0.00    -0.051 Br
ATOM     14  C   UNL     1       5.597  -1.147  -0.428  1.00  0.00     0.016 A 
BRANCH   9  15
ATOM     15  N   UNL     1       2.901   2.009  -0.906  1.00  0.00    -0.321 N 
ATOM     16  C   UNL     1       1.529   2.038  -1.028  1.00  0.00     0.256 C 
ATOM     17  O   UNL     1       1.091   3.120  -1.438  1.00  0.00    -0.269 OA
ATOM     18  H   UNL     1       3.329   2.888  -1.018  1.00  0.00     0.170 HD
BRANCH  16  19
ATOM     19  C   UNL     1       0.577   0.985  -0.574  1.00  0.00     0.053 A 
ATOM     20  C   UNL     1       1.835  -1.048   0.661  1.00  0.00     0.046 C 
ATOM     21  C   UNL     1       0.661  -0.309   0.114  1.00  0.00    -0.028 A 
ATOM     22  C   UNL     1      -0.593  -0.890   0.260  1.00  0.00     0.069 A 
ATOM     23  S   UNL     1      -1.869   0.099  -0.246  1.00  0.00    -0.151 S 
ATOM     24  C   UNL     1      -0.775   1.300  -0.733  1.00  0.00     0.079 A 
ENDBRANCH  16  19
ENDBRANCH   9  15
ENDBRANCH   5   8
ENDBRANCH   3   4
ENDBRANCH   2   3
ENDBRANCH   1   2
BRANCH   1  25
ATOM     25  C   UNL     1       2.725   6.335   1.945  1.00  0.00     0.116 C 
BRANCH  25  26
ATOM     26  N   UNL     1       1.627   6.616   1.034  1.00  0.00    -0.352 N 
ATOM     27  C   UNL     1       1.001   7.807   0.722  1.00  0.00     0.251 C 
ATOM     28  H   UNL     1       1.271   5.828   0.564  1.00  0.00     0.163 HD
ATOM     29  O   UNL     1       0.029   7.797  -0.018  1.00  0.00    -0.269 OA
BRANCH  27  30
ATOM     30  C   UNL     1       1.469   9.088   1.310  1.00  0.00     0.039 A 
ATOM     31  C   UNL     1       0.517  10.011   1.754  1.00  0.00     0.014 A 
ATOM     32  C   UNL     1       2.826   9.394   1.418  1.00  0.00     0.014 A 
ATOM     33  C   UNL     1       0.928  11.196   2.375  1.00  0.00     0.010 A 
ATOM     34  C   UNL     1       3.233  10.521   2.130  1.00  0.00     0.010 A 
ATOM     35  C   UNL     1       2.290  11.446   2.605  1.00  0.00    -0.014 A 
BRANCH  35  36
ATOM     36  C   UNL     1       2.750  12.686   3.292  1.00  0.00     0.031 A 
ATOM     37  C   UNL     1       3.653  13.653   2.566  1.00  0.00     0.074 A 
ATOM     38  C   UNL     1       2.405  12.920   4.575  1.00  0.00     0.049 A 
ATOM     39  N   UNL     1       4.225  14.745   3.005  1.00  0.00    -0.248 NA
ATOM     40  C   UNL     1       3.989  13.323   1.172  1.00  0.00     0.031 C 
ATOM     41  C   UNL     1       1.579  12.040   5.405  1.00  0.00     0.029 A 
ATOM     42  N   UNL     1       2.709  13.967   5.411  1.00  0.00    -0.354 N 
ATOM     43  C   UNL     1       5.003  15.217   1.951  1.00  0.00     0.074 A 
ATOM     44  C   UNL     1       4.886  14.251   0.881  1.00  0.00     0.031 C 
ATOM     45  C   UNL     1       1.417  12.598   6.615  1.00  0.00     0.029 A 
ATOM     46  C   UNL     1       2.158  13.854   6.668  1.00  0.00     0.049 A 
ATOM     47  H   UNL     1       3.269  14.729   5.136  1.00  0.00     0.167 HD
ATOM     48  C   UNL     1       5.722  16.364   1.869  1.00  0.00     0.034 A 
ATOM     49  C   UNL     1       2.243  14.669   7.739  1.00  0.00     0.034 A 
ATOM     50  C   UNL     1       5.802  17.335   2.932  1.00  0.00     0.049 A 
ATOM     51  C   UNL     1       3.037  15.947   7.619  1.00  0.00     0.074 A 
ATOM     52  C   UNL     1       6.458  18.554   2.939  1.00  0.00     0.029 A 
ATOM     53  N   UNL     1       5.202  17.201   4.177  1.00  0.00    -0.354 N 
ATOM     54  N   UNL     1       3.726  16.401   6.597  1.00  0.00    -0.248 NA
ATOM     55  C   UNL     1       3.045  16.834   8.790  1.00  0.00     0.031 C 
ATOM     56  C   UNL     1       6.306  19.127   4.207  1.00  0.00     0.029 A 
ATOM     57  C   UNL     1       5.487  18.305   4.965  1.00  0.00     0.049 A 
ATOM     58  H   UNL     1       4.654  16.433   4.460  1.00  0.00     0.167 HD
ATOM     59  C   UNL     1       4.212  17.646   6.990  1.00  0.00     0.074 A 
ATOM     60  C   UNL     1       3.723  17.875   8.333  1.00  0.00     0.031 C 
ATOM     61  C   UNL     1       4.989  18.523   6.303  1.00  0.00     0.034 A 
BRANCH  48  62
ATOM     62  C   UNL     1       6.488  16.615   0.590  1.00  0.00     0.023 A 
ATOM     63  C   UNL     1       5.836  16.753  -0.649  1.00  0.00     0.031 A 
ATOM     64  C   UNL     1       7.892  16.689   0.603  1.00  0.00     0.131 A 
ATOM     65  C   UNL     1       6.587  16.876  -1.828  1.00  0.00     0.055 A 
ATOM     66  C   UNL     1       8.630  16.900  -0.564  1.00  0.00     0.041 A 
ATOM     67  F   UNL     1       8.575  16.544   1.750  1.00  0.00    -0.206 F 
ATOM     68  C   UNL     1       7.979  16.978  -1.792  1.00  0.00     0.022 A 
BRANCH  65  69
ATOM     69  S   UNL     1       5.726  16.751  -3.419  1.00  0.00     0.124 S 
ATOM     70  O   UNL     1       5.144  15.413  -3.334  1.00  0.00    -0.237 OA
ATOM     71  O   UNL     1       4.784  17.862  -3.357  1.00  0.00    -0.237 OA
ATOM     72  O   UNL     1       6.798  16.896  -4.402  1.00  0.00    -0.744 OA
ENDBRANCH  65  69
ENDBRANCH  48  62
BRANCH  49  73
ATOM     73  C   UNL     1       1.562  14.319   9.021  1.00  0.00     0.023 A 
ATOM     74  C   UNL     1       0.539  15.129   9.543  1.00  0.00     0.031 A 
ATOM     75  C   UNL     1       1.967  13.206   9.779  1.00  0.00     0.131 A 
ATOM     76  C   UNL     1       0.000  14.852  10.809  1.00  0.00     0.055 A 
ATOM     77  C   UNL     1       1.386  12.900  11.011  1.00  0.00     0.041 A 
ATOM     78  F   UNL     1       2.936  12.394   9.328  1.00  0.00    -0.206 F 
ATOM     79  C   UNL     1       0.408  13.735  11.541  1.00  0.00     0.022 A 
BRANCH  76  80
ATOM     80  S   UNL     1      -1.168  16.036  11.535  1.00  0.00     0.124 S 
ATOM     81  O   UNL     1      -0.389  17.269  11.518  1.00  0.00    -0.237 OA
ATOM     82  O   UNL     1      -2.286  15.970  10.599  1.00  0.00    -0.237 OA
ATOM     83  O   UNL     1      -1.434  15.482  12.861  1.00  0.00    -0.744 OA
ENDBRANCH  76  80
ENDBRANCH  49  73
BRANCH  61  84
ATOM     84  C   UNL     1       5.295  19.841   6.974  1.00  0.00     0.023 A 
ATOM     85  C   UNL     1       6.064  19.918   8.148  1.00  0.00     0.031 A 
ATOM     86  C   UNL     1       4.785  21.038   6.439  1.00  0.00     0.131 A 
ATOM     87  C   UNL     1       6.240  21.154   8.788  1.00  0.00     0.055 A 
ATOM     88  C   UNL     1       5.022  22.273   7.042  1.00  0.00     0.041 A 
ATOM     89  F   UNL     1       4.043  21.025   5.319  1.00  0.00    -0.206 F 
ATOM     90  C   UNL     1       5.738  22.334   8.233  1.00  0.00     0.022 A 
BRANCH  87  91
ATOM     91  S   UNL     1       7.032  21.184  10.419  1.00  0.00     0.124 S 
ATOM     92  O   UNL     1       6.199  20.258  11.179  1.00  0.00    -0.237 OA
ATOM     93  O   UNL     1       8.384  20.724  10.117  1.00  0.00    -0.237 OA
ATOM     94  O   UNL     1       6.931  22.585  10.825  1.00  0.00    -0.744 OA
ENDBRANCH  87  91
ENDBRANCH  61  84
ENDBRANCH  35  36
ENDBRANCH  27  30
ENDBRANCH  25  26
ENDBRANCH   1  25
TORSDOF 16
