REMARK SMILES Cc1ccc(S(=O)(=O)N2CCN(C(=O)[C@H]3CCCC[C@@H]3C(=O)NCCCCNC(=O)c3ccc(-c4c5nc(c(-c6cc(S(=O)(=O)[O-])ccc6F)c6ccc([nH]6)c(-c6cc(S(=O)(=O)[O-])ccc6F)c6nc(c(-c7cc(S(=O)(=O)[O-])ccc7F)c7ccc4[nH]7)C=C6)C=C5)cc3)CC2)cc1C
REMARK SMILES IDX 25 1 24 2 23 3 21 4 22 5 20 7 15 8 16 9 17 10 19 11 18 12
REMARK SMILES IDX 13 13 9 14 10 15 95 16 11 17 94 18 12 19 14 20 6 21 7 22
REMARK SMILES IDX 8 23 5 24 1 25 2 26 3 27 97 28 4 29 96 30 98 31 26 32 27 33
REMARK SMILES IDX 28 34 29 35 30 37 31 38 32 39 93 40 33 41 92 42 34 43 35 44
REMARK SMILES IDX 36 45 86 46 37 47 91 48 85 49 87 50 38 51 90 52 84 53 83 54
REMARK SMILES IDX 39 56 71 57 51 58 70 59 52 60 55 61 69 62 88 63 53 64 54 65
REMARK SMILES IDX 68 67 89 68 56 69 40 70 41 71 49 72 42 73 48 74 50 75 47 76
REMARK SMILES IDX 43 77 44 78 45 79 46 80 72 81 73 82 81 83 74 84 80 85 82 86
REMARK SMILES IDX 79 87 75 88 76 89 77 90 78 91 57 92 58 93 66 94 59 95 65 96
REMARK SMILES IDX 67 97 64 98 60 99 61 100 62 101 63 102
REMARK H PARENT 23 6 28 36 87 55 55 66
REMARK Flexibility Score: inf
ROOT
ATOM      1  C   UNL     1      -1.734   5.985  -3.365  1.00  0.00     0.023 C 
ENDROOT
BRANCH   1   2
ATOM      2  C   UNL     1      -3.142   5.832  -2.812  1.00  0.00     0.116 C 
BRANCH   2   3
ATOM      3  N   UNL     1      -3.446   4.496  -2.346  1.00  0.00    -0.356 N 
ATOM      4  C   UNL     1      -4.317   4.106  -1.375  1.00  0.00     0.223 C 
ATOM      5  O   UNL     1      -4.404   2.899  -1.141  1.00  0.00    -0.275 OA
ATOM      6  H   UNL     1      -2.954   3.769  -2.792  1.00  0.00     0.163 HD
BRANCH   4   7
ATOM      7  C   UNL     1      -5.079   5.152  -0.558  1.00  0.00     0.091 C 
ATOM      8  C   UNL     1      -5.998   4.464   0.509  1.00  0.00     0.091 C 
ATOM      9  C   UNL     1      -7.222   3.848  -0.209  1.00  0.00     0.014 C 
ATOM     10  C   UNL     1      -8.012   4.848  -1.036  1.00  0.00     0.001 C 
ATOM     11  C   UNL     1      -5.919   6.163  -1.372  1.00  0.00     0.014 C 
ATOM     12  C   UNL     1      -7.117   5.524  -2.056  1.00  0.00     0.001 C 
BRANCH   8  13
ATOM     13  C   UNL     1      -6.276   5.514   1.598  1.00  0.00     0.226 C 
ATOM     14  N   UNL     1      -9.473   5.356   4.389  1.00  0.00    -0.194 NA
ATOM     15  C   UNL     1      -9.090   6.620   3.742  1.00  0.00     0.124 C 
ATOM     16  C   UNL     1      -9.241   4.146   3.568  1.00  0.00     0.124 C 
ATOM     17  C   UNL     1      -7.637   6.563   3.287  1.00  0.00     0.136 C 
ATOM     18  C   UNL     1      -7.816   4.085   2.993  1.00  0.00     0.136 C 
ATOM     19  N   UNL     1      -7.330   5.372   2.478  1.00  0.00    -0.340 N 
ATOM     20  O   UNL     1      -5.539   6.503   1.708  1.00  0.00    -0.275 OA
BRANCH  14  21
ATOM     21  S   UNL     1      -9.873   5.292   6.015  1.00  0.00     0.243 S 
ATOM     22  O   UNL     1     -10.467   4.004   6.285  1.00  0.00    -0.207 OA
ATOM     23  O   UNL     1     -10.573   6.525   6.327  1.00  0.00    -0.207 OA
BRANCH  21  24
ATOM     24  C   UNL     1      -8.349   5.345   6.936  1.00  0.00     0.082 A 
ATOM     25  C   UNL     1      -4.663   5.394   9.190  1.00  0.00     0.044 C 
ATOM     26  C   UNL     1      -5.966   5.408   8.441  1.00  0.00    -0.048 A 
ATOM     27  C   UNL     1      -5.962   4.988   7.110  1.00  0.00     0.005 A 
ATOM     28  C   UNL     1      -7.186   5.804   9.028  1.00  0.00    -0.047 A 
ATOM     29  C   UNL     1      -7.144   4.951   6.379  1.00  0.00     0.022 A 
ATOM     30  C   UNL     1      -8.370   5.783   8.260  1.00  0.00     0.025 A 
ATOM     31  C   UNL     1      -7.290   6.245  10.461  1.00  0.00     0.044 C 
ENDBRANCH  21  24
ENDBRANCH  14  21
ENDBRANCH   8  13
ENDBRANCH   4   7
ENDBRANCH   2   3
ENDBRANCH   1   2
BRANCH   1  32
ATOM     32  C   UNL     1      -1.382   5.049  -4.518  1.00  0.00     0.023 C 
BRANCH  32  33
ATOM     33  C   UNL     1      -2.376   5.035  -5.673  1.00  0.00     0.116 C 
BRANCH  33  34
ATOM     34  N   UNL     1      -2.501   6.330  -6.324  1.00  0.00    -0.352 N 
ATOM     35  C   UNL     1      -2.181   6.699  -7.610  1.00  0.00     0.251 C 
ATOM     36  H   UNL     1      -2.870   7.048  -5.761  1.00  0.00     0.163 HD
ATOM     37  O   UNL     1      -2.189   7.888  -7.918  1.00  0.00    -0.269 OA
BRANCH  35  38
ATOM     38  C   UNL     1      -1.798   5.671  -8.603  1.00  0.00     0.039 A 
ATOM     39  C   UNL     1      -0.700   5.905  -9.435  1.00  0.00     0.014 A 
ATOM     40  C   UNL     1      -2.511   4.475  -8.709  1.00  0.00     0.014 A 
ATOM     41  C   UNL     1      -0.276   4.908 -10.318  1.00  0.00     0.010 A 
ATOM     42  C   UNL     1      -2.029   3.449  -9.516  1.00  0.00     0.010 A 
ATOM     43  C   UNL     1      -0.910   3.655 -10.338  1.00  0.00    -0.014 A 
BRANCH  43  44
ATOM     44  C   UNL     1      -0.440   2.561 -11.231  1.00  0.00     0.031 A 
ATOM     45  C   UNL     1      -1.363   2.005 -12.285  1.00  0.00     0.074 A 
ATOM     46  C   UNL     1       0.790   2.034 -11.066  1.00  0.00     0.049 A 
ATOM     47  N   UNL     1      -1.179   0.998 -13.100  1.00  0.00    -0.248 NA
ATOM     48  C   UNL     1      -2.679   2.649 -12.415  1.00  0.00     0.031 C 
ATOM     49  C   UNL     1       1.763   2.458 -10.056  1.00  0.00     0.029 A 
ATOM     50  N   UNL     1       1.433   1.022 -11.736  1.00  0.00    -0.354 N 
ATOM     51  C   UNL     1      -2.355   0.888 -13.836  1.00  0.00     0.074 A 
ATOM     52  C   UNL     1      -3.272   1.876 -13.311  1.00  0.00     0.031 C 
ATOM     53  C   UNL     1       2.883   1.730 -10.190  1.00  0.00     0.029 A 
ATOM     54  C   UNL     1       2.695   0.752 -11.256  1.00  0.00     0.049 A 
ATOM     55  H   UNL     1       1.029   0.535 -12.490  1.00  0.00     0.167 HD
ATOM     56  C   UNL     1      -2.634   0.063 -14.876  1.00  0.00     0.034 A 
ATOM     57  C   UNL     1       3.591  -0.188 -11.621  1.00  0.00     0.034 A 
ATOM     58  C   UNL     1      -1.708  -0.915 -15.393  1.00  0.00     0.049 A 
ATOM     59  C   UNL     1       3.245  -1.121 -12.757  1.00  0.00     0.074 A 
ATOM     60  C   UNL     1      -1.879  -1.788 -16.453  1.00  0.00     0.029 A 
ATOM     61  N   UNL     1      -0.436  -1.152 -14.887  1.00  0.00    -0.354 N 
ATOM     62  N   UNL     1       2.139  -1.190 -13.462  1.00  0.00    -0.248 NA
ATOM     63  C   UNL     1       4.273  -2.089 -13.158  1.00  0.00     0.031 C 
ATOM     64  C   UNL     1      -0.742  -2.597 -16.544  1.00  0.00     0.029 A 
ATOM     65  C   UNL     1       0.178  -2.169 -15.601  1.00  0.00     0.049 A 
ATOM     66  H   UNL     1      -0.030  -0.667 -14.132  1.00  0.00     0.167 HD
ATOM     67  C   UNL     1       2.358  -2.182 -14.415  1.00  0.00     0.074 A 
ATOM     68  C   UNL     1       3.705  -2.669 -14.203  1.00  0.00     0.031 C 
ATOM     69  C   UNL     1       1.524  -2.645 -15.382  1.00  0.00     0.034 A 
BRANCH  56  70
ATOM     70  C   UNL     1      -4.000   0.183 -15.510  1.00  0.00     0.023 A 
ATOM     71  C   UNL     1      -4.419   1.373 -16.132  1.00  0.00     0.031 A 
ATOM     72  C   UNL     1      -4.903  -0.894 -15.479  1.00  0.00     0.131 A 
ATOM     73  C   UNL     1      -5.726   1.484 -16.627  1.00  0.00     0.055 A 
ATOM     74  C   UNL     1      -6.173  -0.806 -16.053  1.00  0.00     0.041 A 
ATOM     75  F   UNL     1      -4.572  -2.048 -14.879  1.00  0.00    -0.206 F 
ATOM     76  C   UNL     1      -6.597   0.393 -16.618  1.00  0.00     0.022 A 
BRANCH  73  77
ATOM     77  S   UNL     1      -6.318   3.118 -17.146  1.00  0.00     0.124 S 
ATOM     78  O   UNL     1      -6.168   3.890 -15.915  1.00  0.00    -0.237 OA
ATOM     79  O   UNL     1      -5.402   3.456 -18.229  1.00  0.00    -0.237 OA
ATOM     80  O   UNL     1      -7.700   2.869 -17.552  1.00  0.00    -0.744 OA
ENDBRANCH  73  77
ENDBRANCH  56  70
BRANCH  57  81
ATOM     81  C   UNL     1       4.893  -0.318 -10.900  1.00  0.00     0.023 A 
ATOM     82  C   UNL     1       6.117  -0.138 -11.565  1.00  0.00     0.031 A 
ATOM     83  C   UNL     1       4.933  -0.691  -9.544  1.00  0.00     0.131 A 
ATOM     84  C   UNL     1       7.324  -0.393 -10.894  1.00  0.00     0.055 A 
ATOM     85  C   UNL     1       6.137  -0.877  -8.862  1.00  0.00     0.041 A 
ATOM     86  F   UNL     1       3.794  -0.875  -8.856  1.00  0.00    -0.206 F 
ATOM     87  C   UNL     1       7.342  -0.745  -9.543  1.00  0.00     0.022 A 
BRANCH  84  88
ATOM     88  S   UNL     1       8.868  -0.373 -11.846  1.00  0.00     0.124 S 
ATOM     89  O   UNL     1       8.584  -1.350 -12.891  1.00  0.00    -0.237 OA
ATOM     90  O   UNL     1       8.942   1.021 -12.273  1.00  0.00    -0.237 OA
ATOM     91  O   UNL     1       9.875  -0.778 -10.868  1.00  0.00    -0.744 OA
ENDBRANCH  84  88
ENDBRANCH  57  81
BRANCH  69  92
ATOM     92  C   UNL     1       2.074  -3.686 -16.329  1.00  0.00     0.023 A 
ATOM     93  C   UNL     1       2.445  -4.970 -15.895  1.00  0.00     0.031 A 
ATOM     94  C   UNL     1       2.239  -3.377 -17.692  1.00  0.00     0.131 A 
ATOM     95  C   UNL     1       3.022  -5.874 -16.800  1.00  0.00     0.055 A 
ATOM     96  C   UNL     1       2.746  -4.306 -18.602  1.00  0.00     0.041 A 
ATOM     97  F   UNL     1       1.905  -2.166 -18.165  1.00  0.00    -0.206 F 
ATOM     98  C   UNL     1       3.156  -5.558 -18.154  1.00  0.00     0.022 A 
BRANCH  95  99
ATOM     99  S   UNL     1       3.698  -7.432 -16.162  1.00  0.00     0.124 S 
ATOM    100  O   UNL     1       4.657  -6.962 -15.167  1.00  0.00    -0.237 OA
ATOM    101  O   UNL     1       2.510  -8.097 -15.638  1.00  0.00    -0.237 OA
ATOM    102  O   UNL     1       4.288  -8.059 -17.344  1.00  0.00    -0.744 OA
ENDBRANCH  95  99
ENDBRANCH  69  92
ENDBRANCH  43  44
ENDBRANCH  35  38
ENDBRANCH  33  34
ENDBRANCH  32  33
ENDBRANCH   1  32
TORSDOF 17
