REMARK SMILES O=C(C[C@H]1C[N@@H+]([C@@H]2CC(=O)NC2=O)CCO1)NCCCCNC(=O)c1ccc(-c2c3nc(c(-c4cc(S(=O)(=O)[O-])ccc4F)c4ccc([nH]4)c(-c4cc(S(=O)(=O)[O-])ccc4F)c4nc(c(-c5cc(S(=O)(=O)[O-])ccc5F)c5ccc2[nH]5)C=C4)C=C3)cc1
REMARK SMILES IDX 20 1 19 2 18 3 17 4 1 5 2 6 3 8 4 9 5 10 16 11 6 12 15 13
REMARK SMILES IDX 14 14 7 16 8 17 12 18 9 19 11 20 13 21 10 22 21 24 22 25
REMARK SMILES IDX 23 26 24 28 25 29 26 30 87 31 27 32 86 33 28 34 29 35 30 36
REMARK SMILES IDX 80 37 31 38 85 39 79 40 81 41 32 42 84 43 78 44 77 45 33 47
REMARK SMILES IDX 65 48 45 49 64 50 46 51 49 52 63 53 82 54 47 55 48 56 62 58
REMARK SMILES IDX 83 59 50 60 34 61 35 62 43 63 36 64 42 65 44 66 41 67 37 68
REMARK SMILES IDX 38 69 39 70 40 71 66 72 67 73 75 74 68 75 74 76 76 77 73 78
REMARK SMILES IDX 69 79 70 80 71 81 72 82 51 83 52 84 60 85 53 86 59 87 61 88
REMARK SMILES IDX 58 89 54 90 55 91 56 92 57 93
REMARK H PARENT 17 7 6 15 11 23 22 27 81 46 49 57
REMARK Flexibility Score: inf
ROOT
ATOM      1  C   UNL     1       4.923   1.948  -3.516  1.00  0.00     0.023 C 
ENDROOT
BRANCH   1   2
ATOM      2  C   UNL     1       5.915   2.795  -2.712  1.00  0.00     0.023 C 
BRANCH   2   3
ATOM      3  C   UNL     1       5.355   3.394  -1.421  1.00  0.00     0.116 C 
BRANCH   3   4
ATOM      4  N   UNL     1       4.903   2.355  -0.522  1.00  0.00    -0.356 N 
ATOM      5  O   UNL     1       5.642   3.356   1.412  1.00  0.00    -0.275 OA
ATOM      6  C   UNL     1       5.206   2.375   0.820  1.00  0.00     0.222 C 
ATOM      7  H   UNL     1       4.364   1.613  -0.880  1.00  0.00     0.163 HD
BRANCH   6   8
ATOM      8  C   UNL     1       5.109   1.016   1.463  1.00  0.00     0.138 C 
BRANCH   8   9
ATOM      9  C   UNL     1       3.742   0.647   2.024  1.00  0.00     0.182 C 
ATOM     10  C   UNL     1       3.527  -0.889   2.032  1.00  0.00     0.295 C 
ATOM     11  O   UNL     1       3.520   1.180   3.341  1.00  0.00    -0.366 OA
ATOM     12  N   UNL     1       4.263  -1.629   3.063  1.00  0.00    -0.320 N 
ATOM     13  C   UNL     1       4.290   0.539   4.364  1.00  0.00     0.222 C 
ATOM     14  C   UNL     1       4.128  -0.992   4.374  1.00  0.00     0.291 C 
ATOM     15  H   UNL     1       3.757  -2.515   3.067  1.00  0.00     0.348 HD
BRANCH  12  16
ATOM     16  C   UNL     1       5.526  -2.322   2.777  1.00  0.00     0.284 C 
ATOM     17  C   UNL     1       6.838  -1.537   2.803  1.00  0.00     0.176 C 
ATOM     18  C   UNL     1       5.548  -2.966   1.394  1.00  0.00     0.285 C 
ATOM     19  C   UNL     1       7.260  -1.483   1.364  1.00  0.00     0.233 C 
ATOM     20  N   UNL     1       6.519  -2.369   0.655  1.00  0.00    -0.291 N 
ATOM     21  O   UNL     1       4.805  -3.841   0.979  1.00  0.00    -0.268 OA
ATOM     22  O   UNL     1       8.140  -0.776   0.909  1.00  0.00    -0.274 OA
ATOM     23  H   UNL     1       6.670  -2.561  -0.299  1.00  0.00     0.173 HD
ENDBRANCH  12  16
ENDBRANCH   8   9
ENDBRANCH   6   8
ENDBRANCH   3   4
ENDBRANCH   2   3
ENDBRANCH   1   2
BRANCH   1  24
ATOM     24  C   UNL     1       3.567   2.598  -3.760  1.00  0.00     0.116 C 
BRANCH  24  25
ATOM     25  N   UNL     1       3.674   3.858  -4.473  1.00  0.00    -0.352 N 
ATOM     26  C   UNL     1       2.968   4.295  -5.568  1.00  0.00     0.251 C 
ATOM     27  H   UNL     1       4.345   4.488  -4.122  1.00  0.00     0.163 HD
ATOM     28  O   UNL     1       3.304   5.330  -6.135  1.00  0.00    -0.269 OA
BRANCH  26  29
ATOM     29  C   UNL     1       1.836   3.492  -6.077  1.00  0.00     0.039 A 
ATOM     30  C   UNL     1       1.744   3.254  -7.450  1.00  0.00     0.014 A 
ATOM     31  C   UNL     1       0.883   2.956  -5.206  1.00  0.00     0.014 A 
ATOM     32  C   UNL     1       0.735   2.423  -7.941  1.00  0.00     0.010 A 
ATOM     33  C   UNL     1      -0.071   2.063  -5.688  1.00  0.00     0.010 A 
ATOM     34  C   UNL     1      -0.157   1.787  -7.061  1.00  0.00    -0.014 A 
BRANCH  34  35
ATOM     35  C   UNL     1      -1.180   0.831  -7.563  1.00  0.00     0.031 A 
ATOM     36  C   UNL     1      -2.644   1.128  -7.383  1.00  0.00     0.074 A 
ATOM     37  C   UNL     1      -0.790  -0.327  -8.132  1.00  0.00     0.049 A 
ATOM     38  N   UNL     1      -3.682   0.396  -7.698  1.00  0.00    -0.248 NA
ATOM     39  C   UNL     1      -2.985   2.406  -6.740  1.00  0.00     0.031 C 
ATOM     40  C   UNL     1       0.601  -0.743  -8.333  1.00  0.00     0.029 A 
ATOM     41  N   UNL     1      -1.521  -1.369  -8.646  1.00  0.00    -0.354 N 
ATOM     42  C   UNL     1      -4.796   1.116  -7.282  1.00  0.00     0.074 A 
ATOM     43  C   UNL     1      -4.302   2.313  -6.634  1.00  0.00     0.031 C 
ATOM     44  C   UNL     1       0.620  -1.931  -8.956  1.00  0.00     0.029 A 
ATOM     45  C   UNL     1      -0.751  -2.393  -9.150  1.00  0.00     0.049 A 
ATOM     46  H   UNL     1      -2.506  -1.383  -8.652  1.00  0.00     0.167 HD
ATOM     47  C   UNL     1      -6.109   0.818  -7.444  1.00  0.00     0.034 A 
ATOM     48  C   UNL     1      -1.107  -3.573  -9.695  1.00  0.00     0.034 A 
ATOM     49  C   UNL     1      -6.584  -0.377  -8.100  1.00  0.00     0.049 A 
ATOM     50  C   UNL     1      -2.574  -3.902  -9.823  1.00  0.00     0.074 A 
ATOM     51  C   UNL     1      -7.890  -0.749  -8.368  1.00  0.00     0.029 A 
ATOM     52  N   UNL     1      -5.776  -1.400  -8.578  1.00  0.00    -0.354 N 
ATOM     53  N   UNL     1      -3.617  -3.185  -9.472  1.00  0.00    -0.248 NA
ATOM     54  C   UNL     1      -2.912  -5.197 -10.429  1.00  0.00     0.031 C 
ATOM     55  C   UNL     1      -7.875  -2.031  -8.928  1.00  0.00     0.029 A 
ATOM     56  C   UNL     1      -6.557  -2.421  -9.100  1.00  0.00     0.049 A 
ATOM     57  H   UNL     1      -4.791  -1.401  -8.551  1.00  0.00     0.167 HD
ATOM     58  C   UNL     1      -4.733  -3.927  -9.850  1.00  0.00     0.074 A 
ATOM     59  C   UNL     1      -4.235  -5.138 -10.468  1.00  0.00     0.031 C 
ATOM     60  C   UNL     1      -6.050  -3.631  -9.706  1.00  0.00     0.034 A 
BRANCH  47  61
ATOM     61  C   UNL     1      -7.122   1.784  -6.872  1.00  0.00     0.023 A 
ATOM     62  C   UNL     1      -7.212   3.114  -7.319  1.00  0.00     0.031 A 
ATOM     63  C   UNL     1      -7.998   1.374  -5.851  1.00  0.00     0.131 A 
ATOM     64  C   UNL     1      -8.100   4.005  -6.695  1.00  0.00     0.055 A 
ATOM     65  C   UNL     1      -8.941   2.242  -5.297  1.00  0.00     0.041 A 
ATOM     66  F   UNL     1      -7.946   0.124  -5.366  1.00  0.00    -0.206 F 
ATOM     67  C   UNL     1      -8.985   3.570  -5.707  1.00  0.00     0.022 A 
BRANCH  64  68
ATOM     68  S   UNL     1      -7.971   5.771  -7.088  1.00  0.00     0.124 S 
ATOM     69  O   UNL     1      -6.581   6.050  -6.736  1.00  0.00    -0.237 OA
ATOM     70  O   UNL     1      -8.289   5.802  -8.510  1.00  0.00    -0.237 OA
ATOM     71  O   UNL     1      -8.964   6.389  -6.211  1.00  0.00    -0.744 OA
ENDBRANCH  64  68
ENDBRANCH  47  61
BRANCH  48  72
ATOM     72  C   UNL     1      -0.069  -4.543 -10.153  1.00  0.00     0.023 A 
ATOM     73  C   UNL     1       0.024  -4.920 -11.502  1.00  0.00     0.031 A 
ATOM     74  C   UNL     1       0.814  -5.148  -9.240  1.00  0.00     0.131 A 
ATOM     75  C   UNL     1       0.938  -5.911 -11.892  1.00  0.00     0.055 A 
ATOM     76  C   UNL     1       1.764  -6.088  -9.643  1.00  0.00     0.041 A 
ATOM     77  F   UNL     1       0.771  -4.825  -7.937  1.00  0.00    -0.206 F 
ATOM     78  C   UNL     1       1.819  -6.486 -10.974  1.00  0.00     0.022 A 
BRANCH  75  79
ATOM     79  S   UNL     1       0.887  -6.514 -13.602  1.00  0.00     0.124 S 
ATOM     80  O   UNL     1      -0.490  -6.982 -13.710  1.00  0.00    -0.237 OA
ATOM     81  O   UNL     1       1.218  -5.311 -14.357  1.00  0.00    -0.237 OA
ATOM     82  O   UNL     1       1.907  -7.561 -13.623  1.00  0.00    -0.744 OA
ENDBRANCH  75  79
ENDBRANCH  48  72
BRANCH  60  83
ATOM     83  C   UNL     1      -7.045  -4.615 -10.275  1.00  0.00     0.023 A 
ATOM     84  C   UNL     1      -7.179  -5.918  -9.765  1.00  0.00     0.031 A 
ATOM     85  C   UNL     1      -7.868  -4.242 -11.354  1.00  0.00     0.131 A 
ATOM     86  C   UNL     1      -8.069  -6.819 -10.371  1.00  0.00     0.055 A 
ATOM     87  C   UNL     1      -8.801  -5.119 -11.906  1.00  0.00     0.041 A 
ATOM     88  F   UNL     1      -7.781  -3.012 -11.886  1.00  0.00    -0.206 F 
ATOM     89  C   UNL     1      -8.895  -6.421 -11.425  1.00  0.00     0.022 A 
BRANCH  86  90
ATOM     90  S   UNL     1      -8.056  -8.551  -9.833  1.00  0.00     0.124 S 
ATOM     91  O   UNL     1      -6.668  -8.933 -10.073  1.00  0.00    -0.237 OA
ATOM     92  O   UNL     1      -8.456  -8.446  -8.433  1.00  0.00    -0.237 OA
ATOM     93  O   UNL     1      -9.036  -9.190 -10.710  1.00  0.00    -0.744 OA
ENDBRANCH  86  90
ENDBRANCH  60  83
ENDBRANCH  34  35
ENDBRANCH  26  29
ENDBRANCH  24  25
ENDBRANCH   1  24
TORSDOF 16
