REMARK SMILES Cc1ccc(S(=O)(=O)n2cc(C(=O)C(=O)N[C@H](Cc3c[nH]c4ccccc34)C(=O)NCC(=O)NCCCCNC(=O)c3ccc(-c4c5nc(c(-c6cc(S(=O)(=O)[O-])ccc6F)c6ccc([nH]6)c(-c6cc(S(=O)(=O)[O-])ccc6F)c6nc(c(-c7cc(S(=O)(=O)[O-])ccc7F)c7ccc4[nH]7)C=C6)C=C5)cc3)c3ccccc32)cc1
REMARK SMILES IDX 32 1 33 2 34 3 31 5 30 6 28 7 29 8 17 10 16 11 14 12 15 13
REMARK SMILES IDX 12 15 13 16 11 17 9 18 10 19 110 20 105 21 109 22 106 23
REMARK SMILES IDX 108 24 107 25 6 26 7 27 8 28 5 29 1 30 2 31 3 32 112 33 4 34
REMARK SMILES IDX 111 35 18 36 19 37 20 38 27 39 21 40 22 41 26 42 23 44 25 45
REMARK SMILES IDX 24 46 35 47 36 48 37 49 38 50 39 51 40 52 41 54 42 55 43 56
REMARK SMILES IDX 104 57 44 58 103 59 45 60 46 61 47 62 97 63 48 64 102 65
REMARK SMILES IDX 96 66 98 67 49 68 101 69 95 70 94 71 50 73 82 74 62 75 81 76
REMARK SMILES IDX 63 77 66 78 80 79 99 80 64 81 65 82 79 84 100 85 67 86 51 87
REMARK SMILES IDX 52 88 60 89 53 90 59 91 61 92 58 93 54 94 55 95 56 96 57 97
REMARK SMILES IDX 83 98 84 99 92 100 85 101 91 102 93 103 90 104 86 105 87 106
REMARK SMILES IDX 88 107 89 108 68 109 69 110 77 111 70 112 76 113 78 114
REMARK SMILES IDX 75 115 71 116 72 117 73 118 74 119
REMARK H PARENT 34 4 30 9 16 14 21 43 39 53 98 72 66 83
REMARK Flexibility Score: inf
ROOT
ATOM      1  C   UNL     1     -13.164   4.883  -2.582  1.00  0.00     0.239 C 
ATOM      2  O   UNL     1     -14.054   5.728  -2.736  1.00  0.00    -0.273 OA
ATOM      3  N   UNL     1     -11.988   5.093  -3.239  1.00  0.00    -0.355 N 
ATOM      4  H   UNL     1     -11.997   5.842  -3.877  1.00  0.00     0.163 HD
ENDROOT
BRANCH   1   5
ATOM      5  C   UNL     1     -13.364   3.743  -1.570  1.00  0.00     0.216 C 
BRANCH   5   6
ATOM      6  N   UNL     1     -12.802   2.458  -1.911  1.00  0.00    -0.345 N 
ATOM      7  C   UNL     1     -12.190   1.496  -1.186  1.00  0.00     0.243 C 
ATOM      8  O   UNL     1     -12.232   0.378  -1.721  1.00  0.00    -0.273 OA
ATOM      9  H   UNL     1     -12.881   2.238  -2.867  1.00  0.00     0.164 HD
BRANCH   7  10
ATOM     10  C   UNL     1     -11.445   1.665   0.176  1.00  0.00     0.176 C 
BRANCH  10  11
ATOM     11  N   UNL     1     -12.128   2.362   1.312  1.00  0.00    -0.337 N 
ATOM     12  C   UNL     1     -12.130   3.654   1.815  1.00  0.00     0.293 C 
ATOM     13  O   UNL     1     -12.763   3.889   2.841  1.00  0.00    -0.265 OA
ATOM     14  H   UNL     1     -12.715   1.759   1.824  1.00  0.00     0.164 HD
BRANCH  12  15
ATOM     15  C   UNL     1     -11.403   4.788   1.082  1.00  0.00     0.252 C 
ATOM     16  O   UNL     1     -10.885   4.479   0.010  1.00  0.00    -0.283 OA
BRANCH  15  17
ATOM     17  C   UNL     1     -11.330   6.186   1.534  1.00  0.00     0.054 A 
ATOM     18  N   UNL     1     -11.572   8.203   2.495  1.00  0.00    -0.240 N 
ATOM     19  C   UNL     1     -11.863   6.840   2.643  1.00  0.00     0.117 A 
ATOM     20  C   UNL     1     -10.487   8.303   1.638  1.00  0.00     0.065 A 
ATOM     21  C   UNL     1     -10.635   7.204   0.797  1.00  0.00     0.012 A 
ATOM     22  C   UNL     1      -9.569   9.328   1.376  1.00  0.00     0.028 A 
ATOM     23  C   UNL     1     -10.080   7.277  -0.492  1.00  0.00     0.011 A 
ATOM     24  C   UNL     1      -8.951   9.317   0.119  1.00  0.00     0.002 A 
ATOM     25  C   UNL     1      -9.266   8.351  -0.833  1.00  0.00     0.001 A 
BRANCH  18  26
ATOM     26  S   UNL     1     -12.916   9.315   2.168  1.00  0.00     0.268 S 
ATOM     27  O   UNL     1     -14.093   8.466   2.070  1.00  0.00    -0.201 OA
ATOM     28  O   UNL     1     -12.502  10.139   1.045  1.00  0.00    -0.201 OA
BRANCH  26  29
ATOM     29  C   UNL     1     -13.184  10.396   3.548  1.00  0.00     0.088 A 
ATOM     30  C   UNL     1     -15.041  13.109   6.334  1.00  0.00     0.044 C 
ATOM     31  C   UNL     1     -14.353  12.160   5.396  1.00  0.00    -0.051 A 
ATOM     32  C   UNL     1     -13.738  12.655   4.241  1.00  0.00     0.005 A 
ATOM     33  C   UNL     1     -14.323  10.779   5.645  1.00  0.00     0.005 A 
ATOM     34  C   UNL     1     -13.159  11.780   3.319  1.00  0.00     0.022 A 
ATOM     35  C   UNL     1     -13.751   9.895   4.721  1.00  0.00     0.022 A 
ENDBRANCH  26  29
ENDBRANCH  18  26
ENDBRANCH  15  17
ENDBRANCH  12  15
ENDBRANCH  10  11
BRANCH  10  36
ATOM     36  C   UNL     1      -9.893   1.768   0.163  1.00  0.00     0.072 C 
BRANCH  36  37
ATOM     37  C   UNL     1      -9.139   1.539  -1.120  1.00  0.00    -0.020 A 
ATOM     38  C   UNL     1      -8.254   2.446  -1.687  1.00  0.00     0.087 A 
ATOM     39  C   UNL     1      -9.034   0.335  -1.905  1.00  0.00     0.003 A 
ATOM     40  N   UNL     1      -7.621   1.833  -2.735  1.00  0.00    -0.361 N 
ATOM     41  C   UNL     1      -8.176   0.601  -2.970  1.00  0.00     0.046 A 
ATOM     42  C   UNL     1      -9.553  -0.973  -1.810  1.00  0.00     0.010 A 
ATOM     43  H   UNL     1      -6.875   2.222  -3.246  1.00  0.00     0.166 HD
ATOM     44  C   UNL     1      -7.880  -0.318  -3.983  1.00  0.00     0.026 A 
ATOM     45  C   UNL     1      -9.250  -1.921  -2.800  1.00  0.00     0.001 A 
ATOM     46  C   UNL     1      -8.442  -1.589  -3.884  1.00  0.00     0.002 A 
ENDBRANCH  36  37
ENDBRANCH  10  36
ENDBRANCH   7  10
ENDBRANCH   5   6
ENDBRANCH   1   5
BRANCH   3  47
ATOM     47  C   UNL     1     -10.722   4.384  -3.145  1.00  0.00     0.116 C 
BRANCH  47  48
ATOM     48  C   UNL     1     -10.294   3.771  -4.479  1.00  0.00     0.023 C 
BRANCH  48  49
ATOM     49  C   UNL     1      -9.703   4.753  -5.496  1.00  0.00     0.023 C 
BRANCH  49  50
ATOM     50  C   UNL     1      -8.412   5.445  -5.088  1.00  0.00     0.116 C 
BRANCH  50  51
ATOM     51  N   UNL     1      -7.241   4.591  -4.980  1.00  0.00    -0.352 N 
ATOM     52  C   UNL     1      -6.053   5.024  -5.580  1.00  0.00     0.251 C 
ATOM     53  H   UNL     1      -7.282   3.733  -4.498  1.00  0.00     0.163 HD
ATOM     54  O   UNL     1      -5.840   5.108  -6.764  1.00  0.00    -0.269 OA
BRANCH  52  55
ATOM     55  C   UNL     1      -5.178   5.677  -4.578  1.00  0.00     0.039 A 
ATOM     56  C   UNL     1      -4.071   5.050  -4.005  1.00  0.00     0.014 A 
ATOM     57  C   UNL     1      -5.732   6.834  -4.028  1.00  0.00     0.014 A 
ATOM     58  C   UNL     1      -3.599   5.526  -2.776  1.00  0.00     0.010 A 
ATOM     59  C   UNL     1      -5.332   7.229  -2.779  1.00  0.00     0.010 A 
ATOM     60  C   UNL     1      -4.283   6.563  -2.133  1.00  0.00    -0.014 A 
BRANCH  60  61
ATOM     61  C   UNL     1      -4.129   6.949  -0.731  1.00  0.00     0.031 A 
ATOM     62  C   UNL     1      -3.782   8.344  -0.362  1.00  0.00     0.074 A 
ATOM     63  C   UNL     1      -4.657   6.117   0.193  1.00  0.00     0.049 A 
ATOM     64  N   UNL     1      -3.578   8.764   0.840  1.00  0.00    -0.248 NA
ATOM     65  C   UNL     1      -3.607   9.394  -1.360  1.00  0.00     0.031 C 
ATOM     66  C   UNL     1      -5.132   6.458   1.530  1.00  0.00     0.029 A 
ATOM     67  N   UNL     1      -4.642   4.718   0.172  1.00  0.00    -0.354 N 
ATOM     68  C   UNL     1      -3.564  10.143   0.815  1.00  0.00     0.074 A 
ATOM     69  C   UNL     1      -3.505  10.477  -0.587  1.00  0.00     0.031 C 
ATOM     70  C   UNL     1      -5.107   5.354   2.291  1.00  0.00     0.029 A 
ATOM     71  C   UNL     1      -4.445   4.322   1.512  1.00  0.00     0.049 A 
ATOM     72  H   UNL     1      -4.747   4.133  -0.613  1.00  0.00     0.167 HD
ATOM     73  C   UNL     1      -3.744  10.828   1.983  1.00  0.00     0.034 A 
ATOM     74  C   UNL     1      -3.299   3.688   1.892  1.00  0.00     0.034 A 
ATOM     75  C   UNL     1      -3.688   9.922   3.135  1.00  0.00     0.049 A 
ATOM     76  C   UNL     1      -2.502   4.416   2.949  1.00  0.00     0.074 A 
ATOM     77  C   UNL     1      -4.647   9.389   3.982  1.00  0.00     0.029 A 
ATOM     78  N   UNL     1      -2.513   9.218   3.386  1.00  0.00    -0.354 N 
ATOM     79  N   UNL     1      -2.664   5.672   3.265  1.00  0.00    -0.248 NA
ATOM     80  C   UNL     1      -1.440   3.779   3.720  1.00  0.00     0.031 C 
ATOM     81  C   UNL     1      -4.056   8.304   4.685  1.00  0.00     0.029 A 
ATOM     82  C   UNL     1      -2.733   8.200   4.292  1.00  0.00     0.049 A 
ATOM     83  H   UNL     1      -1.643   9.420   2.973  1.00  0.00     0.167 HD
ATOM     84  C   UNL     1      -1.744   6.029   4.220  1.00  0.00     0.074 A 
ATOM     85  C   UNL     1      -1.029   4.795   4.498  1.00  0.00     0.031 C 
ATOM     86  C   UNL     1      -1.641   7.313   4.681  1.00  0.00     0.034 A 
BRANCH  73  87
ATOM     87  C   UNL     1      -4.243  12.264   2.089  1.00  0.00     0.023 A 
ATOM     88  C   UNL     1      -4.883  12.678   3.280  1.00  0.00     0.031 A 
ATOM     89  C   UNL     1      -4.206  13.242   1.075  1.00  0.00     0.131 A 
ATOM     90  C   UNL     1      -5.521  13.932   3.387  1.00  0.00     0.055 A 
ATOM     91  C   UNL     1      -4.871  14.474   1.164  1.00  0.00     0.041 A 
ATOM     92  F   UNL     1      -3.483  13.092  -0.038  1.00  0.00    -0.206 F 
ATOM     93  C   UNL     1      -5.547  14.821   2.320  1.00  0.00     0.022 A 
BRANCH  90  94
ATOM     94  S   UNL     1      -6.341  14.381   4.942  1.00  0.00     0.124 S 
ATOM     95  O   UNL     1      -7.327  13.314   5.088  1.00  0.00    -0.237 OA
ATOM     96  O   UNL     1      -5.233  14.374   5.889  1.00  0.00    -0.237 OA
ATOM     97  O   UNL     1      -6.903  15.702   4.660  1.00  0.00    -0.744 OA
ENDBRANCH  90  94
ENDBRANCH  73  87
BRANCH  74  98
ATOM     98  C   UNL     1      -2.718   2.817   0.835  1.00  0.00     0.023 A 
ATOM     99  C   UNL     1      -3.477   1.708   0.412  1.00  0.00     0.031 A 
ATOM    100  C   UNL     1      -1.674   3.259   0.008  1.00  0.00     0.131 A 
ATOM    101  C   UNL     1      -3.261   1.157  -0.857  1.00  0.00     0.055 A 
ATOM    102  C   UNL     1      -1.431   2.669  -1.238  1.00  0.00     0.041 A 
ATOM    103  F   UNL     1      -0.956   4.343   0.336  1.00  0.00    -0.206 F 
ATOM    104  C   UNL     1      -2.248   1.636  -1.690  1.00  0.00     0.022 A 
BRANCH 101 105
ATOM    105  S   UNL     1      -4.460  -0.013  -1.556  1.00  0.00     0.124 S 
ATOM    106  O   UNL     1      -3.667  -1.233  -1.660  1.00  0.00    -0.237 OA
ATOM    107  O   UNL     1      -5.522  -0.030  -0.558  1.00  0.00    -0.237 OA
ATOM    108  O   UNL     1      -4.796   0.644  -2.821  1.00  0.00    -0.744 OA
ENDBRANCH 101 105
ENDBRANCH  74  98
BRANCH  86 109
ATOM    109  C   UNL     1      -0.545   7.851   5.583  1.00  0.00     0.023 A 
ATOM    110  C   UNL     1       0.674   7.193   5.805  1.00  0.00     0.031 A 
ATOM    111  C   UNL     1      -0.672   9.118   6.205  1.00  0.00     0.131 A 
ATOM    112  C   UNL     1       1.650   7.730   6.667  1.00  0.00     0.055 A 
ATOM    113  C   UNL     1       0.332   9.689   6.994  1.00  0.00     0.041 A 
ATOM    114  F   UNL     1      -1.777   9.866   6.068  1.00  0.00    -0.206 F 
ATOM    115  C   UNL     1       1.498   8.986   7.246  1.00  0.00     0.022 A 
BRANCH 112 116
ATOM    116  S   UNL     1       3.098   6.715   7.062  1.00  0.00     0.124 S 
ATOM    117  O   UNL     1       2.487   5.571   7.733  1.00  0.00    -0.237 OA
ATOM    118  O   UNL     1       3.663   6.447   5.743  1.00  0.00    -0.237 OA
ATOM    119  O   UNL     1       3.904   7.580   7.920  1.00  0.00    -0.744 OA
ENDBRANCH 112 116
ENDBRANCH  86 109
ENDBRANCH  60  61
ENDBRANCH  52  55
ENDBRANCH  50  51
ENDBRANCH  49  50
ENDBRANCH  48  49
ENDBRANCH  47  48
ENDBRANCH   3  47
TORSDOF 23
