REMARK SMILES CCCOc1ccc(N[C@H](C)[C@H](C)C(=O)NCCCCNC(=O)c2ccc(-c3c4nc(c(-c5cc(S(=O)(=O)[O-])ccc5F)c5ccc([nH]5)c(-c5cc(S(=O)(=O)[O-])ccc5F)c5nc(c(-c6cc(S(=O)(=O)[O-])ccc6F)c6ccc3[nH]6)C=C5)C=C4)cc2)cc1
REMARK SMILES IDX 17 1 16 2 14 3 15 4 12 6 13 7 10 8 11 9 9 10 8 12 5 13 6 14
REMARK SMILES IDX 88 15 7 16 87 17 4 18 3 19 2 20 1 21 18 22 19 23 20 24 21 25
REMARK SMILES IDX 22 26 23 28 24 29 25 30 86 31 26 32 85 33 27 34 28 35 29 36
REMARK SMILES IDX 79 37 30 38 84 39 78 40 80 41 31 42 83 43 77 44 76 45 32 47
REMARK SMILES IDX 64 48 44 49 63 50 45 51 48 52 62 53 81 54 46 55 47 56 61 58
REMARK SMILES IDX 82 59 49 60 33 61 34 62 42 63 35 64 41 65 43 66 40 67 36 68
REMARK SMILES IDX 37 69 38 70 39 71 65 72 66 73 74 74 67 75 73 76 75 77 72 78
REMARK SMILES IDX 68 79 69 80 70 81 71 82 50 83 51 84 59 85 52 86 58 87 60 88
REMARK SMILES IDX 57 89 53 90 54 91 55 92 56 93
REMARK H PARENT 16 5 9 11 21 27 80 46 48 57
REMARK Flexibility Score: inf
ROOT
ATOM      1  C   UNL     1       0.749  -4.296   6.976  1.00  0.00     0.116 C 
ENDROOT
BRANCH   1   2
ATOM      2  N   UNL     1       0.840  -3.550   8.208  1.00  0.00    -0.356 N 
ATOM      3  C   UNL     1       0.626  -2.228   8.430  1.00  0.00     0.224 C 
ATOM      4  O   UNL     1       0.628  -1.842   9.603  1.00  0.00    -0.275 OA
ATOM      5  H   UNL     1       1.094  -4.075   9.002  1.00  0.00     0.163 HD
BRANCH   3   6
ATOM      6  C   UNL     1       0.381  -1.225   7.299  1.00  0.00     0.097 C 
ATOM      7  C   UNL     1       1.649  -1.056   6.461  1.00  0.00     0.020 C 
BRANCH   6   8
ATOM      8  C   UNL     1      -0.982  -1.347   6.539  1.00  0.00     0.088 C 
ATOM      9  C   UNL     1      -0.915  -1.965   5.134  1.00  0.00     0.031 C 
BRANCH   8  10
ATOM     10  N   UNL     1      -1.965  -2.005   7.402  1.00  0.00    -0.382 N 
ATOM     11  H   UNL     1      -1.765  -1.965   8.365  1.00  0.00     0.160 HD
BRANCH  10  12
ATOM     12  C   UNL     1      -3.123  -2.672   7.078  1.00  0.00     0.034 A 
ATOM     13  C   UNL     1      -5.431  -4.183   6.542  1.00  0.00     0.119 A 
ATOM     14  C   UNL     1      -5.123  -3.082   5.749  1.00  0.00     0.048 A 
ATOM     15  C   UNL     1      -4.562  -4.585   7.542  1.00  0.00     0.048 A 
ATOM     16  C   UNL     1      -3.965  -2.336   6.016  1.00  0.00     0.029 A 
ATOM     17  C   UNL     1      -3.439  -3.814   7.829  1.00  0.00     0.029 A 
BRANCH  13  18
ATOM     18  O   UNL     1      -6.548  -4.926   6.293  1.00  0.00    -0.494 OA
BRANCH  18  19
ATOM     19  C   UNL     1      -7.661  -4.502   7.095  1.00  0.00     0.229 C 
BRANCH  19  20
ATOM     20  C   UNL     1      -7.771  -5.268   8.420  1.00  0.00     0.038 C 
ATOM     21  C   UNL     1      -7.215  -4.506   9.619  1.00  0.00     0.007 C 
ENDBRANCH  19  20
ENDBRANCH  18  19
ENDBRANCH  13  18
ENDBRANCH  10  12
ENDBRANCH   8  10
ENDBRANCH   6   8
ENDBRANCH   3   6
ENDBRANCH   1   2
BRANCH   1  22
ATOM     22  C   UNL     1       1.987  -5.139   6.708  1.00  0.00     0.023 C 
BRANCH  22  23
ATOM     23  C   UNL     1       2.184  -6.309   7.666  1.00  0.00     0.023 C 
BRANCH  23  24
ATOM     24  C   UNL     1       0.991  -7.249   7.793  1.00  0.00     0.116 C 
BRANCH  24  25
ATOM     25  N   UNL     1       0.570  -7.808   6.518  1.00  0.00    -0.352 N 
ATOM     26  C   UNL     1       0.337  -9.121   6.179  1.00  0.00     0.251 C 
ATOM     27  H   UNL     1       0.433  -7.154   5.794  1.00  0.00     0.163 HD
ATOM     28  O   UNL     1       0.145  -9.423   5.008  1.00  0.00    -0.269 OA
BRANCH  26  29
ATOM     29  C   UNL     1       0.355 -10.161   7.232  1.00  0.00     0.039 A 
ATOM     30  C   UNL     1       1.032 -11.357   6.988  1.00  0.00     0.014 A 
ATOM     31  C   UNL     1      -0.273  -9.947   8.461  1.00  0.00     0.014 A 
ATOM     32  C   UNL     1       1.134 -12.311   8.004  1.00  0.00     0.010 A 
ATOM     33  C   UNL     1      -0.090 -10.855   9.499  1.00  0.00     0.010 A 
ATOM     34  C   UNL     1       0.607 -12.052   9.280  1.00  0.00    -0.014 A 
BRANCH  34  35
ATOM     35  C   UNL     1       0.759 -13.033  10.388  1.00  0.00     0.031 A 
ATOM     36  C   UNL     1      -0.461 -13.658  11.013  1.00  0.00     0.074 A 
ATOM     37  C   UNL     1       1.987 -13.326  10.859  1.00  0.00     0.049 A 
ATOM     38  N   UNL     1      -0.541 -14.498  12.012  1.00  0.00    -0.248 NA
ATOM     39  C   UNL     1      -1.765 -13.258  10.461  1.00  0.00     0.031 C 
ATOM     40  C   UNL     1       3.241 -12.750  10.366  1.00  0.00     0.029 A 
ATOM     41  N   UNL     1       2.387 -14.181  11.856  1.00  0.00    -0.354 N 
ATOM     42  C   UNL     1      -1.900 -14.719  12.214  1.00  0.00     0.074 A 
ATOM     43  C   UNL     1      -2.605 -13.866  11.283  1.00  0.00     0.031 C 
ATOM     44  C   UNL     1       4.269 -13.295  11.036  1.00  0.00     0.029 A 
ATOM     45  C   UNL     1       3.751 -14.221  12.038  1.00  0.00     0.049 A 
ATOM     46  H   UNL     1       1.757 -14.715  12.392  1.00  0.00     0.167 HD
ATOM     47  C   UNL     1      -2.502 -15.576  13.076  1.00  0.00     0.034 A 
ATOM     48  C   UNL     1       4.499 -14.919  12.917  1.00  0.00     0.034 A 
ATOM     49  C   UNL     1      -1.782 -16.428  13.990  1.00  0.00     0.049 A 
ATOM     50  C   UNL     1       3.806 -15.850  13.880  1.00  0.00     0.074 A 
ATOM     51  C   UNL     1      -2.286 -17.366  14.874  1.00  0.00     0.029 A 
ATOM     52  N   UNL     1      -0.401 -16.441  14.146  1.00  0.00    -0.354 N 
ATOM     53  N   UNL     1       2.521 -16.086  14.023  1.00  0.00    -0.248 NA
ATOM     54  C   UNL     1       4.664 -16.622  14.787  1.00  0.00     0.031 C 
ATOM     55  C   UNL     1      -1.221 -17.890  15.613  1.00  0.00     0.029 A 
ATOM     56  C   UNL     1      -0.040 -17.350  15.130  1.00  0.00     0.049 A 
ATOM     57  H   UNL     1       0.230 -15.887  13.632  1.00  0.00     0.167 HD
ATOM     58  C   UNL     1       2.423 -17.064  15.010  1.00  0.00     0.074 A 
ATOM     59  C   UNL     1       3.777 -17.381  15.415  1.00  0.00     0.031 C 
ATOM     60  C   UNL     1       1.315 -17.654  15.528  1.00  0.00     0.034 A 
BRANCH  47  61
ATOM     61  C   UNL     1      -4.014 -15.610  13.081  1.00  0.00     0.023 A 
ATOM     62  C   UNL     1      -4.750 -15.981  11.940  1.00  0.00     0.031 A 
ATOM     63  C   UNL     1      -4.732 -15.241  14.232  1.00  0.00     0.131 A 
ATOM     64  C   UNL     1      -6.150 -15.897  11.950  1.00  0.00     0.055 A 
ATOM     65  C   UNL     1      -6.129 -15.247  14.263  1.00  0.00     0.041 A 
ATOM     66  F   UNL     1      -4.089 -14.855  15.345  1.00  0.00    -0.206 F 
ATOM     67  C   UNL     1      -6.846 -15.560  13.112  1.00  0.00     0.022 A 
BRANCH  64  68
ATOM     68  S   UNL     1      -7.039 -16.083  10.380  1.00  0.00     0.124 S 
ATOM     69  O   UNL     1      -6.446 -15.015   9.578  1.00  0.00    -0.237 OA
ATOM     70  O   UNL     1      -6.700 -17.444   9.984  1.00  0.00    -0.237 OA
ATOM     71  O   UNL     1      -8.437 -15.870  10.751  1.00  0.00    -0.744 OA
ENDBRANCH  64  68
ENDBRANCH  47  61
BRANCH  48  72
ATOM     72  C   UNL     1       5.984 -14.772  12.933  1.00  0.00     0.023 A 
ATOM     73  C   UNL     1       6.824 -15.858  12.637  1.00  0.00     0.031 A 
ATOM     74  C   UNL     1       6.588 -13.553  13.290  1.00  0.00     0.131 A 
ATOM     75  C   UNL     1       8.216 -15.720  12.755  1.00  0.00     0.055 A 
ATOM     76  C   UNL     1       7.975 -13.404  13.347  1.00  0.00     0.041 A 
ATOM     77  F   UNL     1       5.833 -12.480  13.578  1.00  0.00    -0.206 F 
ATOM     78  C   UNL     1       8.797 -14.497  13.094  1.00  0.00     0.022 A 
BRANCH  75  79
ATOM     79  S   UNL     1       9.255 -17.194  12.555  1.00  0.00     0.124 S 
ATOM     80  O   UNL     1       8.711 -18.081  13.576  1.00  0.00    -0.237 OA
ATOM     81  O   UNL     1       8.986 -17.567  11.170  1.00  0.00    -0.237 OA
ATOM     82  O   UNL     1      10.604 -16.696  12.813  1.00  0.00    -0.744 OA
ENDBRANCH  75  79
ENDBRANCH  48  72
BRANCH  60  83
ATOM     83  C   UNL     1       1.529 -18.749  16.547  1.00  0.00     0.023 A 
ATOM     84  C   UNL     1       2.105 -18.497  17.804  1.00  0.00     0.031 A 
ATOM     85  C   UNL     1       1.161 -20.072  16.242  1.00  0.00     0.131 A 
ATOM     86  C   UNL     1       2.355 -19.561  18.684  1.00  0.00     0.055 A 
ATOM     87  C   UNL     1       1.348 -21.116  17.150  1.00  0.00     0.041 A 
ATOM     88  F   UNL     1       0.610 -20.373  15.056  1.00  0.00    -0.206 F 
ATOM     89  C   UNL     1       1.963 -20.866  18.372  1.00  0.00     0.022 A 
BRANCH  86  90
ATOM     90  S   UNL     1       3.302 -19.237  20.197  1.00  0.00     0.124 S 
ATOM     91  O   UNL     1       4.534 -18.661  19.666  1.00  0.00    -0.237 OA
ATOM     92  O   UNL     1       2.429 -18.318  20.920  1.00  0.00    -0.237 OA
ATOM     93  O   UNL     1       3.446 -20.560  20.802  1.00  0.00    -0.744 OA
ENDBRANCH  86  90
ENDBRANCH  60  83
ENDBRANCH  34  35
ENDBRANCH  26  29
ENDBRANCH  24  25
ENDBRANCH  23  24
ENDBRANCH  22  23
ENDBRANCH   1  22
TORSDOF 20
