REMARK SMILES O=C(NCCCCNC(=O)c1cc(SCCn2cccn2)cs1)c1ccc(-c2c3nc(c(-c4cc(S(=O)(=O)[O-])ccc4F)c4ccc([nH]4)c(-c4cc(S(=O)(=O)[O-])ccc4F)c4nc(c(-c5cc(S(=O)(=O)[O-])ccc5F)c5ccc2[nH]5)C=C4)C=C3)cc1
REMARK SMILES IDX 6 1 5 2 4 3 3 4 1 5 2 6 24 8 25 9 86 10 26 11 85 12 27 13
REMARK SMILES IDX 28 14 29 15 79 16 30 17 84 18 78 19 80 20 31 21 83 22 77 23
REMARK SMILES IDX 76 24 32 26 64 27 44 28 63 29 45 30 48 31 62 32 81 33 46 34
REMARK SMILES IDX 47 35 61 37 82 38 49 39 33 40 34 41 42 42 35 43 41 44 43 45
REMARK SMILES IDX 40 46 36 47 37 48 38 49 39 50 65 51 66 52 74 53 67 54 73 55
REMARK SMILES IDX 75 56 72 57 68 58 69 59 70 60 71 61 50 62 51 63 59 64 52 65
REMARK SMILES IDX 58 66 60 67 57 68 53 69 54 70 55 71 56 72 7 73 8 74 9 75
REMARK SMILES IDX 10 77 11 78 12 79 23 80 13 81 22 82 14 83 15 84 16 85 17 86
REMARK SMILES IDX 18 87 21 88 19 89 20 90
REMARK H PARENT 3 7 80 25 48 36 8 76
REMARK Flexibility Score: inf
ROOT
ATOM      1  C   UNL     1       5.121  -1.769   2.784  1.00  0.00     0.023 C 
ENDROOT
BRANCH   1   2
ATOM      2  C   UNL     1       5.330  -0.574   1.840  1.00  0.00     0.023 C 
BRANCH   2   3
ATOM      3  C   UNL     1       4.805  -0.770   0.415  1.00  0.00     0.116 C 
BRANCH   3   4
ATOM      4  N   UNL     1       3.377  -1.012   0.319  1.00  0.00    -0.352 N 
ATOM      5  O   UNL     1       1.239  -0.840  -0.186  1.00  0.00    -0.269 OA
ATOM      6  C   UNL     1       2.275  -0.229   0.096  1.00  0.00     0.251 C 
ATOM      7  H   UNL     1       3.147  -1.961   0.443  1.00  0.00     0.163 HD
BRANCH   6   8
ATOM      8  C   UNL     1       2.218   1.255   0.231  1.00  0.00     0.039 A 
ATOM      9  C   UNL     1       3.313   2.109   0.363  1.00  0.00     0.014 A 
ATOM     10  C   UNL     1       0.924   1.818   0.265  1.00  0.00     0.014 A 
ATOM     11  C   UNL     1       3.122   3.474   0.583  1.00  0.00     0.010 A 
ATOM     12  C   UNL     1       0.728   3.179   0.489  1.00  0.00     0.010 A 
ATOM     13  C   UNL     1       1.831   4.005   0.673  1.00  0.00    -0.014 A 
BRANCH  13  14
ATOM     14  C   UNL     1       1.684   5.458   0.783  1.00  0.00     0.031 A 
ATOM     15  C   UNL     1       2.130   6.215  -0.422  1.00  0.00     0.074 A 
ATOM     16  C   UNL     1       1.062   6.089   1.800  1.00  0.00     0.049 A 
ATOM     17  N   UNL     1       3.079   7.088  -0.514  1.00  0.00    -0.248 NA
ATOM     18  C   UNL     1       1.519   5.866  -1.715  1.00  0.00     0.031 C 
ATOM     19  C   UNL     1       0.323   5.486   2.909  1.00  0.00     0.029 A 
ATOM     20  N   UNL     1       0.867   7.428   1.993  1.00  0.00    -0.354 N 
ATOM     21  C   UNL     1       3.055   7.552  -1.829  1.00  0.00     0.074 A 
ATOM     22  C   UNL     1       2.196   6.652  -2.552  1.00  0.00     0.031 C 
ATOM     23  C   UNL     1      -0.420   6.438   3.520  1.00  0.00     0.029 A 
ATOM     24  C   UNL     1      -0.120   7.733   2.927  1.00  0.00     0.049 A 
ATOM     25  H   UNL     1       1.380   8.117   1.512  1.00  0.00     0.167 HD
ATOM     26  C   UNL     1       3.588   8.757  -2.176  1.00  0.00     0.034 A 
ATOM     27  C   UNL     1      -0.704   8.943   3.149  1.00  0.00     0.034 A 
ATOM     28  C   UNL     1       4.486   9.246  -1.158  1.00  0.00     0.049 A 
ATOM     29  C   UNL     1       0.220   9.980   2.627  1.00  0.00     0.074 A 
ATOM     30  C   UNL     1       5.650   8.774  -0.582  1.00  0.00     0.029 A 
ATOM     31  N   UNL     1       4.043  10.246  -0.323  1.00  0.00    -0.354 N 
ATOM     32  N   UNL     1       1.391  10.226   3.145  1.00  0.00    -0.248 NA
ATOM     33  C   UNL     1       0.048  10.426   1.252  1.00  0.00     0.031 C 
ATOM     34  C   UNL     1       5.551   9.141   0.792  1.00  0.00     0.029 A 
ATOM     35  C   UNL     1       4.373   9.873   0.956  1.00  0.00     0.049 A 
ATOM     36  H   UNL     1       3.577  11.071  -0.591  1.00  0.00     0.167 HD
ATOM     37  C   UNL     1       2.225  10.443   2.059  1.00  0.00     0.074 A 
ATOM     38  C   UNL     1       1.324  10.654   0.928  1.00  0.00     0.031 C 
ATOM     39  C   UNL     1       3.559  10.157   2.120  1.00  0.00     0.034 A 
BRANCH  26  40
ATOM     40  C   UNL     1       3.055   9.663  -3.266  1.00  0.00     0.023 A 
ATOM     41  C   UNL     1       3.743  10.872  -3.498  1.00  0.00     0.031 A 
ATOM     42  C   UNL     1       1.778   9.561  -3.860  1.00  0.00     0.131 A 
ATOM     43  C   UNL     1       3.126  11.937  -4.178  1.00  0.00     0.055 A 
ATOM     44  C   UNL     1       1.199  10.597  -4.600  1.00  0.00     0.041 A 
ATOM     45  F   UNL     1       0.978   8.504  -3.679  1.00  0.00    -0.206 F 
ATOM     46  C   UNL     1       1.857  11.807  -4.733  1.00  0.00     0.022 A 
BRANCH  43  47
ATOM     47  S   UNL     1       3.936  13.558  -4.152  1.00  0.00     0.124 S 
ATOM     48  O   UNL     1       4.123  13.768  -2.720  1.00  0.00    -0.237 OA
ATOM     49  O   UNL     1       5.144  13.303  -4.930  1.00  0.00    -0.237 OA
ATOM     50  O   UNL     1       2.957  14.435  -4.789  1.00  0.00    -0.744 OA
ENDBRANCH  43  47
ENDBRANCH  26  40
BRANCH  27  51
ATOM     51  C   UNL     1      -2.135   9.207   3.476  1.00  0.00     0.023 A 
ATOM     52  C   UNL     1      -2.593  10.424   4.031  1.00  0.00     0.031 A 
ATOM     53  C   UNL     1      -3.129   8.316   3.009  1.00  0.00     0.131 A 
ATOM     54  C   UNL     1      -3.982  10.697   4.106  1.00  0.00     0.055 A 
ATOM     55  C   UNL     1      -4.496   8.587   3.093  1.00  0.00     0.041 A 
ATOM     56  F   UNL     1      -2.802   7.181   2.371  1.00  0.00    -0.206 F 
ATOM     57  C   UNL     1      -4.929   9.784   3.636  1.00  0.00     0.022 A 
BRANCH  54  58
ATOM     58  S   UNL     1      -4.585  12.299   4.738  1.00  0.00     0.124 S 
ATOM     59  O   UNL     1      -4.251  12.221   6.155  1.00  0.00    -0.237 OA
ATOM     60  O   UNL     1      -3.827  13.256   3.942  1.00  0.00    -0.237 OA
ATOM     61  O   UNL     1      -6.019  12.263   4.444  1.00  0.00    -0.744 OA
ENDBRANCH  54  58
ENDBRANCH  27  51
BRANCH  39  62
ATOM     62  C   UNL     1       4.186   9.891   3.473  1.00  0.00     0.023 A 
ATOM     63  C   UNL     1       3.769   8.884   4.372  1.00  0.00     0.031 A 
ATOM     64  C   UNL     1       5.347  10.616   3.797  1.00  0.00     0.131 A 
ATOM     65  C   UNL     1       4.504   8.645   5.550  1.00  0.00     0.055 A 
ATOM     66  C   UNL     1       6.084  10.361   4.952  1.00  0.00     0.041 A 
ATOM     67  F   UNL     1       5.811  11.566   2.967  1.00  0.00    -0.206 F 
ATOM     68  C   UNL     1       5.661   9.377   5.837  1.00  0.00     0.022 A 
BRANCH  65  69
ATOM     69  S   UNL     1       3.963   7.377   6.741  1.00  0.00     0.124 S 
ATOM     70  O   UNL     1       2.542   7.654   6.914  1.00  0.00    -0.237 OA
ATOM     71  O   UNL     1       4.293   6.133   6.050  1.00  0.00    -0.237 OA
ATOM     72  O   UNL     1       4.784   7.649   7.923  1.00  0.00    -0.744 OA
ENDBRANCH  65  69
ENDBRANCH  39  62
ENDBRANCH  13  14
ENDBRANCH   6   8
ENDBRANCH   3   4
ENDBRANCH   2   3
ENDBRANCH   1   2
BRANCH   1  73
ATOM     73  C   UNL     1       5.822  -3.083   2.405  1.00  0.00     0.116 C 
BRANCH  73  74
ATOM     74  N   UNL     1       7.173  -3.201   2.931  1.00  0.00    -0.351 N 
ATOM     75  C   UNL     1       7.747  -4.087   3.825  1.00  0.00     0.261 C 
ATOM     76  H   UNL     1       7.796  -2.521   2.587  1.00  0.00     0.163 HD
ATOM     77  O   UNL     1       8.946  -3.921   4.047  1.00  0.00    -0.268 OA
BRANCH  75  78
ATOM     78  C   UNL     1       6.968  -5.131   4.475  1.00  0.00     0.093 A 
ATOM     79  C   UNL     1       6.073  -6.063   3.975  1.00  0.00     0.040 A 
ATOM     80  S   UNL     1       7.196  -5.362   6.167  1.00  0.00    -0.137 S 
ATOM     81  C   UNL     1       5.391  -6.773   5.014  1.00  0.00     0.019 A 
ATOM     82  C   UNL     1       5.939  -6.519   6.251  1.00  0.00     0.080 A 
BRANCH  81  83
ATOM     83  S   UNL     1       3.976  -7.809   4.805  1.00  0.00    -0.123 SA
BRANCH  83  84
ATOM     84  C   UNL     1       3.039  -6.993   3.460  1.00  0.00     0.098 C 
BRANCH  84  85
ATOM     85  C   UNL     1       2.005  -5.906   3.808  1.00  0.00     0.155 C 
BRANCH  85  86
ATOM     86  N   UNL     1       2.444  -4.645   4.368  1.00  0.00    -0.272 N 
ATOM     87  C   UNL     1       1.680  -3.524   4.550  1.00  0.00     0.108 A 
ATOM     88  N   UNL     1       3.686  -4.484   4.822  1.00  0.00    -0.182 NA
ATOM     89  C   UNL     1       2.467  -2.628   5.240  1.00  0.00     0.042 A 
ATOM     90  C   UNL     1       3.694  -3.285   5.398  1.00  0.00     0.135 A 
ENDBRANCH  85  86
ENDBRANCH  84  85
ENDBRANCH  83  84
ENDBRANCH  81  83
ENDBRANCH  75  78
ENDBRANCH  73  74
ENDBRANCH   1  73
TORSDOF 18
