REMARK SMILES O=C(NCCCCNC(=O)c1cccc([C@@H]2CCC[N@@H+](Cc3cccc(OCCO)c3)C2)c1)c1ccc(-c2c3nc(c(-c4cc(S(=O)(=O)[O-])ccc4F)c4ccc([nH]4)c(-c4cc(S(=O)(=O)[O-])ccc4F)c4nc(c(-c5cc(S(=O)(=O)[O-])ccc5F)c5ccc2[nH]5)C=C4)C=C3)cc1
REMARK SMILES IDX 8 1 9 2 10 3 7 5 6 6 5 7 4 8 3 9 1 10 2 11 34 13 35 14 96 15
REMARK SMILES IDX 36 16 95 17 37 18 38 19 39 20 89 21 40 22 94 23 88 24 90 25
REMARK SMILES IDX 41 26 93 27 87 28 86 29 42 31 74 32 54 33 73 34 55 35 58 36
REMARK SMILES IDX 72 37 91 38 56 39 57 40 71 42 92 43 59 44 43 45 44 46 52 47
REMARK SMILES IDX 45 48 51 49 53 50 50 51 46 52 47 53 48 54 49 55 75 56 76 57
REMARK SMILES IDX 84 58 77 59 83 60 85 61 82 62 78 63 79 64 80 65 81 66 60 67
REMARK SMILES IDX 61 68 69 69 62 70 68 71 70 72 67 73 63 74 64 75 65 76 66 77
REMARK SMILES IDX 11 78 12 79 33 80 13 81 15 82 14 83 16 84 17 85 32 86 18 87
REMARK SMILES IDX 20 88 19 89 21 91 22 92 23 93 31 94 24 95 26 96 25 97 27 98
REMARK SMILES IDX 28 99 29 100 30 101
REMARK H PARENT 8 4 3 12 90 30 58 41 20 90 30 102
REMARK Flexibility Score: inf
ROOT
ATOM      1  N   UNL     1       6.353   2.727  -3.286  1.00  0.00    -0.352 N 
ATOM      2  C   UNL     1       7.199   3.475  -4.074  1.00  0.00     0.251 C 
ATOM      3  O   UNL     1       8.410   3.338  -4.013  1.00  0.00    -0.269 OA
ATOM      4  H   UNL     1       6.792   2.176  -2.598  1.00  0.00     0.163 HD
ENDROOT
BRANCH   1   5
ATOM      5  C   UNL     1       4.899   2.638  -3.328  1.00  0.00     0.116 C 
BRANCH   5   6
ATOM      6  C   UNL     1       4.404   1.228  -3.629  1.00  0.00     0.023 C 
BRANCH   6   7
ATOM      7  C   UNL     1       4.842   0.169  -2.626  1.00  0.00     0.023 C 
BRANCH   7   8
ATOM      8  C   UNL     1       4.537   0.498  -1.173  1.00  0.00     0.116 C 
BRANCH   8   9
ATOM      9  N   UNL     1       3.110   0.588  -0.889  1.00  0.00    -0.352 N 
ATOM     10  O   UNL     1       1.166   0.033   0.127  1.00  0.00    -0.269 OA
ATOM     11  C   UNL     1       2.389  -0.059   0.091  1.00  0.00     0.251 C 
ATOM     12  H   UNL     1       2.594   1.190  -1.473  1.00  0.00     0.163 HD
BRANCH  11  13
ATOM     13  C   UNL     1       3.110  -0.887   1.083  1.00  0.00     0.039 A 
ATOM     14  C   UNL     1       4.265  -0.393   1.689  1.00  0.00     0.014 A 
ATOM     15  C   UNL     1       2.669  -2.183   1.361  1.00  0.00     0.014 A 
ATOM     16  C   UNL     1       5.076  -1.251   2.416  1.00  0.00     0.010 A 
ATOM     17  C   UNL     1       3.431  -3.011   2.195  1.00  0.00     0.010 A 
ATOM     18  C   UNL     1       4.662  -2.564   2.700  1.00  0.00    -0.014 A 
BRANCH  18  19
ATOM     19  C   UNL     1       5.524  -3.400   3.579  1.00  0.00     0.031 A 
ATOM     20  C   UNL     1       6.167  -4.667   3.086  1.00  0.00     0.074 A 
ATOM     21  C   UNL     1       5.785  -2.944   4.822  1.00  0.00     0.049 A 
ATOM     22  N   UNL     1       7.002  -5.461   3.710  1.00  0.00    -0.248 NA
ATOM     23  C   UNL     1       5.826  -5.109   1.727  1.00  0.00     0.031 C 
ATOM     24  C   UNL     1       5.200  -1.733   5.409  1.00  0.00     0.029 A 
ATOM     25  N   UNL     1       6.628  -3.406   5.797  1.00  0.00    -0.354 N 
ATOM     26  C   UNL     1       7.283  -6.498   2.827  1.00  0.00     0.074 A 
ATOM     27  C   UNL     1       6.495  -6.252   1.636  1.00  0.00     0.031 C 
ATOM     28  C   UNL     1       5.757  -1.510   6.606  1.00  0.00     0.029 A 
ATOM     29  C   UNL     1       6.671  -2.602   6.912  1.00  0.00     0.049 A 
ATOM     30  H   UNL     1       7.153  -4.235   5.708  1.00  0.00     0.167 HD
ATOM     31  C   UNL     1       8.126  -7.549   2.993  1.00  0.00     0.034 A 
ATOM     32  C   UNL     1       7.354  -2.732   8.065  1.00  0.00     0.034 A 
ATOM     33  C   UNL     1       8.901  -7.779   4.192  1.00  0.00     0.049 A 
ATOM     34  C   UNL     1       8.268  -3.914   8.226  1.00  0.00     0.074 A 
ATOM     35  C   UNL     1       9.783  -8.811   4.466  1.00  0.00     0.029 A 
ATOM     36  N   UNL     1       8.888  -6.965   5.319  1.00  0.00    -0.354 N 
ATOM     37  N   UNL     1       8.518  -4.884   7.376  1.00  0.00    -0.248 NA
ATOM     38  C   UNL     1       8.995  -4.017   9.495  1.00  0.00     0.031 C 
ATOM     39  C   UNL     1      10.255  -8.654   5.775  1.00  0.00     0.029 A 
ATOM     40  C   UNL     1       9.728  -7.484   6.295  1.00  0.00     0.049 A 
ATOM     41  H   UNL     1       8.360  -6.139   5.412  1.00  0.00     0.167 HD
ATOM     42  C   UNL     1       9.438  -5.711   8.010  1.00  0.00     0.074 A 
ATOM     43  C   UNL     1       9.730  -5.099   9.291  1.00  0.00     0.031 C 
ATOM     44  C   UNL     1       9.984  -6.878   7.581  1.00  0.00     0.034 A 
BRANCH  31  45
ATOM     45  C   UNL     1       8.226  -8.552   1.866  1.00  0.00     0.023 A 
ATOM     46  C   UNL     1       8.755  -8.205   0.610  1.00  0.00     0.031 A 
ATOM     47  C   UNL     1       7.789  -9.877   2.050  1.00  0.00     0.131 A 
ATOM     48  C   UNL     1       8.784  -9.152  -0.426  1.00  0.00     0.055 A 
ATOM     49  C   UNL     1       7.887 -10.834   1.038  1.00  0.00     0.041 A 
ATOM     50  F   UNL     1       7.257 -10.264   3.220  1.00  0.00    -0.206 F 
ATOM     51  C   UNL     1       8.377 -10.472  -0.213  1.00  0.00     0.022 A 
BRANCH  48  52
ATOM     52  S   UNL     1       9.255  -8.608  -2.091  1.00  0.00     0.124 S 
ATOM     53  O   UNL     1       8.244  -7.589  -2.365  1.00  0.00    -0.237 OA
ATOM     54  O   UNL     1      10.615  -8.121  -1.892  1.00  0.00    -0.237 OA
ATOM     55  O   UNL     1       9.139  -9.822  -2.896  1.00  0.00    -0.744 OA
ENDBRANCH  48  52
ENDBRANCH  31  45
BRANCH  32  56
ATOM     56  C   UNL     1       7.162  -1.746   9.167  1.00  0.00     0.023 A 
ATOM     57  C   UNL     1       8.224  -0.962   9.642  1.00  0.00     0.031 A 
ATOM     58  C   UNL     1       5.906  -1.599   9.786  1.00  0.00     0.131 A 
ATOM     59  C   UNL     1       8.023  -0.103  10.734  1.00  0.00     0.055 A 
ATOM     60  C   UNL     1       5.696  -0.696  10.827  1.00  0.00     0.041 A 
ATOM     61  F   UNL     1       4.854  -2.322   9.368  1.00  0.00    -0.206 F 
ATOM     62  C   UNL     1       6.763   0.047  11.318  1.00  0.00     0.022 A 
BRANCH  59  63
ATOM     63  S   UNL     1       9.459   0.743  11.449  1.00  0.00     0.124 S 
ATOM     64  O   UNL     1      10.352  -0.374  11.732  1.00  0.00    -0.237 OA
ATOM     65  O   UNL     1       9.861   1.627  10.360  1.00  0.00    -0.237 OA
ATOM     66  O   UNL     1       8.906   1.415  12.624  1.00  0.00    -0.744 OA
ENDBRANCH  59  63
ENDBRANCH  32  56
BRANCH  44  67
ATOM     67  C   UNL     1      10.963  -7.543   8.517  1.00  0.00     0.023 A 
ATOM     68  C   UNL     1      10.555  -8.047   9.765  1.00  0.00     0.031 A 
ATOM     69  C   UNL     1      12.326  -7.621   8.185  1.00  0.00     0.131 A 
ATOM     70  C   UNL     1      11.511  -8.533  10.669  1.00  0.00     0.055 A 
ATOM     71  C   UNL     1      13.264  -8.169   9.062  1.00  0.00     0.041 A 
ATOM     72  F   UNL     1      12.771  -7.153   7.008  1.00  0.00    -0.206 F 
ATOM     73  C   UNL     1      12.861  -8.611  10.319  1.00  0.00     0.022 A 
BRANCH  70  74
ATOM     74  S   UNL     1      10.982  -8.945  12.354  1.00  0.00     0.124 S 
ATOM     75  O   UNL     1      10.388  -7.689  12.801  1.00  0.00    -0.237 OA
ATOM     76  O   UNL     1      10.051 -10.046  12.128  1.00  0.00    -0.237 OA
ATOM     77  O   UNL     1      12.228  -9.315  13.024  1.00  0.00    -0.744 OA
ENDBRANCH  70  74
ENDBRANCH  44  67
ENDBRANCH  18  19
ENDBRANCH  11  13
ENDBRANCH   8   9
ENDBRANCH   7   8
ENDBRANCH   6   7
ENDBRANCH   5   6
ENDBRANCH   1   5
BRANCH   2  78
ATOM     78  C   UNL     1       6.615   4.447  -5.018  1.00  0.00     0.040 A 
ATOM     79  C   UNL     1       6.977   4.392  -6.363  1.00  0.00     0.014 A 
ATOM     80  C   UNL     1       5.673   5.374  -4.564  1.00  0.00     0.018 A 
ATOM     81  C   UNL     1       6.335   5.229  -7.271  1.00  0.00     0.001 A 
ATOM     82  C   UNL     1       4.991   6.187  -5.466  1.00  0.00    -0.039 A 
ATOM     83  C   UNL     1       5.337   6.104  -6.828  1.00  0.00     0.004 A 
BRANCH  82  84
ATOM     84  C   UNL     1       3.842   7.074  -5.027  1.00  0.00     0.074 C 
ATOM     85  C   UNL     1       4.152   8.033  -3.866  1.00  0.00     0.020 C 
ATOM     86  C   UNL     1       2.538   6.272  -4.800  1.00  0.00     0.270 C 
ATOM     87  C   UNL     1       3.810   7.479  -2.486  1.00  0.00     0.062 C 
ATOM     88  N   UNL     1       2.252   5.804  -3.432  1.00  0.00    -0.331 N 
ATOM     89  C   UNL     1       2.408   6.878  -2.446  1.00  0.00     0.262 C 
ATOM     90  H   UNL     1       2.950   5.090  -3.221  1.00  0.00     0.348 HD
BRANCH  88  91
ATOM     91  C   UNL     1       0.923   5.142  -3.317  1.00  0.00     0.299 C 
BRANCH  91  92
ATOM     92  C   UNL     1      -0.293   6.046  -3.471  1.00  0.00     0.010 A 
ATOM     93  C   UNL     1      -1.011   6.495  -2.355  1.00  0.00     0.010 A 
ATOM     94  C   UNL     1      -0.661   6.523  -4.741  1.00  0.00     0.056 A 
ATOM     95  C   UNL     1      -2.025   7.443  -2.506  1.00  0.00     0.004 A 
ATOM     96  C   UNL     1      -1.585   7.555  -4.885  1.00  0.00     0.119 A 
ATOM     97  C   UNL     1      -2.292   7.988  -3.764  1.00  0.00     0.046 A 
BRANCH  96  98
ATOM     98  O   UNL     1      -1.840   8.239  -6.043  1.00  0.00    -0.491 OA
BRANCH  98  99
ATOM     99  C   UNL     1      -0.865   8.197  -7.095  1.00  0.00     0.257 C 
BRANCH  99 100
ATOM    100  C   UNL     1       0.201   9.291  -6.954  1.00  0.00     0.197 C 
BRANCH 100 101
ATOM    101  O   UNL     1       1.010   9.143  -5.794  1.00  0.00    -0.393 OA
ATOM    102  H   UNL     1       0.455   9.208  -5.002  1.00  0.00     0.210 HD
ENDBRANCH 100 101
ENDBRANCH  99 100
ENDBRANCH  98  99
ENDBRANCH  96  98
ENDBRANCH  91  92
ENDBRANCH  88  91
ENDBRANCH  82  84
ENDBRANCH   2  78
TORSDOF 21
