REMARK SMILES Cc1cccc(-n2ncc(C(=O)Nc3cccc(C(=O)NCCCCNC(=O)c4ccc(-c5c6nc(c(-c7cc(S(=O)(=O)[O-])ccc7F)c7ccc([nH]7)c(-c7cc(S(=O)(=O)[O-])ccc7F)c7nc(c(-c8cc(S(=O)(=O)[O-])ccc8F)c8ccc5[nH]8)C=C7)C=C6)cc4)c3C)c2C)c1
REMARK SMILES IDX 23 1 22 2 21 3 19 4 20 5 18 7 14 8 15 9 92 10 16 11 93 12
REMARK SMILES IDX 17 13 13 14 11 15 12 16 10 18 7 19 8 20 94 21 9 22 95 23
REMARK SMILES IDX 6 24 1 25 2 26 3 27 96 28 4 29 5 30 24 31 25 32 26 33 27 34
REMARK SMILES IDX 28 36 29 37 30 38 91 39 31 40 90 41 32 42 33 43 34 44 84 45
REMARK SMILES IDX 35 46 89 47 83 48 85 49 36 50 88 51 82 52 81 53 37 55 69 56
REMARK SMILES IDX 49 57 68 58 50 59 53 60 67 61 86 62 51 63 52 64 66 66 87 67
REMARK SMILES IDX 54 68 38 69 39 70 47 71 40 72 46 73 48 74 45 75 41 76 42 77
REMARK SMILES IDX 43 78 44 79 70 80 71 81 79 82 72 83 78 84 80 85 77 86 73 87
REMARK SMILES IDX 74 88 75 89 76 90 55 91 56 92 64 93 57 94 63 95 65 96 62 97
REMARK SMILES IDX 58 98 59 99 60 100 61 101
REMARK H PARENT 21 6 13 17 26 35 85 54 53 65
REMARK Flexibility Score: inf
ROOT
ATOM      1  C   UNL     1      -2.955  10.255  -5.310  1.00  0.00     0.023 C 
ENDROOT
BRANCH   1   2
ATOM      2  C   UNL     1      -1.957   9.447  -4.484  1.00  0.00     0.116 C 
BRANCH   2   3
ATOM      3  N   UNL     1      -1.820   9.896  -3.097  1.00  0.00    -0.352 N 
ATOM      4  C   UNL     1      -2.136   9.365  -1.866  1.00  0.00     0.251 C 
ATOM      5  O   UNL     1      -1.774  10.017  -0.884  1.00  0.00    -0.269 OA
ATOM      6  H   UNL     1      -1.405  10.786  -3.028  1.00  0.00     0.163 HD
BRANCH   4   7
ATOM      7  C   UNL     1      -2.891   8.081  -1.661  1.00  0.00     0.044 A 
ATOM      8  C   UNL     1      -4.154   6.525  -0.279  1.00  0.00     0.045 A 
ATOM      9  C   UNL     1      -4.206   5.613  -1.338  1.00  0.00     0.026 A 
ATOM     10  C   UNL     1      -3.632   7.827  -0.468  1.00  0.00    -0.015 A 
ATOM     11  C   UNL     1      -3.493   5.865  -2.493  1.00  0.00     0.003 A 
ATOM     12  C   UNL     1      -3.712   8.832   0.657  1.00  0.00     0.047 C 
ATOM     13  C   UNL     1      -2.756   7.039  -2.589  1.00  0.00     0.014 A 
BRANCH   8  14
ATOM     14  N   UNL     1      -4.513   6.072   1.005  1.00  0.00    -0.322 N 
ATOM     15  C   UNL     1      -4.201   4.849   1.582  1.00  0.00     0.259 C 
ATOM     16  O   UNL     1      -4.840   4.495   2.575  1.00  0.00    -0.269 OA
ATOM     17  H   UNL     1      -5.044   6.692   1.554  1.00  0.00     0.170 HD
BRANCH  15  18
ATOM     18  C   UNL     1      -3.067   4.064   1.076  1.00  0.00     0.081 A 
ATOM     19  N   UNL     1      -1.646   2.402   0.596  1.00  0.00    -0.237 N 
ATOM     20  N   UNL     1      -1.050   3.523   0.133  1.00  0.00    -0.175 NA
ATOM     21  C   UNL     1      -2.797   2.716   1.316  1.00  0.00     0.054 A 
ATOM     22  C   UNL     1      -1.913   4.499   0.387  1.00  0.00     0.149 A 
ATOM     23  C   UNL     1      -3.483   1.790   2.256  1.00  0.00     0.068 C 
BRANCH  19  24
ATOM     24  C   UNL     1      -1.024   1.144   0.350  1.00  0.00     0.065 A 
ATOM     25  C   UNL     1       2.523  -0.135  -0.224  1.00  0.00     0.044 C 
ATOM     26  C   UNL     1       1.032  -0.103  -0.061  1.00  0.00    -0.049 A 
ATOM     27  C   UNL     1       0.295  -1.292  -0.048  1.00  0.00     0.003 A 
ATOM     28  C   UNL     1       0.361   1.113   0.112  1.00  0.00     0.031 A 
ATOM     29  C   UNL     1      -1.090  -1.264   0.126  1.00  0.00     0.002 A 
ATOM     30  C   UNL     1      -1.752  -0.049   0.326  1.00  0.00     0.028 A 
ENDBRANCH  19  24
ENDBRANCH  15  18
ENDBRANCH   8  14
ENDBRANCH   4   7
ENDBRANCH   2   3
ENDBRANCH   1   2
BRANCH   1  31
ATOM     31  C   UNL     1      -2.570  11.703  -5.581  1.00  0.00     0.023 C 
BRANCH  31  32
ATOM     32  C   UNL     1      -1.260  11.896  -6.335  1.00  0.00     0.116 C 
BRANCH  32  33
ATOM     33  N   UNL     1      -1.336  11.744  -7.781  1.00  0.00    -0.352 N 
ATOM     34  C   UNL     1      -0.321  11.898  -8.719  1.00  0.00     0.251 C 
ATOM     35  H   UNL     1      -2.220  11.502  -8.141  1.00  0.00     0.163 HD
ATOM     36  O   UNL     1      -0.540  11.829  -9.914  1.00  0.00    -0.269 OA
BRANCH  34  37
ATOM     37  C   UNL     1       1.079  12.025  -8.230  1.00  0.00     0.039 A 
ATOM     38  C   UNL     1       2.010  11.095  -8.707  1.00  0.00     0.014 A 
ATOM     39  C   UNL     1       1.400  12.856  -7.161  1.00  0.00     0.014 A 
ATOM     40  C   UNL     1       3.150  10.824  -7.953  1.00  0.00     0.010 A 
ATOM     41  C   UNL     1       2.477  12.521  -6.361  1.00  0.00     0.010 A 
ATOM     42  C   UNL     1       3.308  11.453  -6.720  1.00  0.00    -0.014 A 
BRANCH  42  43
ATOM     43  C   UNL     1       4.203  10.953  -5.681  1.00  0.00     0.031 A 
ATOM     44  C   UNL     1       5.429  11.684  -5.310  1.00  0.00     0.074 A 
ATOM     45  C   UNL     1       3.885   9.823  -5.007  1.00  0.00     0.049 A 
ATOM     46  N   UNL     1       6.408  11.151  -4.660  1.00  0.00    -0.248 NA
ATOM     47  C   UNL     1       5.698  13.060  -5.717  1.00  0.00     0.031 C 
ATOM     48  C   UNL     1       4.488   9.316  -3.777  1.00  0.00     0.029 A 
ATOM     49  N   UNL     1       3.124   8.755  -5.484  1.00  0.00    -0.354 N 
ATOM     50  C   UNL     1       7.242  12.165  -4.269  1.00  0.00     0.074 A 
ATOM     51  C   UNL     1       6.858  13.285  -5.090  1.00  0.00     0.031 C 
ATOM     52  C   UNL     1       4.330   7.985  -3.736  1.00  0.00     0.029 A 
ATOM     53  C   UNL     1       3.736   7.580  -4.995  1.00  0.00     0.049 A 
ATOM     54  H   UNL     1       2.319   8.810  -6.049  1.00  0.00     0.167 HD
ATOM     55  C   UNL     1       8.049  11.968  -3.189  1.00  0.00     0.034 A 
ATOM     56  C   UNL     1       4.237   6.644  -5.854  1.00  0.00     0.034 A 
ATOM     57  C   UNL     1       8.175  10.541  -2.860  1.00  0.00     0.049 A 
ATOM     58  C   UNL     1       5.733   6.415  -5.721  1.00  0.00     0.074 A 
ATOM     59  C   UNL     1       7.829   9.729  -1.794  1.00  0.00     0.029 A 
ATOM     60  N   UNL     1       8.600   9.678  -3.861  1.00  0.00    -0.354 N 
ATOM     61  N   UNL     1       6.502   7.024  -4.858  1.00  0.00    -0.248 NA
ATOM     62  C   UNL     1       6.499   5.548  -6.618  1.00  0.00     0.031 C 
ATOM     63  C   UNL     1       8.008   8.366  -2.197  1.00  0.00     0.029 A 
ATOM     64  C   UNL     1       8.498   8.354  -3.490  1.00  0.00     0.049 A 
ATOM     65  H   UNL     1       8.935   9.978  -4.736  1.00  0.00     0.167 HD
ATOM     66  C   UNL     1       7.816   6.733  -5.125  1.00  0.00     0.074 A 
ATOM     67  C   UNL     1       7.762   5.789  -6.227  1.00  0.00     0.031 C 
ATOM     68  C   UNL     1       8.855   7.332  -4.469  1.00  0.00     0.034 A 
BRANCH  55  69
ATOM     69  C   UNL     1       8.622  13.078  -2.323  1.00  0.00     0.023 A 
ATOM     70  C   UNL     1       9.425  12.732  -1.214  1.00  0.00     0.031 A 
ATOM     71  C   UNL     1       8.324  14.456  -2.434  1.00  0.00     0.131 A 
ATOM     72  C   UNL     1       9.872  13.707  -0.296  1.00  0.00     0.055 A 
ATOM     73  C   UNL     1       8.827  15.430  -1.562  1.00  0.00     0.041 A 
ATOM     74  F   UNL     1       7.474  14.947  -3.341  1.00  0.00    -0.206 F 
ATOM     75  C   UNL     1       9.598  15.058  -0.479  1.00  0.00     0.022 A 
BRANCH  72  76
ATOM     76  S   UNL     1      10.743  13.182   1.206  1.00  0.00     0.124 S 
ATOM     77  O   UNL     1       9.746  12.342   1.860  1.00  0.00    -0.237 OA
ATOM     78  O   UNL     1      11.914  12.502   0.664  1.00  0.00    -0.237 OA
ATOM     79  O   UNL     1      11.026  14.444   1.891  1.00  0.00    -0.744 OA
ENDBRANCH  72  76
ENDBRANCH  55  69
BRANCH  56  80
ATOM     80  C   UNL     1       3.423   6.541  -7.104  1.00  0.00     0.023 A 
ATOM     81  C   UNL     1       2.039   6.286  -6.941  1.00  0.00     0.031 A 
ATOM     82  C   UNL     1       3.849   7.077  -8.326  1.00  0.00     0.131 A 
ATOM     83  C   UNL     1       1.118   6.749  -7.889  1.00  0.00     0.055 A 
ATOM     84  C   UNL     1       2.928   7.449  -9.315  1.00  0.00     0.041 A 
ATOM     85  F   UNL     1       5.139   7.378  -8.532  1.00  0.00    -0.206 F 
ATOM     86  C   UNL     1       1.557   7.336  -9.078  1.00  0.00     0.022 A 
BRANCH  83  87
ATOM     87  S   UNL     1      -0.643   6.860  -7.437  1.00  0.00     0.124 S 
ATOM     88  O   UNL     1      -1.208   5.694  -8.105  1.00  0.00    -0.237 OA
ATOM     89  O   UNL     1      -0.628   6.807  -5.976  1.00  0.00    -0.237 OA
ATOM     90  O   UNL     1      -1.047   8.157  -7.974  1.00  0.00    -0.744 OA
ENDBRANCH  83  87
ENDBRANCH  56  80
BRANCH  68  91
ATOM     91  C   UNL     1      10.309   7.033  -4.757  1.00  0.00     0.023 A 
ATOM     92  C   UNL     1      10.768   5.734  -5.035  1.00  0.00     0.031 A 
ATOM     93  C   UNL     1      11.301   8.039  -4.684  1.00  0.00     0.131 A 
ATOM     94  C   UNL     1      12.131   5.489  -5.290  1.00  0.00     0.055 A 
ATOM     95  C   UNL     1      12.664   7.777  -4.854  1.00  0.00     0.041 A 
ATOM     96  F   UNL     1      10.988   9.327  -4.487  1.00  0.00    -0.206 F 
ATOM     97  C   UNL     1      13.087   6.497  -5.171  1.00  0.00     0.022 A 
BRANCH  94  98
ATOM     98  S   UNL     1      12.632   3.840  -5.848  1.00  0.00     0.124 S 
ATOM     99  O   UNL     1      12.076   2.970  -4.817  1.00  0.00    -0.237 OA
ATOM    100  O   UNL     1      11.989   3.763  -7.157  1.00  0.00    -0.237 OA
ATOM    101  O   UNL     1      14.092   3.913  -5.880  1.00  0.00    -0.744 OA
ENDBRANCH  94  98
ENDBRANCH  68  91
ENDBRANCH  42  43
ENDBRANCH  34  37
ENDBRANCH  32  33
ENDBRANCH  31  32
ENDBRANCH   1  31
TORSDOF 17
