REMARK SMILES CCOc1ccc(-n2ncc(C(=O)NCCCCNC(=O)c3ccc(-c4c5nc(c(-c6cc(S(=O)(=O)[O-])ccc6F)c6ccc([nH]6)c(-c6cc(S(=O)(=O)[O-])ccc6F)c6nc(c(-c7cc(S(=O)(=O)[O-])ccc7F)c7ccc4[nH]7)C=C6)C=C5)cc3)c2C)nn1
REMARK SMILES IDX 16 1 15 2 14 3 12 4 13 5 11 7 8 8 9 9 85 10 10 11 86 12 7 13
REMARK SMILES IDX 4 14 5 15 88 16 6 17 87 18 3 19 2 20 1 21 17 22 18 23 19 24
REMARK SMILES IDX 20 25 21 27 22 28 23 29 84 30 24 31 83 32 25 33 26 34 27 35
REMARK SMILES IDX 77 36 28 37 82 38 76 39 78 40 29 41 81 42 75 43 74 44 30 46
REMARK SMILES IDX 62 47 42 48 61 49 43 50 46 51 60 52 79 53 44 54 45 55 59 57
REMARK SMILES IDX 80 58 47 59 31 60 32 61 40 62 33 63 39 64 41 65 38 66 34 67
REMARK SMILES IDX 35 68 36 69 37 70 63 71 64 72 72 73 65 74 71 75 73 76 70 77
REMARK SMILES IDX 66 78 67 79 68 80 69 81 48 82 49 83 57 84 50 85 56 86 58 87
REMARK SMILES IDX 55 88 51 89 52 90 53 91 54 92
REMARK H PARENT 14 6 19 26 78 45 46 56
REMARK Flexibility Score: inf
ROOT
ATOM      1  C   UNL     1      11.549  -5.794  -0.210  1.00  0.00     0.023 C 
ENDROOT
BRANCH   1   2
ATOM      2  C   UNL     1      11.305  -4.319  -0.538  1.00  0.00     0.116 C 
BRANCH   2   3
ATOM      3  N   UNL     1      10.768  -4.145  -1.872  1.00  0.00    -0.352 N 
ATOM      4  C   UNL     1       9.513  -3.947  -2.384  1.00  0.00     0.254 C 
ATOM      5  O   UNL     1       9.443  -3.921  -3.614  1.00  0.00    -0.269 OA
ATOM      6  H   UNL     1      11.463  -4.175  -2.569  1.00  0.00     0.163 HD
BRANCH   4   7
ATOM      7  C   UNL     1       8.326  -3.750  -1.552  1.00  0.00     0.081 A 
ATOM      8  N   UNL     1       6.226  -3.240  -0.952  1.00  0.00    -0.217 N 
ATOM      9  N   UNL     1       6.908  -3.400   0.211  1.00  0.00    -0.174 NA
ATOM     10  C   UNL     1       7.049  -3.448  -2.049  1.00  0.00     0.056 A 
ATOM     11  C   UNL     1       8.130  -3.764  -0.161  1.00  0.00     0.149 A 
ATOM     12  C   UNL     1       6.626  -3.246  -3.466  1.00  0.00     0.068 C 
BRANCH   8  13
ATOM     13  C   UNL     1       4.842  -2.907  -0.881  1.00  0.00     0.176 A 
ATOM     14  C   UNL     1       2.204  -2.363  -0.642  1.00  0.00     0.233 A 
ATOM     15  C   UNL     1       3.039  -1.967   0.380  1.00  0.00     0.074 A 
ATOM     16  N   UNL     1       2.647  -3.007  -1.742  1.00  0.00    -0.110 NA
ATOM     17  C   UNL     1       4.391  -2.244   0.257  1.00  0.00     0.057 A 
ATOM     18  N   UNL     1       3.991  -3.266  -1.872  1.00  0.00    -0.127 NA
BRANCH  14  19
ATOM     19  O   UNL     1       0.851  -2.181  -0.502  1.00  0.00    -0.477 OA
BRANCH  19  20
ATOM     20  C   UNL     1       0.448  -0.941  -1.088  1.00  0.00     0.228 C 
ATOM     21  C   UNL     1       0.605   0.206  -0.099  1.00  0.00     0.049 C 
ENDBRANCH  19  20
ENDBRANCH  14  19
ENDBRANCH   8  13
ENDBRANCH   4   7
ENDBRANCH   2   3
ENDBRANCH   1   2
BRANCH   1  22
ATOM     22  C   UNL     1      12.736  -6.437  -0.948  1.00  0.00     0.023 C 
BRANCH  22  23
ATOM     23  C   UNL     1      14.093  -5.790  -0.683  1.00  0.00     0.116 C 
BRANCH  23  24
ATOM     24  N   UNL     1      14.482  -5.826   0.725  1.00  0.00    -0.352 N 
ATOM     25  C   UNL     1      15.546  -5.173   1.329  1.00  0.00     0.251 C 
ATOM     26  H   UNL     1      13.922  -6.380   1.315  1.00  0.00     0.163 HD
ATOM     27  O   UNL     1      16.023  -5.596   2.369  1.00  0.00    -0.269 OA
BRANCH  25  28
ATOM     28  C   UNL     1      16.078  -3.953   0.688  1.00  0.00     0.039 A 
ATOM     29  C   UNL     1      17.449  -3.711   0.591  1.00  0.00     0.014 A 
ATOM     30  C   UNL     1      15.161  -3.057   0.147  1.00  0.00     0.014 A 
ATOM     31  C   UNL     1      17.881  -2.605  -0.142  1.00  0.00     0.010 A 
ATOM     32  C   UNL     1      15.585  -2.057  -0.693  1.00  0.00     0.010 A 
ATOM     33  C   UNL     1      16.943  -1.794  -0.810  1.00  0.00    -0.014 A 
BRANCH  33  34
ATOM     34  C   UNL     1      17.376  -0.761  -1.751  1.00  0.00     0.031 A 
ATOM     35  C   UNL     1      18.339  -1.246  -2.776  1.00  0.00     0.074 A 
ATOM     36  C   UNL     1      16.826   0.471  -1.842  1.00  0.00     0.049 A 
ATOM     37  N   UNL     1      19.600  -0.983  -2.840  1.00  0.00    -0.248 NA
ATOM     38  C   UNL     1      17.903  -2.274  -3.734  1.00  0.00     0.031 C 
ATOM     39  C   UNL     1      15.678   1.016  -1.110  1.00  0.00     0.029 A 
ATOM     40  N   UNL     1      17.130   1.485  -2.701  1.00  0.00    -0.354 N 
ATOM     41  C   UNL     1      20.064  -1.596  -3.998  1.00  0.00     0.074 A 
ATOM     42  C   UNL     1      19.045  -2.540  -4.373  1.00  0.00     0.031 C 
ATOM     43  C   UNL     1      15.245   2.147  -1.712  1.00  0.00     0.029 A 
ATOM     44  C   UNL     1      16.180   2.505  -2.765  1.00  0.00     0.049 A 
ATOM     45  H   UNL     1      17.956   1.497  -3.235  1.00  0.00     0.167 HD
ATOM     46  C   UNL     1      21.131  -1.087  -4.676  1.00  0.00     0.034 A 
ATOM     47  C   UNL     1      16.152   3.563  -3.623  1.00  0.00     0.034 A 
ATOM     48  C   UNL     1      21.857  -0.139  -3.856  1.00  0.00     0.049 A 
ATOM     49  C   UNL     1      17.545   3.760  -4.097  1.00  0.00     0.074 A 
ATOM     50  C   UNL     1      22.454  -0.206  -2.610  1.00  0.00     0.029 A 
ATOM     51  N   UNL     1      21.676   1.206  -4.100  1.00  0.00    -0.354 N 
ATOM     52  N   UNL     1      18.516   4.130  -3.308  1.00  0.00    -0.248 NA
ATOM     53  C   UNL     1      17.963   3.052  -5.298  1.00  0.00     0.031 C 
ATOM     54  C   UNL     1      22.093   1.018  -1.970  1.00  0.00     0.029 A 
ATOM     55  C   UNL     1      21.402   1.807  -2.893  1.00  0.00     0.049 A 
ATOM     56  H   UNL     1      21.732   1.653  -4.975  1.00  0.00     0.167 HD
ATOM     57  C   UNL     1      19.586   3.321  -3.655  1.00  0.00     0.074 A 
ATOM     58  C   UNL     1      19.217   2.746  -4.949  1.00  0.00     0.031 C 
ATOM     59  C   UNL     1      20.537   2.964  -2.738  1.00  0.00     0.034 A 
BRANCH  46  60
ATOM     60  C   UNL     1      21.316  -1.152  -6.177  1.00  0.00     0.023 A 
ATOM     61  C   UNL     1      22.494  -0.590  -6.707  1.00  0.00     0.031 A 
ATOM     62  C   UNL     1      20.307  -1.459  -7.118  1.00  0.00     0.131 A 
ATOM     63  C   UNL     1      22.591  -0.266  -8.071  1.00  0.00     0.055 A 
ATOM     64  C   UNL     1      20.437  -1.200  -8.485  1.00  0.00     0.041 A 
ATOM     65  F   UNL     1      19.108  -1.935  -6.767  1.00  0.00    -0.206 F 
ATOM     66  C   UNL     1      21.570  -0.569  -8.966  1.00  0.00     0.022 A 
BRANCH  63  67
ATOM     67  S   UNL     1      24.004   0.726  -8.619  1.00  0.00     0.124 S 
ATOM     68  O   UNL     1      23.912   1.881  -7.732  1.00  0.00    -0.237 OA
ATOM     69  O   UNL     1      25.120  -0.184  -8.380  1.00  0.00    -0.237 OA
ATOM     70  O   UNL     1      23.706   0.991 -10.025  1.00  0.00    -0.744 OA
ENDBRANCH  63  67
ENDBRANCH  46  60
BRANCH  47  71
ATOM     71  C   UNL     1      14.961   4.173  -4.288  1.00  0.00     0.023 A 
ATOM     72  C   UNL     1      14.972   5.453  -4.891  1.00  0.00     0.031 A 
ATOM     73  C   UNL     1      13.836   3.361  -4.560  1.00  0.00     0.131 A 
ATOM     74  C   UNL     1      13.898   5.863  -5.722  1.00  0.00     0.055 A 
ATOM     75  C   UNL     1      12.784   3.769  -5.383  1.00  0.00     0.041 A 
ATOM     76  F   UNL     1      13.763   2.100  -4.104  1.00  0.00    -0.206 F 
ATOM     77  C   UNL     1      12.815   5.019  -5.977  1.00  0.00     0.022 A 
BRANCH  74  78
ATOM     78  S   UNL     1      13.928   7.482  -6.569  1.00  0.00     0.124 S 
ATOM     79  O   UNL     1      13.790   8.417  -5.459  1.00  0.00    -0.237 OA
ATOM     80  O   UNL     1      15.219   7.461  -7.246  1.00  0.00    -0.237 OA
ATOM     81  O   UNL     1      12.770   7.421  -7.464  1.00  0.00    -0.744 OA
ENDBRANCH  74  78
ENDBRANCH  47  71
BRANCH  59  82
ATOM     82  C   UNL     1      20.570   3.688  -1.400  1.00  0.00     0.023 A 
ATOM     83  C   UNL     1      19.472   3.837  -0.520  1.00  0.00     0.031 A 
ATOM     84  C   UNL     1      21.817   4.170  -0.960  1.00  0.00     0.131 A 
ATOM     85  C   UNL     1      19.644   4.471   0.729  1.00  0.00     0.055 A 
ATOM     86  C   UNL     1      21.989   4.771   0.286  1.00  0.00     0.041 A 
ATOM     87  F   UNL     1      22.909   4.045  -1.734  1.00  0.00    -0.206 F 
ATOM     88  C   UNL     1      20.901   4.933   1.133  1.00  0.00     0.022 A 
BRANCH  85  89
ATOM     89  S   UNL     1      18.228   4.753   1.844  1.00  0.00     0.124 S 
ATOM     90  O   UNL     1      17.170   5.208   0.950  1.00  0.00    -0.237 OA
ATOM     91  O   UNL     1      18.032   3.436   2.445  1.00  0.00    -0.237 OA
ATOM     92  O   UNL     1      18.725   5.774   2.769  1.00  0.00    -0.744 OA
ENDBRANCH  85  89
ENDBRANCH  59  82
ENDBRANCH  33  34
ENDBRANCH  25  28
ENDBRANCH  23  24
ENDBRANCH  22  23
ENDBRANCH   1  22
TORSDOF 17
