REMARK SMILES Cc1cc(C(=O)N[C@H](C(=O)NCCCCNC(=O)c2ccc(-c3c4nc(c(-c5cc(S(=O)(=O)[O-])ccc5F)c5ccc([nH]5)c(-c5cc(S(=O)(=O)[O-])ccc5F)c5nc(c(-c6cc(S(=O)(=O)[O-])ccc6F)c6ccc3[nH]6)C=C5)C=C4)cc2)c2c(C)n[nH]c2C)c2ccc(C)c(C)c2n1
REMARK SMILES IDX 14 1 13 2 12 3 11 4 9 5 10 6 8 8 7 9 5 10 6 11 4 13 1 14
REMARK SMILES IDX 2 15 3 16 97 17 96 18 89 19 94 20 90 21 92 22 95 23 91 24
REMARK SMILES IDX 93 25 82 26 83 27 87 28 84 29 85 30 86 31 88 32 15 34 16 35
REMARK SMILES IDX 17 36 18 38 19 39 20 40 81 41 21 42 80 43 22 44 23 45 24 46
REMARK SMILES IDX 74 47 25 48 79 49 73 50 75 51 26 52 78 53 72 54 71 55 27 57
REMARK SMILES IDX 59 58 39 59 58 60 40 61 43 62 57 63 76 64 41 65 42 66 56 68
REMARK SMILES IDX 77 69 44 70 28 71 29 72 37 73 30 74 36 75 38 76 35 77 31 78
REMARK SMILES IDX 32 79 33 80 34 81 60 82 61 83 69 84 62 85 68 86 70 87 67 88
REMARK SMILES IDX 63 89 64 90 65 91 66 92 45 93 46 94 54 95 47 96 53 97 55 98
REMARK SMILES IDX 52 99 48 100 49 101 50 102 51 103
REMARK H PARENT 11 7 7 12 86 33 16 37 75 56 43 67
REMARK Flexibility Score: inf
ROOT
ATOM      1  C   UNL     1       5.523   6.575   0.457  1.00  0.00     0.023 C 
ENDROOT
BRANCH   1   2
ATOM      2  C   UNL     1       5.330   5.447   1.461  1.00  0.00     0.023 C 
BRANCH   2   3
ATOM      3  C   UNL     1       4.147   5.671   2.391  1.00  0.00     0.116 C 
BRANCH   3   4
ATOM      4  N   UNL     1       2.916   5.981   1.688  1.00  0.00    -0.354 N 
ATOM      5  C   UNL     1       1.830   5.198   1.439  1.00  0.00     0.247 C 
ATOM      6  O   UNL     1       0.793   5.762   1.070  1.00  0.00    -0.272 OA
ATOM      7  H   UNL     1       2.857   6.899   1.336  1.00  0.00     0.163 HD
BRANCH   5   8
ATOM      8  C   UNL     1       1.821   3.687   1.751  1.00  0.00     0.206 C 
BRANCH   8   9
ATOM      9  N   UNL     1       3.026   2.962   1.310  1.00  0.00    -0.336 N 
ATOM     10  C   UNL     1       3.562   2.787   0.034  1.00  0.00     0.252 C 
ATOM     11  O   UNL     1       4.424   1.922  -0.111  1.00  0.00    -0.269 OA
ATOM     12  H   UNL     1       3.536   2.531   2.034  1.00  0.00     0.165 HD
BRANCH  10  13
ATOM     13  C   UNL     1       3.208   3.699  -1.109  1.00  0.00     0.051 A 
ATOM     14  C   UNL     1       0.130   5.579  -2.158  1.00  0.00     0.067 C 
ATOM     15  C   UNL     1       1.538   5.075  -2.090  1.00  0.00     0.039 A 
ATOM     16  C   UNL     1       1.864   3.974  -1.329  1.00  0.00     0.038 A 
ATOM     17  N   UNL     1       2.474   5.838  -2.677  1.00  0.00    -0.253 NA
ATOM     18  C   UNL     1       3.769   5.497  -2.627  1.00  0.00     0.074 A 
ATOM     19  C   UNL     1       4.208   4.380  -1.881  1.00  0.00     0.013 A 
ATOM     20  C   UNL     1       4.691   6.324  -3.299  1.00  0.00    -0.022 A 
ATOM     21  C   UNL     1       5.593   4.067  -1.942  1.00  0.00     0.011 A 
ATOM     22  C   UNL     1       6.068   6.019  -3.308  1.00  0.00    -0.046 A 
ATOM     23  C   UNL     1       4.169   7.601  -3.932  1.00  0.00     0.047 C 
ATOM     24  C   UNL     1       6.500   4.861  -2.659  1.00  0.00     0.004 A 
ATOM     25  C   UNL     1       7.070   6.918  -3.981  1.00  0.00     0.044 C 
ENDBRANCH  10  13
ENDBRANCH   8   9
BRANCH   8  26
ATOM     26  C   UNL     1       1.478   3.429   3.218  1.00  0.00     0.027 A 
ATOM     27  C   UNL     1       1.277   2.156   3.848  1.00  0.00     0.065 A 
ATOM     28  C   UNL     1       1.122   4.333   4.224  1.00  0.00     0.038 A 
ATOM     29  C   UNL     1       1.410   0.792   3.274  1.00  0.00     0.069 C 
ATOM     30  N   UNL     1       0.883   2.272   5.120  1.00  0.00    -0.180 NA
ATOM     31  N   UNL     1       0.771   3.585   5.310  1.00  0.00    -0.282 N 
ATOM     32  C   UNL     1       0.998   5.816   4.296  1.00  0.00     0.066 C 
ATOM     33  H   UNL     1       0.463   3.981   6.158  1.00  0.00     0.190 HD
ENDBRANCH   8  26
ENDBRANCH   5   8
ENDBRANCH   3   4
ENDBRANCH   2   3
ENDBRANCH   1   2
BRANCH   1  34
ATOM     34  C   UNL     1       6.325   7.725   1.017  1.00  0.00     0.116 C 
BRANCH  34  35
ATOM     35  N   UNL     1       7.747   7.389   1.025  1.00  0.00    -0.352 N 
ATOM     36  C   UNL     1       8.746   7.827   0.191  1.00  0.00     0.251 C 
ATOM     37  H   UNL     1       8.028   6.759   1.728  1.00  0.00     0.163 HD
ATOM     38  O   UNL     1       9.807   7.203   0.127  1.00  0.00    -0.269 OA
BRANCH  36  39
ATOM     39  C   UNL     1       8.545   9.039  -0.631  1.00  0.00     0.039 A 
ATOM     40  C   UNL     1       9.120   9.126  -1.903  1.00  0.00     0.014 A 
ATOM     41  C   UNL     1       7.789  10.102  -0.134  1.00  0.00     0.014 A 
ATOM     42  C   UNL     1       8.883  10.254  -2.692  1.00  0.00     0.010 A 
ATOM     43  C   UNL     1       7.444  11.155  -0.962  1.00  0.00     0.010 A 
ATOM     44  C   UNL     1       8.028  11.264  -2.228  1.00  0.00    -0.014 A 
BRANCH  44  45
ATOM     45  C   UNL     1       7.825  12.527  -2.969  1.00  0.00     0.031 A 
ATOM     46  C   UNL     1       8.333  13.802  -2.354  1.00  0.00     0.074 A 
ATOM     47  C   UNL     1       7.123  12.540  -4.116  1.00  0.00     0.049 A 
ATOM     48  N   UNL     1       8.183  15.031  -2.764  1.00  0.00    -0.248 NA
ATOM     49  C   UNL     1       9.074  13.682  -1.083  1.00  0.00     0.031 C 
ATOM     50  C   UNL     1       6.537  11.366  -4.761  1.00  0.00     0.029 A 
ATOM     51  N   UNL     1       6.768  13.584  -4.931  1.00  0.00    -0.354 N 
ATOM     52  C   UNL     1       8.791  15.823  -1.798  1.00  0.00     0.074 A 
ATOM     53  C   UNL     1       9.241  14.949  -0.743  1.00  0.00     0.031 C 
ATOM     54  C   UNL     1       5.909  11.752  -5.884  1.00  0.00     0.029 A 
ATOM     55  C   UNL     1       6.021  13.204  -6.021  1.00  0.00     0.049 A 
ATOM     56  H   UNL     1       7.023  14.518  -4.753  1.00  0.00     0.167 HD
ATOM     57  C   UNL     1       8.995  17.158  -1.813  1.00  0.00     0.034 A 
ATOM     58  C   UNL     1       5.492  13.946  -7.015  1.00  0.00     0.034 A 
ATOM     59  C   UNL     1       8.581  18.005  -2.895  1.00  0.00     0.049 A 
ATOM     60  C   UNL     1       5.747  15.432  -7.023  1.00  0.00     0.074 A 
ATOM     61  C   UNL     1       8.802  19.360  -3.049  1.00  0.00     0.029 A 
ATOM     62  N   UNL     1       7.873  17.578  -4.009  1.00  0.00    -0.354 N 
ATOM     63  N   UNL     1       6.411  16.158  -6.153  1.00  0.00    -0.248 NA
ATOM     64  C   UNL     1       5.199  16.202  -8.148  1.00  0.00     0.031 C 
ATOM     65  C   UNL     1       8.181  19.764  -4.230  1.00  0.00     0.029 A 
ATOM     66  C   UNL     1       7.630  18.650  -4.847  1.00  0.00     0.049 A 
ATOM     67  H   UNL     1       7.587  16.651  -4.177  1.00  0.00     0.167 HD
ATOM     68  C   UNL     1       6.388  17.461  -6.641  1.00  0.00     0.074 A 
ATOM     69  C   UNL     1       5.655  17.422  -7.889  1.00  0.00     0.031 C 
ATOM     70  C   UNL     1       6.924  18.585  -6.103  1.00  0.00     0.034 A 
BRANCH  57  71
ATOM     71  C   UNL     1       9.729  17.785  -0.660  1.00  0.00     0.023 A 
ATOM     72  C   UNL     1       9.082  18.733   0.150  1.00  0.00     0.031 A 
ATOM     73  C   UNL     1      11.094  17.531  -0.434  1.00  0.00     0.131 A 
ATOM     74  C   UNL     1       9.810  19.422   1.127  1.00  0.00     0.055 A 
ATOM     75  C   UNL     1      11.805  18.189   0.569  1.00  0.00     0.041 A 
ATOM     76  F   UNL     1      11.752  16.626  -1.178  1.00  0.00    -0.206 F 
ATOM     77  C   UNL     1      11.165  19.149   1.346  1.00  0.00     0.022 A 
BRANCH  74  78
ATOM     78  S   UNL     1       9.036  20.724   2.120  1.00  0.00     0.124 S 
ATOM     79  O   UNL     1       9.357  20.299   3.481  1.00  0.00    -0.237 OA
ATOM     80  O   UNL     1       9.738  21.916   1.656  1.00  0.00    -0.237 OA
ATOM     81  O   UNL     1       7.623  20.641   1.766  1.00  0.00    -0.744 OA
ENDBRANCH  74  78
ENDBRANCH  57  71
BRANCH  58  82
ATOM     82  C   UNL     1       4.747  13.266  -8.112  1.00  0.00     0.023 A 
ATOM     83  C   UNL     1       3.536  12.597  -7.863  1.00  0.00     0.031 A 
ATOM     84  C   UNL     1       5.295  13.186  -9.403  1.00  0.00     0.131 A 
ATOM     85  C   UNL     1       2.942  11.834  -8.877  1.00  0.00     0.055 A 
ATOM     86  C   UNL     1       4.670  12.472 -10.427  1.00  0.00     0.041 A 
ATOM     87  F   UNL     1       6.456  13.798  -9.683  1.00  0.00    -0.206 F 
ATOM     88  C   UNL     1       3.493  11.780 -10.161  1.00  0.00     0.022 A 
BRANCH  85  89
ATOM     89  S   UNL     1       1.485  10.808  -8.537  1.00  0.00     0.124 S 
ATOM     90  O   UNL     1       0.550  11.252  -9.567  1.00  0.00    -0.237 OA
ATOM     91  O   UNL     1       2.026   9.463  -8.713  1.00  0.00    -0.237 OA
ATOM     92  O   UNL     1       1.126  11.164  -7.168  1.00  0.00    -0.744 OA
ENDBRANCH  85  89
ENDBRANCH  58  82
BRANCH  70  93
ATOM     93  C   UNL     1       6.779  19.887  -6.848  1.00  0.00     0.023 A 
ATOM     94  C   UNL     1       7.930  20.549  -7.316  1.00  0.00     0.031 A 
ATOM     95  C   UNL     1       5.546  20.555  -6.915  1.00  0.00     0.131 A 
ATOM     96  C   UNL     1       7.832  21.865  -7.781  1.00  0.00     0.055 A 
ATOM     97  C   UNL     1       5.447  21.849  -7.425  1.00  0.00     0.041 A 
ATOM     98  F   UNL     1       4.426  19.965  -6.467  1.00  0.00    -0.206 F 
ATOM     99  C   UNL     1       6.596  22.516  -7.845  1.00  0.00     0.022 A 
BRANCH  96 100
ATOM    100  S   UNL     1       9.314  22.807  -8.232  1.00  0.00     0.124 S 
ATOM    101  O   UNL     1       9.006  23.221  -9.599  1.00  0.00    -0.237 OA
ATOM    102  O   UNL     1       9.310  23.878  -7.240  1.00  0.00    -0.237 OA
ATOM    103  O   UNL     1      10.399  21.838  -8.109  1.00  0.00    -0.744 OA
ENDBRANCH  96 100
ENDBRANCH  70  93
ENDBRANCH  44  45
ENDBRANCH  36  39
ENDBRANCH  34  35
ENDBRANCH   1  34
TORSDOF 17
