REMARK SMILES COc1ccccc1OC1CCN(c2cccc(C(=O)NCCCCNC(=O)c3ccc(-c4c5nc(c(-c6cc(S(=O)(=O)[O-])ccc6F)c6ccc([nH]6)c(-c6cc(S(=O)(=O)[O-])ccc6F)c6nc(c(-c7cc(S(=O)(=O)[O-])ccc7F)c7ccc4[nH]7)C=C6)C=C5)cc3)n2)CC1
REMARK SMILES IDX 23 1 22 2 21 3 19 4 20 5 18 7 14 8 15 9 92 10 16 11 17 12
REMARK SMILES IDX 13 13 10 14 11 15 94 16 12 17 93 18 9 19 8 20 3 21 4 22 5 23
REMARK SMILES IDX 7 24 6 25 2 26 1 27 24 28 25 29 26 30 27 31 28 33 29 34
REMARK SMILES IDX 30 35 91 36 31 37 90 38 32 39 33 40 34 41 84 42 35 43 89 44
REMARK SMILES IDX 83 45 85 46 36 47 88 48 82 49 81 50 37 52 69 53 49 54 68 55
REMARK SMILES IDX 50 56 53 57 67 58 86 59 51 60 52 61 66 63 87 64 54 65 38 66
REMARK SMILES IDX 39 67 47 68 40 69 46 70 48 71 45 72 41 73 42 74 43 75 44 76
REMARK SMILES IDX 70 77 71 78 79 79 72 80 78 81 80 82 77 83 73 84 74 85 75 86
REMARK SMILES IDX 76 87 55 88 56 89 64 90 57 91 63 92 65 93 62 94 58 95 59 96
REMARK SMILES IDX 60 97 61 98
REMARK H PARENT 21 6 26 32 85 51 53 62
REMARK Flexibility Score: inf
ROOT
ATOM      1  C   UNL     1      -5.928   3.023  -4.296  1.00  0.00     0.023 C 
ENDROOT
BRANCH   1   2
ATOM      2  C   UNL     1      -5.309   1.635  -4.417  1.00  0.00     0.116 C 
BRANCH   2   3
ATOM      3  N   UNL     1      -3.873   1.708  -4.484  1.00  0.00    -0.351 N 
ATOM      4  C   UNL     1      -2.866   1.630  -3.557  1.00  0.00     0.269 C 
ATOM      5  O   UNL     1      -1.730   1.802  -4.014  1.00  0.00    -0.268 OA
ATOM      6  H   UNL     1      -3.539   1.843  -5.400  1.00  0.00     0.163 HD
BRANCH   4   7
ATOM      7  C   UNL     1      -3.037   1.337  -2.085  1.00  0.00     0.130 A 
ATOM      8  C   UNL     1      -1.790   0.999  -0.148  1.00  0.00     0.129 A 
ATOM      9  C   UNL     1      -2.908   0.584   0.553  1.00  0.00     0.047 A 
ATOM     10  N   UNL     1      -1.858   1.407  -1.421  1.00  0.00    -0.226 NA
ATOM     11  C   UNL     1      -4.133   0.578  -0.088  1.00  0.00     0.006 A 
ATOM     12  C   UNL     1      -4.196   0.941  -1.431  1.00  0.00     0.034 A 
BRANCH   8  13
ATOM     13  N   UNL     1      -0.542   0.890   0.413  1.00  0.00    -0.356 N 
ATOM     14  C   UNL     1       3.140   0.013   0.601  1.00  0.00     0.177 C 
ATOM     15  C   UNL     1       2.564   1.737  -0.092  1.00  0.00     0.066 C 
ATOM     16  C   UNL     1       1.774  -1.340   0.899  1.00  0.00     0.066 C 
ATOM     17  C   UNL     1       0.681   2.210   0.012  1.00  0.00     0.122 C 
ATOM     18  C   UNL     1      -0.084  -0.789   1.006  1.00  0.00     0.122 C 
BRANCH  14  19
ATOM     19  O   UNL     1       3.717   0.280   1.915  1.00  0.00    -0.486 OA
BRANCH  19  20
ATOM     20  C   UNL     1       2.725   0.778   2.736  1.00  0.00     0.161 A 
ATOM     21  C   UNL     1       1.434   0.972   2.224  1.00  0.00     0.160 A 
ATOM     22  C   UNL     1       0.432   1.471   3.055  1.00  0.00     0.050 A 
ATOM     23  C   UNL     1       0.717   1.742   4.394  1.00  0.00     0.004 A 
ATOM     24  C   UNL     1       3.017   1.055   4.065  1.00  0.00     0.050 A 
ATOM     25  C   UNL     1       2.004   1.531   4.899  1.00  0.00     0.004 A 
BRANCH  21  26
ATOM     26  O   UNL     1       1.355   0.572   0.904  1.00  0.00    -0.493 OA
ATOM     27  C   UNL     1       1.123   0.064  -0.862  1.00  0.00     0.278 C 
ENDBRANCH  21  26
ENDBRANCH  19  20
ENDBRANCH  14  19
ENDBRANCH   8  13
ENDBRANCH   4   7
ENDBRANCH   2   3
ENDBRANCH   1   2
BRANCH   1  28
ATOM     28  C   UNL     1      -6.274   3.642  -5.651  1.00  0.00     0.023 C 
BRANCH  28  29
ATOM     29  C   UNL     1      -7.157   2.772  -6.540  1.00  0.00     0.116 C 
BRANCH  29  30
ATOM     30  N   UNL     1      -8.353   2.284  -5.865  1.00  0.00    -0.352 N 
ATOM     31  C   UNL     1      -9.599   2.082  -6.410  1.00  0.00     0.251 C 
ATOM     32  H   UNL     1      -8.258   2.076  -4.908  1.00  0.00     0.163 HD
ATOM     33  O   UNL     1     -10.553   1.789  -5.700  1.00  0.00    -0.269 OA
BRANCH  31  34
ATOM     34  C   UNL     1      -9.754   2.273  -7.864  1.00  0.00     0.039 A 
ATOM     35  C   UNL     1     -10.701   3.185  -8.330  1.00  0.00     0.014 A 
ATOM     36  C   UNL     1      -8.873   1.638  -8.743  1.00  0.00     0.014 A 
ATOM     37  C   UNL     1     -10.716   3.514  -9.685  1.00  0.00     0.010 A 
ATOM     38  C   UNL     1      -8.832   2.037 -10.072  1.00  0.00     0.010 A 
ATOM     39  C   UNL     1      -9.754   2.978 -10.558  1.00  0.00    -0.014 A 
BRANCH  39  40
ATOM     40  C   UNL     1      -9.698   3.383 -11.986  1.00  0.00     0.031 A 
ATOM     41  C   UNL     1      -9.905   2.350 -13.061  1.00  0.00     0.074 A 
ATOM     42  C   UNL     1      -9.402   4.658 -12.311  1.00  0.00     0.049 A 
ATOM     43  N   UNL     1      -9.825   2.482 -14.359  1.00  0.00    -0.248 NA
ATOM     44  C   UNL     1     -10.213   0.982 -12.615  1.00  0.00     0.031 C 
ATOM     45  C   UNL     1      -9.143   5.737 -11.354  1.00  0.00     0.029 A 
ATOM     46  N   UNL     1      -9.260   5.265 -13.535  1.00  0.00    -0.354 N 
ATOM     47  C   UNL     1     -10.052   1.214 -14.883  1.00  0.00     0.074 A 
ATOM     48  C   UNL     1     -10.214   0.317 -13.760  1.00  0.00     0.031 C 
ATOM     49  C   UNL     1      -8.906   6.875 -12.026  1.00  0.00     0.029 A 
ATOM     50  C   UNL     1      -8.935   6.601 -13.459  1.00  0.00     0.049 A 
ATOM     51  H   UNL     1      -9.379   4.788 -14.388  1.00  0.00     0.167 HD
ATOM     52  C   UNL     1     -10.138   0.839 -16.182  1.00  0.00     0.034 A 
ATOM     53  C   UNL     1      -8.670   7.497 -14.432  1.00  0.00     0.034 A 
ATOM     54  C   UNL     1      -9.990   1.754 -17.286  1.00  0.00     0.049 A 
ATOM     55  C   UNL     1      -8.737   7.043 -15.871  1.00  0.00     0.074 A 
ATOM     56  C   UNL     1     -10.129   1.494 -18.638  1.00  0.00     0.029 A 
ATOM     57  N   UNL     1      -9.654   3.096 -17.171  1.00  0.00    -0.354 N 
ATOM     58  N   UNL     1      -9.022   5.853 -16.350  1.00  0.00    -0.248 NA
ATOM     59  C   UNL     1      -8.457   8.052 -16.901  1.00  0.00     0.031 C 
ATOM     60  C   UNL     1      -9.784   2.651 -19.342  1.00  0.00     0.029 A 
ATOM     61  C   UNL     1      -9.535   3.664 -18.430  1.00  0.00     0.049 A 
ATOM     62  H   UNL     1      -9.520   3.574 -16.321  1.00  0.00     0.167 HD
ATOM     63  C   UNL     1      -8.996   5.985 -17.736  1.00  0.00     0.074 A 
ATOM     64  C   UNL     1      -8.680   7.370 -18.015  1.00  0.00     0.031 C 
ATOM     65  C   UNL     1      -9.219   5.049 -18.693  1.00  0.00     0.034 A 
BRANCH  52  66
ATOM     66  C   UNL     1     -10.366  -0.623 -16.479  1.00  0.00     0.023 A 
ATOM     67  C   UNL     1     -11.532  -1.295 -16.073  1.00  0.00     0.031 A 
ATOM     68  C   UNL     1      -9.395  -1.359 -17.183  1.00  0.00     0.131 A 
ATOM     69  C   UNL     1     -11.669  -2.669 -16.317  1.00  0.00     0.055 A 
ATOM     70  C   UNL     1      -9.576  -2.706 -17.498  1.00  0.00     0.041 A 
ATOM     71  F   UNL     1      -8.248  -0.780 -17.572  1.00  0.00    -0.206 F 
ATOM     72  C   UNL     1     -10.714  -3.373 -17.054  1.00  0.00     0.022 A 
BRANCH  69  73
ATOM     73  S   UNL     1     -13.048  -3.555 -15.539  1.00  0.00     0.124 S 
ATOM     74  O   UNL     1     -12.809  -3.285 -14.123  1.00  0.00    -0.237 OA
ATOM     75  O   UNL     1     -14.213  -2.904 -16.126  1.00  0.00    -0.237 OA
ATOM     76  O   UNL     1     -12.836  -4.943 -15.945  1.00  0.00    -0.744 OA
ENDBRANCH  69  73
ENDBRANCH  52  66
BRANCH  53  77
ATOM     77  C   UNL     1      -8.292   8.902 -14.097  1.00  0.00     0.023 A 
ATOM     78  C   UNL     1      -9.066   9.987 -14.541  1.00  0.00     0.031 A 
ATOM     79  C   UNL     1      -7.109   9.188 -13.391  1.00  0.00     0.131 A 
ATOM     80  C   UNL     1      -8.615  11.301 -14.336  1.00  0.00     0.055 A 
ATOM     81  C   UNL     1      -6.702  10.497 -13.127  1.00  0.00     0.041 A 
ATOM     82  F   UNL     1      -6.327   8.192 -12.943  1.00  0.00    -0.206 F 
ATOM     83  C   UNL     1      -7.447  11.564 -13.617  1.00  0.00     0.022 A 
BRANCH  80  84
ATOM     84  S   UNL     1      -9.511  12.659 -15.139  1.00  0.00     0.124 S 
ATOM     85  O   UNL     1      -9.468  12.252 -16.539  1.00  0.00    -0.237 OA
ATOM     86  O   UNL     1     -10.814  12.589 -14.489  1.00  0.00    -0.237 OA
ATOM     87  O   UNL     1      -8.711  13.836 -14.806  1.00  0.00    -0.744 OA
ENDBRANCH  80  84
ENDBRANCH  53  77
BRANCH  65  88
ATOM     88  C   UNL     1      -9.195   5.506 -20.132  1.00  0.00     0.023 A 
ATOM     89  C   UNL     1      -8.023   5.980 -20.747  1.00  0.00     0.031 A 
ATOM     90  C   UNL     1     -10.371   5.457 -20.903  1.00  0.00     0.131 A 
ATOM     91  C   UNL     1      -8.065   6.434 -22.074  1.00  0.00     0.055 A 
ATOM     92  C   UNL     1     -10.390   5.843 -22.243  1.00  0.00     0.041 A 
ATOM     93  F   UNL     1     -11.522   5.020 -20.367  1.00  0.00    -0.206 F 
ATOM     94  C   UNL     1      -9.236   6.348 -22.832  1.00  0.00     0.022 A 
BRANCH  91  95
ATOM     95  S   UNL     1      -6.593   7.233 -22.769  1.00  0.00     0.124 S 
ATOM     96  O   UNL     1      -6.383   8.341 -21.843  1.00  0.00    -0.237 OA
ATOM     97  O   UNL     1      -5.602   6.162 -22.717  1.00  0.00    -0.237 OA
ATOM     98  O   UNL     1      -7.015   7.620 -24.114  1.00  0.00    -0.744 OA
ENDBRANCH  91  95
ENDBRANCH  65  88
ENDBRANCH  39  40
ENDBRANCH  31  34
ENDBRANCH  29  30
ENDBRANCH  28  29
ENDBRANCH   1  28
TORSDOF 18
