REMARK SMILES C[C@@H]1[C@H](C)CC[C@@H]1NC(=O)N1CCO[C@H](CC(=O)NCCCCNC(=O)c2ccc(-c3c4nc(c(-c5cc(S(=O)(=O)[O-])ccc5F)c5ccc([nH]5)c(-c5cc(S(=O)(=O)[O-])ccc5F)c5nc(c(-c6cc(S(=O)(=O)[O-])ccc6F)c6ccc3[nH]6)C=C5)C=C4)cc2)C1
REMARK SMILES IDX 21 1 20 2 19 3 17 4 18 5 16 7 15 8 11 9 12 10 90 11 13 12
REMARK SMILES IDX 14 13 9 14 8 15 10 17 7 18 1 19 2 20 3 21 4 22 5 23 6 24
REMARK SMILES IDX 22 25 23 26 24 27 25 28 26 30 27 31 28 32 89 33 29 34 88 35
REMARK SMILES IDX 30 36 31 37 32 38 82 39 33 40 87 41 81 42 83 43 34 44 86 45
REMARK SMILES IDX 80 46 79 47 35 49 67 50 47 51 66 52 48 53 51 54 65 55 84 56
REMARK SMILES IDX 49 57 50 58 64 60 85 61 52 62 36 63 37 64 45 65 38 66 44 67
REMARK SMILES IDX 46 68 43 69 39 70 40 71 41 72 42 73 68 74 69 75 77 76 70 77
REMARK SMILES IDX 76 78 78 79 75 80 71 81 72 82 73 83 74 84 53 85 54 86 62 87
REMARK SMILES IDX 55 88 61 89 63 90 60 91 56 92 57 93 58 94 59 95
REMARK H PARENT 19 6 8 16 24 29 83 48 51 59
REMARK Flexibility Score: inf
ROOT
ATOM      1  C   UNL     1      -4.651   2.642   2.385  1.00  0.00     0.023 C 
ENDROOT
BRANCH   1   2
ATOM      2  C   UNL     1      -3.936   2.998   1.082  1.00  0.00     0.116 C 
BRANCH   2   3
ATOM      3  N   UNL     1      -2.538   2.659   1.164  1.00  0.00    -0.356 N 
ATOM      4  C   UNL     1      -1.986   1.421   1.055  1.00  0.00     0.222 C 
ATOM      5  O   UNL     1      -0.774   1.314   1.228  1.00  0.00    -0.275 OA
ATOM      6  H   UNL     1      -1.915   3.405   1.317  1.00  0.00     0.163 HD
BRANCH   4   7
ATOM      7  C   UNL     1      -2.873   0.241   0.702  1.00  0.00     0.133 C 
BRANCH   7   8
ATOM      8  C   UNL     1      -2.989  -0.815   1.798  1.00  0.00     0.147 C 
ATOM      9  N   UNL     1      -1.023  -2.426   1.667  1.00  0.00    -0.320 N 
ATOM     10  C   UNL     1      -1.972  -3.451   1.245  1.00  0.00     0.150 C 
ATOM     11  C   UNL     1      -1.695  -1.362   2.424  1.00  0.00     0.154 C 
ATOM     12  C   UNL     1      -3.178  -2.840   0.524  1.00  0.00     0.182 C 
ATOM     13  O   UNL     1      -3.856  -1.887   1.355  1.00  0.00    -0.374 OA
BRANCH   9  14
ATOM     14  C   UNL     1       0.162  -2.811   2.234  1.00  0.00     0.317 C 
ATOM     15  N   UNL     1       1.238  -3.176   1.521  1.00  0.00    -0.335 N 
ATOM     16  H   UNL     1       1.954  -3.423   2.149  1.00  0.00     0.165 HD
ATOM     17  O   UNL     1       0.318  -2.798   3.460  1.00  0.00    -0.249 OA
BRANCH  15  18
ATOM     18  C   UNL     1       1.742  -3.345   0.159  1.00  0.00     0.087 C 
ATOM     19  C   UNL     1       2.707  -0.920  -0.004  1.00  0.00     0.010 C 
ATOM     20  C   UNL     1       2.084  -2.118  -0.705  1.00  0.00     0.011 C 
ATOM     21  C   UNL     1       0.829  -1.862  -1.545  1.00  0.00    -0.009 C 
ATOM     22  C   UNL     1      -0.078  -0.789  -0.987  1.00  0.00     0.008 C 
ATOM     23  C   UNL     1       0.129  -3.229  -1.651  1.00  0.00     0.006 C 
ATOM     24  C   UNL     1       0.898  -4.203  -0.766  1.00  0.00     0.025 C 
ENDBRANCH  15  18
ENDBRANCH   9  14
ENDBRANCH   7   8
ENDBRANCH   4   7
ENDBRANCH   2   3
ENDBRANCH   1   2
BRANCH   1  25
ATOM     25  C   UNL     1      -4.433   3.659   3.503  1.00  0.00     0.023 C 
BRANCH  25  26
ATOM     26  C   UNL     1      -4.728   5.093   3.094  1.00  0.00     0.116 C 
BRANCH  26  27
ATOM     27  N   UNL     1      -5.951   5.226   2.307  1.00  0.00    -0.352 N 
ATOM     28  C   UNL     1      -6.747   6.335   2.181  1.00  0.00     0.251 C 
ATOM     29  H   UNL     1      -6.237   4.427   1.808  1.00  0.00     0.163 HD
ATOM     30  O   UNL     1      -7.778   6.308   1.521  1.00  0.00    -0.269 OA
BRANCH  28  31
ATOM     31  C   UNL     1      -6.329   7.531   2.919  1.00  0.00     0.039 A 
ATOM     32  C   UNL     1      -7.131   7.979   3.968  1.00  0.00     0.014 A 
ATOM     33  C   UNL     1      -5.058   8.061   2.685  1.00  0.00     0.014 A 
ATOM     34  C   UNL     1      -6.628   8.945   4.831  1.00  0.00     0.010 A 
ATOM     35  C   UNL     1      -4.530   8.958   3.596  1.00  0.00     0.010 A 
ATOM     36  C   UNL     1      -5.314   9.414   4.670  1.00  0.00    -0.014 A 
BRANCH  36  37
ATOM     37  C   UNL     1      -4.747  10.437   5.575  1.00  0.00     0.031 A 
ATOM     38  C   UNL     1      -4.380  11.775   5.002  1.00  0.00     0.074 A 
ATOM     39  C   UNL     1      -4.499  10.139   6.863  1.00  0.00     0.049 A 
ATOM     40  N   UNL     1      -3.743  12.770   5.558  1.00  0.00    -0.248 NA
ATOM     41  C   UNL     1      -4.740  12.001   3.592  1.00  0.00     0.031 C 
ATOM     42  C   UNL     1      -4.789   8.856   7.509  1.00  0.00     0.029 A 
ATOM     43  N   UNL     1      -3.935  10.891   7.860  1.00  0.00    -0.354 N 
ATOM     44  C   UNL     1      -3.601  13.726   4.559  1.00  0.00     0.074 A 
ATOM     45  C   UNL     1      -4.149  13.158   3.347  1.00  0.00     0.031 C 
ATOM     46  C   UNL     1      -4.421   8.921   8.799  1.00  0.00     0.029 A 
ATOM     47  C   UNL     1      -3.828  10.229   9.060  1.00  0.00     0.049 A 
ATOM     48  H   UNL     1      -3.634  11.819   7.729  1.00  0.00     0.167 HD
ATOM     49  C   UNL     1      -3.087  14.976   4.655  1.00  0.00     0.034 A 
ATOM     50  C   UNL     1      -3.297  10.633  10.231  1.00  0.00     0.034 A 
ATOM     51  C   UNL     1      -2.573  15.523   5.884  1.00  0.00     0.049 A 
ATOM     52  C   UNL     1      -2.719  12.024  10.315  1.00  0.00     0.074 A 
ATOM     53  C   UNL     1      -2.067  16.788   6.122  1.00  0.00     0.029 A 
ATOM     54  N   UNL     1      -2.501  14.832   7.088  1.00  0.00    -0.354 N 
ATOM     55  N   UNL     1      -2.618  12.934   9.372  1.00  0.00    -0.248 NA
ATOM     56  C   UNL     1      -2.195  12.447  11.619  1.00  0.00     0.031 C 
ATOM     57  C   UNL     1      -1.638  16.842   7.452  1.00  0.00     0.029 A 
ATOM     58  C   UNL     1      -1.942  15.636   8.066  1.00  0.00     0.049 A 
ATOM     59  H   UNL     1      -2.803  13.905   7.225  1.00  0.00     0.167 HD
ATOM     60  C   UNL     1      -2.053  14.051   9.981  1.00  0.00     0.074 A 
ATOM     61  C   UNL     1      -1.839  13.699  11.371  1.00  0.00     0.031 C 
ATOM     62  C   UNL     1      -1.746  15.260   9.447  1.00  0.00     0.034 A 
BRANCH  49  63
ATOM     63  C   UNL     1      -3.044  15.801   3.392  1.00  0.00     0.023 A 
ATOM     64  C   UNL     1      -4.216  16.138   2.691  1.00  0.00     0.031 A 
ATOM     65  C   UNL     1      -1.813  16.198   2.841  1.00  0.00     0.131 A 
ATOM     66  C   UNL     1      -4.129  16.757   1.435  1.00  0.00     0.055 A 
ATOM     67  C   UNL     1      -1.739  16.901   1.636  1.00  0.00     0.041 A 
ATOM     68  F   UNL     1      -0.659  15.886   3.450  1.00  0.00    -0.206 F 
ATOM     69  C   UNL     1      -2.900  17.166   0.915  1.00  0.00     0.022 A 
BRANCH  66  70
ATOM     70  S   UNL     1      -5.628  16.859   0.419  1.00  0.00     0.124 S 
ATOM     71  O   UNL     1      -5.986  15.449   0.281  1.00  0.00    -0.237 OA
ATOM     72  O   UNL     1      -6.517  17.666   1.246  1.00  0.00    -0.237 OA
ATOM     73  O   UNL     1      -5.165  17.500  -0.810  1.00  0.00    -0.744 OA
ENDBRANCH  66  70
ENDBRANCH  49  63
BRANCH  50  74
ATOM     74  C   UNL     1      -3.287   9.725  11.412  1.00  0.00     0.023 A 
ATOM     75  C   UNL     1      -4.033  10.029  12.562  1.00  0.00     0.031 A 
ATOM     76  C   UNL     1      -2.508   8.554  11.423  1.00  0.00     0.131 A 
ATOM     77  C   UNL     1      -3.950   9.199  13.691  1.00  0.00     0.055 A 
ATOM     78  C   UNL     1      -2.467   7.705  12.530  1.00  0.00     0.041 A 
ATOM     79  F   UNL     1      -1.783   8.211  10.346  1.00  0.00    -0.206 F 
ATOM     80  C   UNL     1      -3.182   8.033  13.679  1.00  0.00     0.022 A 
BRANCH  77  81
ATOM     81  S   UNL     1      -4.806   9.708  15.207  1.00  0.00     0.124 S 
ATOM     82  O   UNL     1      -4.198  11.008  15.468  1.00  0.00    -0.237 OA
ATOM     83  O   UNL     1      -6.200   9.725  14.776  1.00  0.00    -0.237 OA
ATOM     84  O   UNL     1      -4.463   8.655  16.161  1.00  0.00    -0.744 OA
ENDBRANCH  77  81
ENDBRANCH  50  74
BRANCH  62  85
ATOM     85  C   UNL     1      -1.212  16.310  10.386  1.00  0.00     0.023 A 
ATOM     86  C   UNL     1       0.066  16.212  10.961  1.00  0.00     0.031 A 
ATOM     87  C   UNL     1      -1.994  17.439  10.690  1.00  0.00     0.131 A 
ATOM     88  C   UNL     1       0.508  17.206  11.846  1.00  0.00     0.055 A 
ATOM     89  C   UNL     1      -1.527  18.451  11.527  1.00  0.00     0.041 A 
ATOM     90  F   UNL     1      -3.222  17.579  10.165  1.00  0.00    -0.206 F 
ATOM     91  C   UNL     1      -0.272  18.333  12.118  1.00  0.00     0.022 A 
BRANCH  88  92
ATOM     92  S   UNL     1       2.096  16.977  12.691  1.00  0.00     0.124 S 
ATOM     93  O   UNL     1       1.871  15.738  13.429  1.00  0.00    -0.237 OA
ATOM     94  O   UNL     1       3.035  16.893  11.577  1.00  0.00    -0.237 OA
ATOM     95  O   UNL     1       2.222  18.177  13.516  1.00  0.00    -0.744 OA
ENDBRANCH  88  92
ENDBRANCH  62  85
ENDBRANCH  36  37
ENDBRANCH  28  31
ENDBRANCH  26  27
ENDBRANCH  25  26
ENDBRANCH   1  25
TORSDOF 17
