REMARK SMILES O=C(NCCCCNC(=O)c1ccc(-c2c3nc(c(-c4cc(S(=O)(=O)[O-])ccc4F)c4ccc([nH]4)c(-c4cc(S(=O)(=O)[O-])ccc4F)c4nc(c(-c5cc(S(=O)(=O)[O-])ccc5F)c5ccc2[nH]5)C=C4)C=C3)cc1)C1=Cc2c(Cl)ccc(Cl)c2O[C@@H]1C(F)(F)F
REMARK SMILES IDX 6 1 5 2 4 3 3 4 1 5 2 6 74 8 75 9 85 10 76 11 84 12 77 13
REMARK SMILES IDX 83 14 78 15 79 16 81 17 80 18 82 19 86 20 87 21 88 22 89 23
REMARK SMILES IDX 7 24 8 25 9 26 10 28 11 29 12 30 73 31 13 32 72 33 14 34
REMARK SMILES IDX 15 35 16 36 66 37 17 38 71 39 65 40 67 41 18 42 70 43 64 44
REMARK SMILES IDX 63 45 19 47 51 48 31 49 50 50 32 51 35 52 49 53 68 54 33 55
REMARK SMILES IDX 34 56 48 58 69 59 36 60 20 61 21 62 29 63 22 64 28 65 30 66
REMARK SMILES IDX 27 67 23 68 24 69 25 70 26 71 52 72 53 73 61 74 54 75 60 76
REMARK SMILES IDX 62 77 59 78 55 79 56 80 57 81 58 82 37 83 38 84 46 85 39 86
REMARK SMILES IDX 45 87 47 88 44 89 40 90 41 91 42 92 43 93
REMARK H PARENT 3 7 8 27 67 46 35 57
REMARK Flexibility Score: inf
ROOT
ATOM      1  C   UNL     1       3.993   4.497  -0.160  1.00  0.00     0.023 C 
ENDROOT
BRANCH   1   2
ATOM      2  C   UNL     1       4.328   3.297  -1.038  1.00  0.00     0.023 C 
BRANCH   2   3
ATOM      3  C   UNL     1       4.012   1.927  -0.452  1.00  0.00     0.116 C 
BRANCH   3   4
ATOM      4  N   UNL     1       2.742   1.354  -0.865  1.00  0.00    -0.352 N 
ATOM      5  O   UNL     1       1.176  -0.237  -1.147  1.00  0.00    -0.270 OA
ATOM      6  C   UNL     1       2.354   0.043  -0.933  1.00  0.00     0.251 C 
ATOM      7  H   UNL     1       2.057   2.007  -1.137  1.00  0.00     0.163 HD
BRANCH   6   8
ATOM      8  C   UNL     1       3.302  -1.077  -0.661  1.00  0.00     0.067 C 
ATOM      9  C   UNL     1       4.549  -1.078  -1.159  1.00  0.00     0.027 C 
ATOM     10  C   UNL     1       3.022  -1.798   0.631  1.00  0.00     0.314 C 
ATOM     11  C   UNL     1       5.592  -0.912  -0.110  1.00  0.00     0.037 A 
ATOM     12  O   UNL     1       3.987  -1.450   1.655  1.00  0.00    -0.474 OA
ATOM     13  C   UNL     1       6.861  -0.403  -0.451  1.00  0.00     0.052 A 
ATOM     14  C   UNL     1       5.221  -0.996   1.246  1.00  0.00     0.148 A 
ATOM     15  Cl  UNL     1       7.368  -0.241  -2.097  1.00  0.00    -0.084 Cl
ATOM     16  C   UNL     1       7.709   0.093   0.541  1.00  0.00     0.023 A 
ATOM     17  C   UNL     1       6.089  -0.510   2.233  1.00  0.00     0.083 A 
ATOM     18  C   UNL     1       7.316   0.055   1.879  1.00  0.00     0.026 A 
ATOM     19  Cl  UNL     1       5.637  -0.506   3.899  1.00  0.00    -0.080 Cl
BRANCH  10  20
ATOM     20  C   UNL     1       2.948  -3.321   0.430  1.00  0.00     0.429 C 
ATOM     21  F   UNL     1       2.585  -3.957   1.569  1.00  0.00    -0.167 F 
ATOM     22  F   UNL     1       2.041  -3.661  -0.517  1.00  0.00    -0.167 F 
ATOM     23  F   UNL     1       4.138  -3.845   0.042  1.00  0.00    -0.167 F 
ENDBRANCH  10  20
ENDBRANCH   6   8
ENDBRANCH   3   4
ENDBRANCH   2   3
ENDBRANCH   1   2
BRANCH   1  24
ATOM     24  C   UNL     1       4.569   4.501   1.256  1.00  0.00     0.116 C 
BRANCH  24  25
ATOM     25  N   UNL     1       6.004   4.268   1.341  1.00  0.00    -0.352 N 
ATOM     26  C   UNL     1       6.955   4.922   2.101  1.00  0.00     0.251 C 
ATOM     27  H   UNL     1       6.346   3.540   0.774  1.00  0.00     0.163 HD
ATOM     28  O   UNL     1       8.128   4.578   2.032  1.00  0.00    -0.269 OA
BRANCH  26  29
ATOM     29  C   UNL     1       6.556   6.075   2.944  1.00  0.00     0.039 A 
ATOM     30  C   UNL     1       7.257   7.277   2.811  1.00  0.00     0.014 A 
ATOM     31  C   UNL     1       5.450   6.001   3.792  1.00  0.00     0.014 A 
ATOM     32  C   UNL     1       6.769   8.433   3.429  1.00  0.00     0.010 A 
ATOM     33  C   UNL     1       4.921   7.168   4.341  1.00  0.00     0.010 A 
ATOM     34  C   UNL     1       5.558   8.402   4.140  1.00  0.00    -0.014 A 
BRANCH  34  35
ATOM     35  C   UNL     1       4.913   9.660   4.606  1.00  0.00     0.031 A 
ATOM     36  C   UNL     1       4.684   9.917   6.070  1.00  0.00     0.074 A 
ATOM     37  C   UNL     1       4.457  10.542   3.693  1.00  0.00     0.049 A 
ATOM     38  N   UNL     1       4.122  10.947   6.651  1.00  0.00    -0.248 NA
ATOM     39  C   UNL     1       5.112   8.862   6.997  1.00  0.00     0.031 C 
ATOM     40  C   UNL     1       4.543  10.374   2.239  1.00  0.00     0.029 A 
ATOM     41  N   UNL     1       3.829  11.753   3.846  1.00  0.00    -0.354 N 
ATOM     42  C   UNL     1       4.120  10.662   8.012  1.00  0.00     0.074 A 
ATOM     43  C   UNL     1       4.675   9.331   8.156  1.00  0.00     0.031 C 
ATOM     44  C   UNL     1       4.024  11.456   1.638  1.00  0.00     0.029 A 
ATOM     45  C   UNL     1       3.538  12.380   2.656  1.00  0.00     0.049 A 
ATOM     46  H   UNL     1       3.607  12.137   4.725  1.00  0.00     0.167 HD
ATOM     47  C   UNL     1       3.718  11.444   9.046  1.00  0.00     0.034 A 
ATOM     48  C   UNL     1       2.950  13.568   2.410  1.00  0.00     0.034 A 
ATOM     49  C   UNL     1       3.171  12.771   8.887  1.00  0.00     0.049 A 
ATOM     50  C   UNL     1       2.518  14.423   3.571  1.00  0.00     0.074 A 
ATOM     51  C   UNL     1       2.805  13.678   9.867  1.00  0.00     0.029 A 
ATOM     52  N   UNL     1       2.894  13.377   7.667  1.00  0.00    -0.354 N 
ATOM     53  N   UNL     1       2.601  14.174   4.857  1.00  0.00    -0.248 NA
ATOM     54  C   UNL     1       1.925  15.725   3.243  1.00  0.00     0.031 C 
ATOM     55  C   UNL     1       2.252  14.803   9.242  1.00  0.00     0.029 A 
ATOM     56  C   UNL     1       2.333  14.630   7.870  1.00  0.00     0.049 A 
ATOM     57  H   UNL     1       3.072  12.976   6.786  1.00  0.00     0.167 HD
ATOM     58  C   UNL     1       2.088  15.301   5.493  1.00  0.00     0.074 A 
ATOM     59  C   UNL     1       1.720  16.235   4.448  1.00  0.00     0.031 C 
ATOM     60  C   UNL     1       1.939  15.542   6.821  1.00  0.00     0.034 A 
BRANCH  47  61
ATOM     61  C   UNL     1       3.841  10.862  10.436  1.00  0.00     0.023 A 
ATOM     62  C   UNL     1       5.089  10.496  10.972  1.00  0.00     0.031 A 
ATOM     63  C   UNL     1       2.696  10.623  11.216  1.00  0.00     0.131 A 
ATOM     64  C   UNL     1       5.155   9.826  12.203  1.00  0.00     0.055 A 
ATOM     65  C   UNL     1       2.777  10.035  12.481  1.00  0.00     0.041 A 
ATOM     66  F   UNL     1       1.476  10.935  10.754  1.00  0.00    -0.206 F 
ATOM     67  C   UNL     1       4.010   9.614  12.972  1.00  0.00     0.022 A 
BRANCH  64  68
ATOM     68  S   UNL     1       6.736   9.087  12.699  1.00  0.00     0.124 S 
ATOM     69  O   UNL     1       7.018   8.206  11.568  1.00  0.00    -0.237 OA
ATOM     70  O   UNL     1       7.600  10.253  12.832  1.00  0.00    -0.237 OA
ATOM     71  O   UNL     1       6.415   8.399  13.948  1.00  0.00    -0.744 OA
ENDBRANCH  64  68
ENDBRANCH  47  61
BRANCH  48  72
ATOM     72  C   UNL     1       2.748  14.030   1.009  1.00  0.00     0.023 A 
ATOM     73  C   UNL     1       3.462  15.128   0.504  1.00  0.00     0.031 A 
ATOM     74  C   UNL     1       1.821  13.396   0.163  1.00  0.00     0.131 A 
ATOM     75  C   UNL     1       3.212  15.585  -0.799  1.00  0.00     0.055 A 
ATOM     76  C   UNL     1       1.606  13.829  -1.147  1.00  0.00     0.041 A 
ATOM     77  F   UNL     1       1.123  12.335   0.596  1.00  0.00    -0.206 F 
ATOM     78  C   UNL     1       2.296  14.936  -1.631  1.00  0.00     0.022 A 
BRANCH  75  79
ATOM     79  S   UNL     1       4.066  17.077  -1.375  1.00  0.00     0.124 S 
ATOM     80  O   UNL     1       3.600  18.075  -0.419  1.00  0.00    -0.237 OA
ATOM     81  O   UNL     1       5.468  16.686  -1.264  1.00  0.00    -0.237 OA
ATOM     82  O   UNL     1       3.576  17.244  -2.742  1.00  0.00    -0.744 OA
ENDBRANCH  75  79
ENDBRANCH  48  72
BRANCH  60  83
ATOM     83  C   UNL     1       1.369  16.886   7.204  1.00  0.00     0.023 A 
ATOM     84  C   UNL     1       0.043  17.238   6.894  1.00  0.00     0.031 A 
ATOM     85  C   UNL     1       2.173  17.841   7.849  1.00  0.00     0.131 A 
ATOM     86  C   UNL     1      -0.419  18.534   7.170  1.00  0.00     0.055 A 
ATOM     87  C   UNL     1       1.689  19.109   8.176  1.00  0.00     0.041 A 
ATOM     88  F   UNL     1       3.447  17.560   8.165  1.00  0.00    -0.206 F 
ATOM     89  C   UNL     1       0.391  19.467   7.822  1.00  0.00     0.022 A 
BRANCH  86  90
ATOM     90  S   UNL     1      -2.060  19.021   6.567  1.00  0.00     0.124 S 
ATOM     91  O   UNL     1      -1.941  18.777   5.133  1.00  0.00    -0.237 OA
ATOM     92  O   UNL     1      -2.941  18.115   7.297  1.00  0.00    -0.237 OA
ATOM     93  O   UNL     1      -2.163  20.428   6.949  1.00  0.00    -0.744 OA
ENDBRANCH  86  90
ENDBRANCH  60  83
ENDBRANCH  34  35
ENDBRANCH  26  29
ENDBRANCH  24  25
ENDBRANCH   1  24
TORSDOF 15
