REMARK SMILES Cc1c(N[C@@H]2CC[C@@H]([NH3+])C2)cccc1C(=O)NCCCCNC(=O)c1ccc(-c2c3nc(c(-c4cc(S(=O)(=O)[O-])ccc4F)c4ccc([nH]4)c(-c4cc(S(=O)(=O)[O-])ccc4F)c4nc(c(-c5cc(S(=O)(=O)[O-])ccc5F)c5ccc2[nH]5)C=C4)C=C3)cc1
REMARK SMILES IDX 19 1 18 2 17 3 15 4 16 5 14 7 1 8 2 9 3 10 11 11 13 12 12 13
REMARK SMILES IDX 4 14 5 16 6 17 10 18 7 19 8 20 9 21 20 25 21 26 22 27 23 28
REMARK SMILES IDX 24 30 25 31 26 32 87 33 27 34 86 35 28 36 29 37 30 38 80 39
REMARK SMILES IDX 31 40 85 41 79 42 81 43 32 44 84 45 78 46 77 47 33 49 65 50
REMARK SMILES IDX 45 51 64 52 46 53 49 54 63 55 82 56 47 57 48 58 62 60 83 61
REMARK SMILES IDX 50 62 34 63 35 64 43 65 36 66 42 67 44 68 41 69 37 70 38 71
REMARK SMILES IDX 39 72 40 73 66 74 67 75 75 76 68 77 74 78 76 79 73 80 69 81
REMARK SMILES IDX 70 82 71 83 72 84 51 85 52 86 60 87 53 88 59 89 61 90 58 91
REMARK SMILES IDX 54 92 55 93 56 94 57 95
REMARK H PARENT 17 6 4 15 9 22 9 23 9 24 22 29 81 48 49 59
REMARK Flexibility Score: inf
ROOT
ATOM      1  C   UNL     1       4.242   1.229  -1.231  1.00  0.00     0.023 C 
ENDROOT
BRANCH   1   2
ATOM      2  C   UNL     1       3.413   1.692  -0.015  1.00  0.00     0.116 C 
BRANCH   2   3
ATOM      3  N   UNL     1       2.265   2.479  -0.446  1.00  0.00    -0.352 N 
ATOM      4  C   UNL     1       0.928   2.224  -0.617  1.00  0.00     0.251 C 
ATOM      5  O   UNL     1       0.259   3.164  -1.064  1.00  0.00    -0.269 OA
ATOM      6  H   UNL     1       2.503   3.409  -0.664  1.00  0.00     0.163 HD
BRANCH   4   7
ATOM      7  C   UNL     1       0.203   0.968  -0.230  1.00  0.00     0.044 A 
ATOM      8  C   UNL     1       1.827  -0.773  -1.159  1.00  0.00     0.047 C 
ATOM      9  C   UNL     1       0.638  -0.369  -0.335  1.00  0.00    -0.015 A 
ATOM     10  C   UNL     1      -0.141  -1.433   0.201  1.00  0.00     0.038 A 
ATOM     11  C   UNL     1      -1.472  -1.177   0.518  1.00  0.00     0.026 A 
ATOM     12  C   UNL     1      -1.126   1.183   0.184  1.00  0.00     0.014 A 
ATOM     13  C   UNL     1      -1.972   0.122   0.500  1.00  0.00     0.003 A 
BRANCH  10  14
ATOM     14  N   UNL     1       0.445  -2.677   0.319  1.00  0.00    -0.382 N 
ATOM     15  H   UNL     1       1.375  -2.659   0.641  1.00  0.00     0.160 HD
BRANCH  14  16
ATOM     16  C   UNL     1      -0.068  -4.001   0.052  1.00  0.00     0.085 C 
ATOM     17  C   UNL     1      -0.824  -4.133  -1.272  1.00  0.00     0.031 C 
ATOM     18  C   UNL     1      -0.964  -4.571   1.145  1.00  0.00     0.089 C 
ATOM     19  C   UNL     1      -2.110  -4.882  -0.929  1.00  0.00     0.067 C 
ATOM     20  C   UNL     1      -1.840  -5.582   0.405  1.00  0.00     0.182 C 
BRANCH  20  21
ATOM     21  N   UNL     1      -1.159  -6.863   0.205  1.00  0.00    -0.355 N 
ATOM     22  H   UNL     1      -0.292  -6.710  -0.309  1.00  0.00     0.344 HD
ATOM     23  H   UNL     1      -1.763  -7.490  -0.326  1.00  0.00     0.344 HD
ATOM     24  H   UNL     1      -0.949  -7.281   1.112  1.00  0.00     0.344 HD
ENDBRANCH  20  21
ENDBRANCH  14  16
ENDBRANCH  10  14
ENDBRANCH   4   7
ENDBRANCH   2   3
ENDBRANCH   1   2
BRANCH   1  25
ATOM     25  C   UNL     1       5.082   2.314  -1.896  1.00  0.00     0.023 C 
BRANCH  25  26
ATOM     26  C   UNL     1       6.415   2.517  -1.203  1.00  0.00     0.116 C 
BRANCH  26  27
ATOM     27  N   UNL     1       7.535   1.791  -1.798  1.00  0.00    -0.352 N 
ATOM     28  C   UNL     1       8.855   1.767  -1.378  1.00  0.00     0.251 C 
ATOM     29  H   UNL     1       7.326   1.253  -2.596  1.00  0.00     0.163 HD
ATOM     30  O   UNL     1       9.733   1.206  -2.031  1.00  0.00    -0.269 OA
BRANCH  28  31
ATOM     31  C   UNL     1       9.174   2.333  -0.047  1.00  0.00     0.039 A 
ATOM     32  C   UNL     1       9.714   1.463   0.906  1.00  0.00     0.014 A 
ATOM     33  C   UNL     1       8.633   3.556   0.333  1.00  0.00     0.014 A 
ATOM     34  C   UNL     1       9.461   1.698   2.253  1.00  0.00     0.010 A 
ATOM     35  C   UNL     1       8.260   3.714   1.652  1.00  0.00     0.010 A 
ATOM     36  C   UNL     1       8.615   2.751   2.604  1.00  0.00    -0.014 A 
BRANCH  36  37
ATOM     37  C   UNL     1       7.922   2.814   3.889  1.00  0.00     0.031 A 
ATOM     38  C   UNL     1       8.182   3.915   4.838  1.00  0.00     0.074 A 
ATOM     39  C   UNL     1       6.975   1.895   4.187  1.00  0.00     0.049 A 
ATOM     40  N   UNL     1       7.972   3.850   6.110  1.00  0.00    -0.248 NA
ATOM     41  C   UNL     1       8.765   5.184   4.424  1.00  0.00     0.031 C 
ATOM     42  C   UNL     1       6.003   1.943   5.276  1.00  0.00     0.029 A 
ATOM     43  N   UNL     1       6.872   0.597   3.689  1.00  0.00    -0.354 N 
ATOM     44  C   UNL     1       8.079   5.125   6.620  1.00  0.00     0.074 A 
ATOM     45  C   UNL     1       8.663   5.895   5.549  1.00  0.00     0.031 C 
ATOM     46  C   UNL     1       5.592   0.695   5.546  1.00  0.00     0.029 A 
ATOM     47  C   UNL     1       6.381  -0.210   4.731  1.00  0.00     0.049 A 
ATOM     48  H   UNL     1       7.099   0.301   2.778  1.00  0.00     0.167 HD
ATOM     49  C   UNL     1       7.519   5.408   7.833  1.00  0.00     0.034 A 
ATOM     50  C   UNL     1       7.107  -1.265   5.200  1.00  0.00     0.034 A 
ATOM     51  C   UNL     1       7.015   4.193   8.485  1.00  0.00     0.049 A 
ATOM     52  C   UNL     1       7.503  -1.130   6.654  1.00  0.00     0.074 A 
ATOM     53  C   UNL     1       5.744   3.672   8.664  1.00  0.00     0.029 A 
ATOM     54  N   UNL     1       7.903   3.177   8.832  1.00  0.00    -0.354 N 
ATOM     55  N   UNL     1       7.395  -0.026   7.342  1.00  0.00    -0.248 NA
ATOM     56  C   UNL     1       8.069  -2.220   7.443  1.00  0.00     0.031 C 
ATOM     57  C   UNL     1       5.875   2.312   9.051  1.00  0.00     0.029 A 
ATOM     58  C   UNL     1       7.224   2.013   9.140  1.00  0.00     0.049 A 
ATOM     59  H   UNL     1       8.882   3.275   8.854  1.00  0.00     0.167 HD
ATOM     60  C   UNL     1       7.886  -0.217   8.609  1.00  0.00     0.074 A 
ATOM     61  C   UNL     1       8.265  -1.619   8.631  1.00  0.00     0.031 C 
ATOM     62  C   UNL     1       7.949   0.805   9.518  1.00  0.00     0.034 A 
BRANCH  49  63
ATOM     63  C   UNL     1       7.134   6.810   8.281  1.00  0.00     0.023 A 
ATOM     64  C   UNL     1       6.071   6.971   9.198  1.00  0.00     0.031 A 
ATOM     65  C   UNL     1       7.691   8.015   7.810  1.00  0.00     0.131 A 
ATOM     66  C   UNL     1       5.539   8.240   9.501  1.00  0.00     0.055 A 
ATOM     67  C   UNL     1       7.127   9.274   8.062  1.00  0.00     0.041 A 
ATOM     68  F   UNL     1       8.847   8.048   7.139  1.00  0.00    -0.206 F 
ATOM     69  C   UNL     1       6.032   9.392   8.899  1.00  0.00     0.022 A 
BRANCH  66  70
ATOM     70  S   UNL     1       4.185   8.370  10.702  1.00  0.00     0.124 S 
ATOM     71  O   UNL     1       3.144   7.555  10.085  1.00  0.00    -0.237 OA
ATOM     72  O   UNL     1       4.796   7.834  11.913  1.00  0.00    -0.237 OA
ATOM     73  O   UNL     1       3.902   9.805  10.740  1.00  0.00    -0.744 OA
ENDBRANCH  66  70
ENDBRANCH  49  63
BRANCH  50  74
ATOM     74  C   UNL     1       7.883  -1.954   4.130  1.00  0.00     0.023 A 
ATOM     75  C   UNL     1       7.141  -2.483   3.052  1.00  0.00     0.031 A 
ATOM     76  C   UNL     1       9.254  -1.739   3.940  1.00  0.00     0.131 A 
ATOM     77  C   UNL     1       7.724  -2.615   1.785  1.00  0.00     0.055 A 
ATOM     78  C   UNL     1       9.851  -1.940   2.687  1.00  0.00     0.041 A 
ATOM     79  F   UNL     1      10.004  -1.203   4.914  1.00  0.00    -0.206 F 
ATOM     80  C   UNL     1       9.077  -2.333   1.592  1.00  0.00     0.022 A 
BRANCH  77  81
ATOM     81  S   UNL     1       6.632  -2.881   0.353  1.00  0.00     0.124 S 
ATOM     82  O   UNL     1       6.551  -4.337   0.299  1.00  0.00    -0.237 OA
ATOM     83  O   UNL     1       5.401  -2.193   0.743  1.00  0.00    -0.237 OA
ATOM     84  O   UNL     1       7.351  -2.244  -0.747  1.00  0.00    -0.744 OA
ENDBRANCH  77  81
ENDBRANCH  50  74
BRANCH  62  85
ATOM     85  C   UNL     1       8.625   0.751  10.876  1.00  0.00     0.023 A 
ATOM     86  C   UNL     1       9.570  -0.221  11.240  1.00  0.00     0.031 A 
ATOM     87  C   UNL     1       8.382   1.755  11.847  1.00  0.00     0.131 A 
ATOM     88  C   UNL     1      10.156  -0.226  12.521  1.00  0.00     0.055 A 
ATOM     89  C   UNL     1       9.026   1.794  13.088  1.00  0.00     0.041 A 
ATOM     90  F   UNL     1       7.509   2.751  11.632  1.00  0.00    -0.206 F 
ATOM     91  C   UNL     1       9.909   0.788  13.440  1.00  0.00     0.022 A 
BRANCH  88  92
ATOM     92  S   UNL     1      11.204  -1.632  12.982  1.00  0.00     0.124 S 
ATOM     93  O   UNL     1      10.264  -2.747  12.898  1.00  0.00    -0.237 OA
ATOM     94  O   UNL     1      12.241  -1.600  11.956  1.00  0.00    -0.237 OA
ATOM     95  O   UNL     1      11.654  -1.301  14.332  1.00  0.00    -0.744 OA
ENDBRANCH  88  92
ENDBRANCH  62  85
ENDBRANCH  36  37
ENDBRANCH  28  31
ENDBRANCH  26  27
ENDBRANCH  25  26
ENDBRANCH   1  25
TORSDOF 17
