REMARK SMILES [NH3+]Cc1ccc(C(=O)N2[C@@H](C(=O)NCCCCNC(=O)c3ccc(-c4c5nc(c(-c6cc(S(=O)(=O)[O-])ccc6F)c6ccc([nH]6)c(-c6cc(S(=O)(=O)[O-])ccc6F)c6nc(c(-c7cc(S(=O)(=O)[O-])ccc7F)c7ccc4[nH]7)C=C6)C=C5)cc3)C[C@H]3CCCC[C@@H]32)o1
REMARK SMILES IDX 15 1 14 2 13 3 11 4 12 5 10 7 9 8 90 9 84 10 85 11 89 12
REMARK SMILES IDX 86 13 88 14 87 15 7 16 8 17 6 18 3 19 4 20 91 21 5 22 2 23
REMARK SMILES IDX 1 24 16 28 17 29 18 30 19 31 20 33 21 34 22 35 83 36 23 37
REMARK SMILES IDX 82 38 24 39 25 40 26 41 76 42 27 43 81 44 75 45 77 46 28 47
REMARK SMILES IDX 80 48 74 49 73 50 29 52 61 53 41 54 60 55 42 56 45 57 59 58
REMARK SMILES IDX 78 59 43 60 44 61 58 63 79 64 46 65 30 66 31 67 39 68 32 69
REMARK SMILES IDX 38 70 40 71 37 72 33 73 34 74 35 75 36 76 62 77 63 78 71 79
REMARK SMILES IDX 64 80 70 81 72 82 69 83 65 84 66 85 67 86 68 87 47 88 48 89
REMARK SMILES IDX 56 90 49 91 55 92 57 93 54 94 50 95 51 96 52 97 53 98
REMARK H PARENT 13 6 1 25 1 26 1 27 18 32 77 51 45 62
REMARK Flexibility Score: inf
ROOT
ATOM      1  C   UNL     1       6.766  -6.717  -0.744  1.00  0.00     0.023 C 
ENDROOT
BRANCH   1   2
ATOM      2  C   UNL     1       5.697  -7.281  -1.677  1.00  0.00     0.116 C 
BRANCH   2   3
ATOM      3  N   UNL     1       4.450  -7.559  -0.990  1.00  0.00    -0.354 N 
ATOM      4  C   UNL     1       3.167  -7.253  -1.356  1.00  0.00     0.242 C 
ATOM      5  O   UNL     1       2.255  -7.641  -0.625  1.00  0.00    -0.273 OA
ATOM      6  H   UNL     1       4.540  -8.038  -0.134  1.00  0.00     0.163 HD
BRANCH   4   7
ATOM      7  C   UNL     1       2.920  -6.461  -2.663  1.00  0.00     0.175 C 
ATOM      8  N   UNL     1       1.487  -6.148  -2.854  1.00  0.00    -0.321 N 
ATOM      9  C   UNL     1       0.896  -7.099  -3.772  1.00  0.00     0.089 C 
ATOM     10  C   UNL     1       3.266  -7.363  -3.874  1.00  0.00     0.041 C 
ATOM     11  C   UNL     1       2.044  -7.227  -4.775  1.00  0.00     0.014 C 
ATOM     12  C   UNL     1      -0.377  -6.707  -4.520  1.00  0.00     0.025 C 
ATOM     13  C   UNL     1       1.784  -8.324  -5.789  1.00  0.00     0.006 C 
ATOM     14  C   UNL     1      -0.691  -7.742  -5.608  1.00  0.00     0.002 C 
ATOM     15  C   UNL     1       0.492  -8.002  -6.548  1.00  0.00     0.000 C 
BRANCH   8  16
ATOM     16  C   UNL     1       0.741  -5.210  -2.167  1.00  0.00     0.290 C 
ATOM     17  O   UNL     1      -0.407  -5.473  -1.788  1.00  0.00    -0.265 OA
BRANCH  16  18
ATOM     18  C   UNL     1       1.270  -3.854  -2.119  1.00  0.00     0.192 A 
ATOM     19  C   UNL     1       1.116  -1.697  -1.652  1.00  0.00     0.159 A 
ATOM     20  C   UNL     1       2.191  -1.829  -2.501  1.00  0.00     0.052 A 
ATOM     21  O   UNL     1       0.576  -2.919  -1.391  1.00  0.00    -0.450 OA
ATOM     22  C   UNL     1       2.279  -3.206  -2.816  1.00  0.00     0.057 A 
BRANCH  19  23
ATOM     23  C   UNL     1       0.445  -0.525  -1.035  1.00  0.00     0.335 C 
BRANCH  23  24
ATOM     24  N   UNL     1       0.935  -0.288   0.318  1.00  0.00    -0.351 N 
ATOM     25  H   UNL     1       0.458   0.520   0.716  1.00  0.00     0.344 HD
ATOM     26  H   UNL     1       1.939  -0.111   0.290  1.00  0.00     0.344 HD
ATOM     27  H   UNL     1       0.751  -1.110   0.894  1.00  0.00     0.344 HD
ENDBRANCH  23  24
ENDBRANCH  19  23
ENDBRANCH  16  18
ENDBRANCH   8  16
ENDBRANCH   4   7
ENDBRANCH   2   3
ENDBRANCH   1   2
BRANCH   1  28
ATOM     28  C   UNL     1       7.233  -7.654   0.374  1.00  0.00     0.023 C 
BRANCH  28  29
ATOM     29  C   UNL     1       7.804  -8.998  -0.073  1.00  0.00     0.116 C 
BRANCH  29  30
ATOM     30  N   UNL     1       8.977  -8.859  -0.921  1.00  0.00    -0.352 N 
ATOM     31  C   UNL     1      10.214  -9.453  -0.818  1.00  0.00     0.251 C 
ATOM     32  H   UNL     1       8.871  -8.248  -1.685  1.00  0.00     0.163 HD
ATOM     33  O   UNL     1      11.116  -9.085  -1.566  1.00  0.00    -0.269 OA
BRANCH  31  34
ATOM     34  C   UNL     1      10.473 -10.500   0.199  1.00  0.00     0.039 A 
ATOM     35  C   UNL     1      11.666 -10.448   0.928  1.00  0.00     0.014 A 
ATOM     36  C   UNL     1       9.566 -11.539   0.424  1.00  0.00     0.014 A 
ATOM     37  C   UNL     1      11.915 -11.393   1.929  1.00  0.00     0.010 A 
ATOM     38  C   UNL     1       9.791 -12.448   1.458  1.00  0.00     0.010 A 
ATOM     39  C   UNL     1      10.964 -12.381   2.226  1.00  0.00    -0.014 A 
BRANCH  39  40
ATOM     40  C   UNL     1      11.174 -13.350   3.334  1.00  0.00     0.031 A 
ATOM     41  C   UNL     1      11.345 -14.814   3.034  1.00  0.00     0.074 A 
ATOM     42  C   UNL     1      11.132 -12.925   4.612  1.00  0.00     0.049 A 
ATOM     43  N   UNL     1      11.415 -15.828   3.859  1.00  0.00    -0.248 NA
ATOM     44  C   UNL     1      11.419 -15.187   1.614  1.00  0.00     0.031 C 
ATOM     45  C   UNL     1      10.939 -11.537   5.036  1.00  0.00     0.029 A 
ATOM     46  N   UNL     1      11.232 -13.621   5.791  1.00  0.00    -0.354 N 
ATOM     47  C   UNL     1      11.519 -16.962   3.061  1.00  0.00     0.074 A 
ATOM     48  C   UNL     1      11.462 -16.509   1.685  1.00  0.00     0.031 C 
ATOM     49  C   UNL     1      10.940 -11.483   6.378  1.00  0.00     0.029 A 
ATOM     50  C   UNL     1      11.096 -12.834   6.910  1.00  0.00     0.049 A 
ATOM     51  H   UNL     1      11.386 -14.592   5.832  1.00  0.00     0.167 HD
ATOM     52  C   UNL     1      11.663 -18.257   3.438  1.00  0.00     0.034 A 
ATOM     53  C   UNL     1      11.081 -13.163   8.217  1.00  0.00     0.034 A 
ATOM     54  C   UNL     1      11.739 -18.695   4.810  1.00  0.00     0.049 A 
ATOM     55  C   UNL     1      11.247 -14.607   8.613  1.00  0.00     0.074 A 
ATOM     56  C   UNL     1      11.929 -19.977   5.300  1.00  0.00     0.029 A 
ATOM     57  N   UNL     1      11.628 -17.863   5.917  1.00  0.00    -0.354 N 
ATOM     58  N   UNL     1      11.368 -15.664   7.844  1.00  0.00    -0.248 NA
ATOM     59  C   UNL     1      11.282 -14.898  10.052  1.00  0.00     0.031 C 
ATOM     60  C   UNL     1      11.889 -19.926   6.699  1.00  0.00     0.029 A 
ATOM     61  C   UNL     1      11.729 -18.605   7.084  1.00  0.00     0.049 A 
ATOM     62  H   UNL     1      11.496 -16.889   5.878  1.00  0.00     0.167 HD
ATOM     63  C   UNL     1      11.520 -16.743   8.709  1.00  0.00     0.074 A 
ATOM     64  C   UNL     1      11.483 -16.208  10.055  1.00  0.00     0.031 C 
ATOM     65  C   UNL     1      11.682 -18.058   8.418  1.00  0.00     0.034 A 
BRANCH  52  66
ATOM     66  C   UNL     1      11.716 -19.290   2.341  1.00  0.00     0.023 A 
ATOM     67  C   UNL     1      12.775 -19.330   1.417  1.00  0.00     0.031 A 
ATOM     68  C   UNL     1      10.676 -20.224   2.192  1.00  0.00     0.131 A 
ATOM     69  C   UNL     1      12.733 -20.230   0.343  1.00  0.00     0.055 A 
ATOM     70  C   UNL     1      10.678 -21.169   1.164  1.00  0.00     0.041 A 
ATOM     71  F   UNL     1       9.629 -20.222   3.033  1.00  0.00    -0.206 F 
ATOM     72  C   UNL     1      11.703 -21.166   0.222  1.00  0.00     0.022 A 
BRANCH  69  73
ATOM     73  S   UNL     1      13.974 -20.069  -0.970  1.00  0.00     0.124 S 
ATOM     74  O   UNL     1      13.708 -18.719  -1.461  1.00  0.00    -0.237 OA
ATOM     75  O   UNL     1      15.226 -20.250  -0.246  1.00  0.00    -0.237 OA
ATOM     76  O   UNL     1      13.630 -21.142  -1.901  1.00  0.00    -0.744 OA
ENDBRANCH  69  73
ENDBRANCH  52  66
BRANCH  53  77
ATOM     77  C   UNL     1      10.886 -12.114   9.255  1.00  0.00     0.023 A 
ATOM     78  C   UNL     1      11.927 -11.763  10.127  1.00  0.00     0.031 A 
ATOM     79  C   UNL     1       9.643 -11.478   9.413  1.00  0.00     0.131 A 
ATOM     80  C   UNL     1      11.695 -10.829  11.149  1.00  0.00     0.055 A 
ATOM     81  C   UNL     1       9.428 -10.521  10.406  1.00  0.00     0.041 A 
ATOM     82  F   UNL     1       8.620 -11.775   8.595  1.00  0.00    -0.206 F 
ATOM     83  C   UNL     1      10.455 -10.201  11.289  1.00  0.00     0.022 A 
BRANCH  80  84
ATOM     84  S   UNL     1      13.023 -10.499  12.339  1.00  0.00     0.124 S 
ATOM     85  O   UNL     1      13.282 -11.830  12.876  1.00  0.00    -0.237 OA
ATOM     86  O   UNL     1      14.063  -9.939  11.482  1.00  0.00    -0.237 OA
ATOM     87  O   UNL     1      12.414  -9.556  13.274  1.00  0.00    -0.744 OA
ENDBRANCH  80  84
ENDBRANCH  53  77
BRANCH  65  88
ATOM     88  C   UNL     1      11.881 -18.991   9.582  1.00  0.00     0.023 A 
ATOM     89  C   UNL     1      10.831 -19.309  10.461  1.00  0.00     0.031 A 
ATOM     90  C   UNL     1      13.147 -19.552   9.825  1.00  0.00     0.131 A 
ATOM     91  C   UNL     1      11.078 -20.130  11.572  1.00  0.00     0.055 A 
ATOM     92  C   UNL     1      13.376 -20.403  10.907  1.00  0.00     0.041 A 
ATOM     93  F   UNL     1      14.181 -19.278   9.015  1.00  0.00    -0.206 F 
ATOM     94  C   UNL     1      12.341 -20.687  11.794  1.00  0.00     0.022 A 
BRANCH  91  95
ATOM     95  S   UNL     1       9.742 -20.404  12.768  1.00  0.00     0.124 S 
ATOM     96  O   UNL     1       9.450 -19.046  13.215  1.00  0.00    -0.237 OA
ATOM     97  O   UNL     1       8.716 -21.041  11.949  1.00  0.00    -0.237 OA
ATOM     98  O   UNL     1      10.354 -21.270  13.775  1.00  0.00    -0.744 OA
ENDBRANCH  91  95
ENDBRANCH  65  88
ENDBRANCH  39  40
ENDBRANCH  31  34
ENDBRANCH  29  30
ENDBRANCH  28  29
ENDBRANCH   1  28
TORSDOF 18
