REMARK SMILES CC(C)CCc1cc2c(cc1Cl)C=C(C(=O)NCCCCNC(=O)c1ccc(-c3c4nc(c(-c5cc(S(=O)(=O)[O-])ccc5F)c5ccc([nH]5)c(-c5cc(S(=O)(=O)[O-])ccc5F)c5nc(c(-c6cc(S(=O)(=O)[O-])ccc6F)c6ccc3[nH]6)C=C5)C=C4)cc1)[C@H](C(F)(F)F)O2
REMARK SMILES IDX 19 1 18 2 17 3 15 4 16 5 14 7 6 8 7 9 11 10 8 11 10 12 12 13
REMARK SMILES IDX 9 14 93 15 13 16 88 17 5 18 4 19 2 20 1 21 3 22 89 23 90 24
REMARK SMILES IDX 91 25 92 26 20 27 21 28 22 29 23 30 24 32 25 33 26 34 87 35
REMARK SMILES IDX 27 36 86 37 28 38 29 39 30 40 80 41 31 42 85 43 79 44 81 45
REMARK SMILES IDX 32 46 84 47 78 48 77 49 33 51 65 52 45 53 64 54 46 55 49 56
REMARK SMILES IDX 63 57 82 58 47 59 48 60 62 62 83 63 50 64 34 65 35 66 43 67
REMARK SMILES IDX 36 68 42 69 44 70 41 71 37 72 38 73 39 74 40 75 66 76 67 77
REMARK SMILES IDX 75 78 68 79 74 80 76 81 73 82 69 83 70 84 71 85 72 86 51 87
REMARK SMILES IDX 52 88 60 89 53 90 59 91 61 92 58 93 54 94 55 95 56 96 57 97
REMARK H PARENT 17 6 22 31 81 50 49 61
REMARK Flexibility Score: inf
ROOT
ATOM      1  C   UNL     1       0.003   5.237   9.279  1.00  0.00     0.023 C 
ENDROOT
BRANCH   1   2
ATOM      2  C   UNL     1       1.270   4.487   8.868  1.00  0.00     0.116 C 
BRANCH   2   3
ATOM      3  N   UNL     1       1.206   3.086   9.242  1.00  0.00    -0.352 N 
ATOM      4  C   UNL     1       0.890   1.931   8.610  1.00  0.00     0.251 C 
ATOM      5  O   UNL     1       1.076   0.896   9.256  1.00  0.00    -0.270 OA
ATOM      6  H   UNL     1       1.453   2.941  10.184  1.00  0.00     0.163 HD
BRANCH   4   7
ATOM      7  C   UNL     1       0.348   1.841   7.224  1.00  0.00     0.067 C 
ATOM      8  C   UNL     1      -1.070   0.141   2.678  1.00  0.00    -0.026 A 
ATOM      9  C   UNL     1      -1.006   1.403   3.294  1.00  0.00     0.052 A 
ATOM     10  C   UNL     1      -0.708  -0.982   3.444  1.00  0.00     0.045 A 
ATOM     11  C   UNL     1      -0.521   1.545   4.591  1.00  0.00     0.128 A 
ATOM     12  C   UNL     1      -0.221  -0.835   4.750  1.00  0.00     0.032 A 
ATOM     13  Cl  UNL     1      -0.826  -2.594   2.829  1.00  0.00    -0.084 Cl
ATOM     14  C   UNL     1      -0.106   0.435   5.319  1.00  0.00     0.019 A 
ATOM     15  O   UNL     1      -0.426   2.821   5.072  1.00  0.00    -0.475 OA
ATOM     16  C   UNL     1       0.469   0.632   6.641  1.00  0.00     0.025 C 
ATOM     17  C   UNL     1      -0.407   2.940   6.524  1.00  0.00     0.314 C 
BRANCH   8  18
ATOM     18  C   UNL     1      -1.526   0.042   1.236  1.00  0.00     0.037 C 
BRANCH  18  19
ATOM     19  C   UNL     1      -0.963   1.126   0.295  1.00  0.00     0.008 C 
BRANCH  19  20
ATOM     20  C   UNL     1       0.577   1.241   0.279  1.00  0.00    -0.017 C 
ATOM     21  C   UNL     1       1.242  -0.011  -0.291  1.00  0.00     0.007 C 
ATOM     22  C   UNL     1       1.000   2.476  -0.519  1.00  0.00     0.007 C 
ENDBRANCH  19  20
ENDBRANCH  18  19
ENDBRANCH   8  18
BRANCH  17  23
ATOM     23  C   UNL     1      -1.839   3.142   7.047  1.00  0.00     0.429 C 
ATOM     24  F   UNL     1      -2.755   2.427   6.358  1.00  0.00    -0.167 F 
ATOM     25  F   UNL     1      -1.971   2.804   8.349  1.00  0.00    -0.167 F 
ATOM     26  F   UNL     1      -2.190   4.450   6.941  1.00  0.00    -0.167 F 
ENDBRANCH  17  23
ENDBRANCH   4   7
ENDBRANCH   2   3
ENDBRANCH   1   2
BRANCH   1  27
ATOM     27  C   UNL     1      -0.023   5.687  10.740  1.00  0.00     0.023 C 
BRANCH  27  28
ATOM     28  C   UNL     1       1.052   6.696  11.118  1.00  0.00     0.116 C 
BRANCH  28  29
ATOM     29  N   UNL     1       1.044   7.905  10.305  1.00  0.00    -0.352 N 
ATOM     30  C   UNL     1       1.452   9.170  10.675  1.00  0.00     0.251 C 
ATOM     31  H   UNL     1       0.707   7.808   9.385  1.00  0.00     0.163 HD
ATOM     32  O   UNL     1       1.325  10.116   9.913  1.00  0.00    -0.269 OA
BRANCH  30  33
ATOM     33  C   UNL     1       1.987   9.351  12.041  1.00  0.00     0.039 A 
ATOM     34  C   UNL     1       2.992   8.504  12.507  1.00  0.00     0.014 A 
ATOM     35  C   UNL     1       1.375  10.271  12.894  1.00  0.00     0.014 A 
ATOM     36  C   UNL     1       3.246   8.440  13.869  1.00  0.00     0.010 A 
ATOM     37  C   UNL     1       1.706  10.270  14.252  1.00  0.00     0.010 A 
ATOM     38  C   UNL     1       2.597   9.312  14.760  1.00  0.00    -0.014 A 
BRANCH  38  39
ATOM     39  C   UNL     1       2.869   9.191  16.216  1.00  0.00     0.031 A 
ATOM     40  C   UNL     1       1.783   8.790  17.178  1.00  0.00     0.074 A 
ATOM     41  C   UNL     1       4.129   9.374  16.655  1.00  0.00     0.049 A 
ATOM     42  N   UNL     1       1.861   8.598  18.470  1.00  0.00    -0.248 NA
ATOM     43  C   UNL     1       0.434   8.581  16.626  1.00  0.00     0.031 C 
ATOM     44  C   UNL     1       5.258   9.753  15.804  1.00  0.00     0.029 A 
ATOM     45  N   UNL     1       4.684   9.233  17.901  1.00  0.00    -0.354 N 
ATOM     46  C   UNL     1       0.577   8.270  18.889  1.00  0.00     0.074 A 
ATOM     47  C   UNL     1      -0.271   8.315  17.718  1.00  0.00     0.031 C 
ATOM     48  C   UNL     1       6.380   9.742  16.535  1.00  0.00     0.029 A 
ATOM     49  C   UNL     1       6.043   9.439  17.923  1.00  0.00     0.049 A 
ATOM     50  H   UNL     1       4.159   9.006  18.703  1.00  0.00     0.167 HD
ATOM     51  C   UNL     1       0.150   7.950  20.135  1.00  0.00     0.034 A 
ATOM     52  C   UNL     1       6.924   9.400  18.943  1.00  0.00     0.034 A 
ATOM     53  C   UNL     1       1.015   7.884  21.286  1.00  0.00     0.049 A 
ATOM     54  C   UNL     1       6.421   9.056  20.318  1.00  0.00     0.074 A 
ATOM     55  C   UNL     1       0.681   7.551  22.587  1.00  0.00     0.029 A 
ATOM     56  N   UNL     1       2.378   8.140  21.278  1.00  0.00    -0.354 N 
ATOM     57  N   UNL     1       5.206   8.730  20.692  1.00  0.00    -0.248 NA
ATOM     58  C   UNL     1       7.400   9.077  21.413  1.00  0.00     0.031 C 
ATOM     59  C   UNL     1       1.829   7.656  23.374  1.00  0.00     0.029 A 
ATOM     60  C   UNL     1       2.895   7.994  22.555  1.00  0.00     0.049 A 
ATOM     61  H   UNL     1       2.902   8.390  20.482  1.00  0.00     0.167 HD
ATOM     62  C   UNL     1       5.274   8.503  22.062  1.00  0.00     0.074 A 
ATOM     63  C   UNL     1       6.658   8.693  22.445  1.00  0.00     0.031 C 
ATOM     64  C   UNL     1       4.278   8.181  22.925  1.00  0.00     0.034 A 
BRANCH  51  65
ATOM     65  C   UNL     1      -1.312   7.635  20.341  1.00  0.00     0.023 A 
ATOM     66  C   UNL     1      -2.102   8.465  21.159  1.00  0.00     0.031 A 
ATOM     67  C   UNL     1      -1.886   6.455  19.838  1.00  0.00     0.131 A 
ATOM     68  C   UNL     1      -3.414   8.087  21.475  1.00  0.00     0.055 A 
ATOM     69  C   UNL     1      -3.205   6.100  20.127  1.00  0.00     0.041 A 
ATOM     70  F   UNL     1      -1.174   5.632  19.052  1.00  0.00    -0.206 F 
ATOM     71  C   UNL     1      -3.971   6.912  20.959  1.00  0.00     0.022 A 
BRANCH  68  72
ATOM     72  S   UNL     1      -4.429   9.071  22.611  1.00  0.00     0.124 S 
ATOM     73  O   UNL     1      -5.571   9.418  21.768  1.00  0.00    -0.237 OA
ATOM     74  O   UNL     1      -4.709   8.115  23.678  1.00  0.00    -0.237 OA
ATOM     75  O   UNL     1      -3.565  10.188  22.975  1.00  0.00    -0.744 OA
ENDBRANCH  68  72
ENDBRANCH  51  65
BRANCH  52  76
ATOM     76  C   UNL     1       8.367   9.657  18.661  1.00  0.00     0.023 A 
ATOM     77  C   UNL     1       8.787  10.883  18.112  1.00  0.00     0.031 A 
ATOM     78  C   UNL     1       9.320   8.637  18.806  1.00  0.00     0.131 A 
ATOM     79  C   UNL     1      10.099  11.025  17.645  1.00  0.00     0.055 A 
ATOM     80  C   UNL     1      10.648   8.810  18.412  1.00  0.00     0.041 A 
ATOM     81  F   UNL     1       8.966   7.446  19.313  1.00  0.00    -0.206 F 
ATOM     82  C   UNL     1      11.037  10.002  17.806  1.00  0.00     0.022 A 
BRANCH  79  83
ATOM     83  S   UNL     1      10.579  12.473  16.662  1.00  0.00     0.124 S 
ATOM     84  O   UNL     1      11.598  13.088  17.506  1.00  0.00    -0.237 OA
ATOM     85  O   UNL     1      11.067  11.852  15.432  1.00  0.00    -0.237 OA
ATOM     86  O   UNL     1       9.335  13.223  16.523  1.00  0.00    -0.744 OA
ENDBRANCH  79  83
ENDBRANCH  52  76
BRANCH  64  87
ATOM     87  C   UNL     1       4.622   8.019  24.384  1.00  0.00     0.023 A 
ATOM     88  C   UNL     1       4.471   6.769  25.012  1.00  0.00     0.031 A 
ATOM     89  C   UNL     1       4.961   9.129  25.178  1.00  0.00     0.131 A 
ATOM     90  C   UNL     1       4.623   6.665  26.401  1.00  0.00     0.055 A 
ATOM     91  C   UNL     1       5.152   9.012  26.555  1.00  0.00     0.041 A 
ATOM     92  F   UNL     1       5.107  10.343  24.625  1.00  0.00    -0.206 F 
ATOM     93  C   UNL     1       4.969   7.778  27.174  1.00  0.00     0.022 A 
BRANCH  90  94
ATOM     94  S   UNL     1       4.295   5.104  27.264  1.00  0.00     0.124 S 
ATOM     95  O   UNL     1       5.601   4.802  27.846  1.00  0.00    -0.237 OA
ATOM     96  O   UNL     1       3.261   5.492  28.220  1.00  0.00    -0.237 OA
ATOM     97  O   UNL     1       3.862   4.199  26.205  1.00  0.00    -0.744 OA
ENDBRANCH  90  94
ENDBRANCH  64  87
ENDBRANCH  38  39
ENDBRANCH  30  33
ENDBRANCH  28  29
ENDBRANCH  27  28
ENDBRANCH   1  27
TORSDOF 18
