REMARK SMILES C/C(=C/c1cccc(OCC(=O)NCCCCNC(=O)c2ccc(-c3c4nc(c(-c5cc(S(=O)(=O)[O-])ccc5F)c5ccc([nH]5)c(-c5cc(S(=O)(=O)[O-])ccc5F)c5nc(c(-c6cc(S(=O)(=O)[O-])ccc6F)c6ccc3[nH]6)C=C5)C=C4)cc2)c1)c1nc2sccc2c(=O)[nH]1
REMARK SMILES IDX 15 1 14 2 13 3 11 4 12 5 10 7 9 8 8 9 4 10 5 11 84 12 6 13
REMARK SMILES IDX 7 14 3 15 1 16 2 17 85 18 86 19 94 20 87 21 92 22 88 24
REMARK SMILES IDX 91 25 93 26 89 27 90 28 16 29 17 30 18 31 19 32 20 34 21 35
REMARK SMILES IDX 22 36 83 37 23 38 82 39 24 40 25 41 26 42 76 43 27 44 81 45
REMARK SMILES IDX 75 46 77 47 28 48 80 49 74 50 73 51 29 53 61 54 41 55 60 56
REMARK SMILES IDX 42 57 45 58 59 59 78 60 43 61 44 62 58 64 79 65 46 66 30 67
REMARK SMILES IDX 31 68 39 69 32 70 38 71 40 72 37 73 33 74 34 75 35 76 36 77
REMARK SMILES IDX 62 78 63 79 71 80 64 81 70 82 72 83 69 84 65 85 66 86 67 87
REMARK SMILES IDX 68 88 47 89 48 90 56 91 49 92 55 93 57 94 54 95 50 96 51 97
REMARK SMILES IDX 52 98 53 99
REMARK H PARENT 13 6 94 23 18 33 77 52 45 63
REMARK Flexibility Score: inf
ROOT
ATOM      1  C   UNL     1      -0.807  -0.887   8.137  1.00  0.00     0.023 C 
ENDROOT
BRANCH   1   2
ATOM      2  C   UNL     1       0.665  -0.549   8.360  1.00  0.00     0.116 C 
BRANCH   2   3
ATOM      3  N   UNL     1       1.498  -0.664   7.179  1.00  0.00    -0.353 N 
ATOM      4  C   UNL     1       2.075   0.343   6.456  1.00  0.00     0.257 C 
ATOM      5  O   UNL     1       2.986   0.075   5.672  1.00  0.00    -0.271 OA
ATOM      6  H   UNL     1       1.670  -1.579   6.859  1.00  0.00     0.163 HD
BRANCH   4   7
ATOM      7  C   UNL     1       1.640   1.793   6.665  1.00  0.00     0.329 C 
BRANCH   7   8
ATOM      8  O   UNL     1       0.247   2.046   6.662  1.00  0.00    -0.484 OA
BRANCH   8   9
ATOM      9  C   UNL     1      -0.424   2.009   5.471  1.00  0.00     0.120 A 
ATOM     10  C   UNL     1      -0.726   1.695   3.080  1.00  0.00    -0.022 A 
ATOM     11  C   UNL     1      -2.086   1.996   3.215  1.00  0.00     0.008 A 
ATOM     12  C   UNL     1       0.107   1.713   4.213  1.00  0.00     0.054 A 
ATOM     13  C   UNL     1      -2.616   2.293   4.468  1.00  0.00     0.004 A 
ATOM     14  C   UNL     1      -1.786   2.297   5.588  1.00  0.00     0.046 A 
BRANCH  10  15
ATOM     15  C   UNL     1      -0.206   1.388   1.739  1.00  0.00     0.015 C 
ATOM     16  C   UNL     1       0.975   0.046  -0.017  1.00  0.00     0.048 C 
ATOM     17  C   UNL     1       0.424   0.259   1.360  1.00  0.00    -0.008 C 
BRANCH  17  18
ATOM     18  C   UNL     1       0.652  -0.864   2.308  1.00  0.00     0.137 A 
ATOM     19  N   UNL     1       1.847  -1.271   2.611  1.00  0.00    -0.219 NA
ATOM     20  N   UNL     1      -0.507  -1.423   2.801  1.00  0.00    -0.306 N 
ATOM     21  C   UNL     1       1.881  -2.274   3.529  1.00  0.00     0.131 A 
ATOM     22  C   UNL     1      -0.525  -2.449   3.716  1.00  0.00     0.259 A 
ATOM     23  H   UNL     1      -1.368  -1.068   2.481  1.00  0.00     0.171 HD
ATOM     24  S   UNL     1       3.351  -2.911   4.122  1.00  0.00    -0.124 S 
ATOM     25  C   UNL     1       0.795  -2.889   4.114  1.00  0.00     0.077 A 
ATOM     26  O   UNL     1      -1.566  -2.913   4.157  1.00  0.00    -0.269 OA
ATOM     27  C   UNL     1       2.536  -3.976   5.189  1.00  0.00     0.068 A 
ATOM     28  C   UNL     1       1.167  -3.886   5.061  1.00  0.00     0.028 A 
ENDBRANCH  17  18
ENDBRANCH  10  15
ENDBRANCH   8   9
ENDBRANCH   7   8
ENDBRANCH   4   7
ENDBRANCH   2   3
ENDBRANCH   1   2
BRANCH   1  29
ATOM     29  C   UNL     1      -1.133  -2.320   7.708  1.00  0.00     0.023 C 
BRANCH  29  30
ATOM     30  C   UNL     1      -0.484  -3.456   8.493  1.00  0.00     0.116 C 
BRANCH  30  31
ATOM     31  N   UNL     1      -0.885  -3.497   9.888  1.00  0.00    -0.352 N 
ATOM     32  C   UNL     1      -1.287  -4.565  10.658  1.00  0.00     0.251 C 
ATOM     33  H   UNL     1      -0.867  -2.629  10.353  1.00  0.00     0.163 HD
ATOM     34  O   UNL     1      -1.699  -4.351  11.796  1.00  0.00    -0.269 OA
BRANCH  32  35
ATOM     35  C   UNL     1      -1.264  -5.954  10.130  1.00  0.00     0.039 A 
ATOM     36  C   UNL     1      -2.346  -6.794  10.419  1.00  0.00     0.014 A 
ATOM     37  C   UNL     1      -0.185  -6.455   9.396  1.00  0.00     0.014 A 
ATOM     38  C   UNL     1      -2.375  -8.104   9.925  1.00  0.00     0.010 A 
ATOM     39  C   UNL     1      -0.239  -7.746   8.858  1.00  0.00     0.010 A 
ATOM     40  C   UNL     1      -1.336  -8.585   9.113  1.00  0.00    -0.014 A 
BRANCH  40  41
ATOM     41  C   UNL     1      -1.389  -9.955   8.525  1.00  0.00     0.031 A 
ATOM     42  C   UNL     1      -0.397 -11.008   8.941  1.00  0.00     0.074 A 
ATOM     43  C   UNL     1      -2.305 -10.244   7.578  1.00  0.00     0.049 A 
ATOM     44  N   UNL     1      -0.249 -12.232   8.497  1.00  0.00    -0.248 NA
ATOM     45  C   UNL     1       0.570 -10.625   9.979  1.00  0.00     0.031 C 
ATOM     46  C   UNL     1      -3.311  -9.311   7.065  1.00  0.00     0.029 A 
ATOM     47  N   UNL     1      -2.536 -11.399   6.871  1.00  0.00    -0.354 N 
ATOM     48  C   UNL     1       0.831 -12.764   9.194  1.00  0.00     0.074 A 
ATOM     49  C   UNL     1       1.331 -11.707  10.050  1.00  0.00     0.031 C 
ATOM     50  C   UNL     1      -4.058  -9.935   6.141  1.00  0.00     0.029 A 
ATOM     51  C   UNL     1      -3.562 -11.297   5.960  1.00  0.00     0.049 A 
ATOM     52  H   UNL     1      -2.015 -12.224   7.005  1.00  0.00     0.167 HD
ATOM     53  C   UNL     1       1.345 -14.020   9.143  1.00  0.00     0.034 A 
ATOM     54  C   UNL     1      -4.042 -12.188   5.069  1.00  0.00     0.034 A 
ATOM     55  C   UNL     1       0.838 -15.069   8.288  1.00  0.00     0.049 A 
ATOM     56  C   UNL     1      -3.427 -13.563   4.996  1.00  0.00     0.074 A 
ATOM     57  C   UNL     1       1.258 -16.386   8.197  1.00  0.00     0.029 A 
ATOM     58  N   UNL     1      -0.193 -14.921   7.368  1.00  0.00    -0.354 N 
ATOM     59  N   UNL     1      -2.433 -14.062   5.693  1.00  0.00    -0.248 NA
ATOM     60  C   UNL     1      -4.007 -14.498   4.022  1.00  0.00     0.031 C 
ATOM     61  C   UNL     1       0.531 -17.012   7.178  1.00  0.00     0.029 A 
ATOM     62  C   UNL     1      -0.398 -16.112   6.684  1.00  0.00     0.049 A 
ATOM     63  H   UNL     1      -0.704 -14.093   7.223  1.00  0.00     0.167 HD
ATOM     64  C   UNL     1      -2.291 -15.379   5.262  1.00  0.00     0.074 A 
ATOM     65  C   UNL     1      -3.308 -15.599   4.255  1.00  0.00     0.031 C 
ATOM     66  C   UNL     1      -1.404 -16.323   5.670  1.00  0.00     0.034 A 
BRANCH  53  67
ATOM     67  C   UNL     1       2.542 -14.315  10.018  1.00  0.00     0.023 A 
ATOM     68  C   UNL     1       2.465 -14.248  11.421  1.00  0.00     0.031 A 
ATOM     69  C   UNL     1       3.783 -14.642   9.445  1.00  0.00     0.131 A 
ATOM     70  C   UNL     1       3.621 -14.421  12.196  1.00  0.00     0.055 A 
ATOM     71  C   UNL     1       4.912 -14.897  10.226  1.00  0.00     0.041 A 
ATOM     72  F   UNL     1       3.925 -14.704   8.111  1.00  0.00    -0.206 F 
ATOM     73  C   UNL     1       4.839 -14.770  11.610  1.00  0.00     0.022 A 
BRANCH  70  74
ATOM     74  S   UNL     1       3.542 -14.032  13.966  1.00  0.00     0.124 S 
ATOM     75  O   UNL     1       3.103 -12.639  13.943  1.00  0.00    -0.237 OA
ATOM     76  O   UNL     1       2.570 -15.001  14.459  1.00  0.00    -0.237 OA
ATOM     77  O   UNL     1       4.915 -14.237  14.424  1.00  0.00    -0.744 OA
ENDBRANCH  70  74
ENDBRANCH  53  67
BRANCH  54  78
ATOM     78  C   UNL     1      -5.158 -11.812   4.154  1.00  0.00     0.023 A 
ATOM     79  C   UNL     1      -6.409 -12.441   4.241  1.00  0.00     0.031 A 
ATOM     80  C   UNL     1      -4.973 -10.844   3.150  1.00  0.00     0.131 A 
ATOM     81  C   UNL     1      -7.415 -12.129   3.313  1.00  0.00     0.055 A 
ATOM     82  C   UNL     1      -5.994 -10.499   2.262  1.00  0.00     0.041 A 
ATOM     83  F   UNL     1      -3.796 -10.211   3.025  1.00  0.00    -0.206 F 
ATOM     84  C   UNL     1      -7.220 -11.152   2.333  1.00  0.00     0.022 A 
BRANCH  81  85
ATOM     85  S   UNL     1      -8.962 -13.074   3.357  1.00  0.00     0.124 S 
ATOM     86  O   UNL     1      -8.484 -14.436   3.149  1.00  0.00    -0.237 OA
ATOM     87  O   UNL     1      -9.468 -12.768   4.691  1.00  0.00    -0.237 OA
ATOM     88  O   UNL     1      -9.738 -12.509   2.255  1.00  0.00    -0.744 OA
ENDBRANCH  81  85
ENDBRANCH  54  78
BRANCH  66  89
ATOM     89  C   UNL     1      -1.531 -17.697   5.056  1.00  0.00     0.023 A 
ATOM     90  C   UNL     1      -1.260 -17.932   3.696  1.00  0.00     0.031 A 
ATOM     91  C   UNL     1      -1.944 -18.786   5.844  1.00  0.00     0.131 A 
ATOM     92  C   UNL     1      -1.458 -19.213   3.154  1.00  0.00     0.055 A 
ATOM     93  C   UNL     1      -2.083 -20.070   5.313  1.00  0.00     0.041 A 
ATOM     94  F   UNL     1      -2.219 -18.620   7.148  1.00  0.00    -0.206 F 
ATOM     95  C   UNL     1      -1.851 -20.286   3.958  1.00  0.00     0.022 A 
BRANCH  92  96
ATOM     96  S   UNL     1      -1.276 -19.442   1.363  1.00  0.00     0.124 S 
ATOM     97  O   UNL     1      -2.262 -18.504   0.835  1.00  0.00    -0.237 OA
ATOM     98  O   UNL     1       0.122 -19.089   1.143  1.00  0.00    -0.237 OA
ATOM     99  O   UNL     1      -1.596 -20.854   1.163  1.00  0.00    -0.744 OA
ENDBRANCH  92  96
ENDBRANCH  66  89
ENDBRANCH  40  41
ENDBRANCH  32  35
ENDBRANCH  30  31
ENDBRANCH  29  30
ENDBRANCH   1  29
TORSDOF 18
