REMARK SMILES Cc1c(NC(=S)NC(=O)CSc2ccc(Cl)cc2)cccc1C(=O)NCCCCNC(=O)c1ccc(-c2c3nc(c(-c4cc(S(=O)(=O)[O-])ccc4F)c4ccc([nH]4)c(-c4cc(S(=O)(=O)[O-])ccc4F)c4nc(c(-c5cc(S(=O)(=O)[O-])ccc5F)c5ccc2[nH]5)C=C4)C=C3)cc1
REMARK SMILES IDX 26 1 25 2 23 3 24 4 22 6 1 7 2 8 3 9 19 10 21 11 20 12 4 13
REMARK SMILES IDX 5 15 6 16 7 17 8 18 9 20 10 21 11 22 12 23 13 24 18 25 14 26
REMARK SMILES IDX 17 27 15 28 16 29 27 30 28 31 29 32 30 33 31 34 32 36 33 37
REMARK SMILES IDX 34 38 95 39 35 40 94 41 36 42 37 43 38 44 88 45 39 46 93 47
REMARK SMILES IDX 87 48 89 49 40 50 92 51 86 52 85 53 41 55 73 56 53 57 72 58
REMARK SMILES IDX 54 59 57 60 71 61 90 62 55 63 56 64 70 66 91 67 58 68 42 69
REMARK SMILES IDX 43 70 51 71 44 72 50 73 52 74 49 75 45 76 46 77 47 78 48 79
REMARK SMILES IDX 74 80 75 81 83 82 76 83 82 84 84 85 81 86 77 87 78 88 79 89
REMARK SMILES IDX 80 90 59 91 60 92 68 93 61 94 67 95 69 96 66 97 62 98 63 99
REMARK SMILES IDX 64 100 65 101
REMARK H PARENT 25 5 4 14 7 19 30 35 89 54 57 65
REMARK Flexibility Score: inf
ROOT
ATOM      1  C   UNL     1       3.919   1.721  -0.123  1.00  0.00     0.116 C 
ENDROOT
BRANCH   1   2
ATOM      2  N   UNL     1       2.635   2.400  -0.122  1.00  0.00    -0.352 N 
ATOM      3  C   UNL     1       1.323   2.120  -0.375  1.00  0.00     0.251 C 
ATOM      4  O   UNL     1       0.582   3.097  -0.172  1.00  0.00    -0.269 OA
ATOM      5  H   UNL     1       2.742   3.343   0.139  1.00  0.00     0.163 HD
BRANCH   3   6
ATOM      6  C   UNL     1       0.651   0.858  -0.876  1.00  0.00     0.044 A 
ATOM      7  C   UNL     1       2.366  -0.942  -0.281  1.00  0.00     0.047 C 
ATOM      8  C   UNL     1       1.009  -0.509  -0.748  1.00  0.00    -0.015 A 
ATOM      9  C   UNL     1       0.032  -1.514  -1.042  1.00  0.00     0.044 A 
ATOM     10  C   UNL     1      -1.164  -1.178  -1.679  1.00  0.00     0.026 A 
ATOM     11  C   UNL     1      -0.615   1.142  -1.455  1.00  0.00     0.014 A 
ATOM     12  C   UNL     1      -1.491   0.150  -1.887  1.00  0.00     0.003 A 
BRANCH   9  13
ATOM     13  N   UNL     1       0.285  -2.859  -0.698  1.00  0.00    -0.332 N 
ATOM     14  H   UNL     1       1.235  -3.040  -0.510  1.00  0.00     0.169 HD
BRANCH  13  15
ATOM     15  C   UNL     1      -0.494  -3.942  -0.572  1.00  0.00     0.177 C 
ATOM     16  S   UNL     1       0.204  -5.444  -0.839  1.00  0.00    -0.040 S 
BRANCH  15  17
ATOM     17  N   UNL     1      -1.808  -3.941  -0.198  1.00  0.00    -0.302 N 
ATOM     18  C   UNL     1      -2.770  -3.175   0.438  1.00  0.00     0.236 C 
ATOM     19  H   UNL     1      -2.217  -4.789  -0.484  1.00  0.00     0.172 HD
ATOM     20  O   UNL     1      -3.932  -3.606   0.368  1.00  0.00    -0.274 OA
BRANCH  18  21
ATOM     21  C   UNL     1      -2.504  -1.875   1.164  1.00  0.00     0.175 C 
BRANCH  21  22
ATOM     22  S   UNL     1      -1.054  -1.908   2.248  1.00  0.00    -0.116 SA
BRANCH  22  23
ATOM     23  C   UNL     1      -1.859  -1.651   3.809  1.00  0.00     0.008 A 
ATOM     24  C   UNL     1      -2.150  -0.365   4.275  1.00  0.00     0.016 A 
ATOM     25  C   UNL     1      -2.210  -2.766   4.573  1.00  0.00     0.016 A 
ATOM     26  C   UNL     1      -2.805  -0.199   5.498  1.00  0.00     0.021 A 
ATOM     27  C   UNL     1      -2.864  -2.600   5.793  1.00  0.00     0.021 A 
ATOM     28  C   UNL     1      -3.163  -1.318   6.249  1.00  0.00     0.041 A 
ATOM     29  Cl  UNL     1      -3.987  -1.121   7.746  1.00  0.00    -0.084 Cl
ENDBRANCH  22  23
ENDBRANCH  21  22
ENDBRANCH  18  21
ENDBRANCH  15  17
ENDBRANCH  13  15
ENDBRANCH   9  13
ENDBRANCH   3   6
ENDBRANCH   1   2
BRANCH   1  30
ATOM     30  C   UNL     1       4.460   1.420  -1.528  1.00  0.00     0.023 C 
BRANCH  30  31
ATOM     31  C   UNL     1       5.248   2.566  -2.159  1.00  0.00     0.023 C 
BRANCH  31  32
ATOM     32  C   UNL     1       6.597   2.802  -1.491  1.00  0.00     0.116 C 
BRANCH  32  33
ATOM     33  N   UNL     1       7.713   2.019  -2.009  1.00  0.00    -0.352 N 
ATOM     34  C   UNL     1       8.983   1.881  -1.468  1.00  0.00     0.251 C 
ATOM     35  H   UNL     1       7.545   1.528  -2.846  1.00  0.00     0.163 HD
ATOM     36  O   UNL     1       9.879   1.305  -2.078  1.00  0.00    -0.269 OA
BRANCH  34  37
ATOM     37  C   UNL     1       9.222   2.365  -0.085  1.00  0.00     0.039 A 
ATOM     38  C   UNL     1       9.678   1.446   0.864  1.00  0.00     0.014 A 
ATOM     39  C   UNL     1       8.741   3.609   0.314  1.00  0.00     0.014 A 
ATOM     40  C   UNL     1       9.424   1.680   2.215  1.00  0.00     0.010 A 
ATOM     41  C   UNL     1       8.371   3.778   1.636  1.00  0.00     0.010 A 
ATOM     42  C   UNL     1       8.655   2.787   2.583  1.00  0.00    -0.014 A 
BRANCH  42  43
ATOM     43  C   UNL     1       7.952   2.869   3.868  1.00  0.00     0.031 A 
ATOM     44  C   UNL     1       8.204   3.964   4.834  1.00  0.00     0.074 A 
ATOM     45  C   UNL     1       6.998   1.957   4.170  1.00  0.00     0.049 A 
ATOM     46  N   UNL     1       7.997   3.876   6.107  1.00  0.00    -0.248 NA
ATOM     47  C   UNL     1       8.754   5.253   4.440  1.00  0.00     0.031 C 
ATOM     48  C   UNL     1       6.021   2.022   5.255  1.00  0.00     0.029 A 
ATOM     49  N   UNL     1       6.891   0.654   3.691  1.00  0.00    -0.354 N 
ATOM     50  C   UNL     1       8.071   5.146   6.636  1.00  0.00     0.074 A 
ATOM     51  C   UNL     1       8.624   5.949   5.572  1.00  0.00     0.031 C 
ATOM     52  C   UNL     1       5.608   0.779   5.542  1.00  0.00     0.029 A 
ATOM     53  C   UNL     1       6.388  -0.140   4.735  1.00  0.00     0.049 A 
ATOM     54  H   UNL     1       7.125   0.345   2.786  1.00  0.00     0.167 HD
ATOM     55  C   UNL     1       7.518   5.405   7.859  1.00  0.00     0.034 A 
ATOM     56  C   UNL     1       7.085  -1.213   5.206  1.00  0.00     0.034 A 
ATOM     57  C   UNL     1       7.016   4.186   8.502  1.00  0.00     0.049 A 
ATOM     58  C   UNL     1       7.470  -1.101   6.665  1.00  0.00     0.074 A 
ATOM     59  C   UNL     1       5.744   3.674   8.703  1.00  0.00     0.029 A 
ATOM     60  N   UNL     1       7.901   3.164   8.837  1.00  0.00    -0.354 N 
ATOM     61  N   UNL     1       7.346  -0.013   7.373  1.00  0.00    -0.248 NA
ATOM     62  C   UNL     1       8.061  -2.195   7.431  1.00  0.00     0.031 C 
ATOM     63  C   UNL     1       5.869   2.320   9.107  1.00  0.00     0.029 A 
ATOM     64  C   UNL     1       7.217   2.012   9.175  1.00  0.00     0.049 A 
ATOM     65  H   UNL     1       8.882   3.251   8.833  1.00  0.00     0.167 HD
ATOM     66  C   UNL     1       7.864  -0.214   8.629  1.00  0.00     0.074 A 
ATOM     67  C   UNL     1       8.262  -1.611   8.626  1.00  0.00     0.031 C 
ATOM     68  C   UNL     1       7.937   0.798   9.546  1.00  0.00     0.034 A 
BRANCH  55  69
ATOM     69  C   UNL     1       7.137   6.801   8.328  1.00  0.00     0.023 A 
ATOM     70  C   UNL     1       6.048   6.966   9.212  1.00  0.00     0.031 A 
ATOM     71  C   UNL     1       7.741   8.002   7.906  1.00  0.00     0.131 A 
ATOM     72  C   UNL     1       5.531   8.239   9.522  1.00  0.00     0.055 A 
ATOM     73  C   UNL     1       7.189   9.267   8.156  1.00  0.00     0.041 A 
ATOM     74  F   UNL     1       8.930   8.015   7.292  1.00  0.00    -0.206 F 
ATOM     75  C   UNL     1       6.063   9.390   8.953  1.00  0.00     0.022 A 
BRANCH  72  76
ATOM     76  S   UNL     1       4.149   8.375  10.690  1.00  0.00     0.124 S 
ATOM     77  O   UNL     1       3.123   7.553  10.057  1.00  0.00    -0.237 OA
ATOM     78  O   UNL     1       4.733   7.848  11.919  1.00  0.00    -0.237 OA
ATOM     79  O   UNL     1       3.863   9.809  10.712  1.00  0.00    -0.744 OA
ENDBRANCH  72  76
ENDBRANCH  55  69
BRANCH  56  80
ATOM     80  C   UNL     1       7.854  -1.921   4.145  1.00  0.00     0.023 A 
ATOM     81  C   UNL     1       7.115  -2.427   3.053  1.00  0.00     0.031 A 
ATOM     82  C   UNL     1       9.237  -1.770   3.989  1.00  0.00     0.131 A 
ATOM     83  C   UNL     1       7.726  -2.610   1.807  1.00  0.00     0.055 A 
ATOM     84  C   UNL     1       9.859  -2.020   2.758  1.00  0.00     0.041 A 
ATOM     85  F   UNL     1       9.985  -1.256   4.976  1.00  0.00    -0.206 F 
ATOM     86  C   UNL     1       9.097  -2.400   1.650  1.00  0.00     0.022 A 
BRANCH  83  87
ATOM     87  S   UNL     1       6.668  -2.853   0.347  1.00  0.00     0.124 S 
ATOM     88  O   UNL     1       6.547  -4.305   0.297  1.00  0.00    -0.237 OA
ATOM     89  O   UNL     1       5.448  -2.124   0.694  1.00  0.00    -0.237 OA
ATOM     90  O   UNL     1       7.440  -2.244  -0.733  1.00  0.00    -0.744 OA
ENDBRANCH  83  87
ENDBRANCH  56  80
BRANCH  68  91
ATOM     91  C   UNL     1       8.619   0.732  10.900  1.00  0.00     0.023 A 
ATOM     92  C   UNL     1       9.580  -0.230  11.247  1.00  0.00     0.031 A 
ATOM     93  C   UNL     1       8.359   1.715  11.889  1.00  0.00     0.131 A 
ATOM     94  C   UNL     1      10.169  -0.248  12.527  1.00  0.00     0.055 A 
ATOM     95  C   UNL     1       9.000   1.741  13.132  1.00  0.00     0.041 A 
ATOM     96  F   UNL     1       7.471   2.701  11.688  1.00  0.00    -0.206 F 
ATOM     97  C   UNL     1       9.901   0.744  13.466  1.00  0.00     0.022 A 
BRANCH  94  98
ATOM     98  S   UNL     1      11.255  -1.634  12.960  1.00  0.00     0.124 S 
ATOM     99  O   UNL     1      10.343  -2.770  12.867  1.00  0.00    -0.237 OA
ATOM    100  O   UNL     1      12.284  -1.561  11.928  1.00  0.00    -0.237 OA
ATOM    101  O   UNL     1      11.707  -1.311  14.312  1.00  0.00    -0.744 OA
ENDBRANCH  94  98
ENDBRANCH  68  91
ENDBRANCH  42  43
ENDBRANCH  34  37
ENDBRANCH  32  33
ENDBRANCH  31  32
ENDBRANCH  30  31
ENDBRANCH   1  30
TORSDOF 20
