REMARK SMILES CC(C)n1ccc(C#CC(=O)NCCCCNC(=O)c2ccc(-c3c4nc(c(-c5cc(S(=O)(=O)[O-])ccc5F)c5ccc([nH]5)c(-c5cc(S(=O)(=O)[O-])ccc5F)c5nc(c(-c6cc(S(=O)(=O)[O-])ccc6F)c6ccc3[nH]6)C=C5)C=C4)cc2)n1
REMARK SMILES IDX 15 1 14 2 13 3 12 4 10 5 11 6 9 8 8 9 7 10 4 11 5 12 83 13
REMARK SMILES IDX 6 14 2 15 1 16 3 17 16 18 17 19 18 20 19 22 20 23 21 24
REMARK SMILES IDX 82 25 22 26 81 27 23 28 24 29 25 30 75 31 26 32 80 33 74 34
REMARK SMILES IDX 76 35 27 36 79 37 73 38 72 39 28 41 60 42 40 43 59 44 41 45
REMARK SMILES IDX 44 46 58 47 77 48 42 49 43 50 57 52 78 53 45 54 29 55 30 56
REMARK SMILES IDX 38 57 31 58 37 59 39 60 36 61 32 62 33 63 34 64 35 65 61 66
REMARK SMILES IDX 62 67 70 68 63 69 69 70 71 71 68 72 64 73 65 74 66 75 67 76
REMARK SMILES IDX 46 77 47 78 55 79 48 80 54 81 56 82 53 83 49 84 50 85 51 86
REMARK SMILES IDX 52 87
REMARK H PARENT 12 7 17 21 76 40 44 51
REMARK Flexibility Score: inf
ROOT
ATOM      1  C   UNL     1      -6.492   6.168  -2.090  1.00  0.00     0.023 C 
ENDROOT
BRANCH   1   2
ATOM      2  C   UNL     1      -5.384   5.174  -1.710  1.00  0.00     0.023 C 
BRANCH   2   3
ATOM      3  C   UNL     1      -4.987   5.141  -0.229  1.00  0.00     0.117 C 
BRANCH   3   4
ATOM      4  N   UNL     1      -6.082   4.718   0.624  1.00  0.00    -0.345 N 
ATOM      5  C   UNL     1      -6.159   3.573   1.371  1.00  0.00     0.296 C 
ATOM      6  O   UNL     1      -7.157   3.309   2.028  1.00  0.00    -0.260 OA
ATOM      7  H   UNL     1      -6.857   5.323   0.672  1.00  0.00     0.164 HD
BRANCH   5   8
ATOM      8  C   UNL     1      -5.046   2.649   1.368  1.00  0.00     0.002 C 
ATOM      9  C   UNL     1      -4.124   1.898   1.361  1.00  0.00    -0.034 C 
BRANCH   9  10
ATOM     10  C   UNL     1      -3.027   0.983   1.346  1.00  0.00     0.135 A 
ATOM     11  N   UNL     1      -1.018   0.348   1.316  1.00  0.00    -0.269 N 
ATOM     12  C   UNL     1      -1.755  -0.807   1.379  1.00  0.00     0.110 A 
ATOM     13  N   UNL     1      -1.783   1.456   1.253  1.00  0.00    -0.164 NA
ATOM     14  C   UNL     1      -3.074  -0.418   1.404  1.00  0.00     0.059 A 
BRANCH  11  15
ATOM     15  C   UNL     1       0.441   0.423   1.300  1.00  0.00     0.101 C 
ATOM     16  C   UNL     1       0.985   0.096  -0.090  1.00  0.00     0.033 C 
ATOM     17  C   UNL     1       1.000   1.758   1.800  1.00  0.00     0.033 C 
ENDBRANCH  11  15
ENDBRANCH   9  10
ENDBRANCH   5   8
ENDBRANCH   3   4
ENDBRANCH   2   3
ENDBRANCH   1   2
BRANCH   1  18
ATOM     18  C   UNL     1      -6.177   7.622  -1.768  1.00  0.00     0.116 C 
BRANCH  18  19
ATOM     19  N   UNL     1      -5.088   8.186  -2.575  1.00  0.00    -0.352 N 
ATOM     20  C   UNL     1      -4.677   9.515  -2.639  1.00  0.00     0.251 C 
ATOM     21  H   UNL     1      -4.590   7.549  -3.136  1.00  0.00     0.163 HD
ATOM     22  O   UNL     1      -4.077   9.933  -3.623  1.00  0.00    -0.269 OA
BRANCH  20  23
ATOM     23  C   UNL     1      -4.947  10.395  -1.480  1.00  0.00     0.039 A 
ATOM     24  C   UNL     1      -5.252  11.757  -1.573  1.00  0.00     0.014 A 
ATOM     25  C   UNL     1      -4.936   9.777  -0.239  1.00  0.00     0.014 A 
ATOM     26  C   UNL     1      -5.538  12.461  -0.394  1.00  0.00     0.010 A 
ATOM     27  C   UNL     1      -5.555  10.379   0.814  1.00  0.00     0.010 A 
ATOM     28  C   UNL     1      -5.668  11.754   0.815  1.00  0.00    -0.014 A 
BRANCH  28  29
ATOM     29  C   UNL     1      -6.160  12.322   2.072  1.00  0.00     0.031 A 
ATOM     30  C   UNL     1      -7.536  12.848   1.888  1.00  0.00     0.074 A 
ATOM     31  C   UNL     1      -5.553  12.130   3.277  1.00  0.00     0.049 A 
ATOM     32  N   UNL     1      -7.867  14.082   1.698  1.00  0.00    -0.248 NA
ATOM     33  C   UNL     1      -8.627  11.902   1.569  1.00  0.00     0.031 C 
ATOM     34  C   UNL     1      -4.312  11.395   3.570  1.00  0.00     0.029 A 
ATOM     35  N   UNL     1      -5.944  12.510   4.536  1.00  0.00    -0.354 N 
ATOM     36  C   UNL     1      -9.254  14.073   1.614  1.00  0.00     0.074 A 
ATOM     37  C   UNL     1      -9.604  12.741   1.217  1.00  0.00     0.031 C 
ATOM     38  C   UNL     1      -4.171  11.212   4.908  1.00  0.00     0.029 A 
ATOM     39  C   UNL     1      -5.225  11.932   5.604  1.00  0.00     0.049 A 
ATOM     40  H   UNL     1      -6.680  13.146   4.685  1.00  0.00     0.167 HD
ATOM     41  C   UNL     1      -9.976  15.034   2.256  1.00  0.00     0.034 A 
ATOM     42  C   UNL     1      -5.448  12.069   6.955  1.00  0.00     0.034 A 
ATOM     43  C   UNL     1      -9.101  16.120   2.655  1.00  0.00     0.049 A 
ATOM     44  C   UNL     1      -6.240  13.315   7.104  1.00  0.00     0.074 A 
ATOM     45  C   UNL     1      -8.274  17.006   1.995  1.00  0.00     0.029 A 
ATOM     46  N   UNL     1      -8.667  16.095   3.962  1.00  0.00    -0.354 N 
ATOM     47  N   UNL     1      -5.760  14.491   6.807  1.00  0.00    -0.248 NA
ATOM     48  C   UNL     1      -7.687  13.197   7.032  1.00  0.00     0.031 C 
ATOM     49  C   UNL     1      -7.117  17.120   2.825  1.00  0.00     0.029 A 
ATOM     50  C   UNL     1      -7.335  16.414   4.011  1.00  0.00     0.049 A 
ATOM     51  H   UNL     1      -9.228  15.881   4.742  1.00  0.00     0.167 HD
ATOM     52  C   UNL     1      -6.761  15.106   6.069  1.00  0.00     0.074 A 
ATOM     53  C   UNL     1      -7.956  14.291   6.311  1.00  0.00     0.031 C 
ATOM     54  C   UNL     1      -6.448  16.012   5.092  1.00  0.00     0.034 A 
BRANCH  41  55
ATOM     55  C   UNL     1     -11.308  14.802   2.953  1.00  0.00     0.023 A 
ATOM     56  C   UNL     1     -11.860  15.904   3.637  1.00  0.00     0.031 A 
ATOM     57  C   UNL     1     -11.906  13.552   3.237  1.00  0.00     0.131 A 
ATOM     58  C   UNL     1     -12.850  15.730   4.619  1.00  0.00     0.055 A 
ATOM     59  C   UNL     1     -12.932  13.392   4.174  1.00  0.00     0.041 A 
ATOM     60  F   UNL     1     -11.494  12.400   2.700  1.00  0.00    -0.206 F 
ATOM     61  C   UNL     1     -13.389  14.478   4.896  1.00  0.00     0.022 A 
BRANCH  58  62
ATOM     62  S   UNL     1     -13.296  17.149   5.650  1.00  0.00     0.124 S 
ATOM     63  O   UNL     1     -12.002  17.522   6.208  1.00  0.00    -0.237 OA
ATOM     64  O   UNL     1     -13.866  18.065   4.667  1.00  0.00    -0.237 OA
ATOM     65  O   UNL     1     -14.250  16.586   6.603  1.00  0.00    -0.744 OA
ENDBRANCH  58  62
ENDBRANCH  41  55
BRANCH  42  66
ATOM     66  C   UNL     1      -5.399  11.019   8.045  1.00  0.00     0.023 A 
ATOM     67  C   UNL     1      -5.327  11.275   9.448  1.00  0.00     0.031 A 
ATOM     68  C   UNL     1      -5.709   9.689   7.684  1.00  0.00     0.131 A 
ATOM     69  C   UNL     1      -5.550  10.227  10.395  1.00  0.00     0.055 A 
ATOM     70  C   UNL     1      -5.944   8.673   8.617  1.00  0.00     0.041 A 
ATOM     71  F   UNL     1      -5.883   9.351   6.397  1.00  0.00    -0.206 F 
ATOM     72  C   UNL     1      -5.871   8.936   9.974  1.00  0.00     0.022 A 
BRANCH  69  73
ATOM     73  S   UNL     1      -5.468  10.500  12.213  1.00  0.00     0.124 S 
ATOM     74  O   UNL     1      -4.097  10.956  12.406  1.00  0.00    -0.237 OA
ATOM     75  O   UNL     1      -6.519  11.485  12.436  1.00  0.00    -0.237 OA
ATOM     76  O   UNL     1      -5.749   9.176  12.774  1.00  0.00    -0.744 OA
ENDBRANCH  69  73
ENDBRANCH  42  66
BRANCH  54  77
ATOM     77  C   UNL     1      -5.029  16.564   5.061  1.00  0.00     0.023 A 
ATOM     78  C   UNL     1      -3.840  15.815   4.875  1.00  0.00     0.031 A 
ATOM     79  C   UNL     1      -4.909  17.962   5.141  1.00  0.00     0.131 A 
ATOM     80  C   UNL     1      -2.595  16.480   4.792  1.00  0.00     0.055 A 
ATOM     81  C   UNL     1      -3.684  18.614   5.027  1.00  0.00     0.041 A 
ATOM     82  F   UNL     1      -6.000  18.728   5.302  1.00  0.00    -0.206 F 
ATOM     83  C   UNL     1      -2.521  17.875   4.859  1.00  0.00     0.022 A 
BRANCH  80  84
ATOM     84  S   UNL     1      -1.031  15.549   4.639  1.00  0.00     0.124 S 
ATOM     85  O   UNL     1      -1.142  14.526   5.671  1.00  0.00    -0.237 OA
ATOM     86  O   UNL     1      -1.077  15.072   3.259  1.00  0.00    -0.237 OA
ATOM     87  O   UNL     1      -0.004  16.562   4.894  1.00  0.00    -0.744 OA
ENDBRANCH  80  84
ENDBRANCH  54  77
ENDBRANCH  28  29
ENDBRANCH  20  23
ENDBRANCH  18  19
ENDBRANCH   1  18
TORSDOF 16
