REMARK SMILES CSCc1ccc(C(=O)N[C@@H](Cc2cnc[nH]2)C(=O)NCCCCNC(=O)c2ccc(-c3c4nc(c(-c5cc(S(=O)(=O)[O-])ccc5F)c5ccc([nH]5)c(-c5cc(S(=O)(=O)[O-])ccc5F)c5nc(c(-c6cc(S(=O)(=O)[O-])ccc6F)c6ccc3[nH]6)C=C5)C=C4)cc2)o1
REMARK SMILES IDX 22 1 21 2 20 3 18 4 19 5 11 7 10 8 8 9 9 10 7 12 4 13 5 14
REMARK SMILES IDX 91 15 6 16 3 17 2 18 1 19 12 20 13 21 14 22 17 23 15 24
REMARK SMILES IDX 16 25 23 27 24 28 25 29 26 30 27 32 28 33 29 34 90 35 30 36
REMARK SMILES IDX 89 37 31 38 32 39 33 40 83 41 34 42 88 43 82 44 84 45 35 46
REMARK SMILES IDX 87 47 81 48 80 49 36 51 68 52 48 53 67 54 49 55 52 56 66 57
REMARK SMILES IDX 85 58 50 59 51 60 65 62 86 63 53 64 37 65 38 66 46 67 39 68
REMARK SMILES IDX 45 69 47 70 44 71 40 72 41 73 42 74 43 75 69 76 70 77 78 78
REMARK SMILES IDX 71 79 77 80 79 81 76 82 72 83 73 84 74 85 75 86 54 87 55 88
REMARK SMILES IDX 63 89 56 90 62 91 64 92 61 93 57 94 58 95 59 96 60 97
REMARK H PARENT 20 6 10 11 17 26 25 31 84 50 52 61
REMARK Flexibility Score: inf
ROOT
ATOM      1  C   UNL     1       0.061  -6.080  -7.025  1.00  0.00     0.023 C 
ENDROOT
BRANCH   1   2
ATOM      2  C   UNL     1      -0.326  -6.808  -5.746  1.00  0.00     0.116 C 
BRANCH   2   3
ATOM      3  N   UNL     1       0.777  -7.065  -4.846  1.00  0.00    -0.354 N 
ATOM      4  C   UNL     1       0.773  -7.220  -3.491  1.00  0.00     0.242 C 
ATOM      5  O   UNL     1       1.736  -7.810  -2.988  1.00  0.00    -0.273 OA
ATOM      6  H   UNL     1       1.660  -7.140  -5.274  1.00  0.00     0.163 HD
BRANCH   4   7
ATOM      7  C   UNL     1      -0.382  -6.744  -2.580  1.00  0.00     0.177 C 
BRANCH   7   8
ATOM      8  N   UNL     1      -0.779  -5.355  -2.803  1.00  0.00    -0.337 N 
ATOM      9  C   UNL     1      -0.544  -4.197  -2.097  1.00  0.00     0.287 C 
ATOM     10  O   UNL     1      -0.899  -3.175  -2.694  1.00  0.00    -0.266 OA
ATOM     11  H   UNL     1      -1.318  -5.221  -3.615  1.00  0.00     0.164 HD
BRANCH   9  12
ATOM     12  C   UNL     1       0.036  -4.154  -0.760  1.00  0.00     0.191 A 
ATOM     13  C   UNL     1       0.725  -2.997   1.022  1.00  0.00     0.114 A 
ATOM     14  C   UNL     1       0.910  -4.325   1.324  1.00  0.00     0.047 A 
ATOM     15  O   UNL     1       0.214  -2.890  -0.235  1.00  0.00    -0.455 OA
ATOM     16  C   UNL     1       0.465  -5.061   0.196  1.00  0.00     0.056 A 
BRANCH  13  17
ATOM     17  C   UNL     1       1.017  -1.760   1.798  1.00  0.00     0.144 C 
BRANCH  17  18
ATOM     18  S   UNL     1       0.054  -0.288   1.353  1.00  0.00    -0.157 SA
ATOM     19  C   UNL     1       0.924   0.176  -0.167  1.00  0.00     0.085 C 
ENDBRANCH  17  18
ENDBRANCH  13  17
ENDBRANCH   9  12
ENDBRANCH   7   8
BRANCH   7  20
ATOM     20  C   UNL     1      -1.566  -7.710  -2.399  1.00  0.00     0.090 C 
BRANCH  20  21
ATOM     21  C   UNL     1      -2.345  -8.085  -3.610  1.00  0.00     0.037 A 
ATOM     22  C   UNL     1      -2.353  -9.250  -4.350  1.00  0.00     0.134 A 
ATOM     23  N   UNL     1      -3.308  -7.298  -4.198  1.00  0.00    -0.348 N 
ATOM     24  N   UNL     1      -3.207  -9.145  -5.413  1.00  0.00    -0.245 NA
ATOM     25  C   UNL     1      -3.768  -7.964  -5.300  1.00  0.00     0.196 A 
ATOM     26  H   UNL     1      -3.610  -6.415  -3.884  1.00  0.00     0.167 HD
ENDBRANCH  20  21
ENDBRANCH   7  20
ENDBRANCH   4   7
ENDBRANCH   2   3
ENDBRANCH   1   2
BRANCH   1  27
ATOM     27  C   UNL     1       0.904  -6.891  -8.006  1.00  0.00     0.023 C 
BRANCH  27  28
ATOM     28  C   UNL     1       0.396  -8.294  -8.330  1.00  0.00     0.116 C 
BRANCH  28  29
ATOM     29  N   UNL     1      -0.972  -8.325  -8.830  1.00  0.00    -0.352 N 
ATOM     30  C   UNL     1      -1.461  -8.845 -10.011  1.00  0.00     0.251 C 
ATOM     31  H   UNL     1      -1.645  -7.916  -8.241  1.00  0.00     0.163 HD
ATOM     32  O   UNL     1      -2.629  -8.670 -10.326  1.00  0.00    -0.269 OA
BRANCH  30  33
ATOM     33  C   UNL     1      -0.542  -9.579 -10.909  1.00  0.00     0.039 A 
ATOM     34  C   UNL     1      -0.475  -9.217 -12.256  1.00  0.00     0.014 A 
ATOM     35  C   UNL     1       0.299 -10.573 -10.403  1.00  0.00     0.014 A 
ATOM     36  C   UNL     1       0.516  -9.771 -13.069  1.00  0.00     0.010 A 
ATOM     37  C   UNL     1       1.336 -11.062 -11.191  1.00  0.00     0.010 A 
ATOM     38  C   UNL     1       1.469 -10.650 -12.527  1.00  0.00    -0.014 A 
BRANCH  38  39
ATOM     39  C   UNL     1       2.635 -11.120 -13.322  1.00  0.00     0.031 A 
ATOM     40  C   UNL     1       2.822 -12.587 -13.592  1.00  0.00     0.074 A 
ATOM     41  C   UNL     1       3.573 -10.234 -13.716  1.00  0.00     0.049 A 
ATOM     42  N   UNL     1       3.827 -13.203 -14.161  1.00  0.00    -0.248 NA
ATOM     43  C   UNL     1       1.751 -13.482 -13.129  1.00  0.00     0.031 C 
ATOM     44  C   UNL     1       3.532  -8.791 -13.467  1.00  0.00     0.029 A 
ATOM     45  N   UNL     1       4.752 -10.417 -14.395  1.00  0.00    -0.354 N 
ATOM     46  C   UNL     1       3.519 -14.558 -14.108  1.00  0.00     0.074 A 
ATOM     47  C   UNL     1       2.263 -14.674 -13.397  1.00  0.00     0.031 C 
ATOM     48  C   UNL     1       4.621  -8.219 -14.006  1.00  0.00     0.029 A 
ATOM     49  C   UNL     1       5.462  -9.255 -14.596  1.00  0.00     0.049 A 
ATOM     50  H   UNL     1       5.061 -11.297 -14.710  1.00  0.00     0.167 HD
ATOM     51  C   UNL     1       4.208 -15.606 -14.624  1.00  0.00     0.034 A 
ATOM     52  C   UNL     1       6.660  -9.048 -15.176  1.00  0.00     0.034 A 
ATOM     53  C   UNL     1       5.450 -15.473 -15.346  1.00  0.00     0.049 A 
ATOM     54  C   UNL     1       7.414 -10.229 -15.732  1.00  0.00     0.074 A 
ATOM     55  C   UNL     1       6.198 -16.459 -15.966  1.00  0.00     0.029 A 
ATOM     56  N   UNL     1       6.132 -14.279 -15.540  1.00  0.00    -0.354 N 
ATOM     57  N   UNL     1       7.084 -11.500 -15.718  1.00  0.00    -0.248 NA
ATOM     58  C   UNL     1       8.697  -9.946 -16.388  1.00  0.00     0.031 C 
ATOM     59  C   UNL     1       7.359 -15.872 -16.482  1.00  0.00     0.029 A 
ATOM     60  C   UNL     1       7.304 -14.508 -16.245  1.00  0.00     0.049 A 
ATOM     61  H   UNL     1       5.828 -13.398 -15.224  1.00  0.00     0.167 HD
ATOM     62  C   UNL     1       8.108 -12.164 -16.387  1.00  0.00     0.074 A 
ATOM     63  C   UNL     1       9.058 -11.152 -16.802  1.00  0.00     0.031 C 
ATOM     64  C   UNL     1       8.249 -13.490 -16.640  1.00  0.00     0.034 A 
BRANCH  51  65
ATOM     65  C   UNL     1       3.635 -16.986 -14.403  1.00  0.00     0.023 A 
ATOM     66  C   UNL     1       2.386 -17.358 -14.933  1.00  0.00     0.031 A 
ATOM     67  C   UNL     1       4.327 -17.931 -13.626  1.00  0.00     0.131 A 
ATOM     68  C   UNL     1       1.832 -18.605 -14.611  1.00  0.00     0.055 A 
ATOM     69  C   UNL     1       3.807 -19.203 -13.377  1.00  0.00     0.041 A 
ATOM     70  F   UNL     1       5.515 -17.628 -13.079  1.00  0.00    -0.206 F 
ATOM     71  C   UNL     1       2.544 -19.540 -13.857  1.00  0.00     0.022 A 
BRANCH  68  72
ATOM     72  S   UNL     1       0.108 -18.929 -15.070  1.00  0.00     0.124 S 
ATOM     73  O   UNL     1      -0.591 -17.859 -14.361  1.00  0.00    -0.237 OA
ATOM     74  O   UNL     1       0.141 -18.817 -16.523  1.00  0.00    -0.237 OA
ATOM     75  O   UNL     1      -0.138 -20.273 -14.552  1.00  0.00    -0.744 OA
ENDBRANCH  68  72
ENDBRANCH  51  65
BRANCH  52  76
ATOM     76  C   UNL     1       7.235  -7.675 -15.256  1.00  0.00     0.023 A 
ATOM     77  C   UNL     1       7.416  -7.040 -16.495  1.00  0.00     0.031 A 
ATOM     78  C   UNL     1       7.650  -6.993 -14.099  1.00  0.00     0.131 A 
ATOM     79  C   UNL     1       8.036  -5.782 -16.553  1.00  0.00     0.055 A 
ATOM     80  C   UNL     1       8.222  -5.721 -14.158  1.00  0.00     0.041 A 
ATOM     81  F   UNL     1       7.493  -7.553 -12.888  1.00  0.00    -0.206 F 
ATOM     82  C   UNL     1       8.430  -5.114 -15.392  1.00  0.00     0.022 A 
BRANCH  79  83
ATOM     83  S   UNL     1       8.390  -5.064 -18.181  1.00  0.00     0.124 S 
ATOM     84  O   UNL     1       9.231  -6.091 -18.783  1.00  0.00    -0.237 OA
ATOM     85  O   UNL     1       7.052  -4.917 -18.744  1.00  0.00    -0.237 OA
ATOM     86  O   UNL     1       9.069  -3.810 -17.858  1.00  0.00    -0.744 OA
ENDBRANCH  79  83
ENDBRANCH  52  76
BRANCH  64  87
ATOM     87  C   UNL     1       9.458 -13.908 -17.437  1.00  0.00     0.023 A 
ATOM     88  C   UNL     1      10.758 -13.820 -16.909  1.00  0.00     0.031 A 
ATOM     89  C   UNL     1       9.306 -14.390 -18.749  1.00  0.00     0.131 A 
ATOM     90  C   UNL     1      11.860 -14.162 -17.708  1.00  0.00     0.055 A 
ATOM     91  C   UNL     1      10.402 -14.780 -19.520  1.00  0.00     0.041 A 
ATOM     92  F   UNL     1       8.086 -14.491 -19.302  1.00  0.00    -0.206 F 
ATOM     93  C   UNL     1      11.688 -14.656 -19.004  1.00  0.00     0.022 A 
BRANCH  90  94
ATOM     94  S   UNL     1      13.529 -13.879 -17.057  1.00  0.00     0.124 S 
ATOM     95  O   UNL     1      13.523 -12.439 -16.820  1.00  0.00    -0.237 OA
ATOM     96  O   UNL     1      13.547 -14.721 -15.865  1.00  0.00    -0.237 OA
ATOM     97  O   UNL     1      14.401 -14.326 -18.142  1.00  0.00    -0.744 OA
ENDBRANCH  90  94
ENDBRANCH  64  87
ENDBRANCH  38  39
ENDBRANCH  30  33
ENDBRANCH  28  29
ENDBRANCH  27  28
ENDBRANCH   1  27
TORSDOF 20
