REMARK SMILES COc1cccc(C(=O)N2[C@@H](C(=O)NCCCCNC(=O)c3ccc(-c4c5nc(c(-c6cc(S(=O)(=O)[O-])ccc6F)c6ccc([nH]6)c(-c6cc(S(=O)(=O)[O-])ccc6F)c6nc(c(-c7cc(S(=O)(=O)[O-])ccc7F)c7ccc4[nH]7)C=C6)C=C5)cc3)CS[C@@H]2c2ccccc2Cl)c1
REMARK SMILES IDX 16 1 15 2 14 3 12 4 13 5 11 7 10 8 87 9 85 10 86 11 8 12
REMARK SMILES IDX 9 13 7 14 3 15 4 16 95 17 5 18 6 19 2 20 1 21 88 22 89 23
REMARK SMILES IDX 93 24 90 25 92 26 94 27 91 28 17 29 18 30 19 31 20 32 21 34
REMARK SMILES IDX 22 35 23 36 84 37 24 38 83 39 25 40 26 41 27 42 77 43 28 44
REMARK SMILES IDX 82 45 76 46 78 47 29 48 81 49 75 50 74 51 30 53 62 54 42 55
REMARK SMILES IDX 61 56 43 57 46 58 60 59 79 60 44 61 45 62 59 64 80 65 47 66
REMARK SMILES IDX 31 67 32 68 40 69 33 70 39 71 41 72 38 73 34 74 35 75 36 76
REMARK SMILES IDX 37 77 63 78 64 79 72 80 65 81 71 82 73 83 70 84 66 85 67 86
REMARK SMILES IDX 68 87 69 88 48 89 49 90 57 91 50 92 56 93 58 94 55 95 51 96
REMARK SMILES IDX 52 97 53 98 54 99
REMARK H PARENT 14 6 19 33 78 52 46 63
REMARK Flexibility Score: inf
ROOT
ATOM      1  C   UNL     1       3.081  -1.853   2.549  1.00  0.00     0.023 C 
ENDROOT
BRANCH   1   2
ATOM      2  C   UNL     1       2.988  -0.404   3.017  1.00  0.00     0.116 C 
BRANCH   2   3
ATOM      3  N   UNL     1       3.722  -0.184   4.240  1.00  0.00    -0.354 N 
ATOM      4  C   UNL     1       4.910   0.447   4.462  1.00  0.00     0.243 C 
ATOM      5  O   UNL     1       5.445   0.240   5.559  1.00  0.00    -0.273 OA
ATOM      6  H   UNL     1       3.295  -0.550   5.048  1.00  0.00     0.163 HD
BRANCH   4   7
ATOM      7  C   UNL     1       5.696   1.204   3.361  1.00  0.00     0.186 C 
ATOM      8  N   UNL     1       4.945   2.094   2.449  1.00  0.00    -0.310 N 
ATOM      9  C   UNL     1       5.463   2.138   1.086  1.00  0.00     0.176 C 
ATOM     10  C   UNL     1       6.454   0.161   2.529  1.00  0.00     0.107 C 
ATOM     11  S   UNL     1       5.838   0.341   0.830  1.00  0.00    -0.129 SA
BRANCH   8  12
ATOM     12  C   UNL     1       3.987   2.930   3.010  1.00  0.00     0.255 C 
ATOM     13  O   UNL     1       4.063   3.268   4.192  1.00  0.00    -0.269 OA
BRANCH  12  14
ATOM     14  C   UNL     1       2.714   3.259   2.286  1.00  0.00     0.043 A 
ATOM     15  C   UNL     1       0.917   2.714   0.738  1.00  0.00     0.119 A 
ATOM     16  C   UNL     1       0.107   3.688   1.314  1.00  0.00     0.046 A 
ATOM     17  C   UNL     1       2.217   2.508   1.211  1.00  0.00     0.060 A 
ATOM     18  C   UNL     1       0.580   4.438   2.387  1.00  0.00     0.005 A 
ATOM     19  C   UNL     1       1.874   4.223   2.870  1.00  0.00     0.014 A 
BRANCH  15  20
ATOM     20  O   UNL     1       0.374   2.016  -0.307  1.00  0.00    -0.497 OA
ATOM     21  C   UNL     1       0.592   0.607  -0.242  1.00  0.00     0.278 C 
ENDBRANCH  15  20
ENDBRANCH  12  14
ENDBRANCH   8  12
BRANCH   9  22
ATOM     22  C   UNL     1       6.735   2.942   0.760  1.00  0.00     0.003 A 
ATOM     23  C   UNL     1       7.284   2.727  -0.538  1.00  0.00     0.008 A 
ATOM     24  C   UNL     1       7.427   3.853   1.573  1.00  0.00     0.047 A 
ATOM     25  C   UNL     1       8.503   3.274  -0.946  1.00  0.00     0.001 A 
ATOM     26  C   UNL     1       8.661   4.394   1.162  1.00  0.00     0.021 A 
ATOM     27  Cl  UNL     1       6.862   4.452   3.084  1.00  0.00    -0.084 Cl
ATOM     28  C   UNL     1       9.208   4.091  -0.081  1.00  0.00     0.002 A 
ENDBRANCH   9  22
ENDBRANCH   4   7
ENDBRANCH   2   3
ENDBRANCH   1   2
BRANCH   1  29
ATOM     29  C   UNL     1       2.200  -2.832   3.328  1.00  0.00     0.023 C 
BRANCH  29  30
ATOM     30  C   UNL     1       0.704  -2.530   3.294  1.00  0.00     0.116 C 
BRANCH  30  31
ATOM     31  N   UNL     1       0.160  -2.443   1.948  1.00  0.00    -0.352 N 
ATOM     32  C   UNL     1      -1.140  -2.626   1.539  1.00  0.00     0.251 C 
ATOM     33  H   UNL     1       0.806  -2.224   1.238  1.00  0.00     0.163 HD
ATOM     34  O   UNL     1      -1.416  -2.558   0.344  1.00  0.00    -0.269 OA
BRANCH  32  35
ATOM     35  C   UNL     1      -2.173  -2.976   2.538  1.00  0.00     0.039 A 
ATOM     36  C   UNL     1      -2.963  -4.106   2.311  1.00  0.00     0.014 A 
ATOM     37  C   UNL     1      -2.316  -2.240   3.717  1.00  0.00     0.014 A 
ATOM     38  C   UNL     1      -3.836  -4.550   3.306  1.00  0.00     0.010 A 
ATOM     39  C   UNL     1      -3.143  -2.718   4.732  1.00  0.00     0.010 A 
ATOM     40  C   UNL     1      -3.899  -3.885   4.542  1.00  0.00    -0.014 A 
BRANCH  40  41
ATOM     41  C   UNL     1      -4.735  -4.411   5.651  1.00  0.00     0.031 A 
ATOM     42  C   UNL     1      -5.923  -3.630   6.136  1.00  0.00     0.074 A 
ATOM     43  C   UNL     1      -4.382  -5.560   6.260  1.00  0.00     0.049 A 
ATOM     44  N   UNL     1      -6.737  -3.891   7.127  1.00  0.00    -0.248 NA
ATOM     45  C   UNL     1      -6.215  -2.375   5.430  1.00  0.00     0.031 C 
ATOM     46  C   UNL     1      -3.220  -6.380   5.910  1.00  0.00     0.029 A 
ATOM     47  N   UNL     1      -4.958  -6.234   7.307  1.00  0.00    -0.354 N 
ATOM     48  C   UNL     1      -7.634  -2.829   7.170  1.00  0.00     0.074 A 
ATOM     49  C   UNL     1      -7.222  -1.894   6.143  1.00  0.00     0.031 C 
ATOM     50  C   UNL     1      -3.182  -7.456   6.713  1.00  0.00     0.029 A 
ATOM     51  C   UNL     1      -4.293  -7.387   7.657  1.00  0.00     0.049 A 
ATOM     52  H   UNL     1      -5.771  -5.922   7.766  1.00  0.00     0.167 HD
ATOM     53  C   UNL     1      -8.712  -2.660   7.975  1.00  0.00     0.034 A 
ATOM     54  C   UNL     1      -4.548  -8.283   8.630  1.00  0.00     0.034 A 
ATOM     55  C   UNL     1      -9.111  -3.604   8.991  1.00  0.00     0.049 A 
ATOM     56  C   UNL     1      -5.750  -8.075   9.514  1.00  0.00     0.074 A 
ATOM     57  C   UNL     1     -10.204  -3.552   9.839  1.00  0.00     0.029 A 
ATOM     58  N   UNL     1      -8.427  -4.773   9.300  1.00  0.00    -0.354 N 
ATOM     59  N   UNL     1      -6.616  -7.088   9.511  1.00  0.00    -0.248 NA
ATOM     60  C   UNL     1      -6.018  -9.111  10.520  1.00  0.00     0.031 C 
ATOM     61  C   UNL     1     -10.154  -4.662  10.692  1.00  0.00     0.029 A 
ATOM     62  C   UNL     1      -9.064  -5.440  10.336  1.00  0.00     0.049 A 
ATOM     63  H   UNL     1      -7.609  -5.083   8.850  1.00  0.00     0.167 HD
ATOM     64  C   UNL     1      -7.548  -7.401  10.496  1.00  0.00     0.074 A 
ATOM     65  C   UNL     1      -7.145  -8.671  11.062  1.00  0.00     0.031 C 
ATOM     66  C   UNL     1      -8.643  -6.704  10.892  1.00  0.00     0.034 A 
BRANCH  53  67
ATOM     67  C   UNL     1      -9.512  -1.393   7.794  1.00  0.00     0.023 A 
ATOM     68  C   UNL     1     -10.184  -1.116   6.590  1.00  0.00     0.031 A 
ATOM     69  C   UNL     1      -9.564  -0.427   8.813  1.00  0.00     0.131 A 
ATOM     70  C   UNL     1     -10.803   0.128   6.403  1.00  0.00     0.055 A 
ATOM     71  C   UNL     1     -10.254   0.777   8.651  1.00  0.00     0.041 A 
ATOM     72  F   UNL     1      -8.927  -0.626   9.977  1.00  0.00    -0.206 F 
ATOM     73  C   UNL     1     -10.864   1.068   7.434  1.00  0.00     0.022 A 
BRANCH  70  74
ATOM     74  S   UNL     1     -11.395   0.558   4.743  1.00  0.00     0.124 S 
ATOM     75  O   UNL     1     -10.161   0.486   3.963  1.00  0.00    -0.237 OA
ATOM     76  O   UNL     1     -12.379  -0.484   4.478  1.00  0.00    -0.237 OA
ATOM     77  O   UNL     1     -11.940   1.904   4.911  1.00  0.00    -0.744 OA
ENDBRANCH  70  74
ENDBRANCH  53  67
BRANCH  54  78
ATOM     78  C   UNL     1      -3.657  -9.461   8.824  1.00  0.00     0.023 A 
ATOM     79  C   UNL     1      -4.117 -10.763   8.573  1.00  0.00     0.031 A 
ATOM     80  C   UNL     1      -2.344  -9.304   9.301  1.00  0.00     0.131 A 
ATOM     81  C   UNL     1      -3.288 -11.862   8.842  1.00  0.00     0.055 A 
ATOM     82  C   UNL     1      -1.507 -10.398   9.526  1.00  0.00     0.041 A 
ATOM     83  F   UNL     1      -1.853  -8.079   9.547  1.00  0.00    -0.206 F 
ATOM     84  C   UNL     1      -1.982 -11.688   9.308  1.00  0.00     0.022 A 
BRANCH  81  85
ATOM     85  S   UNL     1      -3.967 -13.532   8.643  1.00  0.00     0.124 S 
ATOM     86  O   UNL     1      -5.115 -13.496   9.543  1.00  0.00    -0.237 OA
ATOM     87  O   UNL     1      -4.270 -13.566   7.216  1.00  0.00    -0.237 OA
ATOM     88  O   UNL     1      -2.869 -14.398   9.066  1.00  0.00    -0.744 OA
ENDBRANCH  81  85
ENDBRANCH  54  78
BRANCH  66  89
ATOM     89  C   UNL     1      -9.503  -7.337  11.956  1.00  0.00     0.023 A 
ATOM     90  C   UNL     1      -9.059  -7.471  13.283  1.00  0.00     0.031 A 
ATOM     91  C   UNL     1     -10.778  -7.829  11.629  1.00  0.00     0.131 A 
ATOM     92  C   UNL     1      -9.864  -8.130  14.224  1.00  0.00     0.055 A 
ATOM     93  C   UNL     1     -11.596  -8.438  12.581  1.00  0.00     0.041 A 
ATOM     94  F   UNL     1     -11.249  -7.726  10.376  1.00  0.00    -0.206 F 
ATOM     95  C   UNL     1     -11.135  -8.602  13.884  1.00  0.00     0.022 A 
BRANCH  92  96
ATOM     96  S   UNL     1      -9.195  -8.436  15.882  1.00  0.00     0.124 S 
ATOM     97  O   UNL     1      -8.003  -9.225  15.588  1.00  0.00    -0.237 OA
ATOM     98  O   UNL     1      -8.958  -7.084  16.377  1.00  0.00    -0.237 OA
ATOM     99  O   UNL     1     -10.269  -9.163  16.557  1.00  0.00    -0.744 OA
ENDBRANCH  92  96
ENDBRANCH  66  89
ENDBRANCH  40  41
ENDBRANCH  32  35
ENDBRANCH  30  31
ENDBRANCH  29  30
ENDBRANCH   1  29
TORSDOF 18
