REMARK SMILES Nc1c(N2CCC(C(=O)NCCCCNC(=O)c3ccc(-c4c5nc(c(-c6cc(S(=O)(=O)[O-])ccc6F)c6ccc([nH]6)c(-c6cc(S(=O)(=O)[O-])ccc6F)c6nc(c(-c7cc(S(=O)(=O)[O-])ccc7F)c7ccc4[nH]7)C=C6)C=C5)cc3)CC2)ncnc1N1CCN(c2ccccc2)CC1
REMARK SMILES IDX 12 1 11 2 10 3 8 4 9 5 7 7 4 8 5 9 82 10 6 11 81 12 3 13
REMARK SMILES IDX 2 14 86 15 83 16 85 17 84 18 1 19 87 22 88 23 98 24 89 25
REMARK SMILES IDX 97 26 90 27 91 28 92 29 96 30 93 31 95 32 94 33 13 34 14 35
REMARK SMILES IDX 15 36 16 37 17 39 18 40 19 41 80 42 20 43 79 44 21 45 22 46
REMARK SMILES IDX 23 47 73 48 24 49 78 50 72 51 74 52 25 53 77 54 71 55 70 56
REMARK SMILES IDX 26 58 58 59 38 60 57 61 39 62 42 63 56 64 75 65 40 66 41 67
REMARK SMILES IDX 55 69 76 70 43 71 27 72 28 73 36 74 29 75 35 76 37 77 34 78
REMARK SMILES IDX 30 79 31 80 32 81 33 82 59 83 60 84 68 85 61 86 67 87 69 88
REMARK SMILES IDX 66 89 62 90 63 91 64 92 65 93 44 94 45 95 53 96 46 97 52 98
REMARK SMILES IDX 54 99 51 100 47 101 48 102 49 103 50 104
REMARK H PARENT 10 6 1 20 1 21 15 38 74 57 42 68
REMARK Flexibility Score: inf
ROOT
ATOM      1  C   UNL     1      -4.248   1.792   5.084  1.00  0.00     0.023 C 
ENDROOT
BRANCH   1   2
ATOM      2  C   UNL     1      -2.976   0.985   5.331  1.00  0.00     0.116 C 
BRANCH   2   3
ATOM      3  N   UNL     1      -3.268  -0.354   5.823  1.00  0.00    -0.356 N 
ATOM      4  C   UNL     1      -3.062  -1.573   5.253  1.00  0.00     0.223 C 
ATOM      5  O   UNL     1      -3.404  -2.578   5.881  1.00  0.00    -0.275 OA
ATOM      6  H   UNL     1      -3.682  -0.382   6.715  1.00  0.00     0.163 HD
BRANCH   4   7
ATOM      7  C   UNL     1      -2.400  -1.712   3.892  1.00  0.00     0.082 C 
ATOM      8  N   UNL     1      -1.174  -0.353   1.748  1.00  0.00    -0.355 N 
ATOM      9  C   UNL     1      -2.502  -0.853   1.480  1.00  0.00     0.119 C 
ATOM     10  C   UNL     1      -0.292  -1.111   2.613  1.00  0.00     0.119 C 
ATOM     11  C   UNL     1      -3.251  -1.072   2.783  1.00  0.00     0.035 C 
ATOM     12  C   UNL     1      -0.933  -1.265   3.978  1.00  0.00     0.035 C 
BRANCH   8  13
ATOM     13  C   UNL     1      -0.747   0.819   1.152  1.00  0.00     0.157 A 
ATOM     14  C   UNL     1       0.385   0.815   0.331  1.00  0.00     0.118 A 
ATOM     15  C   UNL     1       0.815   2.059  -0.154  1.00  0.00     0.157 A 
ATOM     16  N   UNL     1      -1.411   1.953   1.437  1.00  0.00    -0.217 NA
ATOM     17  N   UNL     1       0.211   3.209   0.181  1.00  0.00    -0.217 NA
ATOM     18  C   UNL     1      -0.886   3.088   0.944  1.00  0.00     0.226 A 
BRANCH  14  19
ATOM     19  N   UNL     1       1.014  -0.379  -0.076  1.00  0.00    -0.393 N 
ATOM     20  H   UNL     1       0.701  -1.244   0.273  1.00  0.00     0.156 HD
ATOM     21  H   UNL     1       1.767  -0.347  -0.710  1.00  0.00     0.156 HD
ENDBRANCH  14  19
BRANCH  15  22
ATOM     22  N   UNL     1       1.932   2.086  -0.969  1.00  0.00    -0.351 N 
ATOM     23  C   UNL     1       2.971   3.090  -0.765  1.00  0.00     0.139 C 
ATOM     24  C   UNL     1       1.803   1.590  -2.343  1.00  0.00     0.139 C 
ATOM     25  C   UNL     1       4.333   2.459  -1.160  1.00  0.00     0.138 C 
ATOM     26  C   UNL     1       3.142   0.959  -2.777  1.00  0.00     0.138 C 
ATOM     27  N   UNL     1       4.267   1.883  -2.520  1.00  0.00    -0.368 N 
BRANCH  27  28
ATOM     28  C   UNL     1       5.416   1.705  -3.269  1.00  0.00     0.037 A 
ATOM     29  C   UNL     1       6.648   1.357  -2.704  1.00  0.00     0.026 A 
ATOM     30  C   UNL     1       5.365   1.900  -4.657  1.00  0.00     0.026 A 
ATOM     31  C   UNL     1       7.791   1.215  -3.499  1.00  0.00     0.002 A 
ATOM     32  C   UNL     1       6.503   1.774  -5.454  1.00  0.00     0.002 A 
ATOM     33  C   UNL     1       7.719   1.431  -4.873  1.00  0.00     0.000 A 
ENDBRANCH  27  28
ENDBRANCH  15  22
ENDBRANCH   8  13
ENDBRANCH   4   7
ENDBRANCH   2   3
ENDBRANCH   1   2
BRANCH   1  34
ATOM     34  C   UNL     1      -5.039   2.133   6.344  1.00  0.00     0.023 C 
BRANCH  34  35
ATOM     35  C   UNL     1      -4.243   2.840   7.434  1.00  0.00     0.116 C 
BRANCH  35  36
ATOM     36  N   UNL     1      -3.614   4.068   6.971  1.00  0.00    -0.352 N 
ATOM     37  C   UNL     1      -3.622   5.311   7.554  1.00  0.00     0.251 C 
ATOM     38  H   UNL     1      -3.116   3.998   6.125  1.00  0.00     0.163 HD
ATOM     39  O   UNL     1      -3.149   6.274   6.958  1.00  0.00    -0.269 OA
BRANCH  37  40
ATOM     40  C   UNL     1      -4.237   5.479   8.886  1.00  0.00     0.039 A 
ATOM     41  C   UNL     1      -5.180   6.492   9.071  1.00  0.00     0.014 A 
ATOM     42  C   UNL     1      -3.913   4.611   9.933  1.00  0.00     0.014 A 
ATOM     43  C   UNL     1      -5.853   6.590  10.290  1.00  0.00     0.010 A 
ATOM     44  C   UNL     1      -4.631   4.669  11.124  1.00  0.00     0.010 A 
ATOM     45  C   UNL     1      -5.610   5.657  11.312  1.00  0.00    -0.014 A 
BRANCH  45  46
ATOM     46  C   UNL     1      -6.361   5.708  12.590  1.00  0.00     0.031 A 
ATOM     47  C   UNL     1      -5.640   6.035  13.867  1.00  0.00     0.074 A 
ATOM     48  C   UNL     1      -7.678   5.422  12.605  1.00  0.00     0.049 A 
ATOM     49  N   UNL     1      -6.098   6.054  15.092  1.00  0.00    -0.248 NA
ATOM     50  C   UNL     1      -4.210   6.361  13.753  1.00  0.00     0.031 C 
ATOM     51  C   UNL     1      -8.481   5.071  11.431  1.00  0.00     0.029 A 
ATOM     52  N   UNL     1      -8.574   5.384  13.642  1.00  0.00    -0.354 N 
ATOM     53  C   UNL     1      -5.014   6.388  15.894  1.00  0.00     0.074 A 
ATOM     54  C   UNL     1      -3.864   6.508  15.023  1.00  0.00     0.031 C 
ATOM     55  C   UNL     1      -9.757   4.891  11.810  1.00  0.00     0.029 A 
ATOM     56  C   UNL     1      -9.857   5.071  13.255  1.00  0.00     0.049 A 
ATOM     57  H   UNL     1      -8.323   5.565  14.577  1.00  0.00     0.167 HD
ATOM     58  C   UNL     1      -4.985   6.601  17.232  1.00  0.00     0.034 A 
ATOM     59  C   UNL     1     -10.983   4.941  13.983  1.00  0.00     0.034 A 
ATOM     60  C   UNL     1      -6.139   6.500  18.088  1.00  0.00     0.049 A 
ATOM     61  C   UNL     1     -10.918   5.148  15.473  1.00  0.00     0.074 A 
ATOM     62  C   UNL     1      -6.222   6.724  19.451  1.00  0.00     0.029 A 
ATOM     63  N   UNL     1      -7.412   6.150  17.662  1.00  0.00    -0.354 N 
ATOM     64  N   UNL     1      -9.882   5.455  16.217  1.00  0.00    -0.248 NA
ATOM     65  C   UNL     1     -12.173   4.987  16.221  1.00  0.00     0.031 C 
ATOM     66  C   UNL     1      -7.536   6.465  19.857  1.00  0.00     0.029 A 
ATOM     67  C   UNL     1      -8.284   6.134  18.738  1.00  0.00     0.049 A 
ATOM     68  H   UNL     1      -7.660   5.943  16.732  1.00  0.00     0.167 HD
ATOM     69  C   UNL     1     -10.364   5.541  17.519  1.00  0.00     0.074 A 
ATOM     70  C   UNL     1     -11.783   5.260  17.459  1.00  0.00     0.031 C 
ATOM     71  C   UNL     1      -9.692   5.833  18.661  1.00  0.00     0.034 A 
BRANCH  58  72
ATOM     72  C   UNL     1      -3.657   6.955  17.846  1.00  0.00     0.023 A 
ATOM     73  C   UNL     1      -3.030   8.182  17.571  1.00  0.00     0.031 A 
ATOM     74  C   UNL     1      -3.009   6.058  18.712  1.00  0.00     0.131 A 
ATOM     75  C   UNL     1      -1.766   8.457  18.113  1.00  0.00     0.055 A 
ATOM     76  C   UNL     1      -1.782   6.364  19.301  1.00  0.00     0.041 A 
ATOM     77  F   UNL     1      -3.557   4.864  18.992  1.00  0.00    -0.206 F 
ATOM     78  C   UNL     1      -1.149   7.566  18.995  1.00  0.00     0.022 A 
BRANCH  75  79
ATOM     79  S   UNL     1      -0.899   9.957  17.581  1.00  0.00     0.124 S 
ATOM     80  O   UNL     1      -0.647   9.664  16.172  1.00  0.00    -0.237 OA
ATOM     81  O   UNL     1      -1.878  11.004  17.850  1.00  0.00    -0.237 OA
ATOM     82  O   UNL     1       0.290   9.984  18.430  1.00  0.00    -0.744 OA
ENDBRANCH  75  79
ENDBRANCH  58  72
BRANCH  59  83
ATOM     83  C   UNL     1     -12.268   4.595  13.318  1.00  0.00     0.023 A 
ATOM     84  C   UNL     1     -13.300   5.540  13.215  1.00  0.00     0.031 A 
ATOM     85  C   UNL     1     -12.484   3.314  12.782  1.00  0.00     0.131 A 
ATOM     86  C   UNL     1     -14.515   5.183  12.612  1.00  0.00     0.055 A 
ATOM     87  C   UNL     1     -13.682   2.974  12.152  1.00  0.00     0.041 A 
ATOM     88  F   UNL     1     -11.522   2.380  12.848  1.00  0.00    -0.206 F 
ATOM     89  C   UNL     1     -14.709   3.909  12.070  1.00  0.00     0.022 A 
BRANCH  86  90
ATOM     90  S   UNL     1     -15.857   6.402  12.567  1.00  0.00     0.124 S 
ATOM     91  O   UNL     1     -16.150   6.573  13.985  1.00  0.00    -0.237 OA
ATOM     92  O   UNL     1     -15.220   7.534  11.901  1.00  0.00    -0.237 OA
ATOM     93  O   UNL     1     -16.898   5.733  11.789  1.00  0.00    -0.744 OA
ENDBRANCH  86  90
ENDBRANCH  59  83
BRANCH  71  94
ATOM     94  C   UNL     1     -10.490   5.886  19.934  1.00  0.00     0.023 A 
ATOM     95  C   UNL     1     -10.957   4.716  20.554  1.00  0.00     0.031 A 
ATOM     96  C   UNL     1     -10.751   7.121  20.553  1.00  0.00     0.131 A 
ATOM     97  C   UNL     1     -11.687   4.806  21.748  1.00  0.00     0.055 A 
ATOM     98  C   UNL     1     -11.441   7.202  21.762  1.00  0.00     0.041 A 
ATOM     99  F   UNL     1     -10.321   8.266  19.999  1.00  0.00    -0.206 F 
ATOM    100  C   UNL     1     -11.918   6.040  22.364  1.00  0.00     0.022 A 
BRANCH  97 101
ATOM    101  S   UNL     1     -12.356   3.288  22.480  1.00  0.00     0.124 S 
ATOM    102  O   UNL     1     -13.338   2.879  21.481  1.00  0.00    -0.237 OA
ATOM    103  O   UNL     1     -11.172   2.442  22.593  1.00  0.00    -0.237 OA
ATOM    104  O   UNL     1     -12.916   3.739  23.753  1.00  0.00    -0.744 OA
ENDBRANCH  97 101
ENDBRANCH  71  94
ENDBRANCH  45  46
ENDBRANCH  37  40
ENDBRANCH  35  36
ENDBRANCH  34  35
ENDBRANCH   1  34
TORSDOF 18
