REMARK SMILES CCCCCCNC(=O)Oc1cccc(-c2ccc([C@@H](C)C(=O)NCCCCNC(=O)c3ccc(-c4c5nc(c(-c6cc(S(=O)(=O)[O-])ccc6F)c6ccc([nH]6)c(-c6cc(S(=O)(=O)[O-])ccc6F)c6nc(c(-c7cc(S(=O)(=O)[O-])ccc7F)c7ccc4[nH]7)C=C6)C=C5)cc3)cc2[N+](=O)[O-])c1
REMARK SMILES IDX 20 1 21 2 19 3 16 4 17 5 96 6 18 7 95 8 15 9 11 10 12 11
REMARK SMILES IDX 100 12 13 13 14 14 10 15 8 16 7 17 9 19 6 20 5 21 4 22 3 23
REMARK SMILES IDX 2 24 1 25 97 26 98 27 99 28 22 29 23 30 24 31 25 33 26 34
REMARK SMILES IDX 27 35 28 36 29 37 30 38 31 40 32 41 33 42 94 43 34 44 93 45
REMARK SMILES IDX 35 46 36 47 37 48 87 49 38 50 92 51 86 52 88 53 39 54 91 55
REMARK SMILES IDX 85 56 84 57 40 59 72 60 52 61 71 62 53 63 56 64 70 65 89 66
REMARK SMILES IDX 54 67 55 68 69 70 90 71 57 72 41 73 42 74 50 75 43 76 49 77
REMARK SMILES IDX 51 78 48 79 44 80 45 81 46 82 47 83 73 84 74 85 82 86 75 87
REMARK SMILES IDX 81 88 83 89 80 90 76 91 77 92 78 93 79 94 58 95 59 96 67 97
REMARK SMILES IDX 60 98 66 99 68 100 65 101 61 102 62 103 63 104 64 105
REMARK H PARENT 7 18 24 32 29 39 88 58 56 69
REMARK Flexibility Score: inf
ROOT
ATOM      1  C   UNL     1      -4.934   5.593 -12.368  1.00  0.00     0.105 C 
ATOM      2  C   UNL     1      -6.129   6.084 -13.183  1.00  0.00     0.023 C 
ENDROOT
BRANCH   1   3
ATOM      3  C   UNL     1      -5.144   5.551 -10.861  1.00  0.00    -0.029 A 
ATOM      4  C   UNL     1      -5.286   5.510  -7.987  1.00  0.00     0.060 A 
ATOM      5  C   UNL     1      -5.667   6.633  -8.743  1.00  0.00     0.016 A 
ATOM      6  C   UNL     1      -4.921   4.369  -8.727  1.00  0.00     0.277 A 
ATOM      7  C   UNL     1      -5.653   6.631 -10.142  1.00  0.00     0.005 A 
ATOM      8  C   UNL     1      -4.804   4.399 -10.135  1.00  0.00     0.090 A 
BRANCH   4   9
ATOM      9  C   UNL     1      -5.274   5.630  -6.510  1.00  0.00    -0.008 A 
ATOM     10  C   UNL     1      -4.211   5.326  -4.347  1.00  0.00     0.133 A 
ATOM     11  C   UNL     1      -5.284   5.925  -3.695  1.00  0.00     0.047 A 
ATOM     12  C   UNL     1      -4.187   5.187  -5.737  1.00  0.00     0.056 A 
ATOM     13  C   UNL     1      -6.354   6.397  -4.445  1.00  0.00     0.004 A 
ATOM     14  C   UNL     1      -6.353   6.238  -5.833  1.00  0.00     0.009 A 
BRANCH  10  15
ATOM     15  O   UNL     1      -3.238   4.731  -3.526  1.00  0.00    -0.410 OA
BRANCH  15  16
ATOM     16  C   UNL     1      -1.894   4.951  -3.780  1.00  0.00     0.412 C 
ATOM     17  N   UNL     1      -1.077   4.189  -2.990  1.00  0.00    -0.321 N 
ATOM     18  H   UNL     1      -0.107   4.329  -3.090  1.00  0.00     0.167 HD
ATOM     19  O   UNL     1      -1.437   5.735  -4.601  1.00  0.00    -0.224 OA
BRANCH  17  20
ATOM     20  C   UNL     1      -1.495   3.195  -2.020  1.00  0.00     0.119 C 
BRANCH  20  21
ATOM     21  C   UNL     1      -0.908   1.817  -2.324  1.00  0.00     0.021 C 
BRANCH  21  22
ATOM     22  C   UNL     1       0.620   1.734  -2.227  1.00  0.00     0.002 C 
BRANCH  22  23
ATOM     23  C   UNL     1       1.215   2.113  -0.866  1.00  0.00    -0.000 C 
BRANCH  23  24
ATOM     24  C   UNL     1       0.724   1.280   0.320  1.00  0.00    -0.003 C 
ATOM     25  C   UNL     1       1.090  -0.193   0.211  1.00  0.00     0.004 C 
ENDBRANCH  23  24
ENDBRANCH  22  23
ENDBRANCH  21  22
ENDBRANCH  20  21
ENDBRANCH  17  20
ENDBRANCH  15  16
ENDBRANCH  10  15
ENDBRANCH   4   9
BRANCH   6  26
ATOM     26  N   UNL     1      -4.739   3.068  -8.083  1.00  0.00     0.063 N 
ATOM     27  O   UNL     1      -3.835   2.339  -8.516  1.00  0.00    -0.258 OA
ATOM     28  O   UNL     1      -5.540   2.743  -7.195  1.00  0.00    -0.258 OA
ENDBRANCH   6  26
ENDBRANCH   1   3
BRANCH   1  29
ATOM     29  C   UNL     1      -3.585   6.195 -12.796  1.00  0.00     0.227 C 
ATOM     30  O   UNL     1      -2.685   5.446 -13.196  1.00  0.00    -0.274 OA
ATOM     31  N   UNL     1      -3.302   7.526 -12.782  1.00  0.00    -0.356 N 
ATOM     32  H   UNL     1      -2.424   7.752 -13.165  1.00  0.00     0.163 HD
BRANCH  31  33
ATOM     33  C   UNL     1      -4.051   8.671 -12.308  1.00  0.00     0.116 C 
BRANCH  33  34
ATOM     34  C   UNL     1      -3.656   9.059 -10.881  1.00  0.00     0.023 C 
BRANCH  34  35
ATOM     35  C   UNL     1      -2.488  10.034 -10.777  1.00  0.00     0.023 C 
BRANCH  35  36
ATOM     36  C   UNL     1      -2.724  11.393 -11.421  1.00  0.00     0.116 C 
BRANCH  36  37
ATOM     37  N   UNL     1      -3.887  12.101 -10.902  1.00  0.00    -0.352 N 
ATOM     38  C   UNL     1      -4.047  13.461 -10.752  1.00  0.00     0.251 C 
ATOM     39  H   UNL     1      -4.648  11.541 -10.626  1.00  0.00     0.163 HD
ATOM     40  O   UNL     1      -5.054  13.912 -10.217  1.00  0.00    -0.269 OA
BRANCH  38  41
ATOM     41  C   UNL     1      -2.959  14.353 -11.203  1.00  0.00     0.039 A 
ATOM     42  C   UNL     1      -2.426  15.281 -10.307  1.00  0.00     0.014 A 
ATOM     43  C   UNL     1      -2.406  14.197 -12.476  1.00  0.00     0.014 A 
ATOM     44  C   UNL     1      -1.280  15.996 -10.662  1.00  0.00     0.010 A 
ATOM     45  C   UNL     1      -1.218  14.845 -12.792  1.00  0.00     0.010 A 
ATOM     46  C   UNL     1      -0.640  15.750 -11.888  1.00  0.00    -0.014 A 
BRANCH  46  47
ATOM     47  C   UNL     1       0.625  16.436 -12.259  1.00  0.00     0.031 A 
ATOM     48  C   UNL     1       0.656  17.330 -13.470  1.00  0.00     0.074 A 
ATOM     49  C   UNL     1       1.752  16.205 -11.555  1.00  0.00     0.049 A 
ATOM     50  N   UNL     1       1.673  17.928 -14.033  1.00  0.00    -0.248 NA
ATOM     51  C   UNL     1      -0.626  17.550 -14.159  1.00  0.00     0.031 C 
ATOM     52  C   UNL     1       1.855  15.332 -10.383  1.00  0.00     0.029 A 
ATOM     53  N   UNL     1       3.030  16.676 -11.726  1.00  0.00    -0.354 N 
ATOM     54  C   UNL     1       1.157  18.586 -15.145  1.00  0.00     0.074 A 
ATOM     55  C   UNL     1      -0.249  18.251 -15.216  1.00  0.00     0.031 C 
ATOM     56  C   UNL     1       3.119  15.354  -9.927  1.00  0.00     0.029 A 
ATOM     57  C   UNL     1       3.929  16.198 -10.799  1.00  0.00     0.049 A 
ATOM     58  H   UNL     1       3.282  17.299 -12.446  1.00  0.00     0.167 HD
ATOM     59  C   UNL     1       1.790  19.417 -16.008  1.00  0.00     0.034 A 
ATOM     60  C   UNL     1       5.255  16.407 -10.676  1.00  0.00     0.034 A 
ATOM     61  C   UNL     1       3.187  19.756 -15.914  1.00  0.00     0.049 A 
ATOM     62  C   UNL     1       5.943  17.310 -11.673  1.00  0.00     0.074 A 
ATOM     63  C   UNL     1       3.923  20.611 -16.716  1.00  0.00     0.029 A 
ATOM     64  N   UNL     1       4.061  19.260 -14.956  1.00  0.00    -0.354 N 
ATOM     65  N   UNL     1       5.431  17.951 -12.699  1.00  0.00    -0.248 NA
ATOM     66  C   UNL     1       7.384  17.527 -11.488  1.00  0.00     0.031 C 
ATOM     67  C   UNL     1       5.252  20.586 -16.280  1.00  0.00     0.029 A 
ATOM     68  C   UNL     1       5.331  19.776 -15.159  1.00  0.00     0.049 A 
ATOM     69  H   UNL     1       3.815  18.633 -14.237  1.00  0.00     0.167 HD
ATOM     70  C   UNL     1       6.480  18.680 -13.252  1.00  0.00     0.074 A 
ATOM     71  C   UNL     1       7.648  18.410 -12.440  1.00  0.00     0.031 C 
ATOM     72  C   UNL     1       6.481  19.503 -14.331  1.00  0.00     0.034 A 
BRANCH  59  73
ATOM     73  C   UNL     1       0.971  20.006 -17.131  1.00  0.00     0.023 A 
ATOM     74  C   UNL     1      -0.109  20.870 -16.876  1.00  0.00     0.031 A 
ATOM     75  C   UNL     1       1.261  19.692 -18.470  1.00  0.00     0.131 A 
ATOM     76  C   UNL     1      -0.901  21.333 -17.936  1.00  0.00     0.055 A 
ATOM     77  C   UNL     1       0.519  20.222 -19.527  1.00  0.00     0.041 A 
ATOM     78  F   UNL     1       2.265  18.855 -18.773  1.00  0.00    -0.206 F 
ATOM     79  C   UNL     1      -0.578  21.038 -19.263  1.00  0.00     0.022 A 
BRANCH  76  80
ATOM     80  S   UNL     1      -2.434  22.220 -17.548  1.00  0.00     0.124 S 
ATOM     81  O   UNL     1      -3.177  21.207 -16.801  1.00  0.00    -0.237 OA
ATOM     82  O   UNL     1      -1.954  23.359 -16.775  1.00  0.00    -0.237 OA
ATOM     83  O   UNL     1      -2.985  22.544 -18.862  1.00  0.00    -0.744 OA
ENDBRANCH  76  80
ENDBRANCH  59  73
BRANCH  60  84
ATOM     84  C   UNL     1       6.039  15.754  -9.585  1.00  0.00     0.023 A 
ATOM     85  C   UNL     1       6.710  16.525  -8.621  1.00  0.00     0.031 A 
ATOM     86  C   UNL     1       6.197  14.358  -9.534  1.00  0.00     0.131 A 
ATOM     87  C   UNL     1       7.563  15.904  -7.696  1.00  0.00     0.055 A 
ATOM     88  C   UNL     1       6.996  13.739  -8.569  1.00  0.00     0.041 A 
ATOM     89  F   UNL     1       5.578  13.571 -10.428  1.00  0.00    -0.206 F 
ATOM     90  C   UNL     1       7.700  14.515  -7.654  1.00  0.00     0.022 A 
BRANCH  87  91
ATOM     91  S   UNL     1       8.591  16.951  -6.628  1.00  0.00     0.124 S 
ATOM     92  O   UNL     1       9.293  17.774  -7.607  1.00  0.00    -0.237 OA
ATOM     93  O   UNL     1       7.588  17.632  -5.817  1.00  0.00    -0.237 OA
ATOM     94  O   UNL     1       9.424  15.989  -5.909  1.00  0.00    -0.744 OA
ENDBRANCH  87  91
ENDBRANCH  60  84
BRANCH  72  95
ATOM     95  C   UNL     1       7.769  20.222 -14.648  1.00  0.00     0.023 A 
ATOM     96  C   UNL     1       8.914  19.536 -15.088  1.00  0.00     0.031 A 
ATOM     97  C   UNL     1       7.847  21.619 -14.504  1.00  0.00     0.131 A 
ATOM     98  C   UNL     1      10.105  20.242 -15.316  1.00  0.00     0.055 A 
ATOM     99  C   UNL     1       9.017  22.323 -14.791  1.00  0.00     0.041 A 
ATOM    100  F   UNL     1       6.783  22.323 -14.087  1.00  0.00    -0.206 F 
ATOM    101  C   UNL     1      10.158  21.633 -15.188  1.00  0.00     0.022 A 
BRANCH  98 102
ATOM    102  S   UNL     1      11.611  19.308 -15.702  1.00  0.00     0.124 S 
ATOM    103  O   UNL     1      11.744  18.448 -14.531  1.00  0.00    -0.237 OA
ATOM    104  O   UNL     1      11.252  18.638 -16.948  1.00  0.00    -0.237 OA
ATOM    105  O   UNL     1      12.634  20.344 -15.830  1.00  0.00    -0.744 OA
ENDBRANCH  98 102
ENDBRANCH  72  95
ENDBRANCH  46  47
ENDBRANCH  38  41
ENDBRANCH  36  37
ENDBRANCH  35  36
ENDBRANCH  34  35
ENDBRANCH  33  34
ENDBRANCH  31  33
ENDBRANCH   1  29
TORSDOF 24
