REMARK SMILES O=C(NCCCCNC(=O)[C@@]1([NH2+]C2CC2)CCC[C@@H](Sc2ncn[nH]2)C1)c1ccc(-c2c3nc(c(-c4cc(S(=O)(=O)[O-])ccc4F)c4ccc([nH]4)c(-c4cc(S(=O)(=O)[O-])ccc4F)c4nc(c(-c5cc(S(=O)(=O)[O-])ccc5F)c5ccc2[nH]5)C=C4)C=C3)cc1
REMARK SMILES IDX 5 1 4 2 3 3 1 4 2 5 27 7 28 8 89 9 29 10 88 11 30 12 31 13
REMARK SMILES IDX 32 14 82 15 33 16 87 17 81 18 83 19 34 20 86 21 80 22 79 23
REMARK SMILES IDX 35 25 67 26 47 27 66 28 48 29 51 30 65 31 84 32 49 33 50 34
REMARK SMILES IDX 64 36 85 37 52 38 36 39 37 40 45 41 38 42 44 43 46 44 43 45
REMARK SMILES IDX 39 46 40 47 41 48 42 49 68 50 69 51 77 52 70 53 76 54 78 55
REMARK SMILES IDX 75 56 71 57 72 58 73 59 74 60 53 61 54 62 62 63 55 64 61 65
REMARK SMILES IDX 63 66 60 67 56 68 57 69 58 70 59 71 6 72 7 73 8 74 9 75
REMARK SMILES IDX 10 77 11 78 16 79 26 80 17 81 19 82 18 83 12 84 13 87 14 88
REMARK SMILES IDX 15 89 20 90 21 91 22 92 25 93 23 94 24 95
REMARK H PARENT 3 6 83 24 51 35 8 76 12 85 12 86 25 96
REMARK Flexibility Score: inf
ROOT
ATOM      1  C   UNL     1       4.984  -2.024  -1.469  1.00  0.00     0.023 C 
ENDROOT
BRANCH   1   2
ATOM      2  C   UNL     1       4.654  -0.617  -0.990  1.00  0.00     0.116 C 
BRANCH   2   3
ATOM      3  N   UNL     1       3.225  -0.328  -1.001  1.00  0.00    -0.352 N 
ATOM      4  O   UNL     1       1.213   0.199  -0.127  1.00  0.00    -0.269 OA
ATOM      5  C   UNL     1       2.424   0.130   0.021  1.00  0.00     0.251 C 
ATOM      6  H   UNL     1       2.769  -0.482  -1.859  1.00  0.00     0.163 HD
BRANCH   5   7
ATOM      7  C   UNL     1       3.054   0.510   1.304  1.00  0.00     0.039 A 
ATOM      8  C   UNL     1       4.187   1.325   1.308  1.00  0.00     0.014 A 
ATOM      9  C   UNL     1       2.541   0.002   2.500  1.00  0.00     0.014 A 
ATOM     10  C   UNL     1       4.907   1.488   2.484  1.00  0.00     0.010 A 
ATOM     11  C   UNL     1       3.216   0.251   3.699  1.00  0.00     0.010 A 
ATOM     12  C   UNL     1       4.427   0.962   3.694  1.00  0.00    -0.014 A 
BRANCH  12  13
ATOM     13  C   UNL     1       5.200   1.206   4.939  1.00  0.00     0.031 A 
ATOM     14  C   UNL     1       5.829   0.072   5.702  1.00  0.00     0.074 A 
ATOM     15  C   UNL     1       5.374   2.479   5.345  1.00  0.00     0.049 A 
ATOM     16  N   UNL     1       6.559   0.115   6.788  1.00  0.00    -0.248 NA
ATOM     17  C   UNL     1       5.603  -1.285   5.185  1.00  0.00     0.031 C 
ATOM     18  C   UNL     1       4.808   3.656   4.678  1.00  0.00     0.029 A 
ATOM     19  N   UNL     1       6.093   3.004   6.386  1.00  0.00    -0.354 N 
ATOM     20  C   UNL     1       6.864  -1.207   7.098  1.00  0.00     0.074 A 
ATOM     21  C   UNL     1       6.211  -2.028   6.099  1.00  0.00     0.031 C 
ATOM     22  C   UNL     1       5.250   4.763   5.289  1.00  0.00     0.029 A 
ATOM     23  C   UNL     1       6.066   4.378   6.434  1.00  0.00     0.049 A 
ATOM     24  H   UNL     1       6.582   2.451   7.037  1.00  0.00     0.167 HD
ATOM     25  C   UNL     1       7.622  -1.685   8.118  1.00  0.00     0.034 A 
ATOM     26  C   UNL     1       6.620   5.235   7.311  1.00  0.00     0.034 A 
ATOM     27  C   UNL     1       8.270  -0.845   9.099  1.00  0.00     0.049 A 
ATOM     28  C   UNL     1       7.430   4.678   8.447  1.00  0.00     0.074 A 
ATOM     29  C   UNL     1       9.080  -1.220  10.158  1.00  0.00     0.029 A 
ATOM     30  N   UNL     1       8.179   0.541   9.147  1.00  0.00    -0.354 N 
ATOM     31  N   UNL     1       7.708   3.425   8.725  1.00  0.00    -0.248 NA
ATOM     32  C   UNL     1       8.000   5.648   9.387  1.00  0.00     0.031 C 
ATOM     33  C   UNL     1       9.425  -0.070  10.879  1.00  0.00     0.029 A 
ATOM     34  C   UNL     1       8.891   1.032  10.232  1.00  0.00     0.049 A 
ATOM     35  H   UNL     1       7.681   1.095   8.503  1.00  0.00     0.167 HD
ATOM     36  C   UNL     1       8.498   3.459   9.868  1.00  0.00     0.074 A 
ATOM     37  C   UNL     1       8.672   4.857  10.210  1.00  0.00     0.031 C 
ATOM     38  C   UNL     1       9.031   2.429  10.573  1.00  0.00     0.034 A 
BRANCH  25  39
ATOM     39  C   UNL     1       7.745  -3.186   8.250  1.00  0.00     0.023 A 
ATOM     40  C   UNL     1       8.379  -3.971   7.270  1.00  0.00     0.031 A 
ATOM     41  C   UNL     1       7.199  -3.846   9.366  1.00  0.00     0.131 A 
ATOM     42  C   UNL     1       8.392  -5.370   7.391  1.00  0.00     0.055 A 
ATOM     43  C   UNL     1       7.281  -5.232   9.518  1.00  0.00     0.041 A 
ATOM     44  F   UNL     1       6.564  -3.154  10.325  1.00  0.00    -0.206 F 
ATOM     45  C   UNL     1       7.867  -6.004   8.520  1.00  0.00     0.022 A 
BRANCH  42  46
ATOM     46  S   UNL     1       8.978  -6.359   5.988  1.00  0.00     0.124 S 
ATOM     47  O   UNL     1       8.092  -5.910   4.917  1.00  0.00    -0.237 OA
ATOM     48  O   UNL     1      10.374  -5.952   5.876  1.00  0.00    -0.237 OA
ATOM     49  O   UNL     1       8.763  -7.737   6.425  1.00  0.00    -0.744 OA
ENDBRANCH  42  46
ENDBRANCH  25  39
BRANCH  26  50
ATOM     50  C   UNL     1       6.397   6.700   7.165  1.00  0.00     0.023 A 
ATOM     51  C   UNL     1       7.461   7.573   6.893  1.00  0.00     0.031 A 
ATOM     52  C   UNL     1       5.110   7.250   7.309  1.00  0.00     0.131 A 
ATOM     53  C   UNL     1       7.225   8.954   6.805  1.00  0.00     0.055 A 
ATOM     54  C   UNL     1       4.872   8.617   7.168  1.00  0.00     0.041 A 
ATOM     55  F   UNL     1       4.057   6.457   7.564  1.00  0.00    -0.206 F 
ATOM     56  C   UNL     1       5.936   9.480   6.926  1.00  0.00     0.022 A 
BRANCH  53  57
ATOM     57  S   UNL     1       8.643  10.065   6.599  1.00  0.00     0.124 S 
ATOM     58  O   UNL     1       9.455   9.732   7.764  1.00  0.00    -0.237 OA
ATOM     59  O   UNL     1       9.172   9.644   5.306  1.00  0.00    -0.237 OA
ATOM     60  O   UNL     1       8.037  11.395   6.619  1.00  0.00    -0.744 OA
ENDBRANCH  53  57
ENDBRANCH  26  50
BRANCH  38  61
ATOM     61  C   UNL     1       9.874   2.798  11.767  1.00  0.00     0.023 A 
ATOM     62  C   UNL     1       9.310   3.392  12.910  1.00  0.00     0.031 A 
ATOM     63  C   UNL     1      11.265   2.592  11.744  1.00  0.00     0.131 A 
ATOM     64  C   UNL     1      10.141   3.819  13.957  1.00  0.00     0.055 A 
ATOM     65  C   UNL     1      12.079   2.966  12.813  1.00  0.00     0.041 A 
ATOM     66  F   UNL     1      11.854   2.032  10.675  1.00  0.00    -0.206 F 
ATOM     67  C   UNL     1      11.520   3.597  13.921  1.00  0.00     0.022 A 
BRANCH  64  68
ATOM     68  S   UNL     1       9.407   4.761  15.322  1.00  0.00     0.124 S 
ATOM     69  O   UNL     1       8.819   5.900  14.624  1.00  0.00    -0.237 OA
ATOM     70  O   UNL     1       8.462   3.804  15.889  1.00  0.00    -0.237 OA
ATOM     71  O   UNL     1      10.551   5.079  16.174  1.00  0.00    -0.744 OA
ENDBRANCH  64  68
ENDBRANCH  38  61
ENDBRANCH  12  13
ENDBRANCH   5   7
ENDBRANCH   2   3
ENDBRANCH   1   2
BRANCH   1  72
ATOM     72  C   UNL     1       4.472  -2.372  -2.863  1.00  0.00     0.023 C 
BRANCH  72  73
ATOM     73  C   UNL     1       4.797  -1.346  -3.940  1.00  0.00     0.116 C 
BRANCH  73  74
ATOM     74  N   UNL     1       6.222  -1.192  -4.177  1.00  0.00    -0.351 N 
ATOM     75  C   UNL     1       6.943  -1.183  -5.343  1.00  0.00     0.281 C 
ATOM     76  H   UNL     1       6.762  -1.074  -3.362  1.00  0.00     0.163 HD
ATOM     77  O   UNL     1       8.089  -0.732  -5.250  1.00  0.00    -0.268 OA
BRANCH  75  78
ATOM     78  C   UNL     1       6.315  -1.688  -6.693  1.00  0.00     0.176 C 
ATOM     79  C   UNL     1       5.747  -3.124  -6.564  1.00  0.00     0.079 C 
ATOM     80  C   UNL     1       5.224  -0.644  -7.103  1.00  0.00     0.094 C 
ATOM     81  C   UNL     1       4.862  -3.540  -7.731  1.00  0.00     0.008 C 
ATOM     82  C   UNL     1       4.171  -1.145  -8.101  1.00  0.00     0.061 C 
ATOM     83  C   UNL     1       3.693  -2.580  -7.866  1.00  0.00     0.015 C 
BRANCH  78  84
ATOM     84  N   UNL     1       7.300  -1.665  -7.810  1.00  0.00    -0.331 N 
ATOM     85  H   UNL     1       7.410  -0.684  -8.070  1.00  0.00     0.347 HD
ATOM     86  H   UNL     1       6.880  -2.316  -8.473  1.00  0.00     0.347 HD
BRANCH  84  87
ATOM     87  C   UNL     1       8.655  -2.205  -7.677  1.00  0.00     0.183 C 
ATOM     88  C   UNL     1       9.157  -3.176  -6.648  1.00  0.00     0.071 C 
ATOM     89  C   UNL     1       8.886  -3.652  -8.042  1.00  0.00     0.071 C 
ENDBRANCH  84  87
ENDBRANCH  78  84
BRANCH  82  90
ATOM     90  S   UNL     1       2.741   0.005  -8.231  1.00  0.00    -0.083 SA
BRANCH  90  91
ATOM     91  C   UNL     1       1.844  -0.314  -6.795  1.00  0.00     0.183 A 
ATOM     92  N   UNL     1       2.222  -0.217  -5.544  1.00  0.00    -0.210 NA
ATOM     93  N   UNL     1       0.554  -0.740  -6.855  1.00  0.00    -0.254 N 
ATOM     94  C   UNL     1       1.093  -0.589  -4.861  1.00  0.00     0.247 A 
ATOM     95  N   UNL     1       0.057  -0.951  -5.624  1.00  0.00    -0.162 NA
ATOM     96  H   UNL     1       0.051  -0.876  -7.690  1.00  0.00     0.192 HD
ENDBRANCH  90  91
ENDBRANCH  82  90
ENDBRANCH  75  78
ENDBRANCH  73  74
ENDBRANCH  72  73
ENDBRANCH   1  72
TORSDOF 18
