REMARK SMILES O=C(NCCCCNC(=O)[C@H](CO)NC(=O)[C@H](CS)NC(=O)[C@H](Cc1c[nH]c2ccccc12)NC(=O)c1ccc(F)cc1)c1ccc(-c2c3nc(c(-c4cc(S(=O)(=O)[O-])ccc4F)c4ccc([nH]4)c(-c4cc(S(=O)(=O)[O-])ccc4F)c4nc(c(-c5cc(S(=O)(=O)[O-])ccc5F)c5ccc2[nH]5)C=C4)C=C3)cc1
REMARK SMILES IDX 7 1 6 2 5 3 4 4 3 5 1 6 2 7 44 9 45 10 106 11 46 12 105 13
REMARK SMILES IDX 47 14 48 15 49 16 99 17 50 18 104 19 98 20 100 21 51 22
REMARK SMILES IDX 103 23 97 24 96 25 52 27 84 28 64 29 83 30 65 31 68 32 82 33
REMARK SMILES IDX 101 34 66 35 67 36 81 38 102 39 69 40 53 41 54 42 62 43
REMARK SMILES IDX 55 44 61 45 63 46 60 47 56 48 57 49 58 50 59 51 85 52 86 53
REMARK SMILES IDX 94 54 87 55 93 56 95 57 92 58 88 59 89 60 90 61 91 62 70 63
REMARK SMILES IDX 71 64 79 65 72 66 78 67 80 68 77 69 73 70 74 71 75 72 76 73
REMARK SMILES IDX 8 74 9 75 10 77 11 78 14 79 15 80 16 82 17 83 20 84 21 85
REMARK SMILES IDX 22 87 23 88 34 89 35 90 36 92 37 93 38 94 43 95 39 96 42 97
REMARK SMILES IDX 40 98 41 99 24 100 25 101 26 102 33 103 27 104 28 105 32 106
REMARK SMILES IDX 29 108 31 109 30 110 18 111 19 112 12 114 13 115
REMARK H PARENT 3 8 100 26 68 37 8 76 14 81 20 86 34 91 27 107 19 113 13 116
REMARK Flexibility Score: inf
ROOT
ATOM      1  C   UNL     1       4.192   9.762  15.123  1.00  0.00     0.116 C 
ENDROOT
BRANCH   1   2
ATOM      2  C   UNL     1       2.806   9.138  15.290  1.00  0.00     0.023 C 
BRANCH   2   3
ATOM      3  C   UNL     1       2.721   8.144  16.450  1.00  0.00     0.023 C 
BRANCH   3   4
ATOM      4  C   UNL     1       3.274   8.685  17.757  1.00  0.00     0.116 C 
BRANCH   4   5
ATOM      5  N   UNL     1       2.726   9.999  18.067  1.00  0.00    -0.352 N 
ATOM      6  O   UNL     1       1.640  11.507  19.349  1.00  0.00    -0.269 OA
ATOM      7  C   UNL     1       2.229  10.435  19.262  1.00  0.00     0.251 C 
ATOM      8  H   UNL     1       2.713  10.649  17.328  1.00  0.00     0.163 HD
BRANCH   7   9
ATOM      9  C   UNL     1       2.423   9.567  20.428  1.00  0.00     0.039 A 
ATOM     10  C   UNL     1       3.715   9.127  20.735  1.00  0.00     0.014 A 
ATOM     11  C   UNL     1       1.312   9.146  21.156  1.00  0.00     0.014 A 
ATOM     12  C   UNL     1       3.890   8.202  21.748  1.00  0.00     0.010 A 
ATOM     13  C   UNL     1       1.500   8.277  22.224  1.00  0.00     0.010 A 
ATOM     14  C   UNL     1       2.790   7.814  22.530  1.00  0.00    -0.014 A 
BRANCH  14  15
ATOM     15  C   UNL     1       3.033   7.069  23.779  1.00  0.00     0.031 A 
ATOM     16  C   UNL     1       2.581   5.656  23.948  1.00  0.00     0.074 A 
ATOM     17  C   UNL     1       3.682   7.722  24.761  1.00  0.00     0.049 A 
ATOM     18  N   UNL     1       2.666   4.893  25.006  1.00  0.00    -0.248 NA
ATOM     19  C   UNL     1       1.948   5.017  22.787  1.00  0.00     0.031 C 
ATOM     20  C   UNL     1       4.178   9.100  24.665  1.00  0.00     0.029 A 
ATOM     21  N   UNL     1       4.058   7.321  26.011  1.00  0.00    -0.354 N 
ATOM     22  C   UNL     1       2.094   3.681  24.645  1.00  0.00     0.074 A 
ATOM     23  C   UNL     1       1.639   3.824  23.276  1.00  0.00     0.031 C 
ATOM     24  C   UNL     1       4.850   9.404  25.781  1.00  0.00     0.029 A 
ATOM     25  C   UNL     1       4.755   8.280  26.702  1.00  0.00     0.049 A 
ATOM     26  H   UNL     1       3.851   6.431  26.379  1.00  0.00     0.167 HD
ATOM     27  C   UNL     1       1.967   2.560  25.397  1.00  0.00     0.034 A 
ATOM     28  C   UNL     1       5.245   8.268  27.953  1.00  0.00     0.034 A 
ATOM     29  C   UNL     1       2.410   2.468  26.770  1.00  0.00     0.049 A 
ATOM     30  C   UNL     1       5.024   7.048  28.790  1.00  0.00     0.074 A 
ATOM     31  C   UNL     1       2.300   1.401  27.645  1.00  0.00     0.029 A 
ATOM     32  N   UNL     1       3.047   3.488  27.471  1.00  0.00    -0.354 N 
ATOM     33  N   UNL     1       4.411   5.932  28.467  1.00  0.00    -0.248 NA
ATOM     34  C   UNL     1       5.546   7.085  30.157  1.00  0.00     0.031 C 
ATOM     35  C   UNL     1       2.818   1.793  28.885  1.00  0.00     0.029 A 
ATOM     36  C   UNL     1       3.321   3.080  28.768  1.00  0.00     0.049 A 
ATOM     37  H   UNL     1       3.271   4.372  27.100  1.00  0.00     0.167 HD
ATOM     38  C   UNL     1       4.489   5.121  29.590  1.00  0.00     0.074 A 
ATOM     39  C   UNL     1       5.211   5.880  30.597  1.00  0.00     0.031 C 
ATOM     40  C   UNL     1       4.017   3.861  29.766  1.00  0.00     0.034 A 
BRANCH  27  41
ATOM     41  C   UNL     1       1.280   1.376  24.763  1.00  0.00     0.023 A 
ATOM     42  C   UNL     1       1.841   0.699  23.666  1.00  0.00     0.031 A 
ATOM     43  C   UNL     1       0.035   0.933  25.244  1.00  0.00     0.131 A 
ATOM     44  C   UNL     1       1.132  -0.345  23.050  1.00  0.00     0.055 A 
ATOM     45  C   UNL     1      -0.632  -0.152  24.672  1.00  0.00     0.041 A 
ATOM     46  F   UNL     1      -0.561   1.556  26.273  1.00  0.00    -0.206 F 
ATOM     47  C   UNL     1      -0.089  -0.791  23.560  1.00  0.00     0.022 A 
BRANCH  44  48
ATOM     48  S   UNL     1       1.771  -1.031  21.498  1.00  0.00     0.124 S 
ATOM     49  O   UNL     1       1.756   0.144  20.629  1.00  0.00    -0.237 OA
ATOM     50  O   UNL     1       3.088  -1.520  21.887  1.00  0.00    -0.237 OA
ATOM     51  O   UNL     1       0.798  -2.065  21.154  1.00  0.00    -0.744 OA
ENDBRANCH  44  48
ENDBRANCH  27  41
BRANCH  28  52
ATOM     52  C   UNL     1       5.974   9.459  28.453  1.00  0.00     0.023 A 
ATOM     53  C   UNL     1       7.369   9.435  28.588  1.00  0.00     0.031 A 
ATOM     54  C   UNL     1       5.299  10.668  28.700  1.00  0.00     0.131 A 
ATOM     55  C   UNL     1       8.050  10.604  28.958  1.00  0.00     0.055 A 
ATOM     56  C   UNL     1       5.983  11.835  29.037  1.00  0.00     0.041 A 
ATOM     57  F   UNL     1       3.966  10.742  28.552  1.00  0.00    -0.206 F 
ATOM     58  C   UNL     1       7.368  11.807  29.168  1.00  0.00     0.022 A 
BRANCH  55  59
ATOM     59  S   UNL     1       9.853  10.540  29.135  1.00  0.00     0.124 S 
ATOM     60  O   UNL     1      10.007   9.668  30.293  1.00  0.00    -0.237 OA
ATOM     61  O   UNL     1      10.268   9.984  27.851  1.00  0.00    -0.237 OA
ATOM     62  O   UNL     1      10.222  11.938  29.351  1.00  0.00    -0.744 OA
ENDBRANCH  55  59
ENDBRANCH  28  52
BRANCH  40  63
ATOM     63  C   UNL     1       4.308   3.215  31.093  1.00  0.00     0.023 A 
ATOM     64  C   UNL     1       3.685   3.643  32.277  1.00  0.00     0.031 A 
ATOM     65  C   UNL     1       5.233   2.158  31.169  1.00  0.00     0.131 A 
ATOM     66  C   UNL     1       4.031   3.047  33.498  1.00  0.00     0.055 A 
ATOM     67  C   UNL     1       5.532   1.534  32.379  1.00  0.00     0.041 A 
ATOM     68  F   UNL     1       5.857   1.717  30.066  1.00  0.00    -0.206 F 
ATOM     69  C   UNL     1       4.938   1.984  33.555  1.00  0.00     0.022 A 
BRANCH  66  70
ATOM     70  S   UNL     1       3.332   3.726  35.028  1.00  0.00     0.124 S 
ATOM     71  O   UNL     1       3.873   5.082  35.030  1.00  0.00    -0.237 OA
ATOM     72  O   UNL     1       1.896   3.613  34.795  1.00  0.00    -0.237 OA
ATOM     73  O   UNL     1       3.861   2.845  36.067  1.00  0.00    -0.744 OA
ENDBRANCH  66  70
ENDBRANCH  40  63
ENDBRANCH  14  15
ENDBRANCH   7   9
ENDBRANCH   4   5
ENDBRANCH   3   4
ENDBRANCH   2   3
ENDBRANCH   1   2
BRANCH   1  74
ATOM     74  N   UNL     1       5.134   8.732  14.769  1.00  0.00    -0.354 N 
ATOM     75  C   UNL     1       5.346   8.263  13.513  1.00  0.00     0.244 C 
ATOM     76  H   UNL     1       5.668   8.336  15.496  1.00  0.00     0.163 HD
ATOM     77  O   UNL     1       5.604   7.067  13.378  1.00  0.00    -0.273 OA
BRANCH  75  78
ATOM     78  C   UNL     1       5.177   9.177  12.302  1.00  0.00     0.197 C 
BRANCH  78  79
ATOM     79  N   UNL     1       3.784   9.264  11.907  1.00  0.00    -0.340 N 
ATOM     80  C   UNL     1       3.212   8.762  10.782  1.00  0.00     0.244 C 
ATOM     81  H   UNL     1       3.184   9.742  12.525  1.00  0.00     0.164 HD
ATOM     82  O   UNL     1       1.980   8.791  10.722  1.00  0.00    -0.273 OA
BRANCH  80  83
ATOM     83  C   UNL     1       4.090   8.150   9.660  1.00  0.00     0.181 C 
BRANCH  83  84
ATOM     84  N   UNL     1       4.436   6.772  10.063  1.00  0.00    -0.342 N 
ATOM     85  C   UNL     1       5.621   6.152  10.377  1.00  0.00     0.243 C 
ATOM     86  H   UNL     1       3.656   6.174  10.118  1.00  0.00     0.164 HD
ATOM     87  O   UNL     1       5.543   4.977  10.749  1.00  0.00    -0.273 OA
BRANCH  85  88
ATOM     88  C   UNL     1       7.009   6.815  10.117  1.00  0.00     0.176 C 
BRANCH  88  89
ATOM     89  N   UNL     1       8.099   6.045  10.758  1.00  0.00    -0.340 N 
ATOM     90  C   UNL     1       9.226   6.455  11.423  1.00  0.00     0.251 C 
ATOM     91  H   UNL     1       7.997   5.068  10.695  1.00  0.00     0.164 HD
ATOM     92  O   UNL     1      10.257   5.789  11.386  1.00  0.00    -0.269 OA
BRANCH  90  93
ATOM     93  C   UNL     1       9.216   7.650  12.292  1.00  0.00     0.040 A 
ATOM     94  C   UNL     1       8.524   7.588  13.505  1.00  0.00     0.017 A 
ATOM     95  C   UNL     1      10.075   8.729  12.048  1.00  0.00     0.017 A 
ATOM     96  C   UNL     1       8.604   8.642  14.421  1.00  0.00     0.040 A 
ATOM     97  C   UNL     1      10.147   9.790  12.959  1.00  0.00     0.040 A 
ATOM     98  C   UNL     1       9.399   9.742  14.131  1.00  0.00     0.123 A 
ATOM     99  F   UNL     1       9.451  10.766  14.992  1.00  0.00    -0.207 F 
ENDBRANCH  90  93
ENDBRANCH  88  89
BRANCH  88 100
ATOM    100  C   UNL     1       7.158   6.763   8.593  1.00  0.00     0.072 C 
BRANCH 100 101
ATOM    101  C   UNL     1       8.338   7.419   7.962  1.00  0.00    -0.020 A 
ATOM    102  C   UNL     1       9.179   8.392   8.457  1.00  0.00     0.087 A 
ATOM    103  C   UNL     1       8.752   7.166   6.615  1.00  0.00     0.003 A 
ATOM    104  N   UNL     1      10.160   8.623   7.528  1.00  0.00    -0.361 N 
ATOM    105  C   UNL     1       9.904   7.911   6.381  1.00  0.00     0.046 A 
ATOM    106  C   UNL     1       8.236   6.363   5.578  1.00  0.00     0.010 A 
ATOM    107  H   UNL     1      10.936   9.213   7.664  1.00  0.00     0.166 HD
ATOM    108  C   UNL     1      10.594   7.866   5.165  1.00  0.00     0.026 A 
ATOM    109  C   UNL     1       8.898   6.324   4.348  1.00  0.00     0.001 A 
ATOM    110  C   UNL     1      10.065   7.058   4.151  1.00  0.00     0.002 A 
ENDBRANCH 100 101
ENDBRANCH  88 100
ENDBRANCH  85  88
ENDBRANCH  83  84
BRANCH  83 111
ATOM    111  C   UNL     1       3.214   8.226   8.384  1.00  0.00     0.101 C 
BRANCH 111 112
ATOM    112  S   UNL     1       3.999   7.709   6.827  1.00  0.00    -0.177 SA
ATOM    113  H   UNL     1       5.030   8.547   6.539  1.00  0.00     0.102 HD
ENDBRANCH 111 112
ENDBRANCH  83 111
ENDBRANCH  80  83
ENDBRANCH  78  79
BRANCH  78 114
ATOM    114  C   UNL     1       5.884  10.532  12.375  1.00  0.00     0.191 C 
BRANCH 114 115
ATOM    115  O   UNL     1       6.939  10.585  11.407  1.00  0.00    -0.394 OA
ATOM    116  H   UNL     1       7.582   9.882  11.590  1.00  0.00     0.210 HD
ENDBRANCH 114 115
ENDBRANCH  78 114
ENDBRANCH  75  78
ENDBRANCH   1  74
TORSDOF 26
