REMARK SMILES CCc1ccsc1CNS(=O)(=O)N1CCC(C(=O)NCCCCNC(=O)c2ccc(-c3c4nc(c(-c5cc(S(=O)(=O)[O-])ccc5F)c5ccc([nH]5)c(-c5cc(S(=O)(=O)[O-])ccc5F)c5nc(c(-c6cc(S(=O)(=O)[O-])ccc6F)c6ccc3[nH]6)C=C5)C=C4)cc2)CC1
REMARK SMILES IDX 20 1 19 2 17 3 18 4 16 6 13 7 14 8 91 9 15 10 90 11 10 12
REMARK SMILES IDX 11 13 12 14 9 15 8 17 7 18 3 19 4 20 5 21 6 22 2 23 1 24
REMARK SMILES IDX 21 25 22 26 23 27 24 28 25 29 26 31 27 32 28 33 89 34 29 35
REMARK SMILES IDX 88 36 30 37 31 38 32 39 82 40 33 41 87 42 81 43 83 44 34 45
REMARK SMILES IDX 86 46 80 47 79 48 35 50 67 51 47 52 66 53 48 54 51 55 65 56
REMARK SMILES IDX 84 57 49 58 50 59 64 61 85 62 52 63 36 64 37 65 45 66 38 67
REMARK SMILES IDX 44 68 46 69 43 70 39 71 40 72 41 73 42 74 68 75 69 76 77 77
REMARK SMILES IDX 70 78 76 79 78 80 75 81 71 82 72 83 73 84 74 85 53 86 54 87
REMARK SMILES IDX 62 88 55 89 61 90 63 91 60 92 56 93 57 94 58 95 59 96
REMARK H PARENT 19 5 9 16 24 30 83 49 51 60
REMARK Flexibility Score: inf
ROOT
ATOM      1  C   UNL     1      -4.357   8.908  -0.694  1.00  0.00     0.116 C 
ENDROOT
BRANCH   1   2
ATOM      2  N   UNL     1      -4.365   9.408  -2.061  1.00  0.00    -0.356 N 
ATOM      3  C   UNL     1      -3.389   9.415  -3.011  1.00  0.00     0.223 C 
ATOM      4  O   UNL     1      -3.634   9.938  -4.100  1.00  0.00    -0.275 OA
ATOM      5  H   UNL     1      -5.218   9.808  -2.346  1.00  0.00     0.163 HD
BRANCH   3   6
ATOM      6  C   UNL     1      -2.045   8.753  -2.764  1.00  0.00     0.081 C 
ATOM      7  N   UNL     1      -0.411   7.352  -0.827  1.00  0.00    -0.189 NA
ATOM      8  C   UNL     1       0.012   8.681  -1.306  1.00  0.00     0.104 C 
ATOM      9  C   UNL     1      -1.118   6.546  -1.838  1.00  0.00     0.104 C 
ATOM     10  C   UNL     1      -1.223   9.479  -1.699  1.00  0.00     0.030 C 
ATOM     11  C   UNL     1      -2.256   7.261  -2.527  1.00  0.00     0.030 C 
BRANCH   7  12
ATOM     12  S   UNL     1       0.664   6.532   0.187  1.00  0.00     0.279 S 
ATOM     13  O   UNL     1      -0.104   5.832   1.186  1.00  0.00    -0.195 OA
ATOM     14  O   UNL     1       1.755   7.408   0.546  1.00  0.00    -0.195 OA
BRANCH  12  15
ATOM     15  N   UNL     1       1.322   5.374  -0.845  1.00  0.00    -0.197 NA
ATOM     16  H   UNL     1       1.267   5.726  -1.801  1.00  0.00     0.142 HD
BRANCH  15  17
ATOM     17  C   UNL     1       0.633   4.071  -0.788  1.00  0.00     0.146 C 
BRANCH  17  18
ATOM     18  C   UNL     1       1.207   3.053  -1.734  1.00  0.00     0.023 A 
ATOM     19  C   UNL     1       1.213   1.674  -1.533  1.00  0.00    -0.033 A 
ATOM     20  C   UNL     1       1.703   0.993  -2.696  1.00  0.00     0.015 A 
ATOM     21  C   UNL     1       2.044   1.853  -3.714  1.00  0.00     0.065 A 
ATOM     22  S   UNL     1       1.781   3.483  -3.288  1.00  0.00    -0.147 S 
BRANCH  19  23
ATOM     23  C   UNL     1       0.690   1.023  -0.274  1.00  0.00     0.033 C 
ATOM     24  C   UNL     1       1.115  -0.414  -0.046  1.00  0.00     0.009 C 
ENDBRANCH  19  23
ENDBRANCH  17  18
ENDBRANCH  15  17
ENDBRANCH  12  15
ENDBRANCH   7  12
ENDBRANCH   3   6
ENDBRANCH   1   2
BRANCH   1  25
ATOM     25  C   UNL     1      -4.581  10.030   0.311  1.00  0.00     0.023 C 
BRANCH  25  26
ATOM     26  C   UNL     1      -5.974  10.652   0.243  1.00  0.00     0.023 C 
BRANCH  26  27
ATOM     27  C   UNL     1      -7.123   9.662   0.396  1.00  0.00     0.116 C 
BRANCH  27  28
ATOM     28  N   UNL     1      -7.070   8.928   1.651  1.00  0.00    -0.352 N 
ATOM     29  C   UNL     1      -8.060   8.758   2.590  1.00  0.00     0.251 C 
ATOM     30  H   UNL     1      -6.210   8.494   1.856  1.00  0.00     0.163 HD
ATOM     31  O   UNL     1      -7.799   8.248   3.675  1.00  0.00    -0.269 OA
BRANCH  29  32
ATOM     32  C   UNL     1      -9.427   9.232   2.289  1.00  0.00     0.039 A 
ATOM     33  C   UNL     1     -10.094  10.018   3.229  1.00  0.00     0.014 A 
ATOM     34  C   UNL     1     -10.021   8.944   1.056  1.00  0.00     0.014 A 
ATOM     35  C   UNL     1     -11.328  10.581   2.900  1.00  0.00     0.010 A 
ATOM     36  C   UNL     1     -11.207   9.576   0.700  1.00  0.00     0.010 A 
ATOM     37  C   UNL     1     -11.873  10.404   1.617  1.00  0.00    -0.014 A 
BRANCH  37  38
ATOM     38  C   UNL     1     -13.133  11.082   1.215  1.00  0.00     0.031 A 
ATOM     39  C   UNL     1     -14.339  10.268   0.834  1.00  0.00     0.074 A 
ATOM     40  C   UNL     1     -13.171  12.428   1.138  1.00  0.00     0.049 A 
ATOM     41  N   UNL     1     -15.504  10.671   0.394  1.00  0.00    -0.248 NA
ATOM     42  C   UNL     1     -14.208   8.807   0.933  1.00  0.00     0.031 C 
ATOM     43  C   UNL     1     -12.053  13.324   1.444  1.00  0.00     0.029 A 
ATOM     44  N   UNL     1     -14.184  13.280   0.775  1.00  0.00    -0.354 N 
ATOM     45  C   UNL     1     -16.240   9.515   0.156  1.00  0.00     0.074 A 
ATOM     46  C   UNL     1     -15.364   8.397   0.436  1.00  0.00     0.031 C 
ATOM     47  C   UNL     1     -12.451  14.596   1.288  1.00  0.00     0.029 A 
ATOM     48  C   UNL     1     -13.832  14.610   0.816  1.00  0.00     0.049 A 
ATOM     49  H   UNL     1     -15.080  12.969   0.509  1.00  0.00     0.167 HD
ATOM     50  C   UNL     1     -17.533   9.398  -0.233  1.00  0.00     0.034 A 
ATOM     51  C   UNL     1     -14.535  15.715   0.496  1.00  0.00     0.034 A 
ATOM     52  C   UNL     1     -18.392  10.525  -0.504  1.00  0.00     0.049 A 
ATOM     53  C   UNL     1     -15.958  15.557   0.020  1.00  0.00     0.074 A 
ATOM     54  C   UNL     1     -19.731  10.522  -0.855  1.00  0.00     0.029 A 
ATOM     55  N   UNL     1     -17.997  11.857  -0.467  1.00  0.00    -0.354 N 
ATOM     56  N   UNL     1     -16.657  14.458  -0.147  1.00  0.00    -0.248 NA
ATOM     57  C   UNL     1     -16.689  16.789  -0.302  1.00  0.00     0.031 C 
ATOM     58  C   UNL     1     -20.121  11.841  -1.110  1.00  0.00     0.029 A 
ATOM     59  C   UNL     1     -19.054  12.679  -0.828  1.00  0.00     0.049 A 
ATOM     60  H   UNL     1     -17.097  12.171  -0.220  1.00  0.00     0.167 HD
ATOM     61  C   UNL     1     -17.921  14.871  -0.561  1.00  0.00     0.074 A 
ATOM     62  C   UNL     1     -17.891  16.319  -0.601  1.00  0.00     0.031 C 
ATOM     63  C   UNL     1     -19.009  14.122  -0.876  1.00  0.00     0.034 A 
BRANCH  50  64
ATOM     64  C   UNL     1     -18.083   8.002  -0.416  1.00  0.00     0.023 A 
ATOM     65  C   UNL     1     -18.157   7.091   0.652  1.00  0.00     0.031 A 
ATOM     66  C   UNL     1     -18.520   7.568  -1.680  1.00  0.00     0.131 A 
ATOM     67  C   UNL     1     -18.581   5.773   0.422  1.00  0.00     0.055 A 
ATOM     68  C   UNL     1     -19.025   6.282  -1.884  1.00  0.00     0.041 A 
ATOM     69  F   UNL     1     -18.452   8.383  -2.745  1.00  0.00    -0.206 F 
ATOM     70  C   UNL     1     -19.043   5.371  -0.832  1.00  0.00     0.022 A 
BRANCH  67  71
ATOM     71  S   UNL     1     -18.374   4.554   1.749  1.00  0.00     0.124 S 
ATOM     72  O   UNL     1     -16.935   4.625   1.992  1.00  0.00    -0.237 OA
ATOM     73  O   UNL     1     -19.227   5.087   2.804  1.00  0.00    -0.237 OA
ATOM     74  O   UNL     1     -18.834   3.307   1.143  1.00  0.00    -0.744 OA
ENDBRANCH  67  71
ENDBRANCH  50  64
BRANCH  51  75
ATOM     75  C   UNL     1     -13.910  17.067   0.594  1.00  0.00     0.023 A 
ATOM     76  C   UNL     1     -14.417  18.038   1.473  1.00  0.00     0.031 A 
ATOM     77  C   UNL     1     -12.826  17.426  -0.227  1.00  0.00     0.131 A 
ATOM     78  C   UNL     1     -13.877  19.334   1.473  1.00  0.00     0.055 A 
ATOM     79  C   UNL     1     -12.251  18.697  -0.178  1.00  0.00     0.041 A 
ATOM     80  F   UNL     1     -12.301  16.538  -1.086  1.00  0.00    -0.206 F 
ATOM     81  C   UNL     1     -12.787  19.665   0.665  1.00  0.00     0.022 A 
BRANCH  78  82
ATOM     82  S   UNL     1     -14.687  20.612   2.473  1.00  0.00     0.124 S 
ATOM     83  O   UNL     1     -16.042  20.594   1.935  1.00  0.00    -0.237 OA
ATOM     84  O   UNL     1     -14.524  20.088   3.825  1.00  0.00    -0.237 OA
ATOM     85  O   UNL     1     -13.913  21.816   2.176  1.00  0.00    -0.744 OA
ENDBRANCH  78  82
ENDBRANCH  51  75
BRANCH  63  86
ATOM     86  C   UNL     1     -20.272  14.864  -1.247  1.00  0.00     0.023 A 
ATOM     87  C   UNL     1     -20.356  15.655  -2.407  1.00  0.00     0.031 A 
ATOM     88  C   UNL     1     -21.407  14.782  -0.421  1.00  0.00     0.131 A 
ATOM     89  C   UNL     1     -21.527  16.379  -2.675  1.00  0.00     0.055 A 
ATOM     90  C   UNL     1     -22.593  15.449  -0.730  1.00  0.00     0.041 A 
ATOM     91  F   UNL     1     -21.384  14.046   0.702  1.00  0.00    -0.206 F 
ATOM     92  C   UNL     1     -22.653  16.265  -1.856  1.00  0.00     0.022 A 
BRANCH  89  93
ATOM     93  S   UNL     1     -21.526  17.555  -4.056  1.00  0.00     0.124 S 
ATOM     94  O   UNL     1     -20.428  18.445  -3.694  1.00  0.00    -0.237 OA
ATOM     95  O   UNL     1     -21.292  16.688  -5.206  1.00  0.00    -0.237 OA
ATOM     96  O   UNL     1     -22.857  18.157  -3.995  1.00  0.00    -0.744 OA
ENDBRANCH  89  93
ENDBRANCH  63  86
ENDBRANCH  37  38
ENDBRANCH  29  32
ENDBRANCH  27  28
ENDBRANCH  26  27
ENDBRANCH  25  26
ENDBRANCH   1  25
TORSDOF 19
