REMARK SMILES CCN1C(=O)CC[C@H](C(=O)NCCCCNC(=O)c2ccc(-c3c4nc(c(-c5cc(S(=O)(=O)[O-])ccc5F)c5ccc([nH]5)c(-c5cc(S(=O)(=O)[O-])ccc5F)c5nc(c(-c6cc(S(=O)(=O)[O-])ccc6F)c6ccc3[nH]6)C=C5)C=C4)cc2)[C@@H]1c1ccc(OC)cc1
REMARK SMILES IDX 14 1 13 2 12 3 11 4 9 5 10 6 8 8 3 9 4 10 82 11 5 12 6 13
REMARK SMILES IDX 7 14 2 15 1 16 83 17 84 18 90 19 85 20 89 21 86 22 87 23
REMARK SMILES IDX 88 24 15 25 16 26 17 27 18 29 19 30 20 31 81 32 21 33 80 34
REMARK SMILES IDX 22 35 23 36 24 37 74 38 25 39 79 40 73 41 75 42 26 43 78 44
REMARK SMILES IDX 72 45 71 46 27 48 59 49 39 50 58 51 40 52 43 53 57 54 76 55
REMARK SMILES IDX 41 56 42 57 56 59 77 60 44 61 28 62 29 63 37 64 30 65 36 66
REMARK SMILES IDX 38 67 35 68 31 69 32 70 33 71 34 72 60 73 61 74 69 75 62 76
REMARK SMILES IDX 68 77 70 78 67 79 63 80 64 81 65 82 66 83 45 84 46 85 54 86
REMARK SMILES IDX 47 87 53 88 55 89 52 90 48 91 49 92 50 93 51 94
REMARK H PARENT 11 7 16 28 75 47 43 58
REMARK Flexibility Score: inf
ROOT
ATOM      1  C   UNL     1       1.019  -5.668   5.724  1.00  0.00     0.023 C 
ENDROOT
BRANCH   1   2
ATOM      2  C   UNL     1       0.568  -5.587   4.267  1.00  0.00     0.023 C 
BRANCH   2   3
ATOM      3  C   UNL     1       1.076  -4.366   3.517  1.00  0.00     0.116 C 
BRANCH   3   4
ATOM      4  N   UNL     1       2.477  -4.438   3.153  1.00  0.00    -0.356 N 
ATOM      5  C   UNL     1       3.109  -4.035   2.017  1.00  0.00     0.225 C 
ATOM      6  O   UNL     1       4.336  -3.895   2.073  1.00  0.00    -0.275 OA
ATOM      7  H   UNL     1       3.063  -4.841   3.834  1.00  0.00     0.163 HD
BRANCH   5   8
ATOM      8  C   UNL     1       2.385  -3.764   0.699  1.00  0.00     0.106 C 
ATOM      9  N   UNL     1       1.047  -2.186  -0.754  1.00  0.00    -0.335 N 
ATOM     10  C   UNL     1       0.485  -3.256  -1.446  1.00  0.00     0.223 C 
ATOM     11  C   UNL     1       1.828  -2.336   0.506  1.00  0.00     0.128 C 
ATOM     12  O   UNL     1      -0.326  -3.096  -2.361  1.00  0.00    -0.275 OA
ATOM     13  C   UNL     1       0.992  -4.650  -1.155  1.00  0.00     0.101 C 
ATOM     14  C   UNL     1       1.427  -4.867   0.275  1.00  0.00     0.026 C 
BRANCH   9  15
ATOM     15  C   UNL     1       0.673  -0.856  -1.263  1.00  0.00     0.117 C 
ATOM     16  C   UNL     1       1.288   0.382  -0.629  1.00  0.00     0.027 C 
ENDBRANCH   9  15
BRANCH  11  17
ATOM     17  C   UNL     1       1.100  -1.744   1.709  1.00  0.00    -0.024 A 
ATOM     18  C   UNL     1      -0.298  -1.770   1.834  1.00  0.00     0.010 A 
ATOM     19  C   UNL     1       1.847  -1.116   2.726  1.00  0.00     0.010 A 
ATOM     20  C   UNL     1      -0.920  -1.206   2.952  1.00  0.00     0.047 A 
ATOM     21  C   UNL     1       1.221  -0.562   3.848  1.00  0.00     0.047 A 
ATOM     22  C   UNL     1      -0.165  -0.624   3.971  1.00  0.00     0.118 A 
BRANCH  22  23
ATOM     23  O   UNL     1      -0.889  -0.136   5.021  1.00  0.00    -0.497 OA
ATOM     24  C   UNL     1      -0.199  -0.045   6.263  1.00  0.00     0.278 C 
ENDBRANCH  22  23
ENDBRANCH  11  17
ENDBRANCH   5   8
ENDBRANCH   3   4
ENDBRANCH   2   3
ENDBRANCH   1   2
BRANCH   1  25
ATOM     25  C   UNL     1       0.811  -4.406   6.560  1.00  0.00     0.116 C 
BRANCH  25  26
ATOM     26  N   UNL     1      -0.548  -3.887   6.517  1.00  0.00    -0.352 N 
ATOM     27  C   UNL     1      -1.311  -3.375   7.542  1.00  0.00     0.251 C 
ATOM     28  H   UNL     1      -0.981  -3.904   5.633  1.00  0.00     0.163 HD
ATOM     29  O   UNL     1      -2.479  -3.068   7.346  1.00  0.00    -0.269 OA
BRANCH  27  30
ATOM     30  C   UNL     1      -0.716  -3.229   8.888  1.00  0.00     0.039 A 
ATOM     31  C   UNL     1      -1.416  -3.725   9.991  1.00  0.00     0.014 A 
ATOM     32  C   UNL     1       0.544  -2.647   9.056  1.00  0.00     0.014 A 
ATOM     33  C   UNL     1      -0.811  -3.719  11.249  1.00  0.00     0.010 A 
ATOM     34  C   UNL     1       1.167  -2.692  10.296  1.00  0.00     0.010 A 
ATOM     35  C   UNL     1       0.502  -3.246  11.399  1.00  0.00    -0.014 A 
BRANCH  35  36
ATOM     36  C   UNL     1       1.228  -3.376  12.684  1.00  0.00     0.031 A 
ATOM     37  C   UNL     1       1.621  -2.152  13.457  1.00  0.00     0.074 A 
ATOM     38  C   UNL     1       1.617  -4.601  13.088  1.00  0.00     0.049 A 
ATOM     39  N   UNL     1       2.320  -2.060  14.558  1.00  0.00    -0.248 NA
ATOM     40  C   UNL     1       1.198  -0.859  12.900  1.00  0.00     0.031 C 
ATOM     41  C   UNL     1       1.343  -5.851  12.373  1.00  0.00     0.029 A 
ATOM     42  N   UNL     1       2.340  -4.998  14.183  1.00  0.00    -0.354 N 
ATOM     43  C   UNL     1       2.424  -0.700  14.828  1.00  0.00     0.074 A 
ATOM     44  C   UNL     1       1.771  -0.006  13.737  1.00  0.00     0.031 C 
ATOM     45  C   UNL     1       1.877  -6.875  13.057  1.00  0.00     0.029 A 
ATOM     46  C   UNL     1       2.562  -6.355  14.235  1.00  0.00     0.049 A 
ATOM     47  H   UNL     1       2.668  -4.372  14.867  1.00  0.00     0.167 HD
ATOM     48  C   UNL     1       2.994  -0.092  15.898  1.00  0.00     0.034 A 
ATOM     49  C   UNL     1       3.249  -7.093  15.128  1.00  0.00     0.034 A 
ATOM     50  C   UNL     1       3.644  -0.810  16.969  1.00  0.00     0.049 A 
ATOM     51  C   UNL     1       3.886  -6.395  16.302  1.00  0.00     0.074 A 
ATOM     52  C   UNL     1       4.203  -0.307  18.131  1.00  0.00     0.029 A 
ATOM     53  N   UNL     1       3.836  -2.187  17.002  1.00  0.00    -0.354 N 
ATOM     54  N   UNL     1       3.911  -5.112  16.585  1.00  0.00    -0.248 NA
ATOM     55  C   UNL     1       4.570  -7.244  17.284  1.00  0.00     0.031 C 
ATOM     56  C   UNL     1       4.792  -1.367  18.829  1.00  0.00     0.029 A 
ATOM     57  C   UNL     1       4.532  -2.545  18.146  1.00  0.00     0.049 A 
ATOM     58  H   UNL     1       3.523  -2.816  16.313  1.00  0.00     0.167 HD
ATOM     59  C   UNL     1       4.586  -5.005  17.797  1.00  0.00     0.074 A 
ATOM     60  C   UNL     1       4.937  -6.354  18.195  1.00  0.00     0.031 C 
ATOM     61  C   UNL     1       4.886  -3.896  18.519  1.00  0.00     0.034 A 
BRANCH  48  62
ATOM     62  C   UNL     1       2.955   1.417  15.944  1.00  0.00     0.023 A 
ATOM     63  C   UNL     1       1.738   2.122  15.987  1.00  0.00     0.031 A 
ATOM     64  C   UNL     1       4.145   2.166  15.919  1.00  0.00     0.131 A 
ATOM     65  C   UNL     1       1.736   3.524  15.925  1.00  0.00     0.055 A 
ATOM     66  C   UNL     1       4.138   3.562  15.942  1.00  0.00     0.041 A 
ATOM     67  F   UNL     1       5.337   1.552  15.855  1.00  0.00    -0.206 F 
ATOM     68  C   UNL     1       2.928   4.250  15.929  1.00  0.00     0.022 A 
BRANCH  65  69
ATOM     69  S   UNL     1       0.152   4.376  15.688  1.00  0.00     0.124 S 
ATOM     70  O   UNL     1      -0.311   3.792  14.431  1.00  0.00    -0.237 OA
ATOM     71  O   UNL     1      -0.592   3.996  16.882  1.00  0.00    -0.237 OA
ATOM     72  O   UNL     1       0.530   5.786  15.609  1.00  0.00    -0.744 OA
ENDBRANCH  65  69
ENDBRANCH  48  62
BRANCH  49  73
ATOM     73  C   UNL     1       3.366  -8.569  14.956  1.00  0.00     0.023 A 
ATOM     74  C   UNL     1       2.784  -9.451  15.879  1.00  0.00     0.031 A 
ATOM     75  C   UNL     1       4.086  -9.120  13.881  1.00  0.00     0.131 A 
ATOM     76  C   UNL     1       2.971 -10.834  15.739  1.00  0.00     0.055 A 
ATOM     77  C   UNL     1       4.225 -10.499  13.716  1.00  0.00     0.041 A 
ATOM     78  F   UNL     1       4.654  -8.321  12.963  1.00  0.00    -0.206 F 
ATOM     79  C   UNL     1       3.676 -11.365  14.657  1.00  0.00     0.022 A 
BRANCH  76  80
ATOM     80  S   UNL     1       2.344 -11.930  17.041  1.00  0.00     0.124 S 
ATOM     81  O   UNL     1       3.025 -11.409  18.221  1.00  0.00    -0.237 OA
ATOM     82  O   UNL     1       0.906 -11.690  16.971  1.00  0.00    -0.237 OA
ATOM     83  O   UNL     1       2.775 -13.256  16.606  1.00  0.00    -0.744 OA
ENDBRANCH  76  80
ENDBRANCH  49  73
BRANCH  61  84
ATOM     84  C   UNL     1       5.592  -4.110  19.836  1.00  0.00     0.023 A 
ATOM     85  C   UNL     1       6.904  -4.610  19.899  1.00  0.00     0.031 A 
ATOM     86  C   UNL     1       4.932  -3.825  21.045  1.00  0.00     0.131 A 
ATOM     87  C   UNL     1       7.493  -4.867  21.146  1.00  0.00     0.055 A 
ATOM     88  C   UNL     1       5.548  -4.023  22.281  1.00  0.00     0.041 A 
ATOM     89  F   UNL     1       3.677  -3.349  21.043  1.00  0.00    -0.206 F 
ATOM     90  C   UNL     1       6.830  -4.560  22.337  1.00  0.00     0.022 A 
BRANCH  87  91
ATOM     91  S   UNL     1       9.104  -5.700  21.191  1.00  0.00     0.124 S 
ATOM     92  O   UNL     1       8.820  -6.945  20.483  1.00  0.00    -0.237 OA
ATOM     93  O   UNL     1       9.966  -4.752  20.494  1.00  0.00    -0.237 OA
ATOM     94  O   UNL     1       9.373  -5.848  22.620  1.00  0.00    -0.744 OA
ENDBRANCH  87  91
ENDBRANCH  61  84
ENDBRANCH  35  36
ENDBRANCH  27  30
ENDBRANCH  25  26
ENDBRANCH   1  25
TORSDOF 17
