REMARK SMILES O=C(NCCCCNC(=O)c1cc(Br)ccc1OCc1ccc(O)cc1)c1ccc(-c2c3nc(c(-c4cc(S(=O)(=O)[O-])ccc4F)c4ccc([nH]4)c(-c4cc(S(=O)(=O)[O-])ccc4F)c4nc(c(-c5cc(S(=O)(=O)[O-])ccc5F)c5ccc2[nH]5)C=C4)C=C3)cc1
REMARK SMILES IDX 6 1 5 2 4 3 3 4 1 5 2 6 27 8 28 9 89 10 29 11 88 12 30 13
REMARK SMILES IDX 31 14 32 15 82 16 33 17 87 18 81 19 83 20 34 21 86 22 80 23
REMARK SMILES IDX 79 24 35 26 67 27 47 28 66 29 48 30 51 31 65 32 84 33 49 34
REMARK SMILES IDX 50 35 64 37 85 38 52 39 36 40 37 41 45 42 38 43 44 44 46 45
REMARK SMILES IDX 43 46 39 47 40 48 41 49 42 50 68 51 69 52 77 53 70 54 76 55
REMARK SMILES IDX 78 56 75 57 71 58 72 59 73 60 74 61 53 62 54 63 62 64 55 65
REMARK SMILES IDX 61 66 63 67 60 68 56 69 57 70 58 71 59 72 7 73 8 74 9 75
REMARK SMILES IDX 10 77 11 78 12 79 17 80 13 81 16 82 14 83 15 84 18 85 19 86
REMARK SMILES IDX 20 87 21 88 26 89 22 90 25 91 23 92 24 93
REMARK H PARENT 3 7 83 25 51 36 8 76 24 94
REMARK Flexibility Score: inf
ROOT
ATOM      1  C   UNL     1       4.350  -0.421   3.883  1.00  0.00     0.023 C 
ENDROOT
BRANCH   1   2
ATOM      2  C   UNL     1       4.861   0.297   2.631  1.00  0.00     0.023 C 
BRANCH   2   3
ATOM      3  C   UNL     1       4.516  -0.316   1.276  1.00  0.00     0.116 C 
BRANCH   3   4
ATOM      4  N   UNL     1       3.091  -0.422   1.030  1.00  0.00    -0.352 N 
ATOM      5  O   UNL     1       1.109  -0.073   0.038  1.00  0.00    -0.269 OA
ATOM      6  C   UNL     1       2.328   0.086   0.007  1.00  0.00     0.251 C 
ATOM      7  H   UNL     1       2.592  -0.940   1.702  1.00  0.00     0.163 HD
BRANCH   6   8
ATOM      8  C   UNL     1       2.940   0.854  -1.104  1.00  0.00     0.039 A 
ATOM      9  C   UNL     1       4.080   0.410  -1.783  1.00  0.00     0.014 A 
ATOM     10  C   UNL     1       2.317   2.043  -1.499  1.00  0.00     0.014 A 
ATOM     11  C   UNL     1       4.660   1.210  -2.772  1.00  0.00     0.010 A 
ATOM     12  C   UNL     1       2.871   2.819  -2.521  1.00  0.00     0.010 A 
ATOM     13  C   UNL     1       4.066   2.425  -3.143  1.00  0.00    -0.014 A 
BRANCH  13  14
ATOM     14  C   UNL     1       4.681   3.288  -4.183  1.00  0.00     0.031 A 
ATOM     15  C   UNL     1       5.303   4.605  -3.807  1.00  0.00     0.074 A 
ATOM     16  C   UNL     1       4.641   2.910  -5.474  1.00  0.00     0.049 A 
ATOM     17  N   UNL     1       5.811   5.532  -4.579  1.00  0.00    -0.248 NA
ATOM     18  C   UNL     1       5.342   4.926  -2.373  1.00  0.00     0.031 C 
ATOM     19  C   UNL     1       4.044   1.670  -5.972  1.00  0.00     0.029 A 
ATOM     20  N   UNL     1       5.092   3.544  -6.603  1.00  0.00    -0.354 N 
ATOM     21  C   UNL     1       6.214   6.556  -3.730  1.00  0.00     0.074 A 
ATOM     22  C   UNL     1       5.867   6.143  -2.385  1.00  0.00     0.031 C 
ATOM     23  C   UNL     1       4.152   1.641  -7.311  1.00  0.00     0.029 A 
ATOM     24  C   UNL     1       4.797   2.870  -7.763  1.00  0.00     0.049 A 
ATOM     25  H   UNL     1       5.579   4.399  -6.584  1.00  0.00     0.167 HD
ATOM     26  C   UNL     1       6.824   7.728  -4.039  1.00  0.00     0.034 A 
ATOM     27  C   UNL     1       4.993   3.215  -9.049  1.00  0.00     0.034 A 
ATOM     28  C   UNL     1       7.179   8.130  -5.378  1.00  0.00     0.049 A 
ATOM     29  C   UNL     1       5.648   4.526  -9.374  1.00  0.00     0.074 A 
ATOM     30  C   UNL     1       7.868   9.258  -5.790  1.00  0.00     0.029 A 
ATOM     31  N   UNL     1       6.858   7.421  -6.528  1.00  0.00    -0.354 N 
ATOM     32  N   UNL     1       6.051   5.469  -8.558  1.00  0.00    -0.248 NA
ATOM     33  C   UNL     1       5.873   4.816 -10.796  1.00  0.00     0.031 C 
ATOM     34  C   UNL     1       7.925   9.253  -7.191  1.00  0.00     0.029 A 
ATOM     35  C   UNL     1       7.308   8.101  -7.649  1.00  0.00     0.049 A 
ATOM     36  H   UNL     1       6.381   6.560  -6.544  1.00  0.00     0.167 HD
ATOM     37  C   UNL     1       6.582   6.466  -9.367  1.00  0.00     0.074 A 
ATOM     38  C   UNL     1       6.450   6.009 -10.737  1.00  0.00     0.031 C 
ATOM     39  C   UNL     1       7.139   7.649  -9.008  1.00  0.00     0.034 A 
BRANCH  26  40
ATOM     40  C   UNL     1       7.105   8.672  -2.900  1.00  0.00     0.023 A 
ATOM     41  C   UNL     1       8.056   8.369  -1.911  1.00  0.00     0.031 A 
ATOM     42  C   UNL     1       6.379   9.869  -2.777  1.00  0.00     0.131 A 
ATOM     43  C   UNL     1       8.209   9.218  -0.805  1.00  0.00     0.055 A 
ATOM     44  C   UNL     1       6.578  10.741  -1.705  1.00  0.00     0.041 A 
ATOM     45  F   UNL     1       5.445  10.197  -3.684  1.00  0.00    -0.206 F 
ATOM     46  C   UNL     1       7.487  10.411  -0.704  1.00  0.00     0.022 A 
BRANCH  43  47
ATOM     47  S   UNL     1       9.257   8.672   0.571  1.00  0.00     0.124 S 
ATOM     48  O   UNL     1       8.700   7.354   0.870  1.00  0.00    -0.237 OA
ATOM     49  O   UNL     1      10.588   8.683  -0.025  1.00  0.00    -0.237 OA
ATOM     50  O   UNL     1       9.025   9.682   1.601  1.00  0.00    -0.744 OA
ENDBRANCH  43  47
ENDBRANCH  26  40
BRANCH  27  51
ATOM     51  C   UNL     1       4.499   2.323 -10.126  1.00  0.00     0.023 A 
ATOM     52  C   UNL     1       5.371   1.479 -10.828  1.00  0.00     0.031 A 
ATOM     53  C   UNL     1       3.131   2.296 -10.446  1.00  0.00     0.131 A 
ATOM     54  C   UNL     1       4.862   0.644 -11.833  1.00  0.00     0.055 A 
ATOM     55  C   UNL     1       2.627   1.449 -11.432  1.00  0.00     0.041 A 
ATOM     56  F   UNL     1       2.265   3.080  -9.784  1.00  0.00    -0.206 F 
ATOM     57  C   UNL     1       3.496   0.618 -12.134  1.00  0.00     0.022 A 
BRANCH  54  58
ATOM     58  S   UNL     1       6.011  -0.426 -12.742  1.00  0.00     0.124 S 
ATOM     59  O   UNL     1       6.786   0.548 -13.503  1.00  0.00    -0.237 OA
ATOM     60  O   UNL     1       6.719  -1.106 -11.662  1.00  0.00    -0.237 OA
ATOM     61  O   UNL     1       5.127  -1.279 -13.534  1.00  0.00    -0.744 OA
ENDBRANCH  54  58
ENDBRANCH  27  51
BRANCH  39  62
ATOM     62  C   UNL     1       7.662   8.512 -10.121  1.00  0.00     0.023 A 
ATOM     63  C   UNL     1       6.797   9.284 -10.914  1.00  0.00     0.031 A 
ATOM     64  C   UNL     1       9.038   8.544 -10.401  1.00  0.00     0.131 A 
ATOM     65  C   UNL     1       7.317  10.036 -11.978  1.00  0.00     0.055 A 
ATOM     66  C   UNL     1       9.554   9.317 -11.441  1.00  0.00     0.041 A 
ATOM     67  F   UNL     1       9.899   7.818  -9.670  1.00  0.00    -0.206 F 
ATOM     68  C   UNL     1       8.691  10.064 -12.240  1.00  0.00     0.022 A 
BRANCH  65  69
ATOM     69  S   UNL     1       6.174  10.960 -13.042  1.00  0.00     0.124 S 
ATOM     70  O   UNL     1       5.450   9.884 -13.712  1.00  0.00    -0.237 OA
ATOM     71  O   UNL     1       5.407  11.742 -12.079  1.00  0.00    -0.237 OA
ATOM     72  O   UNL     1       7.062  11.740 -13.902  1.00  0.00    -0.744 OA
ENDBRANCH  65  69
ENDBRANCH  39  62
ENDBRANCH  13  14
ENDBRANCH   6   8
ENDBRANCH   3   4
ENDBRANCH   2   3
ENDBRANCH   1   2
BRANCH   1  73
ATOM     73  C   UNL     1       4.518  -1.936   3.942  1.00  0.00     0.116 C 
BRANCH  73  74
ATOM     74  N   UNL     1       5.819  -2.417   3.521  1.00  0.00    -0.352 N 
ATOM     75  C   UNL     1       6.380  -3.632   3.823  1.00  0.00     0.255 C 
ATOM     76  H   UNL     1       6.355  -1.810   2.961  1.00  0.00     0.163 HD
ATOM     77  O   UNL     1       7.188  -4.152   3.063  1.00  0.00    -0.269 OA
BRANCH  75  78
ATOM     78  C   UNL     1       5.949  -4.342   5.034  1.00  0.00     0.082 A 
ATOM     79  C   UNL     1       4.861  -5.214   4.842  1.00  0.00     0.033 A 
ATOM     80  C   UNL     1       6.556  -4.223   6.292  1.00  0.00     0.132 A 
ATOM     81  C   UNL     1       4.349  -5.938   5.913  1.00  0.00     0.019 A 
ATOM     82  C   UNL     1       6.006  -4.959   7.356  1.00  0.00     0.048 A 
ATOM     83  Br  UNL     1       2.885  -7.102   5.651  1.00  0.00    -0.051 Br
ATOM     84  C   UNL     1       4.912  -5.808   7.176  1.00  0.00     0.019 A 
BRANCH  80  85
ATOM     85  O   UNL     1       7.650  -3.517   6.702  1.00  0.00    -0.488 OA
BRANCH  85  86
ATOM     86  C   UNL     1       8.481  -2.771   5.813  1.00  0.00     0.265 C 
BRANCH  86  87
ATOM     87  C   UNL     1       9.447  -3.583   4.978  1.00  0.00    -0.010 A 
ATOM     88  C   UNL     1       9.645  -4.960   5.165  1.00  0.00     0.011 A 
ATOM     89  C   UNL     1      10.155  -2.936   3.949  1.00  0.00     0.011 A 
ATOM     90  C   UNL     1      10.465  -5.686   4.297  1.00  0.00     0.046 A 
ATOM     91  C   UNL     1      10.988  -3.658   3.093  1.00  0.00     0.046 A 
ATOM     92  C   UNL     1      11.117  -5.030   3.258  1.00  0.00     0.115 A 
BRANCH  92  93
ATOM     93  O   UNL     1      11.889  -5.714   2.366  1.00  0.00    -0.508 OA
ATOM     94  H   UNL     1      11.994  -6.641   2.452  1.00  0.00     0.293 HD
ENDBRANCH  92  93
ENDBRANCH  86  87
ENDBRANCH  85  86
ENDBRANCH  80  85
ENDBRANCH  75  78
ENDBRANCH  73  74
ENDBRANCH   1  73
TORSDOF 18
