REMARK SMILES O=C(NCCCCNC(=O)c1csc(S(=O)(=O)Nc2ccc(F)cc2)c1)c1ccc(-c2c3nc(c(-c4cc(S(=O)(=O)[O-])ccc4F)c4ccc([nH]4)c(-c4cc(S(=O)(=O)[O-])ccc4F)c4nc(c(-c5cc(S(=O)(=O)[O-])ccc5F)c5ccc2[nH]5)C=C4)C=C3)cc1
REMARK SMILES IDX 5 1 4 2 3 3 1 4 2 5 27 7 28 8 89 9 29 10 88 11 30 12 31 13
REMARK SMILES IDX 32 14 82 15 33 16 87 17 81 18 83 19 34 20 86 21 80 22 79 23
REMARK SMILES IDX 35 25 67 26 47 27 66 28 48 29 51 30 65 31 84 32 49 33 50 34
REMARK SMILES IDX 64 36 85 37 52 38 36 39 37 40 45 41 38 42 44 43 46 44 43 45
REMARK SMILES IDX 39 46 40 47 41 48 42 49 68 50 69 51 77 52 70 53 76 54 78 55
REMARK SMILES IDX 75 56 71 57 72 58 73 59 74 60 53 61 54 62 62 63 55 64 61 65
REMARK SMILES IDX 63 66 60 67 56 68 57 69 58 70 59 71 6 72 7 73 8 74 9 75
REMARK SMILES IDX 10 77 11 78 12 79 26 80 13 81 14 82 15 83 16 84 17 85 18 86
REMARK SMILES IDX 19 88 20 89 25 90 21 91 24 92 22 93 23 94
REMARK H PARENT 3 6 83 24 51 35 8 76 18 87
REMARK Flexibility Score: inf
ROOT
ATOM      1  C   UNL     1       5.052  -1.921   1.967  1.00  0.00     0.023 C 
ENDROOT
BRANCH   1   2
ATOM      2  C   UNL     1       4.667  -1.239   0.659  1.00  0.00     0.116 C 
BRANCH   2   3
ATOM      3  N   UNL     1       3.230  -1.139   0.457  1.00  0.00    -0.352 N 
ATOM      4  O   UNL     1       1.249  -0.141   0.072  1.00  0.00    -0.269 OA
ATOM      5  C   UNL     1       2.473  -0.046   0.106  1.00  0.00     0.251 C 
ATOM      6  H   UNL     1       2.727  -1.975   0.591  1.00  0.00     0.163 HD
BRANCH   5   7
ATOM      7  C   UNL     1       3.126   1.249  -0.196  1.00  0.00     0.039 A 
ATOM      8  C   UNL     1       4.255   1.313  -1.015  1.00  0.00     0.014 A 
ATOM      9  C   UNL     1       2.596   2.419   0.357  1.00  0.00     0.014 A 
ATOM     10  C   UNL     1       4.935   2.519  -1.162  1.00  0.00     0.010 A 
ATOM     11  C   UNL     1       3.239   3.644   0.146  1.00  0.00     0.010 A 
ATOM     12  C   UNL     1       4.433   3.698  -0.588  1.00  0.00    -0.014 A 
BRANCH  12  13
ATOM     13  C   UNL     1       5.153   4.980  -0.802  1.00  0.00     0.031 A 
ATOM     14  C   UNL     1       5.808   5.703   0.344  1.00  0.00     0.074 A 
ATOM     15  C   UNL     1       5.250   5.470  -2.054  1.00  0.00     0.049 A 
ATOM     16  N   UNL     1       6.468   6.833   0.334  1.00  0.00    -0.248 NA
ATOM     17  C   UNL     1       5.708   5.080   1.673  1.00  0.00     0.031 C 
ATOM     18  C   UNL     1       4.668   4.849  -3.247  1.00  0.00     0.029 A 
ATOM     19  N   UNL     1       5.890   6.582  -2.538  1.00  0.00    -0.354 N 
ATOM     20  C   UNL     1       6.851   7.066   1.650  1.00  0.00     0.074 A 
ATOM     21  C   UNL     1       6.329   5.968   2.438  1.00  0.00     0.031 C 
ATOM     22  C   UNL     1       5.022   5.559  -4.329  1.00  0.00     0.029 A 
ATOM     23  C   UNL     1       5.797   6.719  -3.903  1.00  0.00     0.049 A 
ATOM     24  H   UNL     1       6.371   7.221  -1.963  1.00  0.00     0.167 HD
ATOM     25  C   UNL     1       7.575   8.097   2.151  1.00  0.00     0.034 A 
ATOM     26  C   UNL     1       6.265   7.679  -4.723  1.00  0.00     0.034 A 
ATOM     27  C   UNL     1       8.101   9.178   1.355  1.00  0.00     0.049 A 
ATOM     28  C   UNL     1       7.023   8.835  -4.135  1.00  0.00     0.074 A 
ATOM     29  C   UNL     1       8.863  10.258   1.768  1.00  0.00     0.029 A 
ATOM     30  N   UNL     1       7.923   9.319  -0.014  1.00  0.00    -0.354 N 
ATOM     31  N   UNL     1       7.341   9.056  -2.882  1.00  0.00    -0.248 NA
ATOM     32  C   UNL     1       7.471   9.877  -5.068  1.00  0.00     0.031 C 
ATOM     33  C   UNL     1       9.100  11.078   0.659  1.00  0.00     0.029 A 
ATOM     34  C   UNL     1       8.537  10.480  -0.456  1.00  0.00     0.049 A 
ATOM     35  H   UNL     1       7.432   8.687  -0.587  1.00  0.00     0.167 HD
ATOM     36  C   UNL     1       8.030  10.262  -2.876  1.00  0.00     0.074 A 
ATOM     37  C   UNL     1       8.094  10.715  -4.251  1.00  0.00     0.031 C 
ATOM     38  C   UNL     1       8.565  10.933  -1.825  1.00  0.00     0.034 A 
BRANCH  25  39
ATOM     39  C   UNL     1       7.811   8.129   3.639  1.00  0.00     0.023 A 
ATOM     40  C   UNL     1       8.676   7.219   4.269  1.00  0.00     0.031 A 
ATOM     41  C   UNL     1       7.182   9.106   4.431  1.00  0.00     0.131 A 
ATOM     42  C   UNL     1       8.861   7.282   5.660  1.00  0.00     0.055 A 
ATOM     43  C   UNL     1       7.414   9.199   5.804  1.00  0.00     0.041 A 
ATOM     44  F   UNL     1       6.334   9.988   3.880  1.00  0.00    -0.206 F 
ATOM     45  C   UNL     1       8.254   8.280   6.427  1.00  0.00     0.022 A 
BRANCH  42  46
ATOM     46  S   UNL     1       9.857   6.000   6.467  1.00  0.00     0.124 S 
ATOM     47  O   UNL     1       9.040   4.810   6.244  1.00  0.00    -0.237 OA
ATOM     48  O   UNL     1      11.113   6.059   5.728  1.00  0.00    -0.237 OA
ATOM     49  O   UNL     1       9.931   6.447   7.856  1.00  0.00    -0.744 OA
ENDBRANCH  42  46
ENDBRANCH  25  39
BRANCH  26  50
ATOM     50  C   UNL     1       5.990   7.601  -6.182  1.00  0.00     0.023 A 
ATOM     51  C   UNL     1       7.016   7.332  -7.099  1.00  0.00     0.031 A 
ATOM     52  C   UNL     1       4.684   7.776  -6.675  1.00  0.00     0.131 A 
ATOM     53  C   UNL     1       6.722   7.258  -8.469  1.00  0.00     0.055 A 
ATOM     54  C   UNL     1       4.391   7.665  -8.034  1.00  0.00     0.041 A 
ATOM     55  F   UNL     1       3.669   8.024  -5.832  1.00  0.00    -0.206 F 
ATOM     56  C   UNL     1       5.415   7.410  -8.940  1.00  0.00     0.022 A 
BRANCH  53  57
ATOM     57  S   UNL     1       8.079   6.974  -9.638  1.00  0.00     0.124 S 
ATOM     58  O   UNL     1       8.868   8.190  -9.478  1.00  0.00    -0.237 OA
ATOM     59  O   UNL     1       8.676   5.747  -9.120  1.00  0.00    -0.237 OA
ATOM     60  O   UNL     1       7.396   6.835 -10.923  1.00  0.00    -0.744 OA
ENDBRANCH  53  57
ENDBRANCH  26  50
BRANCH  38  61
ATOM     61  C   UNL     1       9.276  12.223  -2.129  1.00  0.00     0.023 A 
ATOM     62  C   UNL     1       8.565  13.385  -2.470  1.00  0.00     0.031 A 
ATOM     63  C   UNL     1      10.678  12.291  -2.058  1.00  0.00     0.131 A 
ATOM     64  C   UNL     1       9.264  14.566  -2.759  1.00  0.00     0.055 A 
ATOM     65  C   UNL     1      11.365  13.480  -2.306  1.00  0.00     0.041 A 
ATOM     66  F   UNL     1      11.399  11.206  -1.736  1.00  0.00    -0.206 F 
ATOM     67  C   UNL     1      10.658  14.625  -2.664  1.00  0.00     0.022 A 
BRANCH  64  68
ATOM     68  S   UNL     1       8.329  16.026  -3.293  1.00  0.00     0.124 S 
ATOM     69  O   UNL     1       7.807  15.593  -4.585  1.00  0.00    -0.237 OA
ATOM     70  O   UNL     1       7.345  16.180  -2.227  1.00  0.00    -0.237 OA
ATOM     71  O   UNL     1       9.342  17.078  -3.353  1.00  0.00    -0.744 OA
ENDBRANCH  64  68
ENDBRANCH  38  61
ENDBRANCH  12  13
ENDBRANCH   5   7
ENDBRANCH   2   3
ENDBRANCH   1   2
BRANCH   1  72
ATOM     72  C   UNL     1       4.543  -3.349   2.154  1.00  0.00     0.023 C 
BRANCH  72  73
ATOM     73  C   UNL     1       4.767  -4.301   0.981  1.00  0.00     0.116 C 
BRANCH  73  74
ATOM     74  N   UNL     1       6.166  -4.461   0.619  1.00  0.00    -0.352 N 
ATOM     75  C   UNL     1       6.974  -5.571   0.635  1.00  0.00     0.252 C 
ATOM     76  H   UNL     1       6.607  -3.636   0.311  1.00  0.00     0.163 HD
ATOM     77  O   UNL     1       8.169  -5.445   0.377  1.00  0.00    -0.269 OA
BRANCH  75  78
ATOM     78  C   UNL     1       6.423  -6.854   1.049  1.00  0.00     0.051 A 
ATOM     79  C   UNL     1       5.260  -7.432   0.584  1.00  0.00     0.080 A 
ATOM     80  C   UNL     1       7.079  -7.739   1.967  1.00  0.00     0.048 A 
ATOM     81  S   UNL     1       4.844  -8.846   1.450  1.00  0.00    -0.130 S 
ATOM     82  C   UNL     1       6.249  -8.739   2.434  1.00  0.00     0.141 A 
BRANCH  82  83
ATOM     83  S   UNL     1       6.328  -9.922   3.761  1.00  0.00     0.271 S 
ATOM     84  O   UNL     1       5.027  -9.889   4.390  1.00  0.00    -0.200 OA
ATOM     85  O   UNL     1       6.832 -11.136   3.145  1.00  0.00    -0.200 OA
BRANCH  83  86
ATOM     86  N   UNL     1       7.448  -9.550   4.973  1.00  0.00    -0.279 N 
ATOM     87  H   UNL     1       7.586 -10.181   5.716  1.00  0.00     0.180 HD
BRANCH  86  88
ATOM     88  C   UNL     1       8.193  -8.342   4.937  1.00  0.00     0.049 A 
ATOM     89  C   UNL     1       7.565  -7.105   5.110  1.00  0.00     0.030 A 
ATOM     90  C   UNL     1       9.567  -8.408   4.686  1.00  0.00     0.030 A 
ATOM     91  C   UNL     1       8.312  -5.929   4.992  1.00  0.00     0.041 A 
ATOM     92  C   UNL     1      10.311  -7.233   4.581  1.00  0.00     0.041 A 
ATOM     93  C   UNL     1       9.676  -6.004   4.725  1.00  0.00     0.123 A 
ATOM     94  F   UNL     1      10.389  -4.879   4.602  1.00  0.00    -0.207 F 
ENDBRANCH  86  88
ENDBRANCH  83  86
ENDBRANCH  82  83
ENDBRANCH  75  78
ENDBRANCH  73  74
ENDBRANCH  72  73
ENDBRANCH   1  72
TORSDOF 17
