REMARK SMILES CCCOc1cc(NC[C@H]2CC[C@@H](C(=O)NCCCCNC(=O)c3ccc(-c4c5nc(c(-c6cc(S(=O)(=O)[O-])ccc6F)c6ccc([nH]6)c(-c6cc(S(=O)(=O)[O-])ccc6F)c6nc(c(-c7cc(S(=O)(=O)[O-])ccc7F)c7ccc4[nH]7)C=C6)C=C5)cc3)O2)ncn1
REMARK SMILES IDX 17 1 16 2 14 3 15 4 13 6 10 7 11 8 87 9 12 10 9 11 8 12 7 14
REMARK SMILES IDX 5 15 6 16 90 17 89 18 88 19 4 20 3 21 2 22 1 23 18 24 19 25
REMARK SMILES IDX 20 26 21 27 22 28 23 30 24 31 25 32 86 33 26 34 85 35 27 36
REMARK SMILES IDX 28 37 29 38 79 39 30 40 84 41 78 42 80 43 31 44 83 45 77 46
REMARK SMILES IDX 76 47 32 49 64 50 44 51 63 52 45 53 48 54 62 55 81 56 46 57
REMARK SMILES IDX 47 58 61 60 82 61 49 62 33 63 34 64 42 65 35 66 41 67 43 68
REMARK SMILES IDX 40 69 36 70 37 71 38 72 39 73 65 74 66 75 74 76 67 77 73 78
REMARK SMILES IDX 75 79 72 80 68 81 69 82 70 83 71 84 50 85 51 86 59 87 52 88
REMARK SMILES IDX 58 89 60 90 57 91 53 92 54 93 55 94 56 95
REMARK H PARENT 16 5 8 13 21 29 80 48 48 59
REMARK Flexibility Score: inf
ROOT
ATOM      1  C   UNL     1       2.949  -3.595  -6.946  1.00  0.00     0.116 C 
ENDROOT
BRANCH   1   2
ATOM      2  N   UNL     1       3.760  -3.373  -5.763  1.00  0.00    -0.354 N 
ATOM      3  C   UNL     1       3.788  -2.304  -4.910  1.00  0.00     0.249 C 
ATOM      4  O   UNL     1       4.535  -2.364  -3.934  1.00  0.00    -0.272 OA
ATOM      5  H   UNL     1       4.384  -4.102  -5.542  1.00  0.00     0.163 HD
BRANCH   3   6
ATOM      6  C   UNL     1       2.916  -1.075  -5.219  1.00  0.00     0.207 C 
ATOM      7  C   UNL     1       3.071   1.140  -4.450  1.00  0.00     0.138 C 
ATOM      8  C   UNL     1       3.076   1.156  -5.971  1.00  0.00     0.037 C 
ATOM      9  O   UNL     1       2.703  -0.205  -4.094  1.00  0.00    -0.363 OA
ATOM     10  C   UNL     1       3.563  -0.229  -6.307  1.00  0.00     0.045 C 
BRANCH   7  11
ATOM     11  C   UNL     1       4.445   1.519  -3.840  1.00  0.00     0.146 C 
BRANCH  11  12
ATOM     12  N   UNL     1       4.277   2.328  -2.633  1.00  0.00    -0.367 N 
ATOM     13  H   UNL     1       4.065   3.286  -2.712  1.00  0.00     0.162 HD
BRANCH  12  14
ATOM     14  C   UNL     1       4.416   1.753  -1.377  1.00  0.00     0.133 A 
ATOM     15  C   UNL     1       4.095   1.864   0.933  1.00  0.00     0.218 A 
ATOM     16  C   UNL     1       4.102   2.515  -0.276  1.00  0.00     0.115 A 
ATOM     17  N   UNL     1       4.507   0.606   1.123  1.00  0.00    -0.202 NA
ATOM     18  C   UNL     1       4.907  -0.009   0.004  1.00  0.00     0.228 A 
ATOM     19  N   UNL     1       4.867   0.501  -1.238  1.00  0.00    -0.219 NA
BRANCH  15  20
ATOM     20  O   UNL     1       3.592   2.531   2.025  1.00  0.00    -0.478 OA
BRANCH  20  21
ATOM     21  C   UNL     1       2.200   2.213   2.193  1.00  0.00     0.231 C 
BRANCH  21  22
ATOM     22  C   UNL     1       1.315   3.209   1.429  1.00  0.00     0.038 C 
ATOM     23  C   UNL     1       0.726   2.627   0.148  1.00  0.00     0.007 C 
ENDBRANCH  21  22
ENDBRANCH  20  21
ENDBRANCH  15  20
ENDBRANCH  12  14
ENDBRANCH  11  12
ENDBRANCH   7  11
ENDBRANCH   3   6
ENDBRANCH   1   2
BRANCH   1  24
ATOM     24  C   UNL     1       3.795  -3.760  -8.207  1.00  0.00     0.023 C 
BRANCH  24  25
ATOM     25  C   UNL     1       4.759  -4.950  -8.194  1.00  0.00     0.023 C 
BRANCH  25  26
ATOM     26  C   UNL     1       4.125  -6.312  -7.929  1.00  0.00     0.116 C 
BRANCH  26  27
ATOM     27  N   UNL     1       3.154  -6.692  -8.942  1.00  0.00    -0.352 N 
ATOM     28  C   UNL     1       3.036  -7.875  -9.641  1.00  0.00     0.251 C 
ATOM     29  H   UNL     1       2.483  -6.006  -9.161  1.00  0.00     0.163 HD
ATOM     30  O   UNL     1       2.236  -7.955 -10.559  1.00  0.00    -0.269 OA
BRANCH  28  31
ATOM     31  C   UNL     1       3.906  -9.027  -9.299  1.00  0.00     0.039 A 
ATOM     32  C   UNL     1       4.522  -9.737 -10.334  1.00  0.00     0.014 A 
ATOM     33  C   UNL     1       4.121  -9.403  -7.971  1.00  0.00     0.014 A 
ATOM     34  C   UNL     1       5.412 -10.773 -10.033  1.00  0.00     0.010 A 
ATOM     35  C   UNL     1       5.062 -10.387  -7.671  1.00  0.00     0.010 A 
ATOM     36  C   UNL     1       5.722 -11.080  -8.698  1.00  0.00    -0.014 A 
BRANCH  36  37
ATOM     37  C   UNL     1       6.730 -12.119  -8.352  1.00  0.00     0.031 A 
ATOM     38  C   UNL     1       6.314 -13.346  -7.585  1.00  0.00     0.074 A 
ATOM     39  C   UNL     1       8.028 -11.925  -8.657  1.00  0.00     0.049 A 
ATOM     40  N   UNL     1       7.053 -14.306  -7.092  1.00  0.00    -0.248 NA
ATOM     41  C   UNL     1       4.877 -13.493  -7.314  1.00  0.00     0.031 C 
ATOM     42  C   UNL     1       8.564 -10.763  -9.370  1.00  0.00     0.029 A 
ATOM     43  N   UNL     1       9.138 -12.691  -8.396  1.00  0.00    -0.354 N 
ATOM     44  C   UNL     1       6.175 -15.163  -6.436  1.00  0.00     0.074 A 
ATOM     45  C   UNL     1       4.857 -14.572  -6.546  1.00  0.00     0.031 C 
ATOM     46  C   UNL     1       9.893 -10.903  -9.504  1.00  0.00     0.029 A 
ATOM     47  C   UNL     1      10.314 -12.135  -8.844  1.00  0.00     0.049 A 
ATOM     48  H   UNL     1       9.095 -13.557  -7.930  1.00  0.00     0.167 HD
ATOM     49  C   UNL     1       6.438 -16.342  -5.819  1.00  0.00     0.034 A 
ATOM     50  C   UNL     1      11.588 -12.558  -8.723  1.00  0.00     0.034 A 
ATOM     51  C   UNL     1       7.756 -16.923  -5.726  1.00  0.00     0.049 A 
ATOM     52  C   UNL     1      11.863 -13.854  -8.002  1.00  0.00     0.074 A 
ATOM     53  C   UNL     1       8.127 -18.134  -5.168  1.00  0.00     0.029 A 
ATOM     54  N   UNL     1       8.923 -16.330  -6.194  1.00  0.00    -0.354 N 
ATOM     55  N   UNL     1      11.016 -14.673  -7.423  1.00  0.00    -0.248 NA
ATOM     56  C   UNL     1      13.265 -14.286  -7.927  1.00  0.00     0.031 C 
ATOM     57  C   UNL     1       9.521 -18.242  -5.236  1.00  0.00     0.029 A 
ATOM     58  C   UNL     1      10.015 -17.137  -5.910  1.00  0.00     0.049 A 
ATOM     59  H   UNL     1       8.968 -15.464  -6.659  1.00  0.00     0.167 HD
ATOM     60  C   UNL     1      11.781 -15.735  -6.946  1.00  0.00     0.074 A 
ATOM     61  C   UNL     1      13.154 -15.455  -7.313  1.00  0.00     0.031 C 
ATOM     62  C   UNL     1      11.382 -16.845  -6.274  1.00  0.00     0.034 A 
BRANCH  49  63
ATOM     63  C   UNL     1       5.276 -17.061  -5.173  1.00  0.00     0.023 A 
ATOM     64  C   UNL     1       4.178 -17.516  -5.926  1.00  0.00     0.031 A 
ATOM     65  C   UNL     1       5.245 -17.264  -3.782  1.00  0.00     0.131 A 
ATOM     66  C   UNL     1       3.063 -18.068  -5.278  1.00  0.00     0.055 A 
ATOM     67  C   UNL     1       4.170 -17.895  -3.152  1.00  0.00     0.041 A 
ATOM     68  F   UNL     1       6.253 -16.835  -3.006  1.00  0.00    -0.206 F 
ATOM     69  C   UNL     1       3.062 -18.285  -3.899  1.00  0.00     0.022 A 
BRANCH  66  70
ATOM     70  S   UNL     1       1.554 -18.347  -6.244  1.00  0.00     0.124 S 
ATOM     71  O   UNL     1       1.276 -17.005  -6.752  1.00  0.00    -0.237 OA
ATOM     72  O   UNL     1       1.988 -19.327  -7.233  1.00  0.00    -0.237 OA
ATOM     73  O   UNL     1       0.599 -18.839  -5.253  1.00  0.00    -0.744 OA
ENDBRANCH  66  70
ENDBRANCH  49  63
BRANCH  50  74
ATOM     74  C   UNL     1      12.709 -11.748  -9.283  1.00  0.00     0.023 A 
ATOM     75  C   UNL     1      13.501 -12.239 -10.332  1.00  0.00     0.031 A 
ATOM     76  C   UNL     1      13.028 -10.486  -8.749  1.00  0.00     0.131 A 
ATOM     77  C   UNL     1      14.601 -11.494 -10.787  1.00  0.00     0.055 A 
ATOM     78  C   UNL     1      14.091  -9.726  -9.240  1.00  0.00     0.041 A 
ATOM     79  F   UNL     1      12.300  -9.968  -7.748  1.00  0.00    -0.206 F 
ATOM     80  C   UNL     1      14.893 -10.235 -10.257  1.00  0.00     0.022 A 
BRANCH  77  81
ATOM     81  S   UNL     1      15.696 -12.232 -12.030  1.00  0.00     0.124 S 
ATOM     82  O   UNL     1      16.138 -13.445 -11.354  1.00  0.00    -0.237 OA
ATOM     83  O   UNL     1      14.789 -12.419 -13.158  1.00  0.00    -0.237 OA
ATOM     84  O   UNL     1      16.725 -11.213 -12.224  1.00  0.00    -0.744 OA
ENDBRANCH  77  81
ENDBRANCH  50  74
BRANCH  62  85
ATOM     85  C   UNL     1      12.442 -17.868  -5.942  1.00  0.00     0.023 A 
ATOM     86  C   UNL     1      13.470 -17.604  -5.021  1.00  0.00     0.031 A 
ATOM     87  C   UNL     1      12.420 -19.129  -6.565  1.00  0.00     0.131 A 
ATOM     88  C   UNL     1      14.462 -18.569  -4.786  1.00  0.00     0.055 A 
ATOM     89  C   UNL     1      13.375 -20.107  -6.282  1.00  0.00     0.041 A 
ATOM     90  F   UNL     1      11.463 -19.434  -7.456  1.00  0.00    -0.206 F 
ATOM     91  C   UNL     1      14.411 -19.825  -5.397  1.00  0.00     0.022 A 
BRANCH  88  92
ATOM     92  S   UNL     1      15.872 -18.133  -3.731  1.00  0.00     0.124 S 
ATOM     93  O   UNL     1      16.436 -16.987  -4.436  1.00  0.00    -0.237 OA
ATOM     94  O   UNL     1      15.229 -17.842  -2.453  1.00  0.00    -0.237 OA
ATOM     95  O   UNL     1      16.699 -19.339  -3.746  1.00  0.00    -0.744 OA
ENDBRANCH  88  92
ENDBRANCH  62  85
ENDBRANCH  36  37
ENDBRANCH  28  31
ENDBRANCH  26  27
ENDBRANCH  25  26
ENDBRANCH  24  25
ENDBRANCH   1  24
TORSDOF 20
