REMARK SMILES Cc1ccccc1[C@@H]1[NH2+][C@@H](C(=O)NCCCCNC(=O)c2ccc(-c3c4nc(c(-c5cc(S(=O)(=O)[O-])ccc5F)c5ccc([nH]5)c(-c5cc(S(=O)(=O)[O-])ccc5F)c5nc(c(-c6cc(S(=O)(=O)[O-])ccc6F)c6ccc3[nH]6)C=C5)C=C4)cc2)CC2=c3ccccc3=N[C@@H]21
REMARK SMILES IDX 16 1 15 2 14 3 13 4 11 5 12 6 10 8 8 9 9 10 93 11 85 14
REMARK SMILES IDX 92 15 84 16 86 17 91 18 87 19 90 20 88 21 89 22 7 23 1 24
REMARK SMILES IDX 2 25 3 26 4 27 6 28 5 29 17 30 18 31 19 32 20 34 21 35 22 36
REMARK SMILES IDX 83 37 23 38 82 39 24 40 25 41 26 42 76 43 27 44 81 45 75 46
REMARK SMILES IDX 77 47 28 48 80 49 74 50 73 51 29 53 61 54 41 55 60 56 42 57
REMARK SMILES IDX 45 58 59 59 78 60 43 61 44 62 58 64 79 65 46 66 30 67 31 68
REMARK SMILES IDX 39 69 32 70 38 71 40 72 37 73 33 74 34 75 35 76 36 77 62 78
REMARK SMILES IDX 63 79 71 80 64 81 70 82 72 83 69 84 65 85 66 86 67 87 68 88
REMARK SMILES IDX 47 89 48 90 56 91 49 92 55 93 57 94 54 95 50 96 51 97 52 98
REMARK SMILES IDX 53 99
REMARK H PARENT 13 7 9 12 9 13 18 33 77 52 45 63
REMARK Flexibility Score: inf
ROOT
ATOM      1  C   UNL     1       3.014   2.585  -2.376  1.00  0.00     0.023 C 
ENDROOT
BRANCH   1   2
ATOM      2  C   UNL     1       3.267   3.913  -1.613  1.00  0.00     0.023 C 
BRANCH   2   3
ATOM      3  C   UNL     1       2.500   5.283  -1.791  1.00  0.00     0.116 C 
BRANCH   3   4
ATOM      4  N   UNL     1       1.149   5.709  -1.297  1.00  0.00    -0.351 N 
ATOM      5  C   UNL     1       0.625   5.825   0.001  1.00  0.00     0.278 C 
ATOM      6  O   UNL     1      -0.400   6.466   0.227  1.00  0.00    -0.268 OA
ATOM      7  H   UNL     1       0.516   5.950  -2.011  1.00  0.00     0.163 HD
BRANCH   5   8
ATOM      8  C   UNL     1       1.362   5.008   1.061  1.00  0.00     0.277 C 
ATOM      9  C   UNL     1       0.368   2.764   0.928  1.00  0.00     0.243 C 
ATOM     10  N   UNL     1       1.385   3.682   0.426  1.00  0.00    -0.327 N 
ATOM     11  C   UNL     1       1.136   2.251   2.240  1.00  0.00     0.196 C 
ATOM     12  H   UNL     1       1.240   3.805  -0.576  1.00  0.00     0.347 HD
ATOM     13  H   UNL     1       2.290   3.267   0.646  1.00  0.00     0.347 HD
ATOM     14  C   UNL     1       1.587   3.547   2.999  1.00  0.00    -0.024 C 
ATOM     15  N   UNL     1       2.459   1.575   1.963  1.00  0.00    -0.270 NA
ATOM     16  C   UNL     1       0.916   4.861   2.552  1.00  0.00     0.109 C 
ATOM     17  C   UNL     1       2.902   3.531   3.269  1.00  0.00     0.002 A 
ATOM     18  C   UNL     1       3.363   2.314   2.553  1.00  0.00     0.066 A 
ATOM     19  C   UNL     1       3.824   4.596   3.570  1.00  0.00     0.010 A 
ATOM     20  C   UNL     1       4.843   2.139   2.486  1.00  0.00     0.028 A 
ATOM     21  C   UNL     1       5.141   4.394   3.410  1.00  0.00     0.001 A 
ATOM     22  C   UNL     1       5.647   3.122   2.934  1.00  0.00     0.002 A 
BRANCH   9  23
ATOM     23  C   UNL     1      -0.347   2.131  -0.292  1.00  0.00     0.015 A 
ATOM     24  C   UNL     1      -1.876   0.619   1.046  1.00  0.00     0.045 C 
ATOM     25  C   UNL     1      -1.407   1.220  -0.238  1.00  0.00    -0.042 A 
ATOM     26  C   UNL     1      -2.202   0.972  -1.398  1.00  0.00     0.004 A 
ATOM     27  C   UNL     1      -1.981   1.611  -2.619  1.00  0.00     0.000 A 
ATOM     28  C   UNL     1      -0.202   2.765  -1.558  1.00  0.00     0.010 A 
ATOM     29  C   UNL     1      -0.962   2.522  -2.702  1.00  0.00     0.001 A 
ENDBRANCH   9  23
ENDBRANCH   5   8
ENDBRANCH   3   4
ENDBRANCH   2   3
ENDBRANCH   1   2
BRANCH   1  30
ATOM     30  C   UNL     1       3.695   2.584  -3.730  1.00  0.00     0.116 C 
BRANCH  30  31
ATOM     31  N   UNL     1       4.750   1.604  -3.993  1.00  0.00    -0.352 N 
ATOM     32  C   UNL     1       5.539   1.528  -5.141  1.00  0.00     0.251 C 
ATOM     33  H   UNL     1       4.920   0.934  -3.292  1.00  0.00     0.163 HD
ATOM     34  O   UNL     1       6.426   0.691  -5.288  1.00  0.00    -0.269 OA
BRANCH  32  35
ATOM     35  C   UNL     1       5.393   2.619  -6.149  1.00  0.00     0.039 A 
ATOM     36  C   UNL     1       6.475   3.503  -6.215  1.00  0.00     0.014 A 
ATOM     37  C   UNL     1       4.109   3.048  -6.459  1.00  0.00     0.014 A 
ATOM     38  C   UNL     1       6.220   4.869  -6.197  1.00  0.00     0.010 A 
ATOM     39  C   UNL     1       3.848   4.392  -6.268  1.00  0.00     0.010 A 
ATOM     40  C   UNL     1       4.900   5.290  -6.056  1.00  0.00    -0.014 A 
BRANCH  40  41
ATOM     41  C   UNL     1       4.535   6.679  -5.813  1.00  0.00     0.031 A 
ATOM     42  C   UNL     1       4.195   7.441  -7.025  1.00  0.00     0.074 A 
ATOM     43  C   UNL     1       4.632   7.293  -4.614  1.00  0.00     0.049 A 
ATOM     44  N   UNL     1       4.585   8.640  -7.273  1.00  0.00    -0.248 NA
ATOM     45  C   UNL     1       3.493   6.811  -8.139  1.00  0.00     0.031 C 
ATOM     46  C   UNL     1       4.232   8.663  -4.289  1.00  0.00     0.029 A 
ATOM     47  N   UNL     1       5.335   6.871  -3.493  1.00  0.00    -0.354 N 
ATOM     48  C   UNL     1       3.989   9.021  -8.454  1.00  0.00     0.074 A 
ATOM     49  C   UNL     1       3.422   7.819  -9.004  1.00  0.00     0.031 C 
ATOM     50  C   UNL     1       4.876   9.055  -3.175  1.00  0.00     0.029 A 
ATOM     51  C   UNL     1       5.818   8.006  -2.821  1.00  0.00     0.049 A 
ATOM     52  H   UNL     1       5.470   5.936  -3.216  1.00  0.00     0.167 HD
ATOM     53  C   UNL     1       3.898  10.340  -8.768  1.00  0.00     0.034 A 
ATOM     54  C   UNL     1       7.157   8.185  -2.611  1.00  0.00     0.034 A 
ATOM     55  C   UNL     1       4.545  11.158  -7.745  1.00  0.00     0.049 A 
ATOM     56  C   UNL     1       7.712   9.403  -3.294  1.00  0.00     0.074 A 
ATOM     57  C   UNL     1       4.044  11.773  -6.609  1.00  0.00     0.029 A 
ATOM     58  N   UNL     1       5.927  11.121  -7.599  1.00  0.00    -0.354 N 
ATOM     59  N   UNL     1       7.105  10.044  -4.254  1.00  0.00    -0.248 NA
ATOM     60  C   UNL     1       9.027   9.948  -2.981  1.00  0.00     0.031 C 
ATOM     61  C   UNL     1       5.134  12.029  -5.739  1.00  0.00     0.029 A 
ATOM     62  C   UNL     1       6.301  11.616  -6.362  1.00  0.00     0.049 A 
ATOM     63  H   UNL     1       6.553  10.789  -8.282  1.00  0.00     0.167 HD
ATOM     64  C   UNL     1       7.968  10.969  -4.778  1.00  0.00     0.074 A 
ATOM     65  C   UNL     1       9.117  10.931  -3.888  1.00  0.00     0.031 C 
ATOM     66  C   UNL     1       7.698  11.627  -5.946  1.00  0.00     0.034 A 
BRANCH  53  67
ATOM     67  C   UNL     1       2.902  10.871  -9.772  1.00  0.00     0.023 A 
ATOM     68  C   UNL     1       2.360  12.152  -9.560  1.00  0.00     0.031 A 
ATOM     69  C   UNL     1       2.392  10.179 -10.889  1.00  0.00     0.131 A 
ATOM     70  C   UNL     1       1.304  12.641 -10.347  1.00  0.00     0.055 A 
ATOM     71  C   UNL     1       1.293  10.632 -11.630  1.00  0.00     0.041 A 
ATOM     72  F   UNL     1       2.968   9.063 -11.354  1.00  0.00    -0.206 F 
ATOM     73  C   UNL     1       0.734  11.869 -11.354  1.00  0.00     0.022 A 
BRANCH  70  74
ATOM     74  S   UNL     1       0.699  14.320 -10.043  1.00  0.00     0.124 S 
ATOM     75  O   UNL     1       0.198  14.223  -8.676  1.00  0.00    -0.237 OA
ATOM     76  O   UNL     1       1.903  15.120 -10.235  1.00  0.00    -0.237 OA
ATOM     77  O   UNL     1      -0.329  14.499 -11.067  1.00  0.00    -0.744 OA
ENDBRANCH  70  74
ENDBRANCH  53  67
BRANCH  54  78
ATOM     78  C   UNL     1       7.906   6.900  -2.502  1.00  0.00     0.023 A 
ATOM     79  C   UNL     1       7.556   6.058  -1.436  1.00  0.00     0.031 A 
ATOM     80  C   UNL     1       8.520   6.331  -3.625  1.00  0.00     0.131 A 
ATOM     81  C   UNL     1       7.580   4.670  -1.619  1.00  0.00     0.055 A 
ATOM     82  C   UNL     1       8.600   4.944  -3.772  1.00  0.00     0.041 A 
ATOM     83  F   UNL     1       8.905   7.094  -4.658  1.00  0.00    -0.206 F 
ATOM     84  C   UNL     1       8.050   4.106  -2.804  1.00  0.00     0.022 A 
BRANCH  81  85
ATOM     85  S   UNL     1       6.742   3.641  -0.395  1.00  0.00     0.124 S 
ATOM     86  O   UNL     1       7.825   3.326   0.529  1.00  0.00    -0.237 OA
ATOM     87  O   UNL     1       5.719   4.551   0.119  1.00  0.00    -0.237 OA
ATOM     88  O   UNL     1       6.227   2.518  -1.175  1.00  0.00    -0.744 OA
ENDBRANCH  81  85
ENDBRANCH  54  78
BRANCH  66  89
ATOM     89  C   UNL     1       8.739  12.393  -6.728  1.00  0.00     0.023 A 
ATOM     90  C   UNL     1      10.113  12.228  -6.507  1.00  0.00     0.031 A 
ATOM     91  C   UNL     1       8.393  13.298  -7.755  1.00  0.00     0.131 A 
ATOM     92  C   UNL     1      11.057  13.060  -7.121  1.00  0.00     0.055 A 
ATOM     93  C   UNL     1       9.347  14.035  -8.465  1.00  0.00     0.041 A 
ATOM     94  F   UNL     1       7.118  13.504  -8.114  1.00  0.00    -0.206 F 
ATOM     95  C   UNL     1      10.689  13.952  -8.120  1.00  0.00     0.022 A 
BRANCH  92  96
ATOM     96  S   UNL     1      12.739  13.048  -6.450  1.00  0.00     0.124 S 
ATOM     97  O   UNL     1      12.508  13.447  -5.063  1.00  0.00    -0.237 OA
ATOM     98  O   UNL     1      13.148  11.661  -6.647  1.00  0.00    -0.237 OA
ATOM     99  O   UNL     1      13.443  14.031  -7.269  1.00  0.00    -0.744 OA
ENDBRANCH  92  96
ENDBRANCH  66  89
ENDBRANCH  40  41
ENDBRANCH  32  35
ENDBRANCH  30  31
ENDBRANCH   1  30
TORSDOF 15
