REMARK SMILES CC1=C(C)C[C@@H](C(=O)NCCCCNC(=O)c2ccc(-c3c4nc(c(-c5cc(S(=O)(=O)[O-])ccc5F)c5ccc([nH]5)c(-c5cc(S(=O)(=O)[O-])ccc5F)c5nc(c(-c6cc(S(=O)(=O)[O-])ccc6F)c6ccc3[nH]6)C=C5)C=C4)cc2)[C@@H](C(=O)N2CCN(c3cccc(C(F)(F)F)c3)CC2)C1
REMARK SMILES IDX 11 1 10 2 9 3 7 4 8 5 6 7 1 8 2 9 3 10 99 11 4 12 5 13 80 14
REMARK SMILES IDX 81 15 82 16 83 17 84 18 98 19 85 20 97 21 86 22 87 23 88 24
REMARK SMILES IDX 96 25 89 26 91 27 90 28 92 29 93 30 94 31 95 32 12 33 13 34
REMARK SMILES IDX 14 35 15 36 16 38 17 39 18 40 79 41 19 42 78 43 20 44 21 45
REMARK SMILES IDX 22 46 72 47 23 48 77 49 71 50 73 51 24 52 76 53 70 54 69 55
REMARK SMILES IDX 25 57 57 58 37 59 56 60 38 61 41 62 55 63 74 64 39 65 40 66
REMARK SMILES IDX 54 68 75 69 42 70 26 71 27 72 35 73 28 74 34 75 36 76 33 77
REMARK SMILES IDX 29 78 30 79 31 80 32 81 58 82 59 83 67 84 60 85 66 86 68 87
REMARK SMILES IDX 65 88 61 89 62 90 63 91 64 92 43 93 44 94 52 95 45 96 51 97
REMARK SMILES IDX 53 98 50 99 46 100 47 101 48 102 49 103
REMARK H PARENT 9 6 14 37 73 56 41 67
REMARK Flexibility Score: inf
ROOT
ATOM      1  C   UNL     1       3.677   1.227   2.258  1.00  0.00     0.023 C 
ENDROOT
BRANCH   1   2
ATOM      2  C   UNL     1       2.778   0.510   3.260  1.00  0.00     0.116 C 
BRANCH   2   3
ATOM      3  N   UNL     1       2.369   1.323   4.382  1.00  0.00    -0.356 N 
ATOM      4  C   UNL     1       1.281   2.099   4.604  1.00  0.00     0.224 C 
ATOM      5  O   UNL     1       1.172   2.594   5.734  1.00  0.00    -0.275 OA
ATOM      6  H   UNL     1       3.007   1.311   5.133  1.00  0.00     0.163 HD
BRANCH   4   7
ATOM      7  C   UNL     1       0.172   2.360   3.580  1.00  0.00     0.095 C 
ATOM      8  C   UNL     1       0.645   0.385  -0.344  1.00  0.00     0.039 C 
ATOM      9  C   UNL     1       0.228   1.041   0.952  1.00  0.00    -0.074 C 
ATOM     10  C   UNL     1      -0.384   0.410   1.976  1.00  0.00    -0.074 C 
ATOM     11  C   UNL     1       0.623   2.502   1.021  1.00  0.00     0.045 C 
ATOM     12  C   UNL     1      -0.779  -1.047   2.006  1.00  0.00     0.039 C 
ATOM     13  C   UNL     1      -0.673   1.120   3.278  1.00  0.00     0.045 C 
ATOM     14  C   UNL     1       0.461   3.248   2.365  1.00  0.00     0.095 C 
BRANCH  14  15
ATOM     15  C   UNL     1       1.640   4.219   2.537  1.00  0.00     0.226 C 
ATOM     16  O   UNL     1       2.625   4.012   3.234  1.00  0.00    -0.275 OA
ATOM     17  N   UNL     1       1.595   5.316   1.690  1.00  0.00    -0.339 N 
ATOM     18  C   UNL     1       2.853   5.722   1.054  1.00  0.00     0.141 C 
ATOM     19  C   UNL     1       0.742   6.438   2.082  1.00  0.00     0.141 C 
ATOM     20  C   UNL     1       2.597   6.618  -0.168  1.00  0.00     0.138 C 
ATOM     21  C   UNL     1       0.478   7.407   0.921  1.00  0.00     0.138 C 
ATOM     22  N   UNL     1       1.717   7.731   0.209  1.00  0.00    -0.368 N 
BRANCH  22  23
ATOM     23  C   UNL     1       2.122   9.027  -0.001  1.00  0.00     0.037 A 
ATOM     24  C   UNL     1       2.410   9.484  -1.291  1.00  0.00     0.026 A 
ATOM     25  C   UNL     1       2.287   9.917   1.067  1.00  0.00     0.039 A 
ATOM     26  C   UNL     1       2.832  10.795  -1.519  1.00  0.00     0.003 A 
ATOM     27  C   UNL     1       2.740  11.231   0.863  1.00  0.00     0.058 A 
ATOM     28  C   UNL     1       2.998  11.665  -0.445  1.00  0.00     0.013 A 
BRANCH  27  29
ATOM     29  C   UNL     1       2.958  12.165   2.024  1.00  0.00     0.416 C 
ATOM     30  F   UNL     1       4.217  12.683   2.051  1.00  0.00    -0.166 F 
ATOM     31  F   UNL     1       2.117  13.238   1.989  1.00  0.00    -0.166 F 
ATOM     32  F   UNL     1       2.765  11.585   3.242  1.00  0.00    -0.166 F 
ENDBRANCH  27  29
ENDBRANCH  22  23
ENDBRANCH  14  15
ENDBRANCH   4   7
ENDBRANCH   2   3
ENDBRANCH   1   2
BRANCH   1  33
ATOM     33  C   UNL     1       5.072   1.569   2.771  1.00  0.00     0.023 C 
BRANCH  33  34
ATOM     34  C   UNL     1       5.871   0.365   3.237  1.00  0.00     0.116 C 
BRANCH  34  35
ATOM     35  N   UNL     1       5.952  -0.687   2.231  1.00  0.00    -0.352 N 
ATOM     36  C   UNL     1       6.959  -1.603   2.044  1.00  0.00     0.251 C 
ATOM     37  H   UNL     1       5.192  -0.748   1.609  1.00  0.00     0.163 HD
ATOM     38  O   UNL     1       6.944  -2.356   1.080  1.00  0.00    -0.269 OA
BRANCH  36  39
ATOM     39  C   UNL     1       8.074  -1.617   3.009  1.00  0.00     0.039 A 
ATOM     40  C   UNL     1       9.381  -1.528   2.530  1.00  0.00     0.014 A 
ATOM     41  C   UNL     1       7.811  -1.631   4.381  1.00  0.00     0.014 A 
ATOM     42  C   UNL     1      10.430  -1.389   3.438  1.00  0.00     0.010 A 
ATOM     43  C   UNL     1       8.845  -1.405   5.276  1.00  0.00     0.010 A 
ATOM     44  C   UNL     1      10.165  -1.292   4.813  1.00  0.00    -0.014 A 
BRANCH  44  45
ATOM     45  C   UNL     1      11.256  -1.097   5.796  1.00  0.00     0.031 A 
ATOM     46  C   UNL     1      11.523  -2.161   6.823  1.00  0.00     0.074 A 
ATOM     47  C   UNL     1      11.936   0.065   5.816  1.00  0.00     0.049 A 
ATOM     48  N   UNL     1      12.359  -2.153   7.828  1.00  0.00    -0.248 NA
ATOM     49  C   UNL     1      10.702  -3.377   6.731  1.00  0.00     0.031 C 
ATOM     50  C   UNL     1      11.706   1.195   4.912  1.00  0.00     0.029 A 
ATOM     51  N   UNL     1      12.944   0.496   6.637  1.00  0.00    -0.354 N 
ATOM     52  C   UNL     1      12.148  -3.352   8.501  1.00  0.00     0.074 A 
ATOM     53  C   UNL     1      11.053  -4.021   7.832  1.00  0.00     0.031 C 
ATOM     54  C   UNL     1      12.557   2.186   5.223  1.00  0.00     0.029 A 
ATOM     55  C   UNL     1      13.367   1.776   6.366  1.00  0.00     0.049 A 
ATOM     56  H   UNL     1      13.329  -0.057   7.354  1.00  0.00     0.167 HD
ATOM     57  C   UNL     1      12.825  -3.859   9.561  1.00  0.00     0.034 A 
ATOM     58  C   UNL     1      14.296   2.535   6.979  1.00  0.00     0.034 A 
ATOM     59  C   UNL     1      13.925  -3.176  10.197  1.00  0.00     0.049 A 
ATOM     60  C   UNL     1      15.058   1.948   8.137  1.00  0.00     0.074 A 
ATOM     61  C   UNL     1      14.736  -3.615  11.228  1.00  0.00     0.029 A 
ATOM     62  N   UNL     1      14.362  -1.898   9.864  1.00  0.00    -0.354 N 
ATOM     63  N   UNL     1      14.903   0.780   8.718  1.00  0.00    -0.248 NA
ATOM     64  C   UNL     1      16.130   2.770   8.707  1.00  0.00     0.031 C 
ATOM     65  C   UNL     1      15.624  -2.583  11.556  1.00  0.00     0.029 A 
ATOM     66  C   UNL     1      15.414  -1.524  10.686  1.00  0.00     0.049 A 
ATOM     67  H   UNL     1      13.980  -1.340   9.149  1.00  0.00     0.167 HD
ATOM     68  C   UNL     1      15.873   0.720   9.713  1.00  0.00     0.074 A 
ATOM     69  C   UNL     1      16.618   1.962   9.639  1.00  0.00     0.031 C 
ATOM     70  C   UNL     1      16.130  -0.271  10.606  1.00  0.00     0.034 A 
BRANCH  57  71
ATOM     71  C   UNL     1      12.367  -5.197  10.092  1.00  0.00     0.023 A 
ATOM     72  C   UNL     1      12.371  -6.351   9.286  1.00  0.00     0.031 A 
ATOM     73  C   UNL     1      11.851  -5.312  11.394  1.00  0.00     0.131 A 
ATOM     74  C   UNL     1      11.773  -7.533   9.747  1.00  0.00     0.055 A 
ATOM     75  C   UNL     1      11.343  -6.519  11.882  1.00  0.00     0.041 A 
ATOM     76  F   UNL     1      11.801  -4.245  12.207  1.00  0.00    -0.206 F 
ATOM     77  C   UNL     1      11.280  -7.633  11.050  1.00  0.00     0.022 A 
BRANCH  74  78
ATOM     78  S   UNL     1      11.481  -8.872   8.558  1.00  0.00     0.124 S 
ATOM     79  O   UNL     1      10.668  -8.198   7.548  1.00  0.00    -0.237 OA
ATOM     80  O   UNL     1      12.834  -9.235   8.153  1.00  0.00    -0.237 OA
ATOM     81  O   UNL     1      10.772  -9.880   9.344  1.00  0.00    -0.744 OA
ENDBRANCH  74  78
ENDBRANCH  57  71
BRANCH  58  82
ATOM     82  C   UNL     1      14.549   3.927   6.512  1.00  0.00     0.023 A 
ATOM     83  C   UNL     1      15.754   4.276   5.885  1.00  0.00     0.031 A 
ATOM     84  C   UNL     1      13.580   4.931   6.691  1.00  0.00     0.131 A 
ATOM     85  C   UNL     1      15.976   5.604   5.488  1.00  0.00     0.055 A 
ATOM     86  C   UNL     1      13.788   6.241   6.256  1.00  0.00     0.041 A 
ATOM     87  F   UNL     1      12.405   4.643   7.272  1.00  0.00    -0.206 F 
ATOM     88  C   UNL     1      14.997   6.586   5.659  1.00  0.00     0.022 A 
BRANCH  85  89
ATOM     89  S   UNL     1      17.588   6.044   4.782  1.00  0.00     0.124 S 
ATOM     90  O   UNL     1      18.495   5.697   5.871  1.00  0.00    -0.237 OA
ATOM     91  O   UNL     1      17.646   5.188   3.602  1.00  0.00    -0.237 OA
ATOM     92  O   UNL     1      17.461   7.473   4.506  1.00  0.00    -0.744 OA
ENDBRANCH  85  89
ENDBRANCH  58  82
BRANCH  70  93
ATOM     93  C   UNL     1      17.287  -0.054  11.547  1.00  0.00     0.023 A 
ATOM     94  C   UNL     1      17.245   0.925  12.555  1.00  0.00     0.031 A 
ATOM     95  C   UNL     1      18.451  -0.833  11.426  1.00  0.00     0.131 A 
ATOM     96  C   UNL     1      18.367   1.135  13.370  1.00  0.00     0.055 A 
ATOM     97  C   UNL     1      19.543  -0.658  12.277  1.00  0.00     0.041 A 
ATOM     98  F   UNL     1      18.544  -1.780  10.479  1.00  0.00    -0.206 F 
ATOM     99  C   UNL     1      19.509   0.339  13.248  1.00  0.00     0.022 A 
BRANCH  96 100
ATOM    100  S   UNL     1      18.348   2.522  14.539  1.00  0.00     0.124 S 
ATOM    101  O   UNL     1      18.140   3.662  13.653  1.00  0.00    -0.237 OA
ATOM    102  O   UNL     1      17.229   2.179  15.412  1.00  0.00    -0.237 OA
ATOM    103  O   UNL     1      19.666   2.458  15.168  1.00  0.00    -0.744 OA
ENDBRANCH  96 100
ENDBRANCH  70  93
ENDBRANCH  44  45
ENDBRANCH  36  39
ENDBRANCH  34  35
ENDBRANCH  33  34
ENDBRANCH   1  33
TORSDOF 17
