REMARK SMILES O=C(Cc1ccccc1Nc1c(Cl)cccc1Cl)NCCCCNC(=O)c1ccc(-c2c3nc(c(-c4cc(S(=O)(=O)[O-])ccc4F)c4ccc([nH]4)c(-c4cc(S(=O)(=O)[O-])ccc4F)c4nc(c(-c5cc(S(=O)(=O)[O-])ccc5F)c5ccc2[nH]5)C=C4)C=C3)cc1
REMARK SMILES IDX 21 1 20 2 19 3 1 4 2 5 3 7 4 8 5 9 9 10 6 11 8 12 7 13 10 14
REMARK SMILES IDX 11 16 12 17 17 18 13 19 14 20 16 21 18 22 15 23 22 24 23 25
REMARK SMILES IDX 24 26 25 27 26 29 27 30 28 31 89 32 29 33 88 34 30 35 31 36
REMARK SMILES IDX 32 37 82 38 33 39 87 40 81 41 83 42 34 43 86 44 80 45 79 46
REMARK SMILES IDX 35 48 67 49 47 50 66 51 48 52 51 53 65 54 84 55 49 56 50 57
REMARK SMILES IDX 64 59 85 60 52 61 36 62 37 63 45 64 38 65 44 66 46 67 43 68
REMARK SMILES IDX 39 69 40 70 41 71 42 72 68 73 69 74 77 75 70 76 76 77 78 78
REMARK SMILES IDX 75 79 71 80 72 81 73 82 74 83 53 84 54 85 62 86 55 87 61 88
REMARK SMILES IDX 63 89 60 90 56 91 57 92 58 93 59 94
REMARK H PARENT 19 6 10 15 24 28 83 47 51 58
REMARK Flexibility Score: inf
ROOT
ATOM      1  C   UNL     1       2.477  -3.647   0.027  1.00  0.00     0.023 C 
ENDROOT
BRANCH   1   2
ATOM      2  C   UNL     1       2.090  -2.306   0.649  1.00  0.00     0.116 C 
BRANCH   2   3
ATOM      3  N   UNL     1       2.819  -1.203   0.058  1.00  0.00    -0.356 N 
ATOM      4  O   UNL     1       1.113   0.340   0.133  1.00  0.00    -0.275 OA
ATOM      5  C   UNL     1       2.286   0.061  -0.096  1.00  0.00     0.224 C 
ATOM      6  H   UNL     1       3.741  -1.363  -0.248  1.00  0.00     0.163 HD
BRANCH   5   7
ATOM      7  C   UNL     1       3.305   1.099  -0.555  1.00  0.00     0.137 C 
BRANCH   7   8
ATOM      8  C   UNL     1       3.968   1.806   0.612  1.00  0.00    -0.015 A 
ATOM      9  C   UNL     1       4.727   1.028   1.515  1.00  0.00     0.006 A 
ATOM     10  C   UNL     1       3.872   3.198   0.826  1.00  0.00     0.042 A 
ATOM     11  C   UNL     1       5.342   1.593   2.629  1.00  0.00     0.000 A 
ATOM     12  C   UNL     1       4.495   3.742   1.966  1.00  0.00     0.026 A 
ATOM     13  C   UNL     1       5.216   2.952   2.861  1.00  0.00     0.002 A 
BRANCH  10  14
ATOM     14  N   UNL     1       3.219   4.040  -0.104  1.00  0.00    -0.353 N 
ATOM     15  H   UNL     1       2.645   3.578  -0.758  1.00  0.00     0.167 HD
BRANCH  14  16
ATOM     16  C   UNL     1       3.269   5.452  -0.233  1.00  0.00     0.076 A 
ATOM     17  C   UNL     1       2.062   6.184  -0.220  1.00  0.00     0.066 A 
ATOM     18  C   UNL     1       4.468   6.195  -0.272  1.00  0.00     0.066 A 
ATOM     19  Cl  UNL     1       0.533   5.368  -0.228  1.00  0.00    -0.082 Cl
ATOM     20  C   UNL     1       2.050   7.583  -0.189  1.00  0.00     0.023 A 
ATOM     21  C   UNL     1       4.454   7.597  -0.231  1.00  0.00     0.023 A 
ATOM     22  Cl  UNL     1       6.020   5.448  -0.467  1.00  0.00    -0.082 Cl
ATOM     23  C   UNL     1       3.248   8.290  -0.176  1.00  0.00     0.003 A 
ENDBRANCH  14  16
ENDBRANCH  10  14
ENDBRANCH   7   8
ENDBRANCH   5   7
ENDBRANCH   2   3
ENDBRANCH   1   2
BRANCH   1  24
ATOM     24  C   UNL     1       3.965  -4.011   0.121  1.00  0.00     0.023 C 
BRANCH  24  25
ATOM     25  C   UNL     1       4.530  -4.104   1.536  1.00  0.00     0.116 C 
BRANCH  25  26
ATOM     26  N   UNL     1       3.954  -5.206   2.288  1.00  0.00    -0.352 N 
ATOM     27  C   UNL     1       4.573  -6.282   2.879  1.00  0.00     0.251 C 
ATOM     28  H   UNL     1       2.976  -5.179   2.389  1.00  0.00     0.163 HD
ATOM     29  O   UNL     1       3.887  -7.215   3.296  1.00  0.00    -0.269 OA
BRANCH  27  30
ATOM     30  C   UNL     1       6.049  -6.338   2.992  1.00  0.00     0.039 A 
ATOM     31  C   UNL     1       6.702  -7.544   2.719  1.00  0.00     0.014 A 
ATOM     32  C   UNL     1       6.793  -5.220   3.379  1.00  0.00     0.014 A 
ATOM     33  C   UNL     1       8.098  -7.608   2.767  1.00  0.00     0.010 A 
ATOM     34  C   UNL     1       8.187  -5.265   3.353  1.00  0.00     0.010 A 
ATOM     35  C   UNL     1       8.857  -6.459   3.044  1.00  0.00    -0.014 A 
BRANCH  35  36
ATOM     36  C   UNL     1      10.346  -6.490   3.008  1.00  0.00     0.031 A 
ATOM     37  C   UNL     1      11.145  -6.202   4.251  1.00  0.00     0.074 A 
ATOM     38  C   UNL     1      10.981  -6.723   1.841  1.00  0.00     0.049 A 
ATOM     39  N   UNL     1      12.442  -6.110   4.399  1.00  0.00    -0.248 NA
ATOM     40  C   UNL     1      10.381  -5.960   5.483  1.00  0.00     0.031 C 
ATOM     41  C   UNL     1      10.322  -6.983   0.559  1.00  0.00     0.029 A 
ATOM     42  N   UNL     1      12.320  -6.772   1.538  1.00  0.00    -0.354 N 
ATOM     43  C   UNL     1      12.651  -5.793   5.738  1.00  0.00     0.074 A 
ATOM     44  C   UNL     1      11.341  -5.642   6.338  1.00  0.00     0.031 C 
ATOM     45  C   UNL     1      11.255  -7.188  -0.383  1.00  0.00     0.029 A 
ATOM     46  C   UNL     1      12.579  -7.021   0.209  1.00  0.00     0.049 A 
ATOM     47  H   UNL     1      13.028  -6.640   2.209  1.00  0.00     0.167 HD
ATOM     48  C   UNL     1      13.823  -5.663   6.409  1.00  0.00     0.034 A 
ATOM     49  C   UNL     1      13.746  -7.090  -0.462  1.00  0.00     0.034 A 
ATOM     50  C   UNL     1      15.122  -5.816   5.796  1.00  0.00     0.049 A 
ATOM     51  C   UNL     1      15.037  -6.895   0.294  1.00  0.00     0.074 A 
ATOM     52  C   UNL     1      16.369  -5.749   6.393  1.00  0.00     0.029 A 
ATOM     53  N   UNL     1      15.344  -6.056   4.446  1.00  0.00    -0.354 N 
ATOM     54  N   UNL     1      15.216  -6.640   1.570  1.00  0.00    -0.248 NA
ATOM     55  C   UNL     1      16.281  -7.008  -0.478  1.00  0.00     0.031 C 
ATOM     56  C   UNL     1      17.342  -5.867   5.395  1.00  0.00     0.029 A 
ATOM     57  C   UNL     1      16.706  -6.101   4.186  1.00  0.00     0.049 A 
ATOM     58  H   UNL     1      14.637  -6.176   3.771  1.00  0.00     0.167 HD
ATOM     59  C   UNL     1      16.596  -6.595   1.757  1.00  0.00     0.074 A 
ATOM     60  C   UNL     1      17.198  -6.865   0.468  1.00  0.00     0.031 C 
ATOM     61  C   UNL     1      17.300  -6.358   2.894  1.00  0.00     0.034 A 
BRANCH  48  62
ATOM     62  C   UNL     1      13.748  -5.310   7.878  1.00  0.00     0.023 A 
ATOM     63  C   UNL     1      13.119  -6.155   8.809  1.00  0.00     0.031 A 
ATOM     64  C   UNL     1      14.290  -4.102   8.352  1.00  0.00     0.131 A 
ATOM     65  C   UNL     1      12.972  -5.744  10.143  1.00  0.00     0.055 A 
ATOM     66  C   UNL     1      14.221  -3.740   9.699  1.00  0.00     0.041 A 
ATOM     67  F   UNL     1      14.886  -3.242   7.510  1.00  0.00    -0.206 F 
ATOM     68  C   UNL     1      13.543  -4.555  10.601  1.00  0.00     0.022 A 
BRANCH  65  69
ATOM     69  S   UNL     1      11.885  -6.707  11.229  1.00  0.00     0.124 S 
ATOM     70  O   UNL     1      10.621  -6.660  10.497  1.00  0.00    -0.237 OA
ATOM     71  O   UNL     1      12.550  -8.004  11.272  1.00  0.00    -0.237 OA
ATOM     72  O   UNL     1      11.899  -5.956  12.482  1.00  0.00    -0.744 OA
ENDBRANCH  65  69
ENDBRANCH  48  62
BRANCH  49  73
ATOM     73  C   UNL     1      13.756  -7.335  -1.935  1.00  0.00     0.023 A 
ATOM     74  C   UNL     1      14.345  -8.489  -2.476  1.00  0.00     0.031 A 
ATOM     75  C   UNL     1      13.212  -6.393  -2.828  1.00  0.00     0.131 A 
ATOM     76  C   UNL     1      14.419  -8.650  -3.869  1.00  0.00     0.055 A 
ATOM     77  C   UNL     1      13.235  -6.586  -4.210  1.00  0.00     0.041 A 
ATOM     78  F   UNL     1      12.636  -5.272  -2.365  1.00  0.00    -0.206 F 
ATOM     79  C   UNL     1      13.854  -7.715  -4.738  1.00  0.00     0.022 A 
BRANCH  76  80
ATOM     80  S   UNL     1      15.349 -10.058  -4.532  1.00  0.00     0.124 S 
ATOM     81  O   UNL     1      16.670  -9.839  -3.954  1.00  0.00    -0.237 OA
ATOM     82  O   UNL     1      14.597 -11.193  -4.006  1.00  0.00    -0.237 OA
ATOM     83  O   UNL     1      15.261  -9.872  -5.979  1.00  0.00    -0.744 OA
ENDBRANCH  76  80
ENDBRANCH  49  73
BRANCH  61  84
ATOM     84  C   UNL     1      18.807  -6.430   2.800  1.00  0.00     0.023 A 
ATOM     85  C   UNL     1      19.549  -5.514   2.034  1.00  0.00     0.031 A 
ATOM     86  C   UNL     1      19.509  -7.439   3.483  1.00  0.00     0.131 A 
ATOM     87  C   UNL     1      20.941  -5.661   1.922  1.00  0.00     0.055 A 
ATOM     88  C   UNL     1      20.900  -7.539   3.423  1.00  0.00     0.041 A 
ATOM     89  F   UNL     1      18.853  -8.346   4.226  1.00  0.00    -0.206 F 
ATOM     90  C   UNL     1      21.622  -6.656   2.628  1.00  0.00     0.022 A 
BRANCH  87  91
ATOM     91  S   UNL     1      21.840  -4.598   0.759  1.00  0.00     0.124 S 
ATOM     92  O   UNL     1      21.172  -4.898  -0.503  1.00  0.00    -0.237 OA
ATOM     93  O   UNL     1      21.601  -3.266   1.306  1.00  0.00    -0.237 OA
ATOM     94  O   UNL     1      23.220  -5.070   0.859  1.00  0.00    -0.744 OA
ENDBRANCH  87  91
ENDBRANCH  61  84
ENDBRANCH  35  36
ENDBRANCH  27  30
ENDBRANCH  25  26
ENDBRANCH  24  25
ENDBRANCH   1  24
TORSDOF 17
