REMARK SMILES C[C@@H](CC(=O)NCCCCNC(=O)c1ccc(-c2c3nc(c(-c4cc(S(=O)(=O)[O-])ccc4F)c4ccc([nH]4)c(-c4cc(S(=O)(=O)[O-])ccc4F)c4nc(c(-c5cc(S(=O)(=O)[O-])ccc5F)c5ccc2[nH]5)C=C4)C=C3)cc1)N1C(=O)CCCC1=O
REMARK SMILES IDX 9 1 8 2 7 3 6 4 4 5 5 6 3 8 2 9 1 10 77 11 78 12 83 13 79 14
REMARK SMILES IDX 80 15 82 16 84 17 81 18 10 19 11 20 12 21 13 23 14 24 15 25
REMARK SMILES IDX 76 26 16 27 75 28 17 29 18 30 19 31 69 32 20 33 74 34 68 35
REMARK SMILES IDX 70 36 21 37 73 38 67 39 66 40 22 42 54 43 34 44 53 45 35 46
REMARK SMILES IDX 38 47 52 48 71 49 36 50 37 51 51 53 72 54 39 55 23 56 24 57
REMARK SMILES IDX 32 58 25 59 31 60 33 61 30 62 26 63 27 64 28 65 29 66 55 67
REMARK SMILES IDX 56 68 64 69 57 70 63 71 65 72 62 73 58 74 59 75 60 76 61 77
REMARK SMILES IDX 40 78 41 79 49 80 42 81 48 82 50 83 47 84 43 85 44 86 45 87
REMARK SMILES IDX 46 88
REMARK H PARENT 6 7 11 22 70 41 38 52
REMARK Flexibility Score: inf
ROOT
ATOM      1  C   UNL     1       0.558   1.802   3.241  1.00  0.00     0.023 C 
ENDROOT
BRANCH   1   2
ATOM      2  C   UNL     1       1.119   1.149   1.980  1.00  0.00     0.023 C 
BRANCH   2   3
ATOM      3  C   UNL     1       1.853  -0.170   2.211  1.00  0.00     0.116 C 
BRANCH   3   4
ATOM      4  N   UNL     1       0.903  -1.229   2.483  1.00  0.00    -0.356 N 
ATOM      5  C   UNL     1       0.391  -2.158   1.635  1.00  0.00     0.222 C 
ATOM      6  O   UNL     1      -0.598  -2.798   2.000  1.00  0.00    -0.275 OA
ATOM      7  H   UNL     1       0.584  -1.283   3.413  1.00  0.00     0.163 HD
BRANCH   5   8
ATOM      8  C   UNL     1       1.043  -2.423   0.294  1.00  0.00     0.125 C 
BRANCH   8   9
ATOM      9  C   UNL     1       0.392  -1.735  -0.928  1.00  0.00     0.099 C 
ATOM     10  C   UNL     1       1.186  -0.498  -1.367  1.00  0.00     0.032 C 
BRANCH   9  11
ATOM     11  N   UNL     1      -1.081  -1.612  -0.821  1.00  0.00    -0.279 N 
ATOM     12  C   UNL     1      -1.779  -2.828  -0.883  1.00  0.00     0.229 C 
ATOM     13  C   UNL     1      -1.704  -0.371  -0.682  1.00  0.00     0.229 C 
ATOM     14  O   UNL     1      -1.256  -3.895  -1.212  1.00  0.00    -0.274 OA
ATOM     15  C   UNL     1      -3.236  -2.787  -0.501  1.00  0.00     0.101 C 
ATOM     16  C   UNL     1      -3.211  -0.346  -0.530  1.00  0.00     0.101 C 
ATOM     17  O   UNL     1      -1.111   0.708  -0.657  1.00  0.00    -0.274 OA
ATOM     18  C   UNL     1      -3.879  -1.568  -1.112  1.00  0.00     0.020 C 
ENDBRANCH   9  11
ENDBRANCH   8   9
ENDBRANCH   5   8
ENDBRANCH   3   4
ENDBRANCH   2   3
ENDBRANCH   1   2
BRANCH   1  19
ATOM     19  C   UNL     1       1.602   2.193   4.276  1.00  0.00     0.116 C 
BRANCH  19  20
ATOM     20  N   UNL     1       2.633   3.073   3.747  1.00  0.00    -0.352 N 
ATOM     21  C   UNL     1       3.248   4.136   4.361  1.00  0.00     0.251 C 
ATOM     22  H   UNL     1       2.928   2.881   2.827  1.00  0.00     0.163 HD
ATOM     23  O   UNL     1       4.024   4.848   3.729  1.00  0.00    -0.269 OA
BRANCH  21  24
ATOM     24  C   UNL     1       2.927   4.435   5.771  1.00  0.00     0.039 A 
ATOM     25  C   UNL     1       2.586   5.743   6.123  1.00  0.00     0.014 A 
ATOM     26  C   UNL     1       2.906   3.415   6.726  1.00  0.00     0.014 A 
ATOM     27  C   UNL     1       2.152   6.013   7.422  1.00  0.00     0.010 A 
ATOM     28  C   UNL     1       2.398   3.671   7.994  1.00  0.00     0.010 A 
ATOM     29  C   UNL     1       2.018   4.973   8.356  1.00  0.00    -0.014 A 
BRANCH  29  30
ATOM     30  C   UNL     1       1.495   5.225   9.722  1.00  0.00     0.031 A 
ATOM     31  C   UNL     1       2.377   4.980  10.915  1.00  0.00     0.074 A 
ATOM     32  C   UNL     1       0.212   5.601   9.888  1.00  0.00     0.049 A 
ATOM     33  N   UNL     1       2.089   5.052  12.189  1.00  0.00    -0.248 NA
ATOM     34  C   UNL     1       3.757   4.557  10.634  1.00  0.00     0.031 C 
ATOM     35  C   UNL     1      -0.755   5.814   8.808  1.00  0.00     0.029 A 
ATOM     36  N   UNL     1      -0.504   5.861  11.028  1.00  0.00    -0.354 N 
ATOM     37  C   UNL     1       3.244   4.664  12.860  1.00  0.00     0.074 A 
ATOM     38  C   UNL     1       4.211   4.293  11.849  1.00  0.00     0.031 C 
ATOM     39  C   UNL     1      -1.928   6.199   9.337  1.00  0.00     0.029 A 
ATOM     40  C   UNL     1      -1.810   6.222  10.791  1.00  0.00     0.049 A 
ATOM     41  H   UNL     1      -0.120   5.796  11.932  1.00  0.00     0.167 HD
ATOM     42  C   UNL     1       3.484   4.645  14.195  1.00  0.00     0.034 A 
ATOM     43  C   UNL     1      -2.800   6.533  11.650  1.00  0.00     0.034 A 
ATOM     44  C   UNL     1       2.514   5.041  15.186  1.00  0.00     0.049 A 
ATOM     45  C   UNL     1      -2.507   6.521  13.128  1.00  0.00     0.074 A 
ATOM     46  C   UNL     1       2.662   5.116  16.560  1.00  0.00     0.029 A 
ATOM     47  N   UNL     1       1.209   5.431  14.907  1.00  0.00    -0.354 N 
ATOM     48  N   UNL     1      -1.395   6.199  13.748  1.00  0.00    -0.248 NA
ATOM     49  C   UNL     1      -3.599   6.928  14.021  1.00  0.00     0.031 C 
ATOM     50  C   UNL     1       1.435   5.499  17.114  1.00  0.00     0.029 A 
ATOM     51  C   UNL     1       0.538   5.728  16.083  1.00  0.00     0.049 A 
ATOM     52  H   UNL     1       0.819   5.488  14.005  1.00  0.00     0.167 HD
ATOM     53  C   UNL     1      -1.646   6.393  15.102  1.00  0.00     0.074 A 
ATOM     54  C   UNL     1      -3.009   6.875  15.206  1.00  0.00     0.031 C 
ATOM     55  C   UNL     1      -0.826   6.196  16.166  1.00  0.00     0.034 A 
BRANCH  42  56
ATOM     56  C   UNL     1       4.842   4.159  14.643  1.00  0.00     0.023 A 
ATOM     57  C   UNL     1       6.023   4.830  14.275  1.00  0.00     0.031 A 
ATOM     58  C   UNL     1       4.966   2.984  15.405  1.00  0.00     0.131 A 
ATOM     59  C   UNL     1       7.272   4.273  14.585  1.00  0.00     0.055 A 
ATOM     60  C   UNL     1       6.212   2.482  15.787  1.00  0.00     0.041 A 
ATOM     61  F   UNL     1       3.878   2.289  15.771  1.00  0.00    -0.206 F 
ATOM     62  C   UNL     1       7.376   3.117  15.361  1.00  0.00     0.022 A 
BRANCH  59  63
ATOM     63  S   UNL     1       8.752   4.994  13.824  1.00  0.00     0.124 S 
ATOM     64  O   UNL     1       8.459   4.832  12.402  1.00  0.00    -0.237 OA
ATOM     65  O   UNL     1       8.733   6.362  14.329  1.00  0.00    -0.237 OA
ATOM     66  O   UNL     1       9.839   4.157  14.328  1.00  0.00    -0.744 OA
ENDBRANCH  59  63
ENDBRANCH  42  56
BRANCH  43  67
ATOM     67  C   UNL     1      -4.156   6.888  11.145  1.00  0.00     0.023 A 
ATOM     68  C   UNL     1      -4.668   8.185  11.304  1.00  0.00     0.031 A 
ATOM     69  C   UNL     1      -4.974   5.926  10.526  1.00  0.00     0.131 A 
ATOM     70  C   UNL     1      -5.977   8.476  10.891  1.00  0.00     0.055 A 
ATOM     71  C   UNL     1      -6.260   6.232  10.076  1.00  0.00     0.041 A 
ATOM     72  F   UNL     1      -4.528   4.673  10.341  1.00  0.00    -0.206 F 
ATOM     73  C   UNL     1      -6.773   7.512  10.269  1.00  0.00     0.022 A 
BRANCH  70  74
ATOM     74  S   UNL     1      -6.654  10.121  11.247  1.00  0.00     0.124 S 
ATOM     75  O   UNL     1      -6.536  10.184  12.699  1.00  0.00    -0.237 OA
ATOM     76  O   UNL     1      -5.754  10.988  10.492  1.00  0.00    -0.237 OA
ATOM     77  O   UNL     1      -8.019  10.046  10.733  1.00  0.00    -0.744 OA
ENDBRANCH  70  74
ENDBRANCH  43  67
BRANCH  55  78
ATOM     78  C   UNL     1      -1.379   6.546  17.524  1.00  0.00     0.023 A 
ATOM     79  C   UNL     1      -2.424   5.809  18.108  1.00  0.00     0.031 A 
ATOM     80  C   UNL     1      -0.866   7.647  18.232  1.00  0.00     0.131 A 
ATOM     81  C   UNL     1      -2.963   6.217  19.337  1.00  0.00     0.055 A 
ATOM     82  C   UNL     1      -1.369   8.014  19.481  1.00  0.00     0.041 A 
ATOM     83  F   UNL     1       0.131   8.385  17.719  1.00  0.00    -0.206 F 
ATOM     84  C   UNL     1      -2.433   7.306  20.034  1.00  0.00     0.022 A 
BRANCH  81  85
ATOM     85  S   UNL     1      -4.432   5.362  19.970  1.00  0.00     0.124 S 
ATOM     86  O   UNL     1      -5.387   5.552  18.882  1.00  0.00    -0.237 OA
ATOM     87  O   UNL     1      -3.943   4.000  20.158  1.00  0.00    -0.237 OA
ATOM     88  O   UNL     1      -4.745   6.084  21.202  1.00  0.00    -0.744 OA
ENDBRANCH  81  85
ENDBRANCH  55  78
ENDBRANCH  29  30
ENDBRANCH  21  24
ENDBRANCH  19  20
ENDBRANCH   1  19
TORSDOF 16
