REMARK SMILES Nc1c(N2CCCC2)ncnc1N1CCC(C(=O)NCCCCNC(=O)c2ccc(-c3c4nc(c(-c5cc(S(=O)(=O)[O-])ccc5F)c5ccc([nH]5)c(-c5cc(S(=O)(=O)[O-])ccc5F)c5nc(c(-c6cc(S(=O)(=O)[O-])ccc6F)c6ccc3[nH]6)C=C5)C=C4)cc2)CC1
REMARK SMILES IDX 22 1 21 2 20 3 19 4 17 5 18 6 16 8 13 9 14 10 91 11 15 12
REMARK SMILES IDX 90 13 12 14 2 15 3 16 9 17 11 18 10 19 1 20 4 23 5 24 8 25
REMARK SMILES IDX 6 26 7 27 23 28 24 29 25 30 26 32 27 33 28 34 89 35 29 36
REMARK SMILES IDX 88 37 30 38 31 39 32 40 82 41 33 42 87 43 81 44 83 45 34 46
REMARK SMILES IDX 86 47 80 48 79 49 35 51 67 52 47 53 66 54 48 55 51 56 65 57
REMARK SMILES IDX 84 58 49 59 50 60 64 62 85 63 52 64 36 65 37 66 45 67 38 68
REMARK SMILES IDX 44 69 46 70 43 71 39 72 40 73 41 74 42 75 68 76 69 77 77 78
REMARK SMILES IDX 70 79 76 80 78 81 75 82 71 83 72 84 73 85 74 86 53 87 54 88
REMARK SMILES IDX 62 89 55 90 61 91 63 92 60 93 56 94 57 95 58 96 59 97
REMARK H PARENT 19 7 1 21 1 22 24 31 83 50 51 61
REMARK Flexibility Score: inf
ROOT
ATOM      1  C   UNL     1       0.649   4.115  -7.792  1.00  0.00     0.023 C 
ENDROOT
BRANCH   1   2
ATOM      2  C   UNL     1       0.842   3.662  -6.346  1.00  0.00     0.023 C 
BRANCH   2   3
ATOM      3  C   UNL     1       0.896   2.149  -6.156  1.00  0.00     0.116 C 
BRANCH   3   4
ATOM      4  N   UNL     1       2.094   1.570  -6.742  1.00  0.00    -0.356 N 
ATOM      5  C   UNL     1       3.166   0.968  -6.158  1.00  0.00     0.223 C 
ATOM      6  O   UNL     1       4.072   0.558  -6.888  1.00  0.00    -0.275 OA
ATOM      7  H   UNL     1       2.137   1.623  -7.724  1.00  0.00     0.163 HD
BRANCH   5   8
ATOM      8  C   UNL     1       3.250   0.770  -4.653  1.00  0.00     0.082 C 
ATOM      9  N   UNL     1       2.091   1.011  -2.066  1.00  0.00    -0.355 N 
ATOM     10  C   UNL     1       3.153   1.941  -2.395  1.00  0.00     0.119 C 
ATOM     11  C   UNL     1       2.107  -0.314  -2.662  1.00  0.00     0.119 C 
ATOM     12  C   UNL     1       3.295   2.105  -3.899  1.00  0.00     0.035 C 
ATOM     13  C   UNL     1       2.181  -0.222  -4.177  1.00  0.00     0.035 C 
BRANCH   9  14
ATOM     14  C   UNL     1       0.919   1.496  -1.494  1.00  0.00     0.157 A 
ATOM     15  C   UNL     1       0.416   0.881  -0.333  1.00  0.00     0.118 A 
ATOM     16  C   UNL     1      -0.763   1.420   0.207  1.00  0.00     0.157 A 
ATOM     17  N   UNL     1      -1.432   2.405  -0.414  1.00  0.00    -0.217 NA
ATOM     18  N   UNL     1       0.298   2.535  -2.078  1.00  0.00    -0.217 NA
ATOM     19  C   UNL     1      -0.857   2.920  -1.511  1.00  0.00     0.226 A 
BRANCH  15  20
ATOM     20  N   UNL     1       1.122  -0.160   0.300  1.00  0.00    -0.393 N 
ATOM     21  H   UNL     1       0.756  -0.580   1.112  1.00  0.00     0.156 HD
ATOM     22  H   UNL     1       1.981  -0.468  -0.069  1.00  0.00     0.156 HD
ENDBRANCH  15  20
BRANCH  16  23
ATOM     23  N   UNL     1      -1.295   0.941   1.378  1.00  0.00    -0.355 N 
ATOM     24  C   UNL     1      -0.584   0.831   2.634  1.00  0.00     0.118 C 
ATOM     25  C   UNL     1      -2.580   0.270   1.388  1.00  0.00     0.118 C 
ATOM     26  C   UNL     1      -1.175  -0.447   3.219  1.00  0.00     0.023 C 
ATOM     27  C   UNL     1      -2.635  -0.374   2.779  1.00  0.00     0.023 C 
ENDBRANCH  16  23
ENDBRANCH   9  14
ENDBRANCH   5   8
ENDBRANCH   3   4
ENDBRANCH   2   3
ENDBRANCH   1   2
BRANCH   1  28
ATOM     28  C   UNL     1      -0.552   3.506  -8.505  1.00  0.00     0.116 C 
BRANCH  28  29
ATOM     29  N   UNL     1      -1.804   3.723  -7.796  1.00  0.00    -0.352 N 
ATOM     30  C   UNL     1      -3.009   4.160  -8.291  1.00  0.00     0.251 C 
ATOM     31  H   UNL     1      -1.786   3.531  -6.830  1.00  0.00     0.163 HD
ATOM     32  O   UNL     1      -3.935   4.412  -7.526  1.00  0.00    -0.269 OA
BRANCH  30  33
ATOM     33  C   UNL     1      -3.162   4.355  -9.746  1.00  0.00     0.039 A 
ATOM     34  C   UNL     1      -3.665   5.570 -10.215  1.00  0.00     0.014 A 
ATOM     35  C   UNL     1      -2.768   3.356 -10.643  1.00  0.00     0.014 A 
ATOM     36  C   UNL     1      -3.706   5.813 -11.588  1.00  0.00     0.010 A 
ATOM     37  C   UNL     1      -2.752   3.624 -12.008  1.00  0.00     0.010 A 
ATOM     38  C   UNL     1      -3.216   4.856 -12.492  1.00  0.00    -0.014 A 
BRANCH  38  39
ATOM     39  C   UNL     1      -3.192   5.121 -13.951  1.00  0.00     0.031 A 
ATOM     40  C   UNL     1      -4.068   4.317 -14.870  1.00  0.00     0.074 A 
ATOM     41  C   UNL     1      -2.353   6.050 -14.449  1.00  0.00     0.049 A 
ATOM     42  N   UNL     1      -4.127   4.332 -16.176  1.00  0.00    -0.248 NA
ATOM     43  C   UNL     1      -4.980   3.354 -14.235  1.00  0.00     0.031 C 
ATOM     44  C   UNL     1      -1.443   6.881 -13.657  1.00  0.00     0.029 A 
ATOM     45  N   UNL     1      -2.130   6.453 -15.741  1.00  0.00    -0.354 N 
ATOM     46  C   UNL     1      -5.076   3.376 -16.521  1.00  0.00     0.074 A 
ATOM     47  C   UNL     1      -5.526   2.765 -15.289  1.00  0.00     0.031 C 
ATOM     48  C   UNL     1      -0.787   7.718 -14.478  1.00  0.00     0.029 A 
ATOM     49  C   UNL     1      -1.195   7.456 -15.854  1.00  0.00     0.049 A 
ATOM     50  H   UNL     1      -2.595   6.061 -16.516  1.00  0.00     0.167 HD
ATOM     51  C   UNL     1      -5.545   3.054 -17.751  1.00  0.00     0.034 A 
ATOM     52  C   UNL     1      -0.718   8.088 -16.944  1.00  0.00     0.034 A 
ATOM     53  C   UNL     1      -5.103   3.682 -18.970  1.00  0.00     0.049 A 
ATOM     54  C   UNL     1      -1.230   7.689 -18.303  1.00  0.00     0.074 A 
ATOM     55  C   UNL     1      -5.532   3.447 -20.264  1.00  0.00     0.029 A 
ATOM     56  N   UNL     1      -4.134   4.673 -19.045  1.00  0.00    -0.354 N 
ATOM     57  N   UNL     1      -2.115   6.772 -18.613  1.00  0.00    -0.248 NA
ATOM     58  C   UNL     1      -0.674   8.408 -19.457  1.00  0.00     0.031 C 
ATOM     59  C   UNL     1      -4.792   4.263 -21.126  1.00  0.00     0.029 A 
ATOM     60  C   UNL     1      -3.939   5.047 -20.364  1.00  0.00     0.049 A 
ATOM     61  H   UNL     1      -3.655   5.053 -18.274  1.00  0.00     0.167 HD
ATOM     62  C   UNL     1      -2.235   6.815 -19.997  1.00  0.00     0.074 A 
ATOM     63  C   UNL     1      -1.335   7.851 -20.463  1.00  0.00     0.031 C 
ATOM     64  C   UNL     1      -3.023   6.068 -20.810  1.00  0.00     0.034 A 
BRANCH  51  65
ATOM     65  C   UNL     1      -6.580   1.964 -17.829  1.00  0.00     0.023 A 
ATOM     66  C   UNL     1      -7.871   2.144 -17.306  1.00  0.00     0.031 A 
ATOM     67  C   UNL     1      -6.270   0.728 -18.421  1.00  0.00     0.131 A 
ATOM     68  C   UNL     1      -8.789   1.084 -17.331  1.00  0.00     0.055 A 
ATOM     69  C   UNL     1      -7.209  -0.301 -18.504  1.00  0.00     0.041 A 
ATOM     70  F   UNL     1      -5.045   0.497 -18.919  1.00  0.00    -0.206 F 
ATOM     71  C   UNL     1      -8.475  -0.130 -17.948  1.00  0.00     0.022 A 
BRANCH  68  72
ATOM     72  S   UNL     1     -10.368   1.281 -16.464  1.00  0.00     0.124 S 
ATOM     73  O   UNL     1      -9.929   1.369 -15.074  1.00  0.00    -0.237 OA
ATOM     74  O   UNL     1     -10.900   2.508 -17.045  1.00  0.00    -0.237 OA
ATOM     75  O   UNL     1     -11.100   0.062 -16.806  1.00  0.00    -0.744 OA
ENDBRANCH  68  72
ENDBRANCH  51  65
BRANCH  52  76
ATOM     76  C   UNL     1       0.302   9.160 -16.799  1.00  0.00     0.023 A 
ATOM     77  C   UNL     1      -0.031  10.502 -17.035  1.00  0.00     0.031 A 
ATOM     78  C   UNL     1       1.623   8.857 -16.426  1.00  0.00     0.131 A 
ATOM     79  C   UNL     1       0.954  11.495 -16.919  1.00  0.00     0.055 A 
ATOM     80  C   UNL     1       2.591   9.852 -16.280  1.00  0.00     0.041 A 
ATOM     81  F   UNL     1       1.984   7.588 -16.180  1.00  0.00    -0.206 F 
ATOM     82  C   UNL     1       2.260  11.180 -16.532  1.00  0.00     0.022 A 
BRANCH  79  83
ATOM     83  S   UNL     1       0.511  13.211 -17.302  1.00  0.00     0.124 S 
ATOM     84  O   UNL     1       0.212  13.130 -18.727  1.00  0.00    -0.237 OA
ATOM     85  O   UNL     1      -0.628  13.438 -16.418  1.00  0.00    -0.237 OA
ATOM     86  O   UNL     1       1.718  13.959 -16.958  1.00  0.00    -0.744 OA
ENDBRANCH  79  83
ENDBRANCH  52  76
BRANCH  64  87
ATOM     87  C   UNL     1      -2.964   6.363 -22.284  1.00  0.00     0.023 A 
ATOM     88  C   UNL     1      -1.860   5.981 -23.063  1.00  0.00     0.031 A 
ATOM     89  C   UNL     1      -4.041   7.006 -22.918  1.00  0.00     0.131 A 
ATOM     90  C   UNL     1      -1.845   6.272 -24.435  1.00  0.00     0.055 A 
ATOM     91  C   UNL     1      -4.038   7.255 -24.291  1.00  0.00     0.041 A 
ATOM     92  F   UNL     1      -5.119   7.387 -22.214  1.00  0.00    -0.206 F 
ATOM     93  C   UNL     1      -2.933   6.892 -25.056  1.00  0.00     0.022 A 
BRANCH  90  94
ATOM     94  S   UNL     1      -0.367   5.853 -25.399  1.00  0.00     0.124 S 
ATOM     95  O   UNL     1       0.634   6.742 -24.818  1.00  0.00    -0.237 OA
ATOM     96  O   UNL     1      -0.198   4.431 -25.119  1.00  0.00    -0.237 OA
ATOM     97  O   UNL     1      -0.754   6.169 -26.773  1.00  0.00    -0.744 OA
ENDBRANCH  90  94
ENDBRANCH  64  87
ENDBRANCH  38  39
ENDBRANCH  30  33
ENDBRANCH  28  29
ENDBRANCH   1  28
TORSDOF 17
