REMARK SMILES O=C(NCCCCNC(=O)[C@@H]1CS[C@]2(c3ccccc3)CCC(=O)N12)c1ccc(-c2c3nc(c(-c4cc(S(=O)(=O)[O-])ccc4F)c4ccc([nH]4)c(-c4cc(S(=O)(=O)[O-])ccc4F)c4nc(c(-c5cc(S(=O)(=O)[O-])ccc5F)c5ccc2[nH]5)C=C4)C=C3)cc1
REMARK SMILES IDX 4 1 3 2 1 3 2 4 26 6 27 7 88 8 28 9 87 10 29 11 30 12 31 13
REMARK SMILES IDX 81 14 32 15 86 16 80 17 82 18 33 19 85 20 79 21 78 22 34 24
REMARK SMILES IDX 66 25 46 26 65 27 47 28 50 29 64 30 83 31 48 32 49 33 63 35
REMARK SMILES IDX 84 36 51 37 35 38 36 39 44 40 37 41 43 42 45 43 42 44 38 45
REMARK SMILES IDX 39 46 40 47 41 48 67 49 68 50 76 51 69 52 75 53 77 54 74 55
REMARK SMILES IDX 70 56 71 57 72 58 73 59 52 60 53 61 61 62 54 63 60 64 62 65
REMARK SMILES IDX 59 66 55 67 56 68 57 69 58 70 5 71 6 72 7 73 8 74 9 75 10 77
REMARK SMILES IDX 11 78 12 79 25 80 13 81 14 82 23 83 21 84 22 85 24 86 15 87
REMARK SMILES IDX 16 88 20 89 17 90 19 91 18 92
REMARK H PARENT 3 5 82 23 50 34 8 76
REMARK Flexibility Score: inf
ROOT
ATOM      1  C   UNL     1       5.343   9.849  -3.493  1.00  0.00     0.116 C 
ENDROOT
BRANCH   1   2
ATOM      2  N   UNL     1       4.930  11.191  -3.103  1.00  0.00    -0.352 N 
ATOM      3  O   UNL     1       4.251  13.323  -3.368  1.00  0.00    -0.269 OA
ATOM      4  C   UNL     1       4.413  12.212  -3.865  1.00  0.00     0.251 C 
ATOM      5  H   UNL     1       5.039  11.399  -2.146  1.00  0.00     0.163 HD
BRANCH   4   6
ATOM      6  C   UNL     1       4.078  11.979  -5.286  1.00  0.00     0.039 A 
ATOM      7  C   UNL     1       3.349  10.852  -5.670  1.00  0.00     0.014 A 
ATOM      8  C   UNL     1       4.503  12.901  -6.248  1.00  0.00     0.014 A 
ATOM      9  C   UNL     1       3.186  10.564  -7.021  1.00  0.00     0.010 A 
ATOM     10  C   UNL     1       4.265  12.650  -7.604  1.00  0.00     0.010 A 
ATOM     11  C   UNL     1       3.639  11.459  -8.004  1.00  0.00    -0.014 A 
BRANCH  11  12
ATOM     12  C   UNL     1       3.416  11.139  -9.439  1.00  0.00     0.031 A 
ATOM     13  C   UNL     1       4.574  10.878 -10.365  1.00  0.00     0.074 A 
ATOM     14  C   UNL     1       2.150  11.047  -9.893  1.00  0.00     0.049 A 
ATOM     15  N   UNL     1       4.559  10.580 -11.639  1.00  0.00    -0.248 NA
ATOM     16  C   UNL     1       5.924  10.972  -9.788  1.00  0.00     0.031 C 
ATOM     17  C   UNL     1       0.950  11.281  -9.085  1.00  0.00     0.029 A 
ATOM     18  N   UNL     1       1.656  10.717 -11.129  1.00  0.00    -0.354 N 
ATOM     19  C   UNL     1       5.892  10.469 -12.024  1.00  0.00     0.074 A 
ATOM     20  C   UNL     1       6.689  10.757 -10.850  1.00  0.00     0.031 C 
ATOM     21  C   UNL     1      -0.138  11.045  -9.832  1.00  0.00     0.029 A 
ATOM     22  C   UNL     1       0.282  10.711 -11.188  1.00  0.00     0.049 A 
ATOM     23  H   UNL     1       2.230  10.504 -11.899  1.00  0.00     0.167 HD
ATOM     24  C   UNL     1       6.399  10.154 -13.243  1.00  0.00     0.034 A 
ATOM     25  C   UNL     1      -0.551  10.486 -12.223  1.00  0.00     0.034 A 
ATOM     26  C   UNL     1       5.587   9.855 -14.400  1.00  0.00     0.049 A 
ATOM     27  C   UNL     1       0.040  10.160 -13.568  1.00  0.00     0.074 A 
ATOM     28  C   UNL     1       5.999   9.488 -15.670  1.00  0.00     0.029 A 
ATOM     29  N   UNL     1       4.199   9.895 -14.432  1.00  0.00    -0.354 N 
ATOM     30  N   UNL     1       1.304  10.050 -13.908  1.00  0.00    -0.248 NA
ATOM     31  C   UNL     1      -0.905   9.928 -14.666  1.00  0.00     0.031 C 
ATOM     32  C   UNL     1       4.866   9.366 -16.483  1.00  0.00     0.029 A 
ATOM     33  C   UNL     1       3.741   9.589 -15.705  1.00  0.00     0.049 A 
ATOM     34  H   UNL     1       3.623  10.109 -13.662  1.00  0.00     0.167 HD
ATOM     35  C   UNL     1       1.302   9.722 -15.259  1.00  0.00     0.074 A 
ATOM     36  C   UNL     1      -0.086   9.627 -15.662  1.00  0.00     0.031 C 
ATOM     37  C   UNL     1       2.353   9.520 -16.094  1.00  0.00     0.034 A 
BRANCH  24  38
ATOM     38  C   UNL     1       7.900  10.160 -13.402  1.00  0.00     0.023 A 
ATOM     39  C   UNL     1       8.724   9.223 -12.755  1.00  0.00     0.031 A 
ATOM     40  C   UNL     1       8.516  11.118 -14.229  1.00  0.00     0.131 A 
ATOM     41  C   UNL     1      10.118   9.295 -12.905  1.00  0.00     0.055 A 
ATOM     42  C   UNL     1       9.898  11.144 -14.426  1.00  0.00     0.041 A 
ATOM     43  F   UNL     1       7.782  12.050 -14.858  1.00  0.00    -0.206 F 
ATOM     44  C   UNL     1      10.709  10.234 -13.754  1.00  0.00     0.022 A 
BRANCH  41  45
ATOM     45  S   UNL     1      11.161   8.208 -11.893  1.00  0.00     0.124 S 
ATOM     46  O   UNL     1      10.783   8.611 -10.541  1.00  0.00    -0.237 OA
ATOM     47  O   UNL     1      10.727   6.879 -12.308  1.00  0.00    -0.237 OA
ATOM     48  O   UNL     1      12.520   8.572 -12.287  1.00  0.00    -0.744 OA
ENDBRANCH  41  45
ENDBRANCH  24  38
BRANCH  25  49
ATOM     49  C   UNL     1      -2.025  10.603 -12.039  1.00  0.00     0.023 A 
ATOM     50  C   UNL     1      -2.870   9.495 -12.205  1.00  0.00     0.031 A 
ATOM     51  C   UNL     1      -2.613  11.841 -11.720  1.00  0.00     0.131 A 
ATOM     52  C   UNL     1      -4.260   9.654 -12.089  1.00  0.00     0.055 A 
ATOM     53  C   UNL     1      -3.991  11.982 -11.552  1.00  0.00     0.041 A 
ATOM     54  F   UNL     1      -1.850  12.931 -11.547  1.00  0.00    -0.206 F 
ATOM     55  C   UNL     1      -4.824  10.886 -11.750  1.00  0.00     0.022 A 
BRANCH  52  56
ATOM     56  S   UNL     1      -5.330   8.242 -12.474  1.00  0.00     0.124 S 
ATOM     57  O   UNL     1      -4.901   7.900 -13.825  1.00  0.00    -0.237 OA
ATOM     58  O   UNL     1      -4.966   7.293 -11.426  1.00  0.00    -0.237 OA
ATOM     59  O   UNL     1      -6.678   8.798 -12.368  1.00  0.00    -0.744 OA
ENDBRANCH  52  56
ENDBRANCH  25  49
BRANCH  37  60
ATOM     60  C   UNL     1       2.022   9.147 -17.516  1.00  0.00     0.023 A 
ATOM     61  C   UNL     1       1.415  10.064 -18.393  1.00  0.00     0.031 A 
ATOM     62  C   UNL     1       2.282   7.849 -17.988  1.00  0.00     0.131 A 
ATOM     63  C   UNL     1       1.034   9.652 -19.678  1.00  0.00     0.055 A 
ATOM     64  C   UNL     1       1.951   7.461 -19.287  1.00  0.00     0.041 A 
ATOM     65  F   UNL     1       2.857   6.935 -17.190  1.00  0.00    -0.206 F 
ATOM     66  C   UNL     1       1.310   8.360 -20.135  1.00  0.00     0.022 A 
BRANCH  63  67
ATOM     67  S   UNL     1       0.085  10.799 -20.714  1.00  0.00     0.124 S 
ATOM     68  O   UNL     1      -1.094  11.048 -19.890  1.00  0.00    -0.237 OA
ATOM     69  O   UNL     1       1.006  11.920 -20.864  1.00  0.00    -0.237 OA
ATOM     70  O   UNL     1      -0.163  10.034 -21.935  1.00  0.00    -0.744 OA
ENDBRANCH  63  67
ENDBRANCH  37  60
ENDBRANCH  11  12
ENDBRANCH   4   6
ENDBRANCH   1   2
BRANCH   1  71
ATOM     71  C   UNL     1       6.828   9.588  -3.263  1.00  0.00     0.023 C 
BRANCH  71  72
ATOM     72  C   UNL     1       7.319   9.766  -1.823  1.00  0.00     0.023 C 
BRANCH  72  73
ATOM     73  C   UNL     1       6.548   8.972  -0.771  1.00  0.00     0.116 C 
BRANCH  73  74
ATOM     74  N   UNL     1       6.689   7.542  -0.942  1.00  0.00    -0.354 N 
ATOM     75  C   UNL     1       6.283   6.516  -0.144  1.00  0.00     0.243 C 
ATOM     76  H   UNL     1       7.153   7.267  -1.765  1.00  0.00     0.163 HD
ATOM     77  O   UNL     1       6.579   5.369  -0.501  1.00  0.00    -0.273 OA
BRANCH  75  78
ATOM     78  C   UNL     1       5.437   6.726   1.133  1.00  0.00     0.186 C 
ATOM     79  C   UNL     1       4.115   7.459   0.858  1.00  0.00     0.107 C 
ATOM     80  N   UNL     1       6.022   7.271   2.371  1.00  0.00    -0.311 N 
ATOM     81  S   UNL     1       4.067   8.869   2.023  1.00  0.00    -0.126 SA
ATOM     82  C   UNL     1       5.124   7.997   3.249  1.00  0.00     0.115 C 
ATOM     83  C   UNL     1       7.323   7.751   2.413  1.00  0.00     0.224 C 
ATOM     84  C   UNL     1       6.054   8.923   4.048  1.00  0.00     0.055 C 
ATOM     85  C   UNL     1       7.356   8.982   3.277  1.00  0.00     0.104 C 
ATOM     86  O   UNL     1       8.270   7.359   1.761  1.00  0.00    -0.275 OA
BRANCH  82  87
ATOM     87  C   UNL     1       4.221   7.173   4.185  1.00  0.00    -0.012 A 
ATOM     88  C   UNL     1       3.848   5.840   3.939  1.00  0.00     0.007 A 
ATOM     89  C   UNL     1       3.646   7.787   5.322  1.00  0.00     0.007 A 
ATOM     90  C   UNL     1       2.921   5.173   4.750  1.00  0.00     0.000 A 
ATOM     91  C   UNL     1       2.748   7.110   6.154  1.00  0.00     0.000 A 
ATOM     92  C   UNL     1       2.372   5.807   5.857  1.00  0.00     0.000 A 
ENDBRANCH  82  87
ENDBRANCH  75  78
ENDBRANCH  73  74
ENDBRANCH  72  73
ENDBRANCH  71  72
ENDBRANCH   1  71
TORSDOF 15
