REMARK SMILES CCc1cc([C@H]([NH3+])C(=O)NCCCCNC(=O)c2ccc(-c3c4nc(c(-c5cc(S(=O)(=O)[O-])ccc5F)c5ccc([nH]5)c(-c5cc(S(=O)(=O)[O-])ccc5F)c5nc(c(-c6cc(S(=O)(=O)[O-])ccc6F)c6ccc3[nH]6)C=C5)C=C4)cc2)cc(CC)c1N
REMARK SMILES IDX 13 1 12 2 11 3 10 4 8 5 9 6 6 8 5 9 3 10 4 11 85 12 82 13
REMARK SMILES IDX 81 14 2 15 1 16 86 17 83 20 84 21 7 22 14 26 15 27 16 28
REMARK SMILES IDX 17 30 18 31 19 32 80 33 20 34 79 35 21 36 22 37 23 38 73 39
REMARK SMILES IDX 24 40 78 41 72 42 74 43 25 44 77 45 71 46 70 47 26 49 58 50
REMARK SMILES IDX 38 51 57 52 39 53 42 54 56 55 75 56 40 57 41 58 55 60 76 61
REMARK SMILES IDX 43 62 27 63 28 64 36 65 29 66 35 67 37 68 34 69 30 70 31 71
REMARK SMILES IDX 32 72 33 73 59 74 60 75 68 76 61 77 67 78 69 79 66 80 62 81
REMARK SMILES IDX 63 82 64 83 65 84 44 85 45 86 53 87 46 88 52 89 54 90 51 91
REMARK SMILES IDX 47 92 48 93 49 94 50 95
REMARK H PARENT 10 7 86 18 86 19 7 23 7 24 7 25 15 29 74 48 42 59
REMARK Flexibility Score: inf
ROOT
ATOM      1  C   UNL     1       3.485   3.931  -0.285  1.00  0.00     0.023 C 
ENDROOT
BRANCH   1   2
ATOM      2  C   UNL     1       2.569   3.000  -1.069  1.00  0.00     0.023 C 
BRANCH   2   3
ATOM      3  C   UNL     1       2.099   3.510  -2.422  1.00  0.00     0.116 C 
BRANCH   3   4
ATOM      4  N   UNL     1       3.141   3.616  -3.419  1.00  0.00    -0.351 N 
ATOM      5  C   UNL     1       3.075   3.406  -4.774  1.00  0.00     0.283 C 
ATOM      6  O   UNL     1       4.034   3.800  -5.448  1.00  0.00    -0.268 OA
ATOM      7  H   UNL     1       4.027   3.876  -3.077  1.00  0.00     0.163 HD
BRANCH   5   8
ATOM      8  C   UNL     1       1.870   2.684  -5.451  1.00  0.00     0.302 C 
BRANCH   8   9
ATOM      9  C   UNL     1       0.656   3.580  -5.651  1.00  0.00     0.020 A 
ATOM     10  C   UNL     1      -1.278   4.837  -4.798  1.00  0.00    -0.024 A 
ATOM     11  C   UNL     1      -0.286   3.847  -4.655  1.00  0.00     0.016 A 
ATOM     12  C   UNL     1      -1.407   5.519  -6.023  1.00  0.00     0.038 A 
ATOM     13  C   UNL     1      -0.578   5.136  -7.099  1.00  0.00    -0.024 A 
ATOM     14  C   UNL     1       0.474   4.221  -6.881  1.00  0.00     0.016 A 
BRANCH  10  15
ATOM     15  C   UNL     1      -2.107   5.166  -3.571  1.00  0.00     0.034 C 
ATOM     16  C   UNL     1      -3.537   4.656  -3.629  1.00  0.00     0.009 C 
ENDBRANCH  10  15
BRANCH  12  17
ATOM     17  N   UNL     1      -2.421   6.457  -6.201  1.00  0.00    -0.398 N 
ATOM     18  H   UNL     1      -2.992   6.715  -5.441  1.00  0.00     0.156 HD
ATOM     19  H   UNL     1      -2.568   6.863  -7.086  1.00  0.00     0.156 HD
ENDBRANCH  12  17
BRANCH  13  20
ATOM     20  C   UNL     1      -0.739   5.682  -8.502  1.00  0.00     0.034 C 
ATOM     21  C   UNL     1       0.302   6.739  -8.839  1.00  0.00     0.009 C 
ENDBRANCH  13  20
ENDBRANCH   8   9
BRANCH   8  22
ATOM     22  N   UNL     1       1.587   1.372  -4.835  1.00  0.00    -0.343 N 
ATOM     23  H   UNL     1       1.291   1.507  -3.868  1.00  0.00     0.345 HD
ATOM     24  H   UNL     1       2.430   0.798  -4.855  1.00  0.00     0.345 HD
ATOM     25  H   UNL     1       0.845   0.904  -5.356  1.00  0.00     0.345 HD
ENDBRANCH   8  22
ENDBRANCH   5   8
ENDBRANCH   3   4
ENDBRANCH   2   3
ENDBRANCH   1   2
BRANCH   1  26
ATOM     26  C   UNL     1       2.973   5.353  -0.088  1.00  0.00     0.116 C 
BRANCH  26  27
ATOM     27  N   UNL     1       1.679   5.420   0.576  1.00  0.00    -0.352 N 
ATOM     28  C   UNL     1       1.310   6.083   1.728  1.00  0.00     0.251 C 
ATOM     29  H   UNL     1       0.958   4.915   0.136  1.00  0.00     0.163 HD
ATOM     30  O   UNL     1       0.189   5.924   2.184  1.00  0.00    -0.269 OA
BRANCH  28  31
ATOM     31  C   UNL     1       2.291   6.949   2.425  1.00  0.00     0.039 A 
ATOM     32  C   UNL     1       2.433   6.833   3.810  1.00  0.00     0.014 A 
ATOM     33  C   UNL     1       3.086   7.849   1.713  1.00  0.00     0.014 A 
ATOM     34  C   UNL     1       3.437   7.553   4.465  1.00  0.00     0.010 A 
ATOM     35  C   UNL     1       4.141   8.494   2.352  1.00  0.00     0.010 A 
ATOM     36  C   UNL     1       4.330   8.353   3.735  1.00  0.00    -0.014 A 
BRANCH  36  37
ATOM     37  C   UNL     1       5.457   9.067   4.395  1.00  0.00     0.031 A 
ATOM     38  C   UNL     1       5.519  10.571   4.348  1.00  0.00     0.074 A 
ATOM     39  C   UNL     1       6.456   8.368   4.970  1.00  0.00     0.049 A 
ATOM     40  N   UNL     1       6.464  11.377   4.759  1.00  0.00    -0.248 NA
ATOM     41  C   UNL     1       4.377  11.254   3.720  1.00  0.00     0.031 C 
ATOM     42  C   UNL     1       6.533   6.907   5.049  1.00  0.00     0.029 A 
ATOM     43  N   UNL     1       7.605   8.791   5.593  1.00  0.00    -0.354 N 
ATOM     44  C   UNL     1       6.038  12.660   4.427  1.00  0.00     0.074 A 
ATOM     45  C   UNL     1       4.786  12.513   3.716  1.00  0.00     0.031 C 
ATOM     46  C   UNL     1       7.652   6.559   5.706  1.00  0.00     0.029 A 
ATOM     47  C   UNL     1       8.396   7.765   6.055  1.00  0.00     0.049 A 
ATOM     48  H   UNL     1       7.840   9.741   5.698  1.00  0.00     0.167 HD
ATOM     49  C   UNL     1       6.619  13.851   4.715  1.00  0.00     0.034 A 
ATOM     50  C   UNL     1       9.590   7.792   6.681  1.00  0.00     0.034 A 
ATOM     51  C   UNL     1       7.860  13.983   5.438  1.00  0.00     0.049 A 
ATOM     52  C   UNL     1      10.230   9.128   6.971  1.00  0.00     0.074 A 
ATOM     53  C   UNL     1       8.526  15.139   5.809  1.00  0.00     0.029 A 
ATOM     54  N   UNL     1       8.624  12.921   5.905  1.00  0.00    -0.354 N 
ATOM     55  N   UNL     1       9.798  10.334   6.677  1.00  0.00    -0.248 NA
ATOM     56  C   UNL     1      11.511   9.107   7.688  1.00  0.00     0.031 C 
ATOM     57  C   UNL     1       9.716  14.775   6.450  1.00  0.00     0.029 A 
ATOM     58  C   UNL     1       9.759  13.394   6.545  1.00  0.00     0.049 A 
ATOM     59  H   UNL     1       8.393  11.970   5.798  1.00  0.00     0.167 HD
ATOM     60  C   UNL     1      10.735  11.212   7.214  1.00  0.00     0.074 A 
ATOM     61  C   UNL     1      11.747  10.399   7.856  1.00  0.00     0.031 C 
ATOM     62  C   UNL     1      10.756  12.569   7.186  1.00  0.00     0.034 A 
BRANCH  49  63
ATOM     63  C   UNL     1       5.917  15.097   4.229  1.00  0.00     0.023 A 
ATOM     64  C   UNL     1       4.626  15.433   4.676  1.00  0.00     0.031 A 
ATOM     65  C   UNL     1       6.521  15.937   3.277  1.00  0.00     0.131 A 
ATOM     66  C   UNL     1       3.949  16.523   4.110  1.00  0.00     0.055 A 
ATOM     67  C   UNL     1       5.876  17.073   2.784  1.00  0.00     0.041 A 
ATOM     68  F   UNL     1       7.743  15.658   2.796  1.00  0.00    -0.206 F 
ATOM     69  C   UNL     1       4.575  17.362   3.186  1.00  0.00     0.022 A 
BRANCH  66  70
ATOM     70  S   UNL     1       2.187  16.734   4.484  1.00  0.00     0.124 S 
ATOM     71  O   UNL     1       1.629  15.478   3.987  1.00  0.00    -0.237 OA
ATOM     72  O   UNL     1       2.189  16.902   5.933  1.00  0.00    -0.237 OA
ATOM     73  O   UNL     1       1.813  17.920   3.717  1.00  0.00    -0.744 OA
ENDBRANCH  66  70
ENDBRANCH  49  63
BRANCH  50  74
ATOM     74  C   UNL     1      10.270   6.527   7.085  1.00  0.00     0.023 A 
ATOM     75  C   UNL     1      10.501   6.235   8.439  1.00  0.00     0.031 A 
ATOM     76  C   UNL     1      10.755   5.622   6.124  1.00  0.00     0.131 A 
ATOM     77  C   UNL     1      11.248   5.102   8.794  1.00  0.00     0.055 A 
ATOM     78  C   UNL     1      11.448   4.465   6.486  1.00  0.00     0.041 A 
ATOM     79  F   UNL     1      10.557   5.848   4.816  1.00  0.00    -0.206 F 
ATOM     80  C   UNL     1      11.713   4.208   7.827  1.00  0.00     0.022 A 
BRANCH  77  81
ATOM     81  S   UNL     1      11.691   4.867  10.538  1.00  0.00     0.124 S 
ATOM     82  O   UNL     1      12.392   6.111  10.835  1.00  0.00    -0.237 OA
ATOM     83  O   UNL     1      10.383   4.702  11.162  1.00  0.00    -0.237 OA
ATOM     84  O   UNL     1      12.526   3.668  10.518  1.00  0.00    -0.744 OA
ENDBRANCH  77  81
ENDBRANCH  50  74
BRANCH  62  85
ATOM     85  C   UNL     1      11.876  13.254   7.930  1.00  0.00     0.023 A 
ATOM     86  C   UNL     1      13.215  13.155   7.515  1.00  0.00     0.031 A 
ATOM     87  C   UNL     1      11.594  14.004   9.086  1.00  0.00     0.131 A 
ATOM     88  C   UNL     1      14.230  13.746   8.284  1.00  0.00     0.055 A 
ATOM     89  C   UNL     1      12.601  14.639   9.814  1.00  0.00     0.041 A 
ATOM     90  F   UNL     1      10.333  14.130   9.528  1.00  0.00    -0.206 F 
ATOM     91  C   UNL     1      13.929  14.501   9.422  1.00  0.00     0.022 A 
BRANCH  88  92
ATOM     92  S   UNL     1      15.959  13.438   7.830  1.00  0.00     0.124 S 
ATOM     93  O   UNL     1      16.032  11.982   7.883  1.00  0.00    -0.237 OA
ATOM     94  O   UNL     1      16.042  14.033   6.500  1.00  0.00    -0.237 OA
ATOM     95  O   UNL     1      16.715  14.136   8.868  1.00  0.00    -0.744 OA
ENDBRANCH  88  92
ENDBRANCH  62  85
ENDBRANCH  36  37
ENDBRANCH  28  31
ENDBRANCH  26  27
ENDBRANCH   1  26
TORSDOF 19
