REMARK SMILES Cc1cc(C(=O)NCCCCNC(=O)c2ccc(-c3c4nc(c(-c5cc(S(=O)(=O)[O-])ccc5F)c5ccc([nH]5)c(-c5cc(S(=O)(=O)[O-])ccc5F)c5nc(c(-c6cc(S(=O)(=O)[O-])ccc6F)c6ccc3[nH]6)C=C5)C=C4)cc2)ccc1NS(=O)(=O)c1ccc2c(c1)CCC2
REMARK SMILES IDX 9 1 8 2 7 3 5 4 6 5 4 7 1 8 2 9 3 10 80 11 79 12 78 13 81 14
REMARK SMILES IDX 82 16 83 17 84 18 85 19 86 20 90 21 87 22 89 23 88 24 91 25
REMARK SMILES IDX 93 26 92 27 10 28 11 29 12 30 13 31 14 33 15 34 16 35 77 36
REMARK SMILES IDX 17 37 76 38 18 39 19 40 20 41 70 42 21 43 75 44 69 45 71 46
REMARK SMILES IDX 22 47 74 48 68 49 67 50 23 52 55 53 35 54 54 55 36 56 39 57
REMARK SMILES IDX 53 58 72 59 37 60 38 61 52 63 73 64 40 65 24 66 25 67 33 68
REMARK SMILES IDX 26 69 32 70 34 71 31 72 27 73 28 74 29 75 30 76 56 77 57 78
REMARK SMILES IDX 65 79 58 80 64 81 66 82 63 83 59 84 60 85 61 86 62 87 41 88
REMARK SMILES IDX 42 89 50 90 43 91 49 92 51 93 48 94 44 95 45 96 46 97 47 98
REMARK H PARENT 7 6 81 15 12 32 71 51 39 62
REMARK Flexibility Score: inf
ROOT
ATOM      1  C   UNL     1      -4.530  -0.938  -1.623  1.00  0.00     0.023 C 
ENDROOT
BRANCH   1   2
ATOM      2  C   UNL     1      -3.943  -1.063  -0.209  1.00  0.00     0.116 C 
BRANCH   2   3
ATOM      3  N   UNL     1      -3.101  -2.240  -0.005  1.00  0.00    -0.352 N 
ATOM      4  C   UNL     1      -1.779  -2.377   0.358  1.00  0.00     0.251 C 
ATOM      5  O   UNL     1      -1.285  -3.502   0.410  1.00  0.00    -0.269 OA
ATOM      6  H   UNL     1      -3.566  -3.095  -0.154  1.00  0.00     0.163 HD
BRANCH   4   7
ATOM      7  C   UNL     1      -0.901  -1.199   0.574  1.00  0.00     0.040 A 
ATOM      8  C   UNL     1       2.550  -0.158  -0.609  1.00  0.00     0.046 C 
ATOM      9  C   UNL     1       1.150  -0.060  -0.068  1.00  0.00    -0.026 A 
ATOM     10  C   UNL     1       0.377  -1.228   0.006  1.00  0.00     0.019 A 
ATOM     11  C   UNL     1       0.580   1.149   0.359  1.00  0.00     0.052 A 
ATOM     12  C   UNL     1      -0.532   1.105   1.201  1.00  0.00     0.028 A 
ATOM     13  C   UNL     1      -1.283  -0.074   1.302  1.00  0.00     0.016 A 
BRANCH  11  14
ATOM     14  N   UNL     1       1.015   2.336  -0.303  1.00  0.00    -0.279 N 
ATOM     15  H   UNL     1       1.719   2.207  -0.980  1.00  0.00     0.180 HD
BRANCH  14  16
ATOM     16  S   UNL     1       0.502   3.905  -0.095  1.00  0.00     0.261 S 
ATOM     17  O   UNL     1       0.716   4.262   1.292  1.00  0.00    -0.201 OA
ATOM     18  O   UNL     1       1.151   4.646  -1.159  1.00  0.00    -0.201 OA
BRANCH  16  19
ATOM     19  C   UNL     1      -1.247   4.018  -0.406  1.00  0.00     0.088 A 
ATOM     20  C   UNL     1      -2.034   2.902  -0.738  1.00  0.00     0.022 A 
ATOM     21  C   UNL     1      -1.844   5.249  -0.093  1.00  0.00     0.026 A 
ATOM     22  C   UNL     1      -3.410   2.935  -0.507  1.00  0.00     0.005 A 
ATOM     23  C   UNL     1      -3.213   5.279   0.072  1.00  0.00    -0.043 A 
ATOM     24  C   UNL     1      -3.965   4.110  -0.038  1.00  0.00    -0.045 A 
ATOM     25  C   UNL     1      -4.102   6.431   0.419  1.00  0.00     0.036 C 
ATOM     26  C   UNL     1      -5.373   4.339   0.418  1.00  0.00     0.036 C 
ATOM     27  C   UNL     1      -5.242   5.695   1.128  1.00  0.00     0.010 C 
ENDBRANCH  16  19
ENDBRANCH  14  16
ENDBRANCH  11  14
ENDBRANCH   4   7
ENDBRANCH   2   3
ENDBRANCH   1   2
BRANCH   1  28
ATOM     28  C   UNL     1      -5.455  -2.067  -2.079  1.00  0.00     0.023 C 
BRANCH  28  29
ATOM     29  C   UNL     1      -6.746  -2.207  -1.273  1.00  0.00     0.116 C 
BRANCH  29  30
ATOM     30  N   UNL     1      -7.949  -1.763  -1.973  1.00  0.00    -0.352 N 
ATOM     31  C   UNL     1      -9.278  -1.912  -1.596  1.00  0.00     0.251 C 
ATOM     32  H   UNL     1      -7.798  -1.295  -2.826  1.00  0.00     0.163 HD
ATOM     33  O   UNL     1     -10.194  -1.576  -2.328  1.00  0.00    -0.269 OA
BRANCH  31  34
ATOM     34  C   UNL     1      -9.567  -2.423  -0.236  1.00  0.00     0.039 A 
ATOM     35  C   UNL     1     -10.280  -1.596   0.640  1.00  0.00     0.014 A 
ATOM     36  C   UNL     1      -8.936  -3.573   0.227  1.00  0.00     0.014 A 
ATOM     37  C   UNL     1     -10.152  -1.793   2.012  1.00  0.00     0.010 A 
ATOM     38  C   UNL     1      -8.717  -3.701   1.583  1.00  0.00     0.010 A 
ATOM     39  C   UNL     1      -9.267  -2.769   2.471  1.00  0.00    -0.014 A 
BRANCH  39  40
ATOM     40  C   UNL     1      -8.694  -2.758   3.815  1.00  0.00     0.031 A 
ATOM     41  C   UNL     1      -8.977  -3.838   4.782  1.00  0.00     0.074 A 
ATOM     42  C   UNL     1      -7.806  -1.791   4.131  1.00  0.00     0.049 A 
ATOM     43  N   UNL     1      -8.784  -3.755   6.055  1.00  0.00    -0.248 NA
ATOM     44  C   UNL     1      -9.572  -5.105   4.378  1.00  0.00     0.031 C 
ATOM     45  C   UNL     1      -6.870  -1.753   5.252  1.00  0.00     0.029 A 
ATOM     46  N   UNL     1      -7.731  -0.515   3.601  1.00  0.00    -0.354 N 
ATOM     47  C   UNL     1      -8.926  -5.018   6.586  1.00  0.00     0.074 A 
ATOM     48  C   UNL     1      -9.505  -5.796   5.518  1.00  0.00     0.031 C 
ATOM     49  C   UNL     1      -6.499  -0.478   5.466  1.00  0.00     0.029 A 
ATOM     50  C   UNL     1      -7.326   0.358   4.610  1.00  0.00     0.049 A 
ATOM     51  H   UNL     1      -7.929  -0.266   2.669  1.00  0.00     0.167 HD
ATOM     52  C   UNL     1      -8.395  -5.288   7.816  1.00  0.00     0.034 A 
ATOM     53  C   UNL     1      -8.166   1.337   5.067  1.00  0.00     0.034 A 
ATOM     54  C   UNL     1      -7.899  -4.067   8.460  1.00  0.00     0.049 A 
ATOM     55  C   UNL     1      -8.493   1.214   6.545  1.00  0.00     0.074 A 
ATOM     56  C   UNL     1      -6.629  -3.542   8.641  1.00  0.00     0.029 A 
ATOM     57  N   UNL     1      -8.792  -3.050   8.788  1.00  0.00    -0.354 N 
ATOM     58  N   UNL     1      -8.372   0.116   7.239  1.00  0.00    -0.248 NA
ATOM     59  C   UNL     1      -9.010   2.323   7.341  1.00  0.00     0.031 C 
ATOM     60  C   UNL     1      -6.766  -2.176   9.007  1.00  0.00     0.029 A 
ATOM     61  C   UNL     1      -8.117  -1.881   9.086  1.00  0.00     0.049 A 
ATOM     62  H   UNL     1      -9.771  -3.150   8.805  1.00  0.00     0.167 HD
ATOM     63  C   UNL     1      -8.805   0.332   8.523  1.00  0.00     0.074 A 
ATOM     64  C   UNL     1      -9.168   1.739   8.542  1.00  0.00     0.031 C 
ATOM     65  C   UNL     1      -8.846  -0.672   9.452  1.00  0.00     0.034 A 
BRANCH  52  66
ATOM     66  C   UNL     1      -8.023  -6.684   8.293  1.00  0.00     0.023 A 
ATOM     67  C   UNL     1      -6.973  -6.835   9.226  1.00  0.00     0.031 A 
ATOM     68  C   UNL     1      -8.577  -7.894   7.832  1.00  0.00     0.131 A 
ATOM     69  C   UNL     1      -6.446  -8.100   9.555  1.00  0.00     0.055 A 
ATOM     70  C   UNL     1      -8.021  -9.151   8.112  1.00  0.00     0.041 A 
ATOM     71  F   UNL     1      -9.721  -7.933   7.140  1.00  0.00    -0.206 F 
ATOM     72  C   UNL     1      -6.937  -9.259   8.964  1.00  0.00     0.022 A 
BRANCH  69  73
ATOM     73  S   UNL     1      -5.101  -8.215  10.766  1.00  0.00     0.124 S 
ATOM     74  O   UNL     1      -4.055  -7.408  10.146  1.00  0.00    -0.237 OA
ATOM     75  O   UNL     1      -5.719  -7.663  11.966  1.00  0.00    -0.237 OA
ATOM     76  O   UNL     1      -4.818  -9.649  10.824  1.00  0.00    -0.744 OA
ENDBRANCH  69  73
ENDBRANCH  52  66
BRANCH  53  77
ATOM     77  C   UNL     1      -9.128   1.847   4.042  1.00  0.00     0.023 A 
ATOM     78  C   UNL     1      -8.610   2.319   2.817  1.00  0.00     0.031 A 
ATOM     79  C   UNL     1     -10.502   1.575   4.104  1.00  0.00     0.131 A 
ATOM     80  C   UNL     1      -9.421   2.361   1.674  1.00  0.00     0.055 A 
ATOM     81  C   UNL     1     -11.323   1.683   2.973  1.00  0.00     0.041 A 
ATOM     82  F   UNL     1     -11.056   1.095   5.226  1.00  0.00    -0.206 F 
ATOM     83  C   UNL     1     -10.776   2.043   1.743  1.00  0.00     0.022 A 
BRANCH  80  84
ATOM     84  S   UNL     1      -8.634   2.609   0.059  1.00  0.00     0.124 S 
ATOM     85  O   UNL     1      -8.484   4.059   0.027  1.00  0.00    -0.237 OA
ATOM     86  O   UNL     1      -7.396   1.837   0.185  1.00  0.00    -0.237 OA
ATOM     87  O   UNL     1      -9.598   2.055  -0.884  1.00  0.00    -0.744 OA
ENDBRANCH  80  84
ENDBRANCH  53  77
BRANCH  65  88
ATOM     88  C   UNL     1      -9.507  -0.597  10.815  1.00  0.00     0.023 A 
ATOM     89  C   UNL     1     -10.445   0.383  11.172  1.00  0.00     0.031 A 
ATOM     90  C   UNL     1      -9.267  -1.594  11.795  1.00  0.00     0.131 A 
ATOM     91  C   UNL     1     -11.033   0.403  12.452  1.00  0.00     0.055 A 
ATOM     92  C   UNL     1      -9.912  -1.620  13.035  1.00  0.00     0.041 A 
ATOM     93  F   UNL     1      -8.401  -2.596  11.586  1.00  0.00    -0.206 F 
ATOM     94  C   UNL     1     -10.792  -0.607  13.379  1.00  0.00     0.022 A 
BRANCH  91  95
ATOM     95  S   UNL     1     -12.074   1.817  12.900  1.00  0.00     0.124 S 
ATOM     96  O   UNL     1     -11.128   2.926  12.813  1.00  0.00    -0.237 OA
ATOM     97  O   UNL     1     -13.107   1.784  11.870  1.00  0.00    -0.237 OA
ATOM     98  O   UNL     1     -12.531   1.497  14.250  1.00  0.00    -0.744 OA
ENDBRANCH  91  95
ENDBRANCH  65  88
ENDBRANCH  39  40
ENDBRANCH  31  34
ENDBRANCH  29  30
ENDBRANCH  28  29
ENDBRANCH   1  28
TORSDOF 17
