REMARK SMILES COc1ccc(-c2c(C(=O)NCCCCNC(=O)c3ccc(-c4c5nc(c(-c6cc(S(=O)(=O)[O-])ccc6F)c6ccc([nH]6)c(-c6cc(S(=O)(=O)[O-])ccc6F)c6nc(c(-c7cc(S(=O)(=O)[O-])ccc7F)c7ccc4[nH]7)C=C6)C=C5)cc3)sc3c2N=C(O)C[C@H]3c2ccc(OC)c(OC)c2)cc1
REMARK SMILES IDX 14 1 13 2 12 3 11 4 9 5 10 6 8 8 7 9 84 10 82 11 83 12 85 13
REMARK SMILES IDX 89 14 86 15 88 16 6 17 3 18 4 19 101 20 5 21 100 22 2 23
REMARK SMILES IDX 1 24 90 25 91 26 99 27 92 28 96 29 93 30 97 31 98 32 94 33
REMARK SMILES IDX 95 34 87 35 15 37 16 38 17 39 18 41 19 42 20 43 81 44 21 45
REMARK SMILES IDX 80 46 22 47 23 48 24 49 74 50 25 51 79 52 73 53 75 54 26 55
REMARK SMILES IDX 78 56 72 57 71 58 27 60 59 61 39 62 58 63 40 64 43 65 57 66
REMARK SMILES IDX 76 67 41 68 42 69 56 71 77 72 44 73 28 74 29 75 37 76 30 77
REMARK SMILES IDX 36 78 38 79 35 80 31 81 32 82 33 83 34 84 60 85 61 86 69 87
REMARK SMILES IDX 62 88 68 89 70 90 67 91 63 92 64 93 65 94 66 95 45 96 46 97
REMARK SMILES IDX 54 98 47 99 53 100 55 101 52 102 48 103 49 104 50 105 51 106
REMARK H PARENT 11 7 87 36 16 40 75 59 43 70
REMARK Flexibility Score: inf
ROOT
ATOM      1  C   UNL     1      -0.213  -2.109   3.920  1.00  0.00     0.023 C 
ENDROOT
BRANCH   1   2
ATOM      2  C   UNL     1       1.041  -1.306   4.269  1.00  0.00     0.023 C 
BRANCH   2   3
ATOM      3  C   UNL     1       0.890   0.180   4.584  1.00  0.00     0.116 C 
BRANCH   3   4
ATOM      4  N   UNL     1       0.306   0.546   5.846  1.00  0.00    -0.351 N 
ATOM      5  C   UNL     1       0.550   1.652   6.645  1.00  0.00     0.262 C 
ATOM      6  O   UNL     1      -0.149   1.685   7.666  1.00  0.00    -0.268 OA
ATOM      7  H   UNL     1      -0.368  -0.082   6.195  1.00  0.00     0.163 HD
BRANCH   5   8
ATOM      8  C   UNL     1       1.596   2.660   6.384  1.00  0.00     0.102 A 
ATOM      9  C   UNL     1       2.179   3.267   5.265  1.00  0.00     0.031 A 
ATOM     10  C   UNL     1       3.226   4.173   5.636  1.00  0.00     0.090 A 
ATOM     11  S   UNL     1       2.320   3.323   7.840  1.00  0.00    -0.131 S 
ATOM     12  C   UNL     1       3.406   4.299   6.980  1.00  0.00     0.040 A 
ATOM     13  N   UNL     1       4.006   4.846   4.686  1.00  0.00    -0.216 NA
ATOM     14  C   UNL     1       4.447   5.155   7.617  1.00  0.00     0.071 C 
ATOM     15  C   UNL     1       5.017   5.494   5.151  1.00  0.00     0.186 C 
ATOM     16  C   UNL     1       5.491   5.597   6.577  1.00  0.00     0.111 C 
BRANCH   9  17
ATOM     17  C   UNL     1       1.888   2.961   3.873  1.00  0.00    -0.014 A 
ATOM     18  C   UNL     1       1.400   2.140   1.241  1.00  0.00     0.118 A 
ATOM     19  C   UNL     1       0.449   2.892   1.944  1.00  0.00     0.047 A 
ATOM     20  C   UNL     1       2.635   1.879   1.826  1.00  0.00     0.047 A 
ATOM     21  C   UNL     1       0.678   3.292   3.266  1.00  0.00     0.012 A 
ATOM     22  C   UNL     1       2.885   2.311   3.124  1.00  0.00     0.012 A 
BRANCH  18  23
ATOM     23  O   UNL     1       1.019   1.714   0.000  1.00  0.00    -0.497 OA
ATOM     24  C   UNL     1       1.822   0.697  -0.592  1.00  0.00     0.278 C 
ENDBRANCH  18  23
ENDBRANCH   9  17
BRANCH  14  25
ATOM     25  C   UNL     1       3.886   6.354   8.368  1.00  0.00    -0.035 A 
ATOM     26  C   UNL     1       3.064   7.299   7.749  1.00  0.00     0.008 A 
ATOM     27  C   UNL     1       4.232   6.542   9.719  1.00  0.00     0.054 A 
ATOM     28  C   UNL     1       2.608   8.402   8.470  1.00  0.00     0.051 A 
ATOM     29  C   UNL     1       3.783   7.651  10.454  1.00  0.00     0.161 A 
ATOM     30  C   UNL     1       2.955   8.590   9.817  1.00  0.00     0.160 A 
BRANCH  29  31
ATOM     31  O   UNL     1       4.147   7.875  11.756  1.00  0.00    -0.493 OA
ATOM     32  C   UNL     1       4.918   6.882  12.419  1.00  0.00     0.278 C 
ENDBRANCH  29  31
BRANCH  30  33
ATOM     33  O   UNL     1       2.429   9.746  10.333  1.00  0.00    -0.493 OA
ATOM     34  C   UNL     1       2.384   9.896  11.743  1.00  0.00     0.278 C 
ENDBRANCH  30  33
ENDBRANCH  14  25
BRANCH  15  35
ATOM     35  O   UNL     1       5.827   6.112   4.265  1.00  0.00    -0.496 OA
ATOM     36  H   UNL     1       5.616   6.104   3.352  1.00  0.00     0.294 HD
ENDBRANCH  15  35
ENDBRANCH   5   8
ENDBRANCH   3   4
ENDBRANCH   2   3
ENDBRANCH   1   2
BRANCH   1  37
ATOM     37  C   UNL     1      -1.089  -1.539   2.810  1.00  0.00     0.116 C 
BRANCH  37  38
ATOM     38  N   UNL     1      -0.443  -1.467   1.501  1.00  0.00    -0.352 N 
ATOM     39  C   UNL     1      -1.040  -1.114   0.293  1.00  0.00     0.251 C 
ATOM     40  H   UNL     1       0.515  -1.692   1.470  1.00  0.00     0.163 HD
ATOM     41  O   UNL     1      -0.534  -1.430  -0.767  1.00  0.00    -0.269 OA
BRANCH  39  42
ATOM     42  C   UNL     1      -2.320  -0.371   0.346  1.00  0.00     0.039 A 
ATOM     43  C   UNL     1      -3.418  -0.745  -0.431  1.00  0.00     0.014 A 
ATOM     44  C   UNL     1      -2.433   0.649   1.284  1.00  0.00     0.014 A 
ATOM     45  C   UNL     1      -4.665  -0.180  -0.150  1.00  0.00     0.010 A 
ATOM     46  C   UNL     1      -3.677   1.113   1.642  1.00  0.00     0.010 A 
ATOM     47  C   UNL     1      -4.802   0.714   0.924  1.00  0.00    -0.014 A 
BRANCH  47  48
ATOM     48  C   UNL     1      -6.130   1.090   1.426  1.00  0.00     0.031 A 
ATOM     49  C   UNL     1      -7.038  -0.049   1.747  1.00  0.00     0.074 A 
ATOM     50  C   UNL     1      -6.443   2.328   1.867  1.00  0.00     0.049 A 
ATOM     51  N   UNL     1      -8.158  -0.366   1.185  1.00  0.00    -0.248 NA
ATOM     52  C   UNL     1      -6.589  -1.026   2.752  1.00  0.00     0.031 C 
ATOM     53  C   UNL     1      -5.564   3.501   1.949  1.00  0.00     0.029 A 
ATOM     54  N   UNL     1      -7.589   2.767   2.463  1.00  0.00    -0.354 N 
ATOM     55  C   UNL     1      -8.668  -1.445   1.908  1.00  0.00     0.074 A 
ATOM     56  C   UNL     1      -7.579  -1.921   2.718  1.00  0.00     0.031 C 
ATOM     57  C   UNL     1      -6.114   4.424   2.766  1.00  0.00     0.029 A 
ATOM     58  C   UNL     1      -7.461   4.000   3.094  1.00  0.00     0.049 A 
ATOM     59  H   UNL     1      -8.431   2.257   2.449  1.00  0.00     0.167 HD
ATOM     60  C   UNL     1     -10.007  -1.706   1.946  1.00  0.00     0.034 A 
ATOM     61  C   UNL     1      -8.392   4.655   3.828  1.00  0.00     0.034 A 
ATOM     62  C   UNL     1     -10.702  -0.950   0.929  1.00  0.00     0.049 A 
ATOM     63  C   UNL     1      -9.714   4.148   3.404  1.00  0.00     0.074 A 
ATOM     64  C   UNL     1     -10.715  -0.922  -0.449  1.00  0.00     0.029 A 
ATOM     65  N   UNL     1     -11.284   0.225   1.345  1.00  0.00    -0.354 N 
ATOM     66  N   UNL     1     -10.175   4.289   2.192  1.00  0.00    -0.248 NA
ATOM     67  C   UNL     1     -10.392   3.141   4.205  1.00  0.00     0.031 C 
ATOM     68  C   UNL     1     -10.929   0.447  -0.796  1.00  0.00     0.029 A 
ATOM     69  C   UNL     1     -11.086   1.182   0.381  1.00  0.00     0.049 A 
ATOM     70  H   UNL     1     -11.763   0.358   2.194  1.00  0.00     0.167 HD
ATOM     71  C   UNL     1     -10.867   3.119   1.938  1.00  0.00     0.074 A 
ATOM     72  C   UNL     1     -11.117   2.544   3.254  1.00  0.00     0.031 C 
ATOM     73  C   UNL     1     -10.910   2.593   0.678  1.00  0.00     0.034 A 
BRANCH  60  74
ATOM     74  C   UNL     1     -10.767  -2.325   3.111  1.00  0.00     0.023 A 
ATOM     75  C   UNL     1     -12.165  -2.474   2.970  1.00  0.00     0.031 A 
ATOM     76  C   UNL     1     -10.270  -2.507   4.420  1.00  0.00     0.131 A 
ATOM     77  C   UNL     1     -12.996  -2.689   4.086  1.00  0.00     0.055 A 
ATOM     78  C   UNL     1     -11.094  -2.784   5.518  1.00  0.00     0.041 A 
ATOM     79  F   UNL     1      -8.983  -2.340   4.738  1.00  0.00    -0.206 F 
ATOM     80  C   UNL     1     -12.467  -2.845   5.362  1.00  0.00     0.022 A 
BRANCH  77  81
ATOM     81  S   UNL     1     -14.794  -2.582   3.870  1.00  0.00     0.124 S 
ATOM     82  O   UNL     1     -14.938  -1.299   3.192  1.00  0.00    -0.237 OA
ATOM     83  O   UNL     1     -15.071  -3.771   3.071  1.00  0.00    -0.237 OA
ATOM     84  O   UNL     1     -15.302  -2.621   5.240  1.00  0.00    -0.744 OA
ENDBRANCH  77  81
ENDBRANCH  60  74
BRANCH  61  85
ATOM     85  C   UNL     1      -8.163   5.505   5.019  1.00  0.00     0.023 A 
ATOM     86  C   UNL     1      -9.057   6.515   5.419  1.00  0.00     0.031 A 
ATOM     87  C   UNL     1      -7.140   5.155   5.929  1.00  0.00     0.131 A 
ATOM     88  C   UNL     1      -8.916   7.123   6.687  1.00  0.00     0.055 A 
ATOM     89  C   UNL     1      -7.002   5.761   7.178  1.00  0.00     0.041 A 
ATOM     90  F   UNL     1      -6.292   4.148   5.660  1.00  0.00    -0.206 F 
ATOM     91  C   UNL     1      -7.899   6.743   7.568  1.00  0.00     0.022 A 
BRANCH  88  92
ATOM     92  S   UNL     1     -10.133   8.356   7.246  1.00  0.00     0.124 S 
ATOM     93  O   UNL     1      -9.856   9.486   6.367  1.00  0.00    -0.237 OA
ATOM     94  O   UNL     1     -11.399   7.664   7.034  1.00  0.00    -0.237 OA
ATOM     95  O   UNL     1      -9.782   8.569   8.651  1.00  0.00    -0.744 OA
ENDBRANCH  88  92
ENDBRANCH  61  85
BRANCH  73  96
ATOM     96  C   UNL     1     -10.555   3.510  -0.475  1.00  0.00     0.023 A 
ATOM     97  C   UNL     1      -9.295   4.124  -0.664  1.00  0.00     0.031 A 
ATOM     98  C   UNL     1     -11.529   3.702  -1.468  1.00  0.00     0.131 A 
ATOM     99  C   UNL     1      -9.057   4.906  -1.812  1.00  0.00     0.055 A 
ATOM    100  C   UNL     1     -11.284   4.461  -2.612  1.00  0.00     0.041 A 
ATOM    101  F   UNL     1     -12.737   3.123  -1.357  1.00  0.00    -0.206 F 
ATOM    102  C   UNL     1     -10.048   5.072  -2.785  1.00  0.00     0.022 A 
BRANCH  99 103
ATOM    103  S   UNL     1      -7.452   5.737  -2.052  1.00  0.00     0.124 S 
ATOM    104  O   UNL     1      -7.231   6.428  -0.788  1.00  0.00    -0.237 OA
ATOM    105  O   UNL     1      -6.556   4.619  -2.336  1.00  0.00    -0.237 OA
ATOM    106  O   UNL     1      -7.695   6.621  -3.194  1.00  0.00    -0.744 OA
ENDBRANCH  99 103
ENDBRANCH  73  96
ENDBRANCH  47  48
ENDBRANCH  39  42
ENDBRANCH  37  38
ENDBRANCH   1  37
TORSDOF 20
