REMARK SMILES O=C(Cn1nc(-c2ccc(Br)cc2)ccc1=O)N[C@H](C(=O)NCCCCNC(=O)c1ccc(-c2c3nc(c(-c4cc(S(=O)(=O)[O-])ccc4F)c4ccc([nH]4)c(-c4cc(S(=O)(=O)[O-])ccc4F)c4nc(c(-c5cc(S(=O)(=O)[O-])ccc5F)c5ccc2[nH]5)C=C4)C=C3)cc1)c1ccccc1
REMARK SMILES IDX 24 1 23 2 22 3 20 4 21 5 19 7 18 8 1 9 2 10 3 12 4 13 5 14
REMARK SMILES IDX 16 15 6 16 15 17 17 18 14 19 7 20 8 21 13 22 9 23 12 24
REMARK SMILES IDX 10 25 11 26 93 27 94 28 98 29 95 30 97 31 96 32 25 33 26 34
REMARK SMILES IDX 27 35 28 36 29 38 30 39 31 40 92 41 32 42 91 43 33 44 34 45
REMARK SMILES IDX 35 46 85 47 36 48 90 49 84 50 86 51 37 52 89 53 83 54 82 55
REMARK SMILES IDX 38 57 70 58 50 59 69 60 51 61 54 62 68 63 87 64 52 65 53 66
REMARK SMILES IDX 67 68 88 69 55 70 39 71 40 72 48 73 41 74 47 75 49 76 46 77
REMARK SMILES IDX 42 78 43 79 44 80 45 81 71 82 72 83 80 84 73 85 79 86 81 87
REMARK SMILES IDX 78 88 74 89 75 90 76 91 77 92 56 93 57 94 65 95 58 96 64 97
REMARK SMILES IDX 66 98 63 99 59 100 60 101 61 102 62 103
REMARK H PARENT 22 6 18 11 27 37 86 56 54 67
REMARK Flexibility Score: inf
ROOT
ATOM      1  C   UNL     1       5.048   2.215   1.130  1.00  0.00     0.023 C 
ENDROOT
BRANCH   1   2
ATOM      2  C   UNL     1       4.467   1.995  -0.233  1.00  0.00     0.116 C 
BRANCH   2   3
ATOM      3  N   UNL     1       3.429   0.997  -0.166  1.00  0.00    -0.354 N 
ATOM      4  C   UNL     1       2.122   1.135   0.219  1.00  0.00     0.247 C 
ATOM      5  O   UNL     1       1.379   0.163   0.031  1.00  0.00    -0.272 OA
ATOM      6  H   UNL     1       3.697   0.089  -0.433  1.00  0.00     0.163 HD
BRANCH   4   7
ATOM      7  C   UNL     1       1.543   2.521   0.690  1.00  0.00     0.202 C 
BRANCH   7   8
ATOM      8  N   UNL     1       2.175   3.054   1.929  1.00  0.00    -0.339 N 
ATOM      9  O   UNL     1       2.183   1.116   3.136  1.00  0.00    -0.273 OA
ATOM     10  C   UNL     1       2.379   2.328   3.088  1.00  0.00     0.242 C 
ATOM     11  H   UNL     1       2.468   3.994   1.922  1.00  0.00     0.164 HD
BRANCH  10  12
ATOM     12  C   UNL     1       2.833   3.136   4.343  1.00  0.00     0.248 C 
BRANCH  12  13
ATOM     13  N   UNL     1       4.209   3.646   4.529  1.00  0.00    -0.220 N 
ATOM     14  N   UNL     1       4.793   4.377   3.513  1.00  0.00    -0.169 NA
ATOM     15  C   UNL     1       4.822   3.502   5.775  1.00  0.00     0.267 A 
ATOM     16  C   UNL     1       6.029   4.770   3.664  1.00  0.00     0.091 A 
ATOM     17  C   UNL     1       6.217   4.000   5.889  1.00  0.00     0.075 A 
ATOM     18  O   UNL     1       4.290   3.013   6.768  1.00  0.00    -0.268 OA
ATOM     19  C   UNL     1       6.840   4.589   4.867  1.00  0.00     0.036 A 
BRANCH  16  20
ATOM     20  C   UNL     1       6.704   5.389   2.490  1.00  0.00     0.002 A 
ATOM     21  C   UNL     1       5.598   6.466   1.558  1.00  0.00     0.011 A 
ATOM     22  C   UNL     1       8.017   4.451   1.634  1.00  0.00     0.011 A 
ATOM     23  C   UNL     1       5.765   6.601  -0.234  1.00  0.00     0.016 A 
ATOM     24  C   UNL     1       8.105   4.538  -0.203  1.00  0.00     0.016 A 
ATOM     25  C   UNL     1       7.048   5.699  -1.105  1.00  0.00     0.018 A 
ATOM     26  Br  UNL     1       7.113   5.796  -2.988  1.00  0.00    -0.051 Br
ENDBRANCH  16  20
ENDBRANCH  12  13
ENDBRANCH  10  12
ENDBRANCH   7   8
BRANCH   7  27
ATOM     27  C   UNL     1       1.607   3.555  -0.466  1.00  0.00    -0.016 A 
ATOM     28  C   UNL     1       1.608   4.938  -0.217  1.00  0.00     0.006 A 
ATOM     29  C   UNL     1       1.768   3.144  -1.809  1.00  0.00     0.006 A 
ATOM     30  C   UNL     1       1.945   5.849  -1.224  1.00  0.00     0.000 A 
ATOM     31  C   UNL     1       2.122   4.053  -2.810  1.00  0.00     0.000 A 
ATOM     32  C   UNL     1       2.242   5.403  -2.509  1.00  0.00     0.000 A 
ENDBRANCH   7  27
ENDBRANCH   4   7
ENDBRANCH   2   3
ENDBRANCH   1   2
BRANCH   1  33
ATOM     33  C   UNL     1       6.371   2.926   1.101  1.00  0.00     0.023 C 
BRANCH  33  34
ATOM     34  C   UNL     1       6.206   4.605   0.570  1.00  0.00     0.116 C 
BRANCH  34  35
ATOM     35  N   UNL     1       7.539   6.196   0.811  1.00  0.00    -0.352 N 
ATOM     36  C   UNL     1       8.886   6.777   0.924  1.00  0.00     0.251 C 
ATOM     37  H   UNL     1       6.947   6.978   0.894  1.00  0.00     0.163 HD
ATOM     38  O   UNL     1       8.905   7.990   1.171  1.00  0.00    -0.269 OA
BRANCH  36  39
ATOM     39  C   UNL     1      10.226   6.096   0.854  1.00  0.00     0.039 A 
ATOM     40  C   UNL     1      10.585   5.359  -0.258  1.00  0.00     0.014 A 
ATOM     41  C   UNL     1      11.152   6.161   1.902  1.00  0.00     0.014 A 
ATOM     42  C   UNL     1      11.504   4.332  -0.118  1.00  0.00     0.010 A 
ATOM     43  C   UNL     1      12.302   5.337   1.888  1.00  0.00     0.010 A 
ATOM     44  C   UNL     1      12.449   4.339   0.912  1.00  0.00    -0.014 A 
BRANCH  44  45
ATOM     45  C   UNL     1      13.555   3.321   0.855  1.00  0.00     0.031 A 
ATOM     46  C   UNL     1      13.883   2.433   2.033  1.00  0.00     0.074 A 
ATOM     47  C   UNL     1      14.187   3.107  -0.326  1.00  0.00     0.049 A 
ATOM     48  N   UNL     1      14.794   1.496   2.126  1.00  0.00    -0.248 NA
ATOM     49  C   UNL     1      13.097   2.613   3.264  1.00  0.00     0.031 C 
ATOM     50  C   UNL     1      13.932   3.863  -1.558  1.00  0.00     0.029 A 
ATOM     51  N   UNL     1      15.107   2.165  -0.726  1.00  0.00    -0.354 N 
ATOM     52  C   UNL     1      14.719   1.006   3.428  1.00  0.00     0.074 A 
ATOM     53  C   UNL     1      13.682   1.760   4.095  1.00  0.00     0.031 C 
ATOM     54  C   UNL     1      14.541   3.268  -2.587  1.00  0.00     0.029 A 
ATOM     55  C   UNL     1      15.397   2.211  -2.075  1.00  0.00     0.049 A 
ATOM     56  H   UNL     1      15.521   1.520  -0.108  1.00  0.00     0.167 HD
ATOM     57  C   UNL     1      15.450   0.021   4.006  1.00  0.00     0.034 A 
ATOM     58  C   UNL     1      16.282   1.525  -2.829  1.00  0.00     0.034 A 
ATOM     59  C   UNL     1      16.467  -0.731   3.311  1.00  0.00     0.049 A 
ATOM     60  C   UNL     1      17.123   0.484  -2.146  1.00  0.00     0.074 A 
ATOM     61  C   UNL     1      17.294  -1.721   3.814  1.00  0.00     0.029 A 
ATOM     62  N   UNL     1      16.789  -0.592   1.966  1.00  0.00    -0.354 N 
ATOM     63  N   UNL     1      17.069   0.077  -0.900  1.00  0.00    -0.248 NA
ATOM     64  C   UNL     1      18.149  -0.184  -2.954  1.00  0.00     0.031 C 
ATOM     65  C   UNL     1      18.169  -2.116   2.803  1.00  0.00     0.029 A 
ATOM     66  C   UNL     1      17.818  -1.459   1.633  1.00  0.00     0.049 A 
ATOM     67  H   UNL     1      16.352   0.031   1.342  1.00  0.00     0.167 HD
ATOM     68  C   UNL     1      18.035  -0.915  -0.780  1.00  0.00     0.074 A 
ATOM     69  C   UNL     1      18.637  -1.065  -2.090  1.00  0.00     0.031 C 
ATOM     70  C   UNL     1      18.392  -1.626   0.317  1.00  0.00     0.034 A 
BRANCH  57  71
ATOM     71  C   UNL     1      15.225  -0.293   5.470  1.00  0.00     0.023 A 
ATOM     72  C   UNL     1      16.283  -0.123   6.386  1.00  0.00     0.031 A 
ATOM     73  C   UNL     1      14.030  -0.861   5.944  1.00  0.00     0.131 A 
ATOM     74  C   UNL     1      16.141  -0.552   7.712  1.00  0.00     0.055 A 
ATOM     75  C   UNL     1      13.873  -1.237   7.281  1.00  0.00     0.041 A 
ATOM     76  F   UNL     1      12.988  -1.046   5.117  1.00  0.00    -0.206 F 
ATOM     77  C   UNL     1      14.937  -1.096   8.168  1.00  0.00     0.022 A 
BRANCH  74  78
ATOM     78  S   UNL     1      17.533  -0.482   8.872  1.00  0.00     0.124 S 
ATOM     79  O   UNL     1      16.983   0.334   9.953  1.00  0.00    -0.237 OA
ATOM     80  O   UNL     1      17.732  -1.892   9.194  1.00  0.00    -0.237 OA
ATOM     81  O   UNL     1      18.600   0.148   8.102  1.00  0.00    -0.744 OA
ENDBRANCH  74  78
ENDBRANCH  57  71
BRANCH  58  82
ATOM     82  C   UNL     1      16.409   1.827  -4.292  1.00  0.00     0.023 A 
ATOM     83  C   UNL     1      16.682   3.136  -4.739  1.00  0.00     0.031 A 
ATOM     84  C   UNL     1      16.163   0.847  -5.268  1.00  0.00     0.131 A 
ATOM     85  C   UNL     1      16.606   3.448  -6.102  1.00  0.00     0.055 A 
ATOM     86  C   UNL     1      16.184   1.142  -6.635  1.00  0.00     0.041 A 
ATOM     87  F   UNL     1      15.889  -0.415  -4.906  1.00  0.00    -0.206 F 
ATOM     88  C   UNL     1      16.382   2.454  -7.056  1.00  0.00     0.022 A 
BRANCH  85  89
ATOM     89  S   UNL     1      16.640   5.174  -6.662  1.00  0.00     0.124 S 
ATOM     90  O   UNL     1      17.799   5.184  -7.550  1.00  0.00    -0.237 OA
ATOM     91  O   UNL     1      15.341   5.300  -7.318  1.00  0.00    -0.237 OA
ATOM     92  O   UNL     1      16.784   5.935  -5.426  1.00  0.00    -0.744 OA
ENDBRANCH  85  89
ENDBRANCH  58  82
BRANCH  70  93
ATOM     93  C   UNL     1      19.457  -2.686   0.172  1.00  0.00     0.023 A 
ATOM     94  C   UNL     1      19.143  -4.023   0.482  1.00  0.00     0.031 A 
ATOM     95  C   UNL     1      20.796  -2.366  -0.111  1.00  0.00     0.131 A 
ATOM     96  C   UNL     1      20.160  -4.979   0.560  1.00  0.00     0.055 A 
ATOM     97  C   UNL     1      21.797  -3.338  -0.101  1.00  0.00     0.041 A 
ATOM     98  F   UNL     1      21.151  -1.104  -0.398  1.00  0.00    -0.206 F 
ATOM     99  C   UNL     1      21.484  -4.647   0.256  1.00  0.00     0.022 A 
BRANCH  96 100
ATOM    100  S   UNL     1      19.822  -6.649   1.180  1.00  0.00     0.124 S 
ATOM    101  O   UNL     1      20.174  -7.475   0.028  1.00  0.00    -0.237 OA
ATOM    102  O   UNL     1      20.733  -6.743   2.318  1.00  0.00    -0.237 OA
ATOM    103  O   UNL     1      18.402  -6.620   1.514  1.00  0.00    -0.744 OA
ENDBRANCH  96 100
ENDBRANCH  70  93
ENDBRANCH  44  45
ENDBRANCH  36  39
ENDBRANCH  34  35
ENDBRANCH  33  34
ENDBRANCH   1  33
TORSDOF 19
