REMARK SMILES COc1ccc(F)cc1[C@@H](C(=O)NCCCCNC(=O)c1ccc(-c2c3nc(c(-c4cc(S(=O)(=O)[O-])ccc4F)c4ccc([nH]4)c(-c4cc(S(=O)(=O)[O-])ccc4F)c4nc(c(-c5cc(S(=O)(=O)[O-])ccc5F)c5ccc2[nH]5)C=C4)C=C3)cc1)[N@@H+](C)CCn1ccnc1C
REMARK SMILES IDX 15 1 14 2 13 3 11 4 12 5 10 7 9 8 3 9 4 10 5 11 8 12 6 13
REMARK SMILES IDX 7 14 2 15 1 16 84 17 85 18 86 20 87 21 88 22 89 23 92 24
REMARK SMILES IDX 90 25 91 26 93 27 16 28 17 29 18 30 19 31 20 33 21 34 22 35
REMARK SMILES IDX 83 36 23 37 82 38 24 39 25 40 26 41 76 42 27 43 81 44 75 45
REMARK SMILES IDX 77 46 28 47 80 48 74 49 73 50 29 52 61 53 41 54 60 55 42 56
REMARK SMILES IDX 45 57 59 58 78 59 43 60 44 61 58 63 79 64 46 65 30 66 31 67
REMARK SMILES IDX 39 68 32 69 38 70 40 71 37 72 33 73 34 74 35 75 36 76 62 77
REMARK SMILES IDX 63 78 71 79 64 80 70 81 72 82 69 83 65 84 66 85 67 86 68 87
REMARK SMILES IDX 47 88 48 89 56 90 49 91 55 92 57 93 54 94 50 95 51 96 52 97
REMARK SMILES IDX 53 98
REMARK H PARENT 13 6 84 19 18 32 77 51 45 62
REMARK Flexibility Score: inf
ROOT
ATOM      1  C   UNL     1      -1.041   2.675   0.791  1.00  0.00     0.023 C 
ENDROOT
BRANCH   1   2
ATOM      2  C   UNL     1      -2.154   1.838   0.144  1.00  0.00     0.116 C 
BRANCH   2   3
ATOM      3  N   UNL     1      -2.038   1.917  -1.308  1.00  0.00    -0.351 N 
ATOM      4  C   UNL     1      -2.236   0.856  -2.161  1.00  0.00     0.283 C 
ATOM      5  O   UNL     1      -3.016  -0.046  -1.832  1.00  0.00    -0.268 OA
ATOM      6  H   UNL     1      -1.804   2.787  -1.705  1.00  0.00     0.163 HD
BRANCH   4   7
ATOM      7  C   UNL     1      -1.515   0.822  -3.568  1.00  0.00     0.309 C 
BRANCH   7   8
ATOM      8  C   UNL     1       0.015   0.981  -3.663  1.00  0.00     0.064 A 
ATOM      9  C   UNL     1       0.877   0.290  -2.784  1.00  0.00     0.128 A 
ATOM     10  C   UNL     1       2.272   0.464  -2.862  1.00  0.00     0.050 A 
ATOM     11  C   UNL     1       2.835   1.333  -3.796  1.00  0.00     0.043 A 
ATOM     12  C   UNL     1       0.632   1.757  -4.668  1.00  0.00     0.053 A 
ATOM     13  C   UNL     1       2.009   1.962  -4.702  1.00  0.00     0.124 A 
ATOM     14  F   UNL     1       2.523   2.819  -5.593  1.00  0.00    -0.207 F 
BRANCH   9  15
ATOM     15  O   UNL     1       0.280  -0.587  -1.918  1.00  0.00    -0.496 OA
ATOM     16  C   UNL     1       0.996  -0.871  -0.722  1.00  0.00     0.278 C 
ENDBRANCH   9  15
ENDBRANCH   7   8
BRANCH   7  17
ATOM     17  N   UNL     1      -2.290   1.478  -4.644  1.00  0.00    -0.322 N 
ATOM     18  C   UNL     1      -3.497   0.731  -4.999  1.00  0.00     0.333 C 
ATOM     19  H   UNL     1      -1.563   1.405  -5.355  1.00  0.00     0.348 HD
BRANCH  17  20
ATOM     20  C   UNL     1      -2.358   2.930  -4.856  1.00  0.00     0.285 C 
BRANCH  20  21
ATOM     21  C   UNL     1      -2.710   3.936  -3.743  1.00  0.00     0.184 C 
BRANCH  21  22
ATOM     22  N   UNL     1      -1.802   4.915  -3.140  1.00  0.00    -0.330 N 
ATOM     23  C   UNL     1      -2.281   6.208  -2.953  1.00  0.00     0.107 A 
ATOM     24  C   UNL     1      -0.611   4.877  -2.423  1.00  0.00     0.105 A 
ATOM     25  C   UNL     1      -1.429   6.834  -2.088  1.00  0.00     0.131 A 
ATOM     26  N   UNL     1      -0.410   6.008  -1.774  1.00  0.00    -0.242 NA
ATOM     27  C   UNL     1       0.418   3.829  -2.282  1.00  0.00     0.087 C 
ENDBRANCH  21  22
ENDBRANCH  20  21
ENDBRANCH  17  20
ENDBRANCH   7  17
ENDBRANCH   4   7
ENDBRANCH   2   3
ENDBRANCH   1   2
BRANCH   1  28
ATOM     28  C   UNL     1      -1.487   3.942   1.523  1.00  0.00     0.023 C 
BRANCH  28  29
ATOM     29  C   UNL     1      -1.804   3.742   3.000  1.00  0.00     0.116 C 
BRANCH  29  30
ATOM     30  N   UNL     1      -0.724   3.125   3.767  1.00  0.00    -0.352 N 
ATOM     31  C   UNL     1      -0.386   3.287   5.089  1.00  0.00     0.251 C 
ATOM     32  H   UNL     1      -0.155   2.501   3.262  1.00  0.00     0.163 HD
ATOM     33  O   UNL     1       0.584   2.685   5.549  1.00  0.00    -0.269 OA
BRANCH  31  34
ATOM     34  C   UNL     1      -1.145   4.238   5.923  1.00  0.00     0.039 A 
ATOM     35  C   UNL     1      -0.442   5.139   6.727  1.00  0.00     0.014 A 
ATOM     36  C   UNL     1      -2.536   4.305   5.840  1.00  0.00     0.014 A 
ATOM     37  C   UNL     1      -1.131   6.170   7.365  1.00  0.00     0.010 A 
ATOM     38  C   UNL     1      -3.202   5.396   6.378  1.00  0.00     0.010 A 
ATOM     39  C   UNL     1      -2.509   6.339   7.148  1.00  0.00    -0.014 A 
BRANCH  39  40
ATOM     40  C   UNL     1      -3.250   7.477   7.745  1.00  0.00     0.031 A 
ATOM     41  C   UNL     1      -4.375   7.202   8.706  1.00  0.00     0.074 A 
ATOM     42  C   UNL     1      -2.937   8.740   7.391  1.00  0.00     0.049 A 
ATOM     43  N   UNL     1      -5.187   8.045   9.286  1.00  0.00    -0.248 NA
ATOM     44  C   UNL     1      -4.650   5.790   9.026  1.00  0.00     0.031 C 
ATOM     45  C   UNL     1      -1.899   9.119   6.428  1.00  0.00     0.029 A 
ATOM     46  N   UNL     1      -3.447   9.942   7.812  1.00  0.00    -0.354 N 
ATOM     47  C   UNL     1      -6.071   7.267  10.025  1.00  0.00     0.074 A 
ATOM     48  C   UNL     1      -5.748   5.884   9.758  1.00  0.00     0.031 C 
ATOM     49  C   UNL     1      -1.803  10.458   6.386  1.00  0.00     0.029 A 
ATOM     50  C   UNL     1      -2.798  11.035   7.283  1.00  0.00     0.049 A 
ATOM     51  H   UNL     1      -4.207  10.016   8.433  1.00  0.00     0.167 HD
ATOM     52  C   UNL     1      -7.036   7.668  10.884  1.00  0.00     0.034 A 
ATOM     53  C   UNL     1      -2.977  12.351   7.513  1.00  0.00     0.034 A 
ATOM     54  C   UNL     1      -7.308   9.047  11.182  1.00  0.00     0.049 A 
ATOM     55  C   UNL     1      -4.045  12.774   8.487  1.00  0.00     0.074 A 
ATOM     56  C   UNL     1      -8.242   9.572  12.056  1.00  0.00     0.029 A 
ATOM     57  N   UNL     1      -6.625  10.121  10.629  1.00  0.00    -0.354 N 
ATOM     58  N   UNL     1      -4.878  12.021   9.169  1.00  0.00    -0.248 NA
ATOM     59  C   UNL     1      -4.200  14.215   8.728  1.00  0.00     0.031 C 
ATOM     60  C   UNL     1      -8.145  10.965  12.010  1.00  0.00     0.029 A 
ATOM     61  C   UNL     1      -7.117  11.306  11.144  1.00  0.00     0.049 A 
ATOM     62  H   UNL     1      -5.899  10.050   9.968  1.00  0.00     0.167 HD
ATOM     63  C   UNL     1      -5.631  12.896   9.943  1.00  0.00     0.074 A 
ATOM     64  C   UNL     1      -5.162  14.233   9.641  1.00  0.00     0.031 C 
ATOM     65  C   UNL     1      -6.617  12.620  10.831  1.00  0.00     0.034 A 
BRANCH  52  66
ATOM     66  C   UNL     1      -7.844   6.602  11.571  1.00  0.00     0.023 A 
ATOM     67  C   UNL     1      -7.258   5.743  12.516  1.00  0.00     0.031 A 
ATOM     68  C   UNL     1      -9.209   6.440  11.281  1.00  0.00     0.131 A 
ATOM     69  C   UNL     1      -8.022   4.724  13.101  1.00  0.00     0.055 A 
ATOM     70  C   UNL     1      -9.981   5.466  11.917  1.00  0.00     0.041 A 
ATOM     71  F   UNL     1      -9.812   7.221  10.371  1.00  0.00    -0.206 F 
ATOM     72  C   UNL     1      -9.386   4.596  12.828  1.00  0.00     0.022 A 
BRANCH  69  73
ATOM     73  S   UNL     1      -7.191   3.517  14.167  1.00  0.00     0.124 S 
ATOM     74  O   UNL     1      -6.376   2.787  13.200  1.00  0.00    -0.237 OA
ATOM     75  O   UNL     1      -6.463   4.365  15.104  1.00  0.00    -0.237 OA
ATOM     76  O   UNL     1      -8.296   2.756  14.746  1.00  0.00    -0.744 OA
ENDBRANCH  69  73
ENDBRANCH  52  66
BRANCH  53  77
ATOM     77  C   UNL     1      -2.104  13.358   6.847  1.00  0.00     0.023 A 
ATOM     78  C   UNL     1      -1.169  14.098   7.588  1.00  0.00     0.031 A 
ATOM     79  C   UNL     1      -2.191  13.597   5.465  1.00  0.00     0.131 A 
ATOM     80  C   UNL     1      -0.375  15.063   6.949  1.00  0.00     0.055 A 
ATOM     81  C   UNL     1      -1.373  14.532   4.827  1.00  0.00     0.041 A 
ATOM     82  F   UNL     1      -3.062  12.908   4.710  1.00  0.00    -0.206 F 
ATOM     83  C   UNL     1      -0.463  15.277   5.571  1.00  0.00     0.022 A 
BRANCH  80  84
ATOM     84  S   UNL     1       0.752  16.069   7.954  1.00  0.00     0.124 S 
ATOM     85  O   UNL     1      -0.177  16.764   8.836  1.00  0.00    -0.237 OA
ATOM     86  O   UNL     1       1.593  15.052   8.577  1.00  0.00    -0.237 OA
ATOM     87  O   UNL     1       1.426  16.912   6.968  1.00  0.00    -0.744 OA
ENDBRANCH  80  84
ENDBRANCH  53  77
BRANCH  65  88
ATOM     88  C   UNL     1      -7.223  13.772  11.578  1.00  0.00     0.023 A 
ATOM     89  C   UNL     1      -8.165  14.618  10.975  1.00  0.00     0.031 A 
ATOM     90  C   UNL     1      -6.920  13.959  12.938  1.00  0.00     0.131 A 
ATOM     91  C   UNL     1      -8.769  15.630  11.733  1.00  0.00     0.055 A 
ATOM     92  C   UNL     1      -7.549  14.944  13.695  1.00  0.00     0.041 A 
ATOM     93  F   UNL     1      -6.032  13.162  13.554  1.00  0.00    -0.206 F 
ATOM     94  C   UNL     1      -8.480  15.786  13.093  1.00  0.00     0.022 A 
BRANCH  91  95
ATOM     95  S   UNL     1      -9.956  16.736  10.925  1.00  0.00     0.124 S 
ATOM     96  O   UNL     1      -9.090  17.517  10.047  1.00  0.00    -0.237 OA
ATOM     97  O   UNL     1     -10.861  15.803  10.259  1.00  0.00    -0.237 OA
ATOM     98  O   UNL     1     -10.545  17.477  12.038  1.00  0.00    -0.744 OA
ENDBRANCH  91  95
ENDBRANCH  65  88
ENDBRANCH  39  40
ENDBRANCH  31  34
ENDBRANCH  29  30
ENDBRANCH  28  29
ENDBRANCH   1  28
TORSDOF 20
