REMARK SMILES Cc1[nH]c2c(C(=O)N3CC[C@H](O)C[C@@H]3C(=O)NCCCCNC(=O)c3ccc(-c4c5nc(c(-c6cc(S(=O)(=O)[O-])ccc6F)c6ccc([nH]6)c(-c6cc(S(=O)(=O)[O-])ccc6F)c6nc(c(-c7cc(S(=O)(=O)[O-])ccc7F)c7ccc4[nH]7)C=C6)C=C5)cc3)cccc2c1C
REMARK SMILES IDX 20 1 19 2 18 3 17 4 15 5 16 6 14 8 8 9 9 10 10 11 13 12
REMARK SMILES IDX 11 13 6 14 7 15 5 16 1 17 2 18 3 19 92 20 4 21 91 23 93 24
REMARK SMILES IDX 90 25 88 26 89 27 12 28 21 30 22 31 23 32 24 34 25 35 26 36
REMARK SMILES IDX 87 37 27 38 86 39 28 40 29 41 30 42 80 43 31 44 85 45 79 46
REMARK SMILES IDX 81 47 32 48 84 49 78 50 77 51 33 53 65 54 45 55 64 56 46 57
REMARK SMILES IDX 49 58 63 59 82 60 47 61 48 62 62 64 83 65 50 66 34 67 35 68
REMARK SMILES IDX 43 69 36 70 42 71 44 72 41 73 37 74 38 75 39 76 40 77 66 78
REMARK SMILES IDX 67 79 75 80 68 81 74 82 76 83 73 84 69 85 70 86 71 87 72 88
REMARK SMILES IDX 51 89 52 90 60 91 53 92 59 93 61 94 58 95 54 96 55 97 56 98
REMARK SMILES IDX 57 99
REMARK H PARENT 17 7 3 22 12 29 22 33 81 52 49 63
REMARK Flexibility Score: inf
ROOT
ATOM      1  C   UNL     1      -4.794  -4.511  -1.250  1.00  0.00     0.023 C 
ENDROOT
BRANCH   1   2
ATOM      2  C   UNL     1      -3.341  -4.943  -1.385  1.00  0.00     0.023 C 
BRANCH   2   3
ATOM      3  C   UNL     1      -2.312  -4.047  -0.699  1.00  0.00     0.116 C 
BRANCH   3   4
ATOM      4  N   UNL     1      -2.177  -4.301   0.718  1.00  0.00    -0.354 N 
ATOM      5  C   UNL     1      -1.107  -4.682   1.468  1.00  0.00     0.242 C 
ATOM      6  O   UNL     1      -1.389  -5.135   2.588  1.00  0.00    -0.273 OA
ATOM      7  H   UNL     1      -3.007  -4.175   1.232  1.00  0.00     0.163 HD
BRANCH   5   8
ATOM      8  C   UNL     1       0.384  -4.704   1.002  1.00  0.00     0.177 C 
ATOM      9  N   UNL     1       0.911  -3.674   0.096  1.00  0.00    -0.326 N 
ATOM     10  C   UNL     1       0.984  -3.915  -1.344  1.00  0.00     0.123 C 
ATOM     11  C   UNL     1       0.931  -5.382  -1.814  1.00  0.00     0.053 C 
ATOM     12  C   UNL     1       0.877  -6.094   0.625  1.00  0.00     0.067 C 
ATOM     13  C   UNL     1       0.515  -6.449  -0.801  1.00  0.00     0.118 C 
BRANCH   9  14
ATOM     14  C   UNL     1       1.816  -2.752   0.635  1.00  0.00     0.256 C 
ATOM     15  O   UNL     1       2.672  -3.063   1.459  1.00  0.00    -0.269 OA
BRANCH  14  16
ATOM     16  C   UNL     1       1.697  -1.338   0.218  1.00  0.00     0.064 A 
ATOM     17  C   UNL     1      -3.159  -0.319   0.733  1.00  0.00     0.064 C 
ATOM     18  C   UNL     1      -1.718  -0.098   0.450  1.00  0.00     0.016 A 
ATOM     19  N   UNL     1      -0.805  -1.118   0.525  1.00  0.00    -0.358 N 
ATOM     20  C   UNL     1      -1.032   1.056   0.110  1.00  0.00    -0.023 A 
ATOM     21  C   UNL     1       0.460  -0.669   0.228  1.00  0.00     0.059 A 
ATOM     22  H   UNL     1      -1.026  -2.048   0.760  1.00  0.00     0.166 HD
ATOM     23  C   UNL     1       0.351   0.701  -0.015  1.00  0.00     0.003 A 
ATOM     24  C   UNL     1      -1.607   2.420  -0.050  1.00  0.00     0.047 C 
ATOM     25  C   UNL     1       1.526   1.434  -0.284  1.00  0.00     0.010 A 
ATOM     26  C   UNL     1       2.852  -0.580  -0.022  1.00  0.00     0.016 A 
ATOM     27  C   UNL     1       2.767   0.786  -0.281  1.00  0.00     0.002 A 
ENDBRANCH  14  16
ENDBRANCH   9  14
BRANCH  13  28
ATOM     28  O   UNL     1      -0.879  -6.701  -0.907  1.00  0.00    -0.393 OA
ATOM     29  H   UNL     1      -1.371  -5.895  -0.689  1.00  0.00     0.210 HD
ENDBRANCH  13  28
ENDBRANCH   5   8
ENDBRANCH   3   4
ENDBRANCH   2   3
ENDBRANCH   1   2
BRANCH   1  30
ATOM     30  C   UNL     1      -5.097  -3.068  -1.628  1.00  0.00     0.116 C 
BRANCH  30  31
ATOM     31  N   UNL     1      -4.587  -2.659  -2.930  1.00  0.00    -0.352 N 
ATOM     32  C   UNL     1      -5.175  -1.803  -3.835  1.00  0.00     0.251 C 
ATOM     33  H   UNL     1      -3.719  -3.041  -3.195  1.00  0.00     0.163 HD
ATOM     34  O   UNL     1      -4.646  -1.575  -4.918  1.00  0.00    -0.269 OA
BRANCH  32  35
ATOM     35  C   UNL     1      -6.489  -1.220  -3.493  1.00  0.00     0.039 A 
ATOM     36  C   UNL     1      -7.573  -1.470  -4.335  1.00  0.00     0.014 A 
ATOM     37  C   UNL     1      -6.666  -0.565  -2.272  1.00  0.00     0.014 A 
ATOM     38  C   UNL     1      -8.861  -1.152  -3.901  1.00  0.00     0.010 A 
ATOM     39  C   UNL     1      -7.955  -0.327  -1.809  1.00  0.00     0.010 A 
ATOM     40  C   UNL     1      -9.066  -0.633  -2.611  1.00  0.00    -0.014 A 
BRANCH  40  41
ATOM     41  C   UNL     1     -10.435  -0.423  -2.074  1.00  0.00     0.031 A 
ATOM     42  C   UNL     1     -10.890   0.961  -1.706  1.00  0.00     0.074 A 
ATOM     43  C   UNL     1     -11.235  -1.485  -1.844  1.00  0.00     0.049 A 
ATOM     44  N   UNL     1     -12.006   1.344  -1.141  1.00  0.00    -0.248 NA
ATOM     45  C   UNL     1      -9.944   2.054  -1.972  1.00  0.00     0.031 C 
ATOM     46  C   UNL     1     -10.881  -2.884  -2.099  1.00  0.00     0.029 A 
ATOM     47  N   UNL     1     -12.506  -1.556  -1.333  1.00  0.00    -0.354 N 
ATOM     48  C   UNL     1     -11.889   2.719  -0.970  1.00  0.00     0.074 A 
ATOM     49  C   UNL     1     -10.566   3.087  -1.427  1.00  0.00     0.031 C 
ATOM     50  C   UNL     1     -11.919  -3.669  -1.767  1.00  0.00     0.029 A 
ATOM     51  C   UNL     1     -12.997  -2.839  -1.242  1.00  0.00     0.049 A 
ATOM     52  H   UNL     1     -13.020  -0.763  -1.056  1.00  0.00     0.167 HD
ATOM     53  C   UNL     1     -12.811   3.597  -0.501  1.00  0.00     0.034 A 
ATOM     54  C   UNL     1     -14.180  -3.293  -0.783  1.00  0.00     0.034 A 
ATOM     55  C   UNL     1     -14.133   3.216  -0.071  1.00  0.00     0.049 A 
ATOM     56  C   UNL     1     -15.196  -2.298  -0.284  1.00  0.00     0.074 A 
ATOM     57  C   UNL     1     -15.164   4.026   0.371  1.00  0.00     0.029 A 
ATOM     58  N   UNL     1     -14.608   1.911  -0.028  1.00  0.00    -0.354 N 
ATOM     59  N   UNL     1     -15.090  -0.994  -0.176  1.00  0.00    -0.248 NA
ATOM     60  C   UNL     1     -16.496  -2.834   0.140  1.00  0.00     0.031 C 
ATOM     61  C   UNL     1     -16.243   3.209   0.728  1.00  0.00     0.029 A 
ATOM     62  C   UNL     1     -15.909   1.893   0.449  1.00  0.00     0.049 A 
ATOM     63  H   UNL     1     -14.095   1.115  -0.298  1.00  0.00     0.167 HD
ATOM     64  C   UNL     1     -16.319  -0.552   0.304  1.00  0.00     0.074 A 
ATOM     65  C   UNL     1     -17.154  -1.727   0.450  1.00  0.00     0.031 C 
ATOM     66  C   UNL     1     -16.724   0.710   0.595  1.00  0.00     0.034 A 
BRANCH  53  67
ATOM     67  C   UNL     1     -12.400   5.047  -0.423  1.00  0.00     0.023 A 
ATOM     68  C   UNL     1     -12.063   5.778  -1.576  1.00  0.00     0.031 A 
ATOM     69  C   UNL     1     -12.297   5.695   0.820  1.00  0.00     0.131 A 
ATOM     70  C   UNL     1     -11.555   7.079  -1.458  1.00  0.00     0.055 A 
ATOM     71  C   UNL     1     -11.873   7.022   0.924  1.00  0.00     0.041 A 
ATOM     72  F   UNL     1     -12.586   5.044   1.957  1.00  0.00    -0.206 F 
ATOM     73  C   UNL     1     -11.482   7.716  -0.217  1.00  0.00     0.022 A 
BRANCH  70  74
ATOM     74  S   UNL     1     -10.851   7.869  -2.931  1.00  0.00     0.124 S 
ATOM     75  O   UNL     1      -9.769   6.947  -3.268  1.00  0.00    -0.237 OA
ATOM     76  O   UNL     1     -11.983   7.889  -3.850  1.00  0.00    -0.237 OA
ATOM     77  O   UNL     1     -10.417   9.177  -2.445  1.00  0.00    -0.744 OA
ENDBRANCH  70  74
ENDBRANCH  53  67
BRANCH  54  78
ATOM     78  C   UNL     1     -14.476  -4.754  -0.770  1.00  0.00     0.023 A 
ATOM     79  C   UNL     1     -15.473  -5.297  -1.596  1.00  0.00     0.031 A 
ATOM     80  C   UNL     1     -13.791  -5.623   0.097  1.00  0.00     0.131 A 
ATOM     81  C   UNL     1     -15.789  -6.662  -1.507  1.00  0.00     0.055 A 
ATOM     82  C   UNL     1     -14.078  -6.988   0.150  1.00  0.00     0.041 A 
ATOM     83  F   UNL     1     -12.821  -5.156   0.899  1.00  0.00    -0.206 F 
ATOM     84  C   UNL     1     -15.092  -7.513  -0.647  1.00  0.00     0.022 A 
BRANCH  81  85
ATOM     85  S   UNL     1     -17.180  -7.297  -2.482  1.00  0.00     0.124 S 
ATOM     86  O   UNL     1     -18.282  -6.471  -2.003  1.00  0.00    -0.237 OA
ATOM     87  O   UNL     1     -16.733  -7.042  -3.848  1.00  0.00    -0.237 OA
ATOM     88  O   UNL     1     -17.245  -8.707  -2.104  1.00  0.00    -0.744 OA
ENDBRANCH  81  85
ENDBRANCH  54  78
BRANCH  66  89
ATOM     89  C   UNL     1     -18.148   0.880   1.058  1.00  0.00     0.023 A 
ATOM     90  C   UNL     1     -18.580   0.405   2.308  1.00  0.00     0.031 A 
ATOM     91  C   UNL     1     -19.086   1.522   0.230  1.00  0.00     0.131 A 
ATOM     92  C   UNL     1     -19.928   0.534   2.675  1.00  0.00     0.055 A 
ATOM     93  C   UNL     1     -20.413   1.694   0.622  1.00  0.00     0.041 A 
ATOM     94  F   UNL     1     -18.724   1.993  -0.974  1.00  0.00    -0.206 F 
ATOM     95  C   UNL     1     -20.844   1.188   1.846  1.00  0.00     0.022 A 
BRANCH  92  96
ATOM     96  S   UNL     1     -20.488  -0.236   4.218  1.00  0.00     0.124 S 
ATOM     97  O   UNL     1     -20.157  -1.639   3.995  1.00  0.00    -0.237 OA
ATOM     98  O   UNL     1     -19.686   0.457   5.221  1.00  0.00    -0.237 OA
ATOM     99  O   UNL     1     -21.918   0.066   4.253  1.00  0.00    -0.744 OA
ENDBRANCH  92  96
ENDBRANCH  66  89
ENDBRANCH  40  41
ENDBRANCH  32  35
ENDBRANCH  30  31
ENDBRANCH   1  30
TORSDOF 17
