REMARK SMILES C[C@H]1CC[C@@](NC(=O)N[C@H]2CCOC2)(C(=O)NCCCCNC(=O)c2ccc(-c3c4nc(c(-c5cc(S(=O)(=O)[O-])ccc5F)c5ccc([nH]5)c(-c5cc(S(=O)(=O)[O-])ccc5F)c5nc(c(-c6cc(S(=O)(=O)[O-])ccc6F)c6ccc3[nH]6)C=C5)C=C4)cc2)CC1
REMARK SMILES IDX 20 1 19 2 18 3 17 4 15 5 16 6 5 8 1 9 2 10 89 11 3 12 88 13
REMARK SMILES IDX 4 14 6 15 7 16 8 18 9 19 10 21 11 22 14 23 12 24 13 25 21 26
REMARK SMILES IDX 22 27 23 28 24 30 25 31 26 32 87 33 27 34 86 35 28 36 29 37
REMARK SMILES IDX 30 38 80 39 31 40 85 41 79 42 81 43 32 44 84 45 78 46 77 47
REMARK SMILES IDX 33 49 65 50 45 51 64 52 46 53 49 54 63 55 82 56 47 57 48 58
REMARK SMILES IDX 62 60 83 61 50 62 34 63 35 64 43 65 36 66 42 67 44 68 41 69
REMARK SMILES IDX 37 70 38 71 39 72 40 73 66 74 67 75 75 76 68 77 74 78 76 79
REMARK SMILES IDX 73 80 69 81 70 82 71 83 72 84 51 85 52 86 60 87 53 88 59 89
REMARK SMILES IDX 61 90 58 91 54 92 55 93 56 94 57 95
REMARK H PARENT 17 7 6 17 9 20 22 29 81 48 49 59
REMARK Flexibility Score: inf
ROOT
ATOM      1  C   UNL     1      -4.960   3.976  -1.824  1.00  0.00     0.023 C 
ENDROOT
BRANCH   1   2
ATOM      2  C   UNL     1      -6.005   2.959  -2.292  1.00  0.00     0.023 C 
BRANCH   2   3
ATOM      3  C   UNL     1      -5.411   1.630  -2.744  1.00  0.00     0.116 C 
BRANCH   3   4
ATOM      4  N   UNL     1      -4.862   0.898  -1.620  1.00  0.00    -0.354 N 
ATOM      5  C   UNL     1      -4.578  -0.427  -1.484  1.00  0.00     0.245 C 
ATOM      6  O   UNL     1      -4.077  -0.762  -0.406  1.00  0.00    -0.272 OA
ATOM      7  H   UNL     1      -4.662   1.447  -0.827  1.00  0.00     0.163 HD
BRANCH   5   8
ATOM      8  C   UNL     1      -5.000  -1.467  -2.566  1.00  0.00     0.120 C 
ATOM      9  C   UNL     1      -6.285  -3.425   0.988  1.00  0.00     0.007 C 
ATOM     10  C   UNL     1      -6.231  -3.346  -0.543  1.00  0.00    -0.014 C 
ATOM     11  C   UNL     1      -4.775  -3.517  -1.011  1.00  0.00     0.006 C 
ATOM     12  C   UNL     1      -6.935  -2.066  -1.013  1.00  0.00     0.006 C 
ATOM     13  C   UNL     1      -4.441  -2.888  -2.362  1.00  0.00     0.039 C 
ATOM     14  C   UNL     1      -6.541  -1.631  -2.424  1.00  0.00     0.039 C 
BRANCH   8  15
ATOM     15  N   UNL     1      -4.679  -1.007  -3.939  1.00  0.00    -0.324 N 
ATOM     16  C   UNL     1      -3.573  -0.783  -4.655  1.00  0.00     0.315 C 
ATOM     17  H   UNL     1      -5.494  -0.818  -4.458  1.00  0.00     0.166 HD
ATOM     18  O   UNL     1      -3.721  -0.708  -5.879  1.00  0.00    -0.249 OA
ATOM     19  N   UNL     1      -2.337  -0.614  -4.184  1.00  0.00    -0.333 N 
ATOM     20  H   UNL     1      -1.665  -0.612  -4.904  1.00  0.00     0.165 HD
BRANCH  19  21
ATOM     21  C   UNL     1      -1.732  -0.432  -2.878  1.00  0.00     0.112 C 
ATOM     22  C   UNL     1      -0.860  -1.579  -2.418  1.00  0.00     0.056 C 
ATOM     23  C   UNL     1      -0.745   0.732  -2.776  1.00  0.00     0.185 C 
ATOM     24  C   UNL     1      -0.128  -0.926  -1.266  1.00  0.00     0.162 C 
ATOM     25  O   UNL     1       0.142   0.419  -1.686  1.00  0.00    -0.379 OA
ENDBRANCH  19  21
ENDBRANCH   8  15
ENDBRANCH   5   8
ENDBRANCH   3   4
ENDBRANCH   2   3
ENDBRANCH   1   2
BRANCH   1  26
ATOM     26  C   UNL     1      -3.977   4.404  -2.910  1.00  0.00     0.116 C 
BRANCH  26  27
ATOM     27  N   UNL     1      -4.654   5.096  -3.996  1.00  0.00    -0.352 N 
ATOM     28  C   UNL     1      -4.600   6.425  -4.330  1.00  0.00     0.251 C 
ATOM     29  H   UNL     1      -5.226   4.535  -4.567  1.00  0.00     0.163 HD
ATOM     30  O   UNL     1      -5.455   6.904  -5.075  1.00  0.00    -0.269 OA
BRANCH  28  31
ATOM     31  C   UNL     1      -3.520   7.272  -3.786  1.00  0.00     0.039 A 
ATOM     32  C   UNL     1      -3.828   8.534  -3.272  1.00  0.00     0.014 A 
ATOM     33  C   UNL     1      -2.196   6.819  -3.800  1.00  0.00     0.014 A 
ATOM     34  C   UNL     1      -2.813   9.320  -2.722  1.00  0.00     0.010 A 
ATOM     35  C   UNL     1      -1.200   7.574  -3.191  1.00  0.00     0.010 A 
ATOM     36  C   UNL     1      -1.496   8.837  -2.655  1.00  0.00    -0.014 A 
BRANCH  36  37
ATOM     37  C   UNL     1      -0.406   9.645  -2.052  1.00  0.00     0.031 A 
ATOM     38  C   UNL     1       0.728  10.132  -2.914  1.00  0.00     0.074 A 
ATOM     39  C   UNL     1      -0.403   9.882  -0.726  1.00  0.00     0.049 A 
ATOM     40  N   UNL     1       1.815  10.771  -2.570  1.00  0.00    -0.248 NA
ATOM     41  C   UNL     1       0.637   9.828  -4.350  1.00  0.00     0.031 C 
ATOM     42  C   UNL     1      -1.427   9.426   0.216  1.00  0.00     0.029 A 
ATOM     43  N   UNL     1       0.498  10.552   0.062  1.00  0.00    -0.354 N 
ATOM     44  C   UNL     1       2.546  10.933  -3.742  1.00  0.00     0.074 A 
ATOM     45  C   UNL     1       1.803  10.271  -4.793  1.00  0.00     0.031 C 
ATOM     46  C   UNL     1      -1.105   9.844   1.451  1.00  0.00     0.029 A 
ATOM     47  C   UNL     1       0.166  10.560   1.397  1.00  0.00     0.049 A 
ATOM     48  H   UNL     1       1.306  10.986  -0.294  1.00  0.00     0.167 HD
ATOM     49  C   UNL     1       3.718  11.591  -3.928  1.00  0.00     0.034 A 
ATOM     50  C   UNL     1       0.818  11.076   2.457  1.00  0.00     0.034 A 
ATOM     51  C   UNL     1       4.438  12.258  -2.870  1.00  0.00     0.049 A 
ATOM     52  C   UNL     1       2.124  11.794   2.229  1.00  0.00     0.074 A 
ATOM     53  C   UNL     1       5.602  13.002  -2.953  1.00  0.00     0.029 A 
ATOM     54  N   UNL     1       4.064  12.257  -1.531  1.00  0.00    -0.354 N 
ATOM     55  N   UNL     1       2.779  11.980   1.107  1.00  0.00    -0.248 NA
ATOM     56  C   UNL     1       2.770  12.381   3.410  1.00  0.00     0.031 C 
ATOM     57  C   UNL     1       5.963  13.400  -1.660  1.00  0.00     0.029 A 
ATOM     58  C   UNL     1       4.988  12.964  -0.777  1.00  0.00     0.049 A 
ATOM     59  H   UNL     1       3.260  11.818  -1.171  1.00  0.00     0.167 HD
ATOM     60  C   UNL     1       3.902  12.732   1.444  1.00  0.00     0.074 A 
ATOM     61  C   UNL     1       3.825  12.974   2.871  1.00  0.00     0.031 C 
ATOM     62  C   UNL     1       4.902  13.185   0.647  1.00  0.00     0.034 A 
BRANCH  49  63
ATOM     63  C   UNL     1       4.297  11.594  -5.322  1.00  0.00     0.023 A 
ATOM     64  C   UNL     1       3.623  12.196  -6.400  1.00  0.00     0.031 A 
ATOM     65  C   UNL     1       5.522  10.957  -5.587  1.00  0.00     0.131 A 
ATOM     66  C   UNL     1       4.135  12.079  -7.701  1.00  0.00     0.055 A 
ATOM     67  C   UNL     1       6.067  10.916  -6.872  1.00  0.00     0.041 A 
ATOM     68  F   UNL     1       6.203  10.348  -4.604  1.00  0.00    -0.206 F 
ATOM     69  C   UNL     1       5.365  11.464  -7.941  1.00  0.00     0.022 A 
BRANCH  66  70
ATOM     70  S   UNL     1       3.098  12.614  -9.090  1.00  0.00     0.124 S 
ATOM     71  O   UNL     1       1.920  11.767  -8.922  1.00  0.00    -0.237 OA
ATOM     72  O   UNL     1       2.910  14.033  -8.816  1.00  0.00    -0.237 OA
ATOM     73  O   UNL     1       3.914  12.308 -10.264  1.00  0.00    -0.744 OA
ENDBRANCH  66  70
ENDBRANCH  49  63
BRANCH  50  74
ATOM     74  C   UNL     1       0.258  10.932   3.830  1.00  0.00     0.023 A 
ATOM     75  C   UNL     1      -0.178  12.052   4.554  1.00  0.00     0.031 A 
ATOM     76  C   UNL     1       0.184   9.673   4.452  1.00  0.00     0.131 A 
ATOM     77  C   UNL     1      -0.629  11.899   5.874  1.00  0.00     0.055 A 
ATOM     78  C   UNL     1      -0.309   9.520   5.749  1.00  0.00     0.041 A 
ATOM     79  F   UNL     1       0.580   8.569   3.800  1.00  0.00    -0.206 F 
ATOM     80  C   UNL     1      -0.708  10.640   6.473  1.00  0.00     0.022 A 
BRANCH  77  81
ATOM     81  S   UNL     1      -1.041  13.386   6.828  1.00  0.00     0.124 S 
ATOM     82  O   UNL     1       0.214  14.128   6.781  1.00  0.00    -0.237 OA
ATOM     83  O   UNL     1      -2.146  13.944   6.055  1.00  0.00    -0.237 OA
ATOM     84  O   UNL     1      -1.407  12.858   8.140  1.00  0.00    -0.744 OA
ENDBRANCH  77  81
ENDBRANCH  50  74
BRANCH  62  85
ATOM     85  C   UNL     1       5.967  14.028   1.303  1.00  0.00     0.023 A 
ATOM     86  C   UNL     1       6.875  13.484   2.229  1.00  0.00     0.031 A 
ATOM     87  C   UNL     1       6.064  15.399   1.006  1.00  0.00     0.131 A 
ATOM     88  C   UNL     1       7.805  14.319   2.866  1.00  0.00     0.055 A 
ATOM     89  C   UNL     1       7.028  16.213   1.602  1.00  0.00     0.041 A 
ATOM     90  F   UNL     1       5.221  15.969   0.130  1.00  0.00    -0.206 F 
ATOM     91  C   UNL     1       7.897  15.676   2.547  1.00  0.00     0.022 A 
BRANCH  88  92
ATOM     92  S   UNL     1       8.841  13.624   4.184  1.00  0.00     0.124 S 
ATOM     93  O   UNL     1       7.842  13.154   5.139  1.00  0.00    -0.237 OA
ATOM     94  O   UNL     1       9.588  12.587   3.480  1.00  0.00    -0.237 OA
ATOM     95  O   UNL     1       9.638  14.765   4.631  1.00  0.00    -0.744 OA
ENDBRANCH  88  92
ENDBRANCH  62  85
ENDBRANCH  36  37
ENDBRANCH  28  31
ENDBRANCH  26  27
ENDBRANCH   1  26
TORSDOF 16
