REMARK SMILES COc1ccc2c(c1)c(CC(=O)NCCCCNC(=O)c1ccc(-c3c4nc(c(-c5cc(S(=O)(=O)[O-])ccc5F)c5ccc([nH]5)c(-c5cc(S(=O)(=O)[O-])ccc5F)c5nc(c(-c6cc(S(=O)(=O)[O-])ccc6F)c6ccc3[nH]6)C=C5)C=C4)cc1)c(C)n2Cc1ccn(C(F)F)c(=O)c1
REMARK SMILES IDX 15 1 14 2 13 3 11 4 12 5 10 7 9 8 3 9 4 10 8 11 5 12 7 13
REMARK SMILES IDX 6 14 86 15 84 16 85 17 2 18 1 19 87 20 88 21 89 22 97 23
REMARK SMILES IDX 90 24 95 25 91 26 96 27 92 28 93 29 94 30 16 31 17 32 18 33
REMARK SMILES IDX 19 34 20 36 21 37 22 38 83 39 23 40 82 41 24 42 25 43 26 44
REMARK SMILES IDX 76 45 27 46 81 47 75 48 77 49 28 50 80 51 74 52 73 53 29 55
REMARK SMILES IDX 61 56 41 57 60 58 42 59 45 60 59 61 78 62 43 63 44 64 58 66
REMARK SMILES IDX 79 67 46 68 30 69 31 70 39 71 32 72 38 73 40 74 37 75 33 76
REMARK SMILES IDX 34 77 35 78 36 79 62 80 63 81 71 82 64 83 70 84 72 85 69 86
REMARK SMILES IDX 65 87 66 88 67 89 68 90 47 91 48 92 56 93 49 94 55 95 57 96
REMARK SMILES IDX 54 97 50 98 51 99 52 100 53 101
REMARK H PARENT 13 6 18 35 77 54 45 65
REMARK Flexibility Score: inf
ROOT
ATOM      1  C   UNL     1       0.739   6.319   4.436  1.00  0.00     0.023 C 
ENDROOT
BRANCH   1   2
ATOM      2  C   UNL     1      -0.628   6.014   5.049  1.00  0.00     0.116 C 
BRANCH   2   3
ATOM      3  N   UNL     1      -1.587   5.538   4.070  1.00  0.00    -0.356 N 
ATOM      4  C   UNL     1      -2.203   4.321   3.980  1.00  0.00     0.224 C 
ATOM      5  O   UNL     1      -3.036   4.155   3.084  1.00  0.00    -0.275 OA
ATOM      6  H   UNL     1      -1.829   6.185   3.368  1.00  0.00     0.163 HD
BRANCH   4   7
ATOM      7  C   UNL     1      -1.944   3.234   5.014  1.00  0.00     0.138 C 
BRANCH   7   8
ATOM      8  C   UNL     1      -0.511   2.802   5.079  1.00  0.00    -0.010 A 
ATOM      9  C   UNL     1       0.954   1.487   1.815  1.00  0.00     0.119 A 
ATOM     10  C   UNL     1       2.256   1.346   2.281  1.00  0.00     0.048 A 
ATOM     11  C   UNL     1      -0.031   2.009   2.653  1.00  0.00     0.057 A 
ATOM     12  C   UNL     1       2.596   1.690   3.601  1.00  0.00     0.031 A 
ATOM     13  C   UNL     1       0.273   2.318   3.995  1.00  0.00     0.007 A 
ATOM     14  C   UNL     1       1.582   2.159   4.458  1.00  0.00     0.049 A 
ATOM     15  N   UNL     1       1.593   2.567   5.788  1.00  0.00    -0.340 N 
ATOM     16  C   UNL     1       0.284   2.735   6.215  1.00  0.00     0.020 A 
ATOM     17  C   UNL     1      -0.151   2.884   7.631  1.00  0.00     0.065 C 
BRANCH   9  18
ATOM     18  O   UNL     1       0.546   1.211   0.537  1.00  0.00    -0.497 OA
ATOM     19  C   UNL     1       1.078   0.012  -0.014  1.00  0.00     0.278 C 
ENDBRANCH   9  18
BRANCH  15  20
ATOM     20  C   UNL     1       2.799   2.702   6.620  1.00  0.00     0.158 C 
BRANCH  20  21
ATOM     21  C   UNL     1       3.220   4.135   6.895  1.00  0.00    -0.021 A 
ATOM     22  C   UNL     1       2.486   4.932   7.861  1.00  0.00     0.024 A 
ATOM     23  C   UNL     1       4.313   4.684   6.334  1.00  0.00     0.077 A 
ATOM     24  C   UNL     1       2.774   6.225   8.057  1.00  0.00     0.095 A 
ATOM     25  C   UNL     1       4.727   6.092   6.634  1.00  0.00     0.255 A 
ATOM     26  N   UNL     1       3.839   6.819   7.414  1.00  0.00    -0.258 N 
ATOM     27  O   UNL     1       5.790   6.491   6.192  1.00  0.00    -0.269 OA
BRANCH  26  28
ATOM     28  C   UNL     1       4.156   8.207   7.662  1.00  0.00     0.451 C 
ATOM     29  F   UNL     1       5.170   8.303   8.557  1.00  0.00    -0.185 F 
ATOM     30  F   UNL     1       4.532   8.839   6.529  1.00  0.00    -0.185 F 
ENDBRANCH  26  28
ENDBRANCH  20  21
ENDBRANCH  15  20
ENDBRANCH   7   8
ENDBRANCH   4   7
ENDBRANCH   2   3
ENDBRANCH   1   2
BRANCH   1  31
ATOM     31  C   UNL     1       0.771   7.525   3.487  1.00  0.00     0.023 C 
BRANCH  31  32
ATOM     32  C   UNL     1       0.189   8.819   4.061  1.00  0.00     0.116 C 
BRANCH  32  33
ATOM     33  N   UNL     1       0.830   9.272   5.279  1.00  0.00    -0.352 N 
ATOM     34  C   UNL     1       1.823  10.175   5.559  1.00  0.00     0.251 C 
ATOM     35  H   UNL     1       0.472   8.834   6.085  1.00  0.00     0.163 HD
ATOM     36  O   UNL     1       1.940  10.471   6.753  1.00  0.00    -0.269 OA
BRANCH  34  37
ATOM     37  C   UNL     1       2.794  10.724   4.570  1.00  0.00     0.039 A 
ATOM     38  C   UNL     1       2.779  10.464   3.202  1.00  0.00     0.014 A 
ATOM     39  C   UNL     1       3.867  11.473   5.095  1.00  0.00     0.014 A 
ATOM     40  C   UNL     1       3.861  10.828   2.409  1.00  0.00     0.010 A 
ATOM     41  C   UNL     1       4.948  11.852   4.301  1.00  0.00     0.010 A 
ATOM     42  C   UNL     1       4.970  11.479   2.965  1.00  0.00    -0.014 A 
BRANCH  42  43
ATOM     43  C   UNL     1       6.060  11.830   2.055  1.00  0.00     0.031 A 
ATOM     44  C   UNL     1       5.627  12.670   0.903  1.00  0.00     0.074 A 
ATOM     45  C   UNL     1       7.353  11.482   2.215  1.00  0.00     0.049 A 
ATOM     46  N   UNL     1       5.538  12.326  -0.340  1.00  0.00    -0.248 NA
ATOM     47  C   UNL     1       5.053  13.989   1.203  1.00  0.00     0.031 C 
ATOM     48  C   UNL     1       8.000  10.905   3.397  1.00  0.00     0.029 A 
ATOM     49  N   UNL     1       8.395  11.643   1.347  1.00  0.00    -0.354 N 
ATOM     50  C   UNL     1       5.069  13.450  -1.017  1.00  0.00     0.074 A 
ATOM     51  C   UNL     1       4.642  14.380  -0.004  1.00  0.00     0.031 C 
ATOM     52  C   UNL     1       9.344  10.977   3.253  1.00  0.00     0.029 A 
ATOM     53  C   UNL     1       9.648  11.443   1.911  1.00  0.00     0.049 A 
ATOM     54  H   UNL     1       8.268  11.882   0.400  1.00  0.00     0.167 HD
ATOM     55  C   UNL     1       5.245  13.607  -2.360  1.00  0.00     0.034 A 
ATOM     56  C   UNL     1      10.853  11.676   1.331  1.00  0.00     0.034 A 
ATOM     57  C   UNL     1       5.634  12.372  -2.982  1.00  0.00     0.049 A 
ATOM     58  C   UNL     1      10.658  11.707  -0.134  1.00  0.00     0.074 A 
ATOM     59  C   UNL     1       5.017  11.172  -3.258  1.00  0.00     0.029 A 
ATOM     60  N   UNL     1       6.984  12.158  -3.091  1.00  0.00    -0.354 N 
ATOM     61  N   UNL     1      10.372  10.662  -0.856  1.00  0.00    -0.248 NA
ATOM     62  C   UNL     1      10.413  12.992  -0.768  1.00  0.00     0.031 C 
ATOM     63  C   UNL     1       6.041  10.189  -3.149  1.00  0.00     0.029 A 
ATOM     64  C   UNL     1       7.250  10.833  -2.868  1.00  0.00     0.049 A 
ATOM     65  H   UNL     1       7.656  12.848  -3.297  1.00  0.00     0.167 HD
ATOM     66  C   UNL     1       9.490  11.140  -1.809  1.00  0.00     0.074 A 
ATOM     67  C   UNL     1       9.680  12.587  -1.807  1.00  0.00     0.031 C 
ATOM     68  C   UNL     1       8.493  10.345  -2.298  1.00  0.00     0.034 A 
BRANCH  55  69
ATOM     69  C   UNL     1       5.424  14.946  -3.038  1.00  0.00     0.023 A 
ATOM     70  C   UNL     1       5.662  16.133  -2.322  1.00  0.00     0.031 A 
ATOM     71  C   UNL     1       5.594  15.030  -4.436  1.00  0.00     0.131 A 
ATOM     72  C   UNL     1       6.014  17.327  -2.964  1.00  0.00     0.055 A 
ATOM     73  C   UNL     1       6.016  16.206  -5.074  1.00  0.00     0.041 A 
ATOM     74  F   UNL     1       5.411  13.958  -5.222  1.00  0.00    -0.206 F 
ATOM     75  C   UNL     1       6.227  17.365  -4.337  1.00  0.00     0.022 A 
BRANCH  72  76
ATOM     76  S   UNL     1       6.213  18.854  -2.005  1.00  0.00     0.124 S 
ATOM     77  O   UNL     1       7.590  19.226  -2.311  1.00  0.00    -0.237 OA
ATOM     78  O   UNL     1       5.182  19.705  -2.593  1.00  0.00    -0.237 OA
ATOM     79  O   UNL     1       5.956  18.432  -0.632  1.00  0.00    -0.744 OA
ENDBRANCH  72  76
ENDBRANCH  55  69
BRANCH  56  80
ATOM     80  C   UNL     1      12.023  12.341   1.951  1.00  0.00     0.023 A 
ATOM     81  C   UNL     1      11.807  13.316   2.942  1.00  0.00     0.031 A 
ATOM     82  C   UNL     1      13.292  12.303   1.344  1.00  0.00     0.131 A 
ATOM     83  C   UNL     1      12.806  14.250   3.246  1.00  0.00     0.055 A 
ATOM     84  C   UNL     1      14.298  13.222   1.670  1.00  0.00     0.041 A 
ATOM     85  F   UNL     1      13.551  11.425   0.362  1.00  0.00    -0.206 F 
ATOM     86  C   UNL     1      14.050  14.214   2.612  1.00  0.00     0.022 A 
BRANCH  83  87
ATOM     87  S   UNL     1      12.463  15.616   4.389  1.00  0.00     0.124 S 
ATOM     88  O   UNL     1      13.601  15.543   5.303  1.00  0.00    -0.237 OA
ATOM     89  O   UNL     1      12.456  16.762   3.486  1.00  0.00    -0.237 OA
ATOM     90  O   UNL     1      11.176  15.259   4.976  1.00  0.00    -0.744 OA
ENDBRANCH  83  87
ENDBRANCH  56  80
BRANCH  68  91
ATOM     91  C   UNL     1       8.577   8.854  -2.046  1.00  0.00     0.023 A 
ATOM     92  C   UNL     1       8.431   8.014  -3.163  1.00  0.00     0.031 A 
ATOM     93  C   UNL     1       8.595   8.248  -0.776  1.00  0.00     0.131 A 
ATOM     94  C   UNL     1       8.257   6.636  -2.997  1.00  0.00     0.055 A 
ATOM     95  C   UNL     1       8.499   6.860  -0.618  1.00  0.00     0.041 A 
ATOM     96  F   UNL     1       8.628   8.974   0.349  1.00  0.00    -0.206 F 
ATOM     97  C   UNL     1       8.309   6.048  -1.731  1.00  0.00     0.022 A 
BRANCH  94  98
ATOM     98  S   UNL     1       7.794   5.603  -4.410  1.00  0.00     0.124 S 
ATOM     99  O   UNL     1       8.944   4.712  -4.534  1.00  0.00    -0.237 OA
ATOM    100  O   UNL     1       6.561   4.972  -3.943  1.00  0.00    -0.237 OA
ATOM    101  O   UNL     1       7.622   6.555  -5.504  1.00  0.00    -0.744 OA
ENDBRANCH  94  98
ENDBRANCH  68  91
ENDBRANCH  42  43
ENDBRANCH  34  37
ENDBRANCH  32  33
ENDBRANCH  31  32
ENDBRANCH   1  31
TORSDOF 19
