REMARK SMILES CC(C)n1cncc1[C@@H](NC(=O)OC(C)(C)C)C(=O)NCCCCNC(=O)c1ccc(-c2c3nc(c(-c4cc(S(=O)(=O)[O-])ccc4F)c4ccc([nH]4)c(-c4cc(S(=O)(=O)[O-])ccc4F)c4nc(c(-c5cc(S(=O)(=O)[O-])ccc5F)c5ccc2[nH]5)C=C4)C=C3)cc1
REMARK SMILES IDX 22 1 21 2 20 3 18 4 19 5 9 7 8 8 4 9 5 10 6 11 7 12 2 13
REMARK SMILES IDX 1 14 3 15 10 16 11 17 12 19 13 20 14 21 15 22 16 23 17 24
REMARK SMILES IDX 23 25 24 26 25 27 26 28 27 30 28 31 29 32 90 33 30 34 89 35
REMARK SMILES IDX 31 36 32 37 33 38 83 39 34 40 88 41 82 42 84 43 35 44 87 45
REMARK SMILES IDX 81 46 80 47 36 49 68 50 48 51 67 52 49 53 52 54 66 55 85 56
REMARK SMILES IDX 50 57 51 58 65 60 86 61 53 62 37 63 38 64 46 65 39 66 45 67
REMARK SMILES IDX 47 68 44 69 40 70 41 71 42 72 43 73 69 74 70 75 78 76 71 77
REMARK SMILES IDX 77 78 79 79 76 80 72 81 73 82 74 83 75 84 54 85 55 86 63 87
REMARK SMILES IDX 56 88 62 89 64 90 61 91 57 92 58 93 59 94 60 95
REMARK H PARENT 20 6 10 18 25 29 84 48 52 59
REMARK Flexibility Score: inf
ROOT
ATOM      1  C   UNL     1      -5.109   1.475   2.834  1.00  0.00     0.023 C 
ENDROOT
BRANCH   1   2
ATOM      2  C   UNL     1      -4.359   2.697   2.309  1.00  0.00     0.116 C 
BRANCH   2   3
ATOM      3  N   UNL     1      -3.144   2.952   3.052  1.00  0.00    -0.354 N 
ATOM      4  C   UNL     1      -1.846   2.958   2.625  1.00  0.00     0.248 C 
ATOM      5  O   UNL     1      -0.978   3.138   3.490  1.00  0.00    -0.272 OA
ATOM      6  H   UNL     1      -3.271   3.151   4.008  1.00  0.00     0.163 HD
BRANCH   4   7
ATOM      7  C   UNL     1      -1.426   2.596   1.158  1.00  0.00     0.223 C 
BRANCH   7   8
ATOM      8  C   UNL     1      -1.586   1.101   1.003  1.00  0.00     0.070 A 
ATOM      9  N   UNL     1      -0.664   0.123   1.312  1.00  0.00    -0.330 N 
ATOM     10  C   UNL     1      -1.341  -1.077   1.314  1.00  0.00     0.199 A 
ATOM     11  N   UNL     1      -2.554  -0.958   0.837  1.00  0.00    -0.245 NA
ATOM     12  C   UNL     1      -2.697   0.375   0.594  1.00  0.00     0.137 A 
BRANCH   9  13
ATOM     13  C   UNL     1       0.795   0.155   1.327  1.00  0.00     0.082 C 
ATOM     14  C   UNL     1       1.314   0.056  -0.111  1.00  0.00     0.031 C 
ATOM     15  C   UNL     1       1.460   1.299   2.082  1.00  0.00     0.031 C 
ENDBRANCH   9  13
ENDBRANCH   7   8
BRANCH   7  16
ATOM     16  N   UNL     1      -2.108   3.208   0.038  1.00  0.00    -0.304 N 
ATOM     17  C   UNL     1      -2.502   4.508  -0.067  1.00  0.00     0.408 C 
ATOM     18  H   UNL     1      -2.308   2.623  -0.729  1.00  0.00     0.168 HD
ATOM     19  O   UNL     1      -2.767   4.977  -1.155  1.00  0.00    -0.225 OA
BRANCH  17  20
ATOM     20  O   UNL     1      -2.684   5.095   1.139  1.00  0.00    -0.444 OA
BRANCH  20  21
ATOM     21  C   UNL     1      -3.537   6.262   1.234  1.00  0.00     0.106 C 
ATOM     22  C   UNL     1      -2.835   7.480   0.652  1.00  0.00     0.056 C 
ATOM     23  C   UNL     1      -4.877   6.001   0.544  1.00  0.00     0.056 C 
ATOM     24  C   UNL     1      -3.780   6.490   2.740  1.00  0.00     0.056 C 
ENDBRANCH  20  21
ENDBRANCH  17  20
ENDBRANCH   7  16
ENDBRANCH   4   7
ENDBRANCH   2   3
ENDBRANCH   1   2
BRANCH   1  25
ATOM     25  C   UNL     1      -5.951   1.734   4.090  1.00  0.00     0.023 C 
BRANCH  25  26
ATOM     26  C   UNL     1      -7.083   2.741   3.907  1.00  0.00     0.116 C 
BRANCH  26  27
ATOM     27  N   UNL     1      -8.077   2.341   2.902  1.00  0.00    -0.352 N 
ATOM     28  C   UNL     1      -9.178   3.064   2.451  1.00  0.00     0.251 C 
ATOM     29  H   UNL     1      -7.948   1.452   2.498  1.00  0.00     0.163 HD
ATOM     30  O   UNL     1     -10.150   2.493   1.973  1.00  0.00    -0.269 OA
BRANCH  28  31
ATOM     31  C   UNL     1      -9.117   4.539   2.514  1.00  0.00     0.039 A 
ATOM     32  C   UNL     1     -10.195   5.378   2.813  1.00  0.00     0.014 A 
ATOM     33  C   UNL     1      -7.865   5.080   2.283  1.00  0.00     0.014 A 
ATOM     34  C   UNL     1      -9.967   6.759   2.905  1.00  0.00     0.010 A 
ATOM     35  C   UNL     1      -7.607   6.365   2.650  1.00  0.00     0.010 A 
ATOM     36  C   UNL     1      -8.656   7.247   2.806  1.00  0.00    -0.014 A 
BRANCH  36  37
ATOM     37  C   UNL     1      -8.247   8.630   3.038  1.00  0.00     0.031 A 
ATOM     38  C   UNL     1      -8.566   9.091   4.407  1.00  0.00     0.074 A 
ATOM     39  C   UNL     1      -7.394   9.293   2.216  1.00  0.00     0.049 A 
ATOM     40  N   UNL     1      -9.493   9.928   4.733  1.00  0.00    -0.248 NA
ATOM     41  C   UNL     1      -7.967   8.396   5.560  1.00  0.00     0.031 C 
ATOM     42  C   UNL     1      -6.829   8.864   0.935  1.00  0.00     0.029 A 
ATOM     43  N   UNL     1      -6.761  10.486   2.405  1.00  0.00    -0.354 N 
ATOM     44  C   UNL     1      -9.375  10.093   6.105  1.00  0.00     0.074 A 
ATOM     45  C   UNL     1      -8.649   8.944   6.569  1.00  0.00     0.031 C 
ATOM     46  C   UNL     1      -5.779   9.651   0.593  1.00  0.00     0.029 A 
ATOM     47  C   UNL     1      -5.692  10.750   1.537  1.00  0.00     0.049 A 
ATOM     48  H   UNL     1      -7.037  11.120   3.106  1.00  0.00     0.167 HD
ATOM     49  C   UNL     1      -9.603  11.311   6.671  1.00  0.00     0.034 A 
ATOM     50  C   UNL     1      -4.847  11.828   1.544  1.00  0.00     0.034 A 
ATOM     51  C   UNL     1     -10.289  12.183   5.733  1.00  0.00     0.049 A 
ATOM     52  C   UNL     1      -5.588  12.903   2.247  1.00  0.00     0.074 A 
ATOM     53  C   UNL     1     -11.475  12.101   5.026  1.00  0.00     0.029 A 
ATOM     54  N   UNL     1      -9.539  13.133   5.070  1.00  0.00    -0.354 N 
ATOM     55  N   UNL     1      -6.684  13.422   1.761  1.00  0.00    -0.248 NA
ATOM     56  C   UNL     1      -5.442  12.989   3.692  1.00  0.00     0.031 C 
ATOM     57  C   UNL     1     -11.158  12.589   3.721  1.00  0.00     0.029 A 
ATOM     58  C   UNL     1      -9.841  13.051   3.731  1.00  0.00     0.049 A 
ATOM     59  H   UNL     1      -8.900  13.759   5.483  1.00  0.00     0.167 HD
ATOM     60  C   UNL     1      -7.554  13.480   2.838  1.00  0.00     0.074 A 
ATOM     61  C   UNL     1      -6.708  13.276   4.019  1.00  0.00     0.031 C 
ATOM     62  C   UNL     1      -8.906  13.368   2.665  1.00  0.00     0.034 A 
BRANCH  49  63
ATOM     63  C   UNL     1      -8.856  11.857   7.872  1.00  0.00     0.023 A 
ATOM     64  C   UNL     1      -9.176  13.170   8.265  1.00  0.00     0.031 A 
ATOM     65  C   UNL     1      -7.691  11.313   8.461  1.00  0.00     0.131 A 
ATOM     66  C   UNL     1      -8.304  13.918   9.073  1.00  0.00     0.055 A 
ATOM     67  C   UNL     1      -6.858  12.041   9.316  1.00  0.00     0.041 A 
ATOM     68  F   UNL     1      -7.233  10.087   8.192  1.00  0.00    -0.206 F 
ATOM     69  C   UNL     1      -7.141  13.364   9.597  1.00  0.00     0.022 A 
BRANCH  66  70
ATOM     70  S   UNL     1      -8.627  15.688   9.262  1.00  0.00     0.124 S 
ATOM     71  O   UNL     1      -8.750  16.111   7.872  1.00  0.00    -0.237 OA
ATOM     72  O   UNL     1      -9.857  15.683  10.047  1.00  0.00    -0.237 OA
ATOM     73  O   UNL     1      -7.440  16.173   9.962  1.00  0.00    -0.744 OA
ENDBRANCH  66  70
ENDBRANCH  49  63
BRANCH  50  74
ATOM     74  C   UNL     1      -3.349  11.825   1.420  1.00  0.00     0.023 A 
ATOM     75  C   UNL     1      -2.563  12.934   1.016  1.00  0.00     0.031 A 
ATOM     76  C   UNL     1      -2.637  10.739   1.973  1.00  0.00     0.131 A 
ATOM     77  C   UNL     1      -1.142  12.894   1.126  1.00  0.00     0.055 A 
ATOM     78  C   UNL     1      -1.240  10.687   2.046  1.00  0.00     0.041 A 
ATOM     79  F   UNL     1      -3.294   9.724   2.556  1.00  0.00    -0.206 F 
ATOM     80  C   UNL     1      -0.485  11.765   1.620  1.00  0.00     0.022 A 
BRANCH  77  81
ATOM     81  S   UNL     1      -0.109  14.354   0.727  1.00  0.00     0.124 S 
ATOM     82  O   UNL     1      -0.342  14.526  -0.702  1.00  0.00    -0.237 OA
ATOM     83  O   UNL     1      -0.664  15.378   1.604  1.00  0.00    -0.237 OA
ATOM     84  O   UNL     1       1.246  13.923   1.077  1.00  0.00    -0.744 OA
ENDBRANCH  77  81
ENDBRANCH  50  74
BRANCH  62  85
ATOM     85  C   UNL     1      -9.461  13.410   1.249  1.00  0.00     0.023 A 
ATOM     86  C   UNL     1      -9.165  12.485   0.216  1.00  0.00     0.031 A 
ATOM     87  C   UNL     1     -10.446  14.376   0.986  1.00  0.00     0.131 A 
ATOM     88  C   UNL     1      -9.845  12.561  -1.021  1.00  0.00     0.055 A 
ATOM     89  C   UNL     1     -11.131  14.434  -0.227  1.00  0.00     0.041 A 
ATOM     90  F   UNL     1     -10.791  15.267   1.930  1.00  0.00    -0.206 F 
ATOM     91  C   UNL     1     -10.831  13.529  -1.237  1.00  0.00     0.022 A 
BRANCH  88  92
ATOM     92  S   UNL     1      -9.453  11.414  -2.388  1.00  0.00     0.124 S 
ATOM     93  O   UNL     1      -7.999  11.479  -2.479  1.00  0.00    -0.237 OA
ATOM     94  O   UNL     1     -10.007  10.149  -1.912  1.00  0.00    -0.237 OA
ATOM     95  O   UNL     1     -10.161  11.992  -3.532  1.00  0.00    -0.744 OA
ENDBRANCH  88  92
ENDBRANCH  62  85
ENDBRANCH  36  37
ENDBRANCH  28  31
ENDBRANCH  26  27
ENDBRANCH  25  26
ENDBRANCH   1  25
TORSDOF 19
