REMARK SMILES CN(C)C(=O)CCNC(=O)NC[C@H]1CC[C@@H](C(=O)NCCCCNC(=O)c2ccc(-c3c4nc(c(-c5cc(S(=O)(=O)[O-])ccc5F)c5ccc([nH]5)c(-c5cc(S(=O)(=O)[O-])ccc5F)c5nc(c(-c6cc(S(=O)(=O)[O-])ccc6F)c6ccc3[nH]6)C=C5)C=C4)cc2)CC1
REMARK SMILES IDX 20 1 19 2 17 3 18 4 16 6 13 7 14 8 91 9 15 10 90 11 12 12
REMARK SMILES IDX 11 13 8 14 9 15 10 17 7 19 6 20 4 21 1 22 2 23 3 24 5 25
REMARK SMILES IDX 21 26 22 27 23 28 24 29 25 30 26 32 27 33 28 34 89 35 29 36
REMARK SMILES IDX 88 37 30 38 31 39 32 40 82 41 33 42 87 43 81 44 83 45 34 46
REMARK SMILES IDX 86 47 80 48 79 49 35 51 67 52 47 53 66 54 48 55 51 56 65 57
REMARK SMILES IDX 84 58 49 59 50 60 64 62 85 63 52 64 36 65 37 66 45 67 38 68
REMARK SMILES IDX 44 69 46 70 43 71 39 72 40 73 41 74 42 75 68 76 69 77 77 78
REMARK SMILES IDX 70 79 76 80 78 81 75 82 71 83 72 84 73 85 74 86 53 87 54 88
REMARK SMILES IDX 62 89 55 90 61 91 63 92 60 93 56 94 57 95 58 96 59 97
REMARK H PARENT 19 5 8 16 11 18 24 31 83 50 51 61
REMARK Flexibility Score: inf
ROOT
ATOM      1  C   UNL     1      -0.501   8.380   3.614  1.00  0.00     0.116 C 
ENDROOT
BRANCH   1   2
ATOM      2  N   UNL     1       0.296   9.504   4.045  1.00  0.00    -0.356 N 
ATOM      3  C   UNL     1       1.157  10.332   3.406  1.00  0.00     0.223 C 
ATOM      4  O   UNL     1       1.563  11.293   4.073  1.00  0.00    -0.275 OA
ATOM      5  H   UNL     1       0.192   9.711   5.001  1.00  0.00     0.163 HD
BRANCH   3   6
ATOM      6  C   UNL     1       1.660  10.170   1.962  1.00  0.00     0.078 C 
ATOM      7  C   UNL     1       0.612   7.996   0.135  1.00  0.00     0.008 C 
ATOM      8  C   UNL     1      -0.136   9.336   0.304  1.00  0.00     0.006 C 
ATOM      9  C   UNL     1       1.738   7.731   1.151  1.00  0.00     0.006 C 
ATOM     10  C   UNL     1       0.683  10.500   0.840  1.00  0.00     0.014 C 
ATOM     11  C   UNL     1       2.502   8.938   1.667  1.00  0.00     0.014 C 
BRANCH   7  12
ATOM     12  C   UNL     1      -0.415   6.825   0.136  1.00  0.00     0.121 C 
BRANCH  12  13
ATOM     13  N   UNL     1      -0.353   6.021  -1.063  1.00  0.00    -0.338 N 
ATOM     14  N   UNL     1       1.072   4.181  -0.646  1.00  0.00    -0.338 N 
ATOM     15  C   UNL     1       0.297   4.920  -1.441  1.00  0.00     0.314 C 
ATOM     16  H   UNL     1       1.590   3.512  -1.150  1.00  0.00     0.165 HD
ATOM     17  O   UNL     1       0.173   4.558  -2.613  1.00  0.00    -0.249 OA
ATOM     18  H   UNL     1      -0.934   6.371  -1.776  1.00  0.00     0.165 HD
BRANCH  14  19
ATOM     19  C   UNL     1       1.341   4.120   0.780  1.00  0.00     0.127 C 
BRANCH  19  20
ATOM     20  C   UNL     1       0.390   3.187   1.520  1.00  0.00     0.121 C 
BRANCH  20  21
ATOM     21  C   UNL     1       0.848   1.757   1.310  1.00  0.00     0.223 C 
ATOM     22  C   UNL     1       0.932  -0.252  -0.070  1.00  0.00     0.146 C 
ATOM     23  N   UNL     1       0.317   1.022   0.264  1.00  0.00    -0.349 N 
ATOM     24  C   UNL     1      -0.862   1.383  -0.511  1.00  0.00     0.146 C 
ATOM     25  O   UNL     1       1.761   1.319   2.018  1.00  0.00    -0.275 OA
ENDBRANCH  20  21
ENDBRANCH  19  20
ENDBRANCH  14  19
ENDBRANCH  12  13
ENDBRANCH   7  12
ENDBRANCH   3   6
ENDBRANCH   1   2
BRANCH   1  26
ATOM     26  C   UNL     1      -0.054   7.051   4.220  1.00  0.00     0.023 C 
BRANCH  26  27
ATOM     27  C   UNL     1      -0.956   6.515   5.325  1.00  0.00     0.023 C 
BRANCH  27  28
ATOM     28  C   UNL     1      -2.418   6.306   4.941  1.00  0.00     0.116 C 
BRANCH  28  29
ATOM     29  N   UNL     1      -2.631   5.438   3.789  1.00  0.00    -0.352 N 
ATOM     30  C   UNL     1      -3.682   4.568   3.576  1.00  0.00     0.251 C 
ATOM     31  H   UNL     1      -1.948   5.477   3.082  1.00  0.00     0.163 HD
ATOM     32  O   UNL     1      -3.703   3.855   2.578  1.00  0.00    -0.269 OA
BRANCH  30  33
ATOM     33  C   UNL     1      -4.740   4.477   4.607  1.00  0.00     0.039 A 
ATOM     34  C   UNL     1      -5.007   3.240   5.197  1.00  0.00     0.014 A 
ATOM     35  C   UNL     1      -5.351   5.638   5.087  1.00  0.00     0.014 A 
ATOM     36  C   UNL     1      -5.802   3.185   6.345  1.00  0.00     0.010 A 
ATOM     37  C   UNL     1      -6.070   5.590   6.277  1.00  0.00     0.010 A 
ATOM     38  C   UNL     1      -6.286   4.366   6.931  1.00  0.00    -0.014 A 
BRANCH  38  39
ATOM     39  C   UNL     1      -6.994   4.355   8.241  1.00  0.00     0.031 A 
ATOM     40  C   UNL     1      -8.407   4.864   8.335  1.00  0.00     0.074 A 
ATOM     41  C   UNL     1      -6.337   3.980   9.358  1.00  0.00     0.049 A 
ATOM     42  N   UNL     1      -9.152   5.053   9.394  1.00  0.00    -0.248 NA
ATOM     43  C   UNL     1      -9.049   5.251   7.070  1.00  0.00     0.031 C 
ATOM     44  C   UNL     1      -4.946   3.523   9.412  1.00  0.00     0.029 A 
ATOM     45  N   UNL     1      -6.747   3.934  10.668  1.00  0.00    -0.354 N 
ATOM     46  C   UNL     1     -10.342   5.601   8.926  1.00  0.00     0.074 A 
ATOM     47  C   UNL     1     -10.188   5.775   7.497  1.00  0.00     0.031 C 
ATOM     48  C   UNL     1      -4.629   3.217  10.681  1.00  0.00     0.029 A 
ATOM     49  C   UNL     1      -5.775   3.496  11.540  1.00  0.00     0.049 A 
ATOM     50  H   UNL     1      -7.652   4.190  10.957  1.00  0.00     0.167 HD
ATOM     51  C   UNL     1     -11.468   5.906   9.617  1.00  0.00     0.034 A 
ATOM     52  C   UNL     1      -5.801   3.345  12.879  1.00  0.00     0.034 A 
ATOM     53  C   UNL     1     -11.619   5.701  11.037  1.00  0.00     0.049 A 
ATOM     54  C   UNL     1      -7.067   3.681  13.626  1.00  0.00     0.074 A 
ATOM     55  C   UNL     1     -12.733   5.921  11.828  1.00  0.00     0.029 A 
ATOM     56  N   UNL     1     -10.623   5.226  11.880  1.00  0.00    -0.354 N 
ATOM     57  N   UNL     1      -8.199   4.156  13.161  1.00  0.00    -0.248 NA
ATOM     58  C   UNL     1      -7.061   3.452  15.077  1.00  0.00     0.031 C 
ATOM     59  C   UNL     1     -12.396   5.627  13.154  1.00  0.00     0.029 A 
ATOM     60  C   UNL     1     -11.091   5.163  13.184  1.00  0.00     0.049 A 
ATOM     61  H   UNL     1      -9.716   4.970  11.594  1.00  0.00     0.167 HD
ATOM     62  C   UNL     1      -9.050   4.250  14.259  1.00  0.00     0.074 A 
ATOM     63  C   UNL     1      -8.304   3.773  15.405  1.00  0.00     0.031 C 
ATOM     64  C   UNL     1     -10.333   4.687  14.315  1.00  0.00     0.034 A 
BRANCH  51  65
ATOM     65  C   UNL     1     -12.614   6.505   8.838  1.00  0.00     0.023 A 
ATOM     66  C   UNL     1     -13.253   5.793   7.808  1.00  0.00     0.031 A 
ATOM     67  C   UNL     1     -13.046   7.818   9.095  1.00  0.00     0.131 A 
ATOM     68  C   UNL     1     -14.222   6.424   7.015  1.00  0.00     0.055 A 
ATOM     69  C   UNL     1     -14.073   8.412   8.359  1.00  0.00     0.041 A 
ATOM     70  F   UNL     1     -12.462   8.555  10.053  1.00  0.00    -0.206 F 
ATOM     71  C   UNL     1     -14.656   7.721   7.300  1.00  0.00     0.022 A 
BRANCH  68  72
ATOM     72  S   UNL     1     -14.792   5.580   5.515  1.00  0.00     0.124 S 
ATOM     73  O   UNL     1     -13.545   5.445   4.764  1.00  0.00    -0.237 OA
ATOM     74  O   UNL     1     -15.357   4.344   6.042  1.00  0.00    -0.237 OA
ATOM     75  O   UNL     1     -15.758   6.516   4.942  1.00  0.00    -0.744 OA
ENDBRANCH  68  72
ENDBRANCH  51  65
BRANCH  52  76
ATOM     76  C   UNL     1      -4.600   2.853  13.613  1.00  0.00     0.023 A 
ATOM     77  C   UNL     1      -4.618   1.613  14.272  1.00  0.00     0.031 A 
ATOM     78  C   UNL     1      -3.436   3.634  13.709  1.00  0.00     0.131 A 
ATOM     79  C   UNL     1      -3.514   1.213  15.041  1.00  0.00     0.055 A 
ATOM     80  C   UNL     1      -2.321   3.210  14.435  1.00  0.00     0.041 A 
ATOM     81  F   UNL     1      -3.363   4.824  13.091  1.00  0.00    -0.206 F 
ATOM     82  C   UNL     1      -2.362   1.998  15.119  1.00  0.00     0.022 A 
BRANCH  79  83
ATOM     83  S   UNL     1      -3.642  -0.314  16.012  1.00  0.00     0.124 S 
ATOM     84  O   UNL     1      -4.810  -0.043  16.842  1.00  0.00    -0.237 OA
ATOM     85  O   UNL     1      -3.814  -1.321  14.970  1.00  0.00    -0.237 OA
ATOM     86  O   UNL     1      -2.368  -0.371  16.726  1.00  0.00    -0.744 OA
ENDBRANCH  79  83
ENDBRANCH  52  76
BRANCH  64  87
ATOM     87  C   UNL     1     -11.021   4.616  15.655  1.00  0.00     0.023 A 
ATOM     88  C   UNL     1     -10.643   5.445  16.725  1.00  0.00     0.031 A 
ATOM     89  C   UNL     1     -12.062   3.694  15.864  1.00  0.00     0.131 A 
ATOM     90  C   UNL     1     -11.269   5.301  17.973  1.00  0.00     0.055 A 
ATOM     91  C   UNL     1     -12.716   3.592  17.091  1.00  0.00     0.041 A 
ATOM     92  F   UNL     1     -12.460   2.878  14.874  1.00  0.00    -0.206 F 
ATOM     93  C   UNL     1     -12.312   4.390  18.158  1.00  0.00     0.022 A 
BRANCH  90  94
ATOM     94  S   UNL     1     -10.647   6.267  19.376  1.00  0.00     0.124 S 
ATOM     95  O   UNL     1      -9.258   5.827  19.456  1.00  0.00    -0.237 OA
ATOM     96  O   UNL     1     -10.856   7.640  18.927  1.00  0.00    -0.237 OA
ATOM     97  O   UNL     1     -11.497   5.844  20.488  1.00  0.00    -0.744 OA
ENDBRANCH  90  94
ENDBRANCH  64  87
ENDBRANCH  38  39
ENDBRANCH  30  33
ENDBRANCH  28  29
ENDBRANCH  27  28
ENDBRANCH  26  27
ENDBRANCH   1  26
TORSDOF 19
