REMARK SMILES Cc1ccccc1NC(=O)CSc1nc(C(=O)NCCCCNC(=O)c2ccc(-c3c4nc(c(-c5cc(S(=O)(=O)[O-])ccc5F)c5ccc([nH]5)c(-c5cc(S(=O)(=O)[O-])ccc5F)c5nc(c(-c6cc(S(=O)(=O)[O-])ccc6F)c6ccc3[nH]6)C=C5)C=C4)cc2)c2ccccc2n1
REMARK SMILES IDX 20 1 19 2 18 3 16 4 17 5 15 7 13 8 14 9 95 10 94 11 89 12
REMARK SMILES IDX 93 13 90 14 92 15 91 16 12 17 11 18 9 19 8 20 10 22 7 23
REMARK SMILES IDX 1 24 2 25 3 26 4 27 6 28 5 29 21 30 22 31 23 32 24 33 25 35
REMARK SMILES IDX 26 36 27 37 88 38 28 39 87 40 29 41 30 42 31 43 81 44 32 45
REMARK SMILES IDX 86 46 80 47 82 48 33 49 85 50 79 51 78 52 34 54 66 55 46 56
REMARK SMILES IDX 65 57 47 58 50 59 64 60 83 61 48 62 49 63 63 65 84 66 51 67
REMARK SMILES IDX 35 68 36 69 44 70 37 71 43 72 45 73 42 74 38 75 39 76 40 77
REMARK SMILES IDX 41 78 67 79 68 80 76 81 69 82 75 83 77 84 74 85 70 86 71 87
REMARK SMILES IDX 72 88 73 89 52 90 53 91 61 92 54 93 60 94 62 95 59 96 55 97
REMARK SMILES IDX 56 98 57 99 58 100
REMARK H PARENT 18 6 8 21 23 34 82 53 50 64
REMARK Flexibility Score: inf
ROOT
ATOM      1  C   UNL     1      -2.669   7.257  -7.917  1.00  0.00     0.023 C 
ENDROOT
BRANCH   1   2
ATOM      2  C   UNL     1      -1.507   6.880  -7.002  1.00  0.00     0.116 C 
BRANCH   2   3
ATOM      3  N   UNL     1      -1.450   7.559  -5.714  1.00  0.00    -0.351 N 
ATOM      4  C   UNL     1      -1.077   7.096  -4.459  1.00  0.00     0.270 C 
ATOM      5  O   UNL     1      -1.028   7.920  -3.543  1.00  0.00    -0.267 OA
ATOM      6  H   UNL     1      -1.722   8.505  -5.737  1.00  0.00     0.163 HD
BRANCH   4   7
ATOM      7  C   UNL     1      -0.859   5.637  -4.150  1.00  0.00     0.140 A 
ATOM      8  C   UNL     1      -1.567   3.923  -2.826  1.00  0.00     0.189 A 
ATOM      9  N   UNL     1      -1.540   5.233  -3.046  1.00  0.00    -0.217 NA
ATOM     10  N   UNL     1      -1.094   2.991  -3.660  1.00  0.00    -0.222 NA
ATOM     11  C   UNL     1      -0.411   3.411  -4.726  1.00  0.00     0.076 A 
ATOM     12  C   UNL     1      -0.153   4.760  -4.980  1.00  0.00     0.032 A 
ATOM     13  C   UNL     1       0.021   2.461  -5.643  1.00  0.00     0.029 A 
ATOM     14  C   UNL     1       0.719   5.105  -6.038  1.00  0.00     0.013 A 
ATOM     15  C   UNL     1       0.745   2.818  -6.778  1.00  0.00     0.002 A 
ATOM     16  C   UNL     1       1.120   4.140  -6.954  1.00  0.00     0.001 A 
BRANCH   8  17
ATOM     17  S   UNL     1      -2.452   3.324  -1.420  1.00  0.00    -0.076 SA
BRANCH  17  18
ATOM     18  C   UNL     1      -1.404   3.967  -0.087  1.00  0.00     0.178 C 
BRANCH  18  19
ATOM     19  C   UNL     1       0.058   3.594  -0.182  1.00  0.00     0.234 C 
ATOM     20  N   UNL     1       0.575   2.344  -0.036  1.00  0.00    -0.325 N 
ATOM     21  H   UNL     1       1.558   2.350  -0.083  1.00  0.00     0.169 HD
ATOM     22  O   UNL     1       0.895   4.492  -0.357  1.00  0.00    -0.274 OA
BRANCH  20  23
ATOM     23  C   UNL     1       0.071   1.045   0.166  1.00  0.00     0.044 A 
ATOM     24  C   UNL     1       2.440   0.037  -0.182  1.00  0.00     0.046 C 
ATOM     25  C   UNL     1       0.948  -0.059   0.028  1.00  0.00    -0.027 A 
ATOM     26  C   UNL     1       0.425  -1.369   0.060  1.00  0.00     0.005 A 
ATOM     27  C   UNL     1      -0.927  -1.600   0.276  1.00  0.00     0.000 A 
ATOM     28  C   UNL     1      -1.266   0.782   0.474  1.00  0.00     0.026 A 
ATOM     29  C   UNL     1      -1.768  -0.524   0.510  1.00  0.00     0.002 A 
ENDBRANCH  20  23
ENDBRANCH  18  19
ENDBRANCH  17  18
ENDBRANCH   8  17
ENDBRANCH   4   7
ENDBRANCH   2   3
ENDBRANCH   1   2
BRANCH   1  30
ATOM     30  C   UNL     1      -2.800   8.723  -8.298  1.00  0.00     0.023 C 
BRANCH  30  31
ATOM     31  C   UNL     1      -1.588   9.366  -8.964  1.00  0.00     0.116 C 
BRANCH  31  32
ATOM     32  N   UNL     1      -1.501   9.183 -10.409  1.00  0.00    -0.352 N 
ATOM     33  C   UNL     1      -0.678   9.823 -11.336  1.00  0.00     0.251 C 
ATOM     34  H   UNL     1      -2.113   8.510 -10.785  1.00  0.00     0.163 HD
ATOM     35  O   UNL     1      -0.769   9.579 -12.521  1.00  0.00    -0.269 OA
BRANCH  33  36
ATOM     36  C   UNL     1       0.383  10.745 -10.846  1.00  0.00     0.039 A 
ATOM     37  C   UNL     1       1.694  10.566 -11.306  1.00  0.00     0.014 A 
ATOM     38  C   UNL     1       0.128  11.627  -9.805  1.00  0.00     0.014 A 
ATOM     39  C   UNL     1       2.757  11.065 -10.554  1.00  0.00     0.010 A 
ATOM     40  C   UNL     1       1.170  11.984  -8.979  1.00  0.00     0.010 A 
ATOM     41  C   UNL     1       2.485  11.657  -9.324  1.00  0.00    -0.014 A 
BRANCH  41  42
ATOM     42  C   UNL     1       3.472  11.852  -8.266  1.00  0.00     0.031 A 
ATOM     43  C   UNL     1       3.791  13.209  -7.773  1.00  0.00     0.074 A 
ATOM     44  C   UNL     1       3.931  10.767  -7.604  1.00  0.00     0.049 A 
ATOM     45  N   UNL     1       4.766  13.494  -6.981  1.00  0.00    -0.248 NA
ATOM     46  C   UNL     1       3.039  14.386  -8.189  1.00  0.00     0.031 C 
ATOM     47  C   UNL     1       4.566  10.724  -6.290  1.00  0.00     0.029 A 
ATOM     48  N   UNL     1       4.128   9.487  -8.127  1.00  0.00    -0.354 N 
ATOM     49  C   UNL     1       4.600  14.791  -6.548  1.00  0.00     0.074 A 
ATOM     50  C   UNL     1       3.554  15.321  -7.388  1.00  0.00     0.031 C 
ATOM     51  C   UNL     1       5.300   9.605  -6.199  1.00  0.00     0.029 A 
ATOM     52  C   UNL     1       5.291   8.985  -7.511  1.00  0.00     0.049 A 
ATOM     53  H   UNL     1       3.567   9.028  -8.793  1.00  0.00     0.167 HD
ATOM     54  C   UNL     1       5.282  15.208  -5.443  1.00  0.00     0.034 A 
ATOM     55  C   UNL     1       6.408   8.710  -8.245  1.00  0.00     0.034 A 
ATOM     56  C   UNL     1       6.271  14.206  -5.029  1.00  0.00     0.049 A 
ATOM     57  C   UNL     1       7.623   9.499  -7.830  1.00  0.00     0.074 A 
ATOM     58  C   UNL     1       6.313  13.266  -4.012  1.00  0.00     0.029 A 
ATOM     59  N   UNL     1       7.313  13.888  -5.896  1.00  0.00    -0.354 N 
ATOM     60  N   UNL     1       7.584  10.596  -7.123  1.00  0.00    -0.248 NA
ATOM     61  C   UNL     1       8.981   9.104  -8.178  1.00  0.00     0.031 C 
ATOM     62  C   UNL     1       7.354  12.344  -4.310  1.00  0.00     0.029 A 
ATOM     63  C   UNL     1       7.967  12.743  -5.486  1.00  0.00     0.049 A 
ATOM     64  H   UNL     1       7.552  14.411  -6.695  1.00  0.00     0.167 HD
ATOM     65  C   UNL     1       8.861  11.063  -6.925  1.00  0.00     0.074 A 
ATOM     66  C   UNL     1       9.698  10.074  -7.585  1.00  0.00     0.031 C 
ATOM     67  C   UNL     1       9.105  12.226  -6.244  1.00  0.00     0.034 A 
BRANCH  54  68
ATOM     68  C   UNL     1       4.885  16.388  -4.569  1.00  0.00     0.023 A 
ATOM     69  C   UNL     1       5.290  16.404  -3.215  1.00  0.00     0.031 A 
ATOM     70  C   UNL     1       4.072  17.473  -4.952  1.00  0.00     0.131 A 
ATOM     71  C   UNL     1       4.824  17.381  -2.311  1.00  0.00     0.055 A 
ATOM     72  C   UNL     1       3.569  18.418  -4.046  1.00  0.00     0.041 A 
ATOM     73  F   UNL     1       3.765  17.721  -6.228  1.00  0.00    -0.206 F 
ATOM     74  C   UNL     1       3.934  18.369  -2.713  1.00  0.00     0.022 A 
BRANCH  71  75
ATOM     75  S   UNL     1       5.395  17.345  -0.589  1.00  0.00     0.124 S 
ATOM     76  O   UNL     1       4.926  16.040  -0.135  1.00  0.00    -0.237 OA
ATOM     77  O   UNL     1       6.837  17.500  -0.738  1.00  0.00    -0.237 OA
ATOM     78  O   UNL     1       4.714  18.489   0.017  1.00  0.00    -0.744 OA
ENDBRANCH  71  75
ENDBRANCH  54  68
BRANCH  55  79
ATOM     79  C   UNL     1       6.102   8.227  -9.621  1.00  0.00     0.023 A 
ATOM     80  C   UNL     1       5.351   7.039  -9.711  1.00  0.00     0.031 A 
ATOM     81  C   UNL     1       6.125   9.076 -10.735  1.00  0.00     0.131 A 
ATOM     82  C   UNL     1       4.495   6.829 -10.800  1.00  0.00     0.055 A 
ATOM     83  C   UNL     1       5.330   8.817 -11.861  1.00  0.00     0.041 A 
ATOM     84  F   UNL     1       6.798  10.236 -10.697  1.00  0.00    -0.206 F 
ATOM     85  C   UNL     1       4.468   7.720 -11.873  1.00  0.00     0.022 A 
BRANCH  82  86
ATOM     86  S   UNL     1       3.205   5.561 -10.672  1.00  0.00     0.124 S 
ATOM     87  O   UNL     1       3.672   4.537 -11.598  1.00  0.00    -0.237 OA
ATOM     88  O   UNL     1       3.249   5.194  -9.260  1.00  0.00    -0.237 OA
ATOM     89  O   UNL     1       1.997   6.279 -11.067  1.00  0.00    -0.744 OA
ENDBRANCH  82  86
ENDBRANCH  55  79
BRANCH  67  90
ATOM     90  C   UNL     1      10.434  12.963  -6.159  1.00  0.00     0.023 A 
ATOM     91  C   UNL     1      11.571  12.614  -6.902  1.00  0.00     0.031 A 
ATOM     92  C   UNL     1      10.582  14.118  -5.348  1.00  0.00     0.131 A 
ATOM     93  C   UNL     1      12.782  13.322  -6.778  1.00  0.00     0.055 A 
ATOM     94  C   UNL     1      11.763  14.866  -5.281  1.00  0.00     0.041 A 
ATOM     95  F   UNL     1       9.581  14.590  -4.592  1.00  0.00    -0.206 F 
ATOM     96  C   UNL     1      12.882  14.461  -5.988  1.00  0.00     0.022 A 
BRANCH  93  97
ATOM     97  S   UNL     1      14.240  12.677  -7.640  1.00  0.00     0.124 S 
ATOM     98  O   UNL     1      14.414  11.374  -7.004  1.00  0.00    -0.237 OA
ATOM     99  O   UNL     1      13.794  12.646  -9.029  1.00  0.00    -0.237 OA
ATOM    100  O   UNL     1      15.281  13.658  -7.342  1.00  0.00    -0.744 OA
ENDBRANCH  93  97
ENDBRANCH  67  90
ENDBRANCH  41  42
ENDBRANCH  33  36
ENDBRANCH  31  32
ENDBRANCH  30  31
ENDBRANCH   1  30
TORSDOF 18
