REMARK SMILES CCN1C(=O)[C@H](CC(=O)Nc2ccc(C(=O)NCCCCNC(=O)c3ccc(-c4c5nc(c(-c6cc(S(=O)(=O)[O-])ccc6F)c6ccc([nH]6)c(-c6cc(S(=O)(=O)[O-])ccc6F)c6nc(c(-c7cc(S(=O)(=O)[O-])ccc7F)c7ccc4[nH]7)C=C6)C=C5)cc3)cc2)S/C1=[NH+]\c1ccc(Cl)cc1
REMARK SMILES IDX 19 1 18 2 17 3 15 4 16 5 14 7 11 8 12 9 89 10 13 11 88 12
REMARK SMILES IDX 10 13 8 14 9 15 7 17 6 18 3 19 4 20 91 21 5 22 90 23 92 24
REMARK SMILES IDX 2 26 1 27 93 28 94 29 99 30 95 31 98 32 96 33 97 34 20 35
REMARK SMILES IDX 21 36 22 37 23 38 24 40 25 41 26 42 87 43 27 44 86 45 28 46
REMARK SMILES IDX 29 47 30 48 80 49 31 50 85 51 79 52 81 53 32 54 84 55 78 56
REMARK SMILES IDX 77 57 33 59 65 60 45 61 64 62 46 63 49 64 63 65 82 66 47 67
REMARK SMILES IDX 48 68 62 70 83 71 50 72 34 73 35 74 43 75 36 76 42 77 44 78
REMARK SMILES IDX 41 79 37 80 38 81 39 82 40 83 66 84 67 85 75 86 68 87 74 88
REMARK SMILES IDX 76 89 73 90 69 91 70 92 71 93 72 94 51 95 52 96 60 97 53 98
REMARK SMILES IDX 59 99 61 100 58 101 54 102 55 103 56 104 57 105
REMARK H PARENT 17 6 10 16 92 25 22 39 81 58 49 69
REMARK Flexibility Score: inf
ROOT
ATOM      1  C   UNL     1      -0.511  -0.460  -0.682  1.00  0.00     0.023 C 
ENDROOT
BRANCH   1   2
ATOM      2  C   UNL     1      -1.499  -0.568   0.488  1.00  0.00     0.116 C 
BRANCH   2   3
ATOM      3  N   UNL     1      -1.658  -1.937   0.979  1.00  0.00    -0.352 N 
ATOM      4  C   UNL     1      -1.418  -2.490   2.222  1.00  0.00     0.251 C 
ATOM      5  O   UNL     1      -1.914  -3.579   2.503  1.00  0.00    -0.269 OA
ATOM      6  H   UNL     1      -1.994  -2.574   0.307  1.00  0.00     0.163 HD
BRANCH   4   7
ATOM      7  C   UNL     1      -0.559  -1.821   3.234  1.00  0.00     0.039 A 
ATOM      8  C   UNL     1       1.060  -0.529   5.149  1.00  0.00     0.041 A 
ATOM      9  C   UNL     1       0.018  -1.351   5.568  1.00  0.00     0.027 A 
ATOM     10  C   UNL     1       1.381  -0.507   3.796  1.00  0.00     0.027 A 
ATOM     11  C   UNL     1      -0.802  -1.981   4.609  1.00  0.00     0.016 A 
ATOM     12  C   UNL     1       0.589  -1.148   2.845  1.00  0.00     0.016 A 
BRANCH   8  13
ATOM     13  N   UNL     1       1.843   0.193   6.067  1.00  0.00    -0.326 N 
ATOM     14  C   UNL     1       2.418   1.437   5.886  1.00  0.00     0.226 C 
ATOM     15  O   UNL     1       3.386   1.779   6.566  1.00  0.00    -0.275 OA
ATOM     16  H   UNL     1       2.000  -0.238   6.939  1.00  0.00     0.169 HD
BRANCH  14  17
ATOM     17  C   UNL     1       1.674   2.449   5.015  1.00  0.00     0.128 C 
BRANCH  17  18
ATOM     18  C   UNL     1       2.541   3.211   4.013  1.00  0.00     0.183 C 
ATOM     19  N   UNL     1       2.287   2.186   1.869  1.00  0.00    -0.190 N 
ATOM     20  C   UNL     1       3.112   2.278   2.970  1.00  0.00     0.324 C 
ATOM     21  C   UNL     1       1.313   3.143   1.736  1.00  0.00     0.319 C 
ATOM     22  O   UNL     1       4.123   1.608   3.147  1.00  0.00    -0.245 OA
ATOM     23  S   UNL     1       1.453   4.315   3.025  1.00  0.00    -0.022 SA
ATOM     24  N   UNL     1       0.459   3.108   0.767  1.00  0.00    -0.235 N 
ATOM     25  H   UNL     1       0.427   2.316   0.183  1.00  0.00     0.313 HD
BRANCH  19  26
ATOM     26  C   UNL     1       2.439   1.093   0.924  1.00  0.00     0.243 C 
ATOM     27  C   UNL     1       3.075   1.464  -0.398  1.00  0.00     0.054 C 
ENDBRANCH  19  26
BRANCH  24  28
ATOM     28  C   UNL     1      -0.424   4.170   0.524  1.00  0.00     0.125 A 
ATOM     29  C   UNL     1      -1.802   4.019   0.707  1.00  0.00     0.053 A 
ATOM     30  C   UNL     1       0.055   5.351  -0.055  1.00  0.00     0.053 A 
ATOM     31  C   UNL     1      -2.683   5.046   0.344  1.00  0.00     0.025 A 
ATOM     32  C   UNL     1      -0.817   6.381  -0.413  1.00  0.00     0.025 A 
ATOM     33  C   UNL     1      -2.185   6.224  -0.212  1.00  0.00     0.041 A 
ATOM     34  Cl  UNL     1      -3.262   7.487  -0.663  1.00  0.00    -0.084 Cl
ENDBRANCH  24  28
ENDBRANCH  17  18
ENDBRANCH  14  17
ENDBRANCH   8  13
ENDBRANCH   4   7
ENDBRANCH   2   3
ENDBRANCH   1   2
BRANCH   1  35
ATOM     35  C   UNL     1      -1.124  -0.518  -2.080  1.00  0.00     0.023 C 
BRANCH  35  36
ATOM     36  C   UNL     1      -1.879   0.748  -2.493  1.00  0.00     0.116 C 
BRANCH  36  37
ATOM     37  N   UNL     1      -1.031   1.921  -2.699  1.00  0.00    -0.352 N 
ATOM     38  C   UNL     1      -1.069   2.848  -3.724  1.00  0.00     0.251 C 
ATOM     39  H   UNL     1      -0.340   2.072  -2.014  1.00  0.00     0.163 HD
ATOM     40  O   UNL     1      -0.220   3.734  -3.789  1.00  0.00    -0.269 OA
BRANCH  38  41
ATOM     41  C   UNL     1      -2.110   2.732  -4.774  1.00  0.00     0.039 A 
ATOM     42  C   UNL     1      -1.743   2.785  -6.122  1.00  0.00     0.014 A 
ATOM     43  C   UNL     1      -3.438   2.489  -4.423  1.00  0.00     0.014 A 
ATOM     44  C   UNL     1      -2.683   2.467  -7.109  1.00  0.00     0.010 A 
ATOM     45  C   UNL     1      -4.343   2.079  -5.397  1.00  0.00     0.010 A 
ATOM     46  C   UNL     1      -3.973   2.042  -6.752  1.00  0.00    -0.014 A 
BRANCH  46  47
ATOM     47  C   UNL     1      -4.954   1.536  -7.754  1.00  0.00     0.031 A 
ATOM     48  C   UNL     1      -6.300   2.199  -7.888  1.00  0.00     0.074 A 
ATOM     49  C   UNL     1      -4.688   0.416  -8.459  1.00  0.00     0.049 A 
ATOM     50  N   UNL     1      -7.357   1.811  -8.554  1.00  0.00    -0.248 NA
ATOM     51  C   UNL     1      -6.492   3.442  -7.127  1.00  0.00     0.031 C 
ATOM     52  C   UNL     1      -3.443  -0.352  -8.395  1.00  0.00     0.029 A 
ATOM     53  N   UNL     1      -5.457  -0.284  -9.357  1.00  0.00    -0.354 N 
ATOM     54  C   UNL     1      -8.349   2.744  -8.267  1.00  0.00     0.074 A 
ATOM     55  C   UNL     1      -7.782   3.672  -7.312  1.00  0.00     0.031 C 
ATOM     56  C   UNL     1      -3.522  -1.396  -9.237  1.00  0.00     0.029 A 
ATOM     57  C   UNL     1      -4.842  -1.409  -9.861  1.00  0.00     0.049 A 
ATOM     58  H   UNL     1      -6.366  -0.007  -9.617  1.00  0.00     0.167 HD
ATOM     59  C   UNL     1      -9.605   2.836  -8.773  1.00  0.00     0.034 A 
ATOM     60  C   UNL     1      -5.292  -2.351 -10.714  1.00  0.00     0.034 A 
ATOM     61  C   UNL     1     -10.146   1.921  -9.748  1.00  0.00     0.049 A 
ATOM     62  C   UNL     1      -6.695  -2.239 -11.255  1.00  0.00     0.074 A 
ATOM     63  C   UNL     1     -11.384   1.952 -10.368  1.00  0.00     0.029 A 
ATOM     64  N   UNL     1      -9.481   0.809 -10.250  1.00  0.00    -0.354 N 
ATOM     65  N   UNL     1      -7.609  -1.332 -10.998  1.00  0.00    -0.248 NA
ATOM     66  C   UNL     1      -7.126  -3.273 -12.205  1.00  0.00     0.031 C 
ATOM     67  C   UNL     1     -11.489   0.831 -11.199  1.00  0.00     0.029 A 
ATOM     68  C   UNL     1     -10.290   0.137 -11.153  1.00  0.00     0.049 A 
ATOM     69  H   UNL     1      -8.569   0.538 -10.000  1.00  0.00     0.167 HD
ATOM     70  C   UNL     1      -8.708  -1.667 -11.785  1.00  0.00     0.074 A 
ATOM     71  C   UNL     1      -8.341  -2.855 -12.528  1.00  0.00     0.031 C 
ATOM     72  C   UNL     1      -9.910  -1.046 -11.889  1.00  0.00     0.034 A 
BRANCH  59  73
ATOM     73  C   UNL     1     -10.475   3.960  -8.259  1.00  0.00     0.023 A 
ATOM     74  C   UNL     1     -10.114   5.307  -8.433  1.00  0.00     0.031 A 
ATOM     75  C   UNL     1     -11.654   3.685  -7.543  1.00  0.00     0.131 A 
ATOM     76  C   UNL     1     -10.860   6.320  -7.814  1.00  0.00     0.055 A 
ATOM     77  C   UNL     1     -12.446   4.705  -7.010  1.00  0.00     0.041 A 
ATOM     78  F   UNL     1     -12.045   2.419  -7.328  1.00  0.00    -0.206 F 
ATOM     79  C   UNL     1     -12.040   6.031  -7.126  1.00  0.00     0.022 A 
BRANCH  76  80
ATOM     80  S   UNL     1     -10.169   7.996  -7.775  1.00  0.00     0.124 S 
ATOM     81  O   UNL     1      -8.902   7.774  -7.083  1.00  0.00    -0.237 OA
ATOM     82  O   UNL     1     -10.074   8.332  -9.191  1.00  0.00    -0.237 OA
ATOM     83  O   UNL     1     -11.160   8.758  -7.017  1.00  0.00    -0.744 OA
ENDBRANCH  76  80
ENDBRANCH  59  73
BRANCH  60  84
ATOM     84  C   UNL     1      -4.417  -3.491 -11.117  1.00  0.00     0.023 A 
ATOM     85  C   UNL     1      -3.995  -3.636 -12.448  1.00  0.00     0.031 A 
ATOM     86  C   UNL     1      -4.028  -4.476 -10.192  1.00  0.00     0.131 A 
ATOM     87  C   UNL     1      -3.251  -4.763 -12.830  1.00  0.00     0.055 A 
ATOM     88  C   UNL     1      -3.244  -5.570 -10.566  1.00  0.00     0.041 A 
ATOM     89  F   UNL     1      -4.399  -4.385  -8.905  1.00  0.00    -0.206 F 
ATOM     90  C   UNL     1      -2.861  -5.725 -11.895  1.00  0.00     0.022 A 
BRANCH  87  91
ATOM     91  S   UNL     1      -2.869  -4.997 -14.588  1.00  0.00     0.124 S 
ATOM     92  O   UNL     1      -4.202  -5.030 -15.179  1.00  0.00    -0.237 OA
ATOM     93  O   UNL     1      -2.064  -3.816 -14.882  1.00  0.00    -0.237 OA
ATOM     94  O   UNL     1      -2.143  -6.265 -14.612  1.00  0.00    -0.744 OA
ENDBRANCH  87  91
ENDBRANCH  60  84
BRANCH  72  95
ATOM     95  C   UNL     1     -10.890  -1.604 -12.890  1.00  0.00     0.023 A 
ATOM     96  C   UNL     1     -11.508  -2.853 -12.709  1.00  0.00     0.031 A 
ATOM     97  C   UNL     1     -11.213  -0.866 -14.043  1.00  0.00     0.131 A 
ATOM     98  C   UNL     1     -12.384  -3.347 -13.689  1.00  0.00     0.055 A 
ATOM     99  C   UNL     1     -12.125  -1.338 -14.987  1.00  0.00     0.041 A 
ATOM    100  F   UNL     1     -10.649   0.333 -14.266  1.00  0.00    -0.206 F 
ATOM    101  C   UNL     1     -12.709  -2.590 -14.818  1.00  0.00     0.022 A 
BRANCH  98 102
ATOM    102  S   UNL     1     -13.042  -5.027 -13.505  1.00  0.00     0.124 S 
ATOM    103  O   UNL     1     -11.823  -5.831 -13.489  1.00  0.00    -0.237 OA
ATOM    104  O   UNL     1     -13.766  -4.943 -12.241  1.00  0.00    -0.237 OA
ATOM    105  O   UNL     1     -13.882  -5.199 -14.689  1.00  0.00    -0.744 OA
ENDBRANCH  98 102
ENDBRANCH  72  95
ENDBRANCH  46  47
ENDBRANCH  38  41
ENDBRANCH  36  37
ENDBRANCH  35  36
ENDBRANCH   1  35
TORSDOF 19
