REMARK SMILES COc1ccccc1-n1nnc(C(=O)NCCCCNC(=O)c2ccc(-c3c4nc(c(-c5cc(S(=O)(=O)[O-])ccc5F)c5ccc([nH]5)c(-c5cc(S(=O)(=O)[O-])ccc5F)c5nc(c(-c6cc(S(=O)(=O)[O-])ccc6F)c6ccc3[nH]6)C=C5)C=C4)cc2)c1-c1ccc(Cl)cc1
REMARK SMILES IDX 18 1 17 2 16 3 15 4 13 5 14 6 12 8 9 9 10 10 86 11 11 12
REMARK SMILES IDX 8 13 3 14 4 15 5 16 7 17 6 18 2 19 1 20 87 21 88 22 93 23
REMARK SMILES IDX 89 24 92 25 90 26 91 27 19 28 20 29 21 30 22 32 23 33 24 34
REMARK SMILES IDX 85 35 25 36 84 37 26 38 27 39 28 40 78 41 29 42 83 43 77 44
REMARK SMILES IDX 79 45 30 46 82 47 76 48 75 49 31 51 63 52 43 53 62 54 44 55
REMARK SMILES IDX 47 56 61 57 80 58 45 59 46 60 60 62 81 63 48 64 32 65 33 66
REMARK SMILES IDX 41 67 34 68 40 69 42 70 39 71 35 72 36 73 37 74 38 75 64 76
REMARK SMILES IDX 65 77 73 78 66 79 72 80 74 81 71 82 67 83 68 84 69 85 70 86
REMARK SMILES IDX 49 87 50 88 58 89 51 90 57 91 59 92 56 93 52 94 53 95 54 96
REMARK SMILES IDX 55 97
REMARK H PARENT 15 7 20 31 79 50 47 61
REMARK Flexibility Score: inf
ROOT
ATOM      1  C   UNL     1       5.541   3.883   4.498  1.00  0.00     0.023 C 
ENDROOT
BRANCH   1   2
ATOM      2  C   UNL     1       5.488   2.434   4.018  1.00  0.00     0.023 C 
BRANCH   2   3
ATOM      3  C   UNL     1       4.765   2.110   2.717  1.00  0.00     0.116 C 
BRANCH   3   4
ATOM      4  N   UNL     1       5.449   2.214   1.459  1.00  0.00    -0.351 N 
ATOM      5  C   UNL     1       5.303   1.406   0.339  1.00  0.00     0.274 C 
ATOM      6  O   UNL     1       5.990   1.726  -0.636  1.00  0.00    -0.267 OA
ATOM      7  H   UNL     1       6.100   2.949   1.381  1.00  0.00     0.163 HD
BRANCH   5   8
ATOM      8  C   UNL     1       4.455   0.192   0.283  1.00  0.00     0.178 A 
ATOM      9  N   UNL     1       3.062  -1.515   0.400  1.00  0.00    -0.208 N 
ATOM     10  N   UNL     1       4.069  -1.871  -0.420  1.00  0.00    -0.061 NA
ATOM     11  C   UNL     1       3.304  -0.250   0.946  1.00  0.00     0.108 A 
ATOM     12  N   UNL     1       4.850  -0.818  -0.583  1.00  0.00    -0.124 NA
BRANCH   9  13
ATOM     13  C   UNL     1       2.062  -2.444   0.786  1.00  0.00     0.109 A 
ATOM     14  C   UNL     1       0.731  -2.058   0.997  1.00  0.00     0.144 A 
ATOM     15  C   UNL     1      -0.109  -2.891   1.742  1.00  0.00     0.049 A 
ATOM     16  C   UNL     1       0.349  -4.119   2.221  1.00  0.00     0.004 A 
ATOM     17  C   UNL     1       2.500  -3.716   1.197  1.00  0.00     0.032 A 
ATOM     18  C   UNL     1       1.644  -4.541   1.930  1.00  0.00     0.003 A 
BRANCH  14  19
ATOM     19  O   UNL     1       0.162  -0.870   0.627  1.00  0.00    -0.494 OA
ATOM     20  C   UNL     1       0.286  -0.530  -0.753  1.00  0.00     0.278 C 
ENDBRANCH  14  19
ENDBRANCH   9  13
BRANCH  11  21
ATOM     21  C   UNL     1       2.530   0.230   2.090  1.00  0.00     0.003 A 
ATOM     22  C   UNL     1       1.677   1.333   2.002  1.00  0.00     0.012 A 
ATOM     23  C   UNL     1       2.668  -0.442   3.323  1.00  0.00     0.012 A 
ATOM     24  C   UNL     1       0.980   1.761   3.137  1.00  0.00     0.021 A 
ATOM     25  C   UNL     1       1.995   0.005   4.456  1.00  0.00     0.021 A 
ATOM     26  C   UNL     1       1.153   1.106   4.357  1.00  0.00     0.041 A 
ATOM     27  Cl  UNL     1       0.326   1.654   5.758  1.00  0.00    -0.084 Cl
ENDBRANCH  11  21
ENDBRANCH   5   8
ENDBRANCH   3   4
ENDBRANCH   2   3
ENDBRANCH   1   2
BRANCH   1  28
ATOM     28  C   UNL     1       4.228   4.658   4.496  1.00  0.00     0.116 C 
BRANCH  28  29
ATOM     29  N   UNL     1       3.237   4.231   5.481  1.00  0.00    -0.352 N 
ATOM     30  C   UNL     1       2.059   4.908   5.802  1.00  0.00     0.251 C 
ATOM     31  H   UNL     1       3.416   3.389   5.961  1.00  0.00     0.163 HD
ATOM     32  O   UNL     1       1.504   4.739   6.869  1.00  0.00    -0.269 OA
BRANCH  30  33
ATOM     33  C   UNL     1       1.525   5.866   4.804  1.00  0.00     0.039 A 
ATOM     34  C   UNL     1       1.111   7.146   5.171  1.00  0.00     0.014 A 
ATOM     35  C   UNL     1       1.554   5.489   3.464  1.00  0.00     0.014 A 
ATOM     36  C   UNL     1       0.863   8.082   4.165  1.00  0.00     0.010 A 
ATOM     37  C   UNL     1       1.430   6.441   2.478  1.00  0.00     0.010 A 
ATOM     38  C   UNL     1       1.079   7.742   2.816  1.00  0.00    -0.014 A 
BRANCH  38  39
ATOM     39  C   UNL     1       1.126   8.785   1.789  1.00  0.00     0.031 A 
ATOM     40  C   UNL     1       1.970   9.963   2.140  1.00  0.00     0.074 A 
ATOM     41  C   UNL     1       0.653   8.664   0.529  1.00  0.00     0.049 A 
ATOM     42  N   UNL     1       1.565  11.151   2.440  1.00  0.00    -0.248 NA
ATOM     43  C   UNL     1       3.417   9.770   2.325  1.00  0.00     0.031 C 
ATOM     44  C   UNL     1       0.055   7.494  -0.118  1.00  0.00     0.029 A 
ATOM     45  N   UNL     1       0.704   9.572  -0.486  1.00  0.00    -0.354 N 
ATOM     46  C   UNL     1       2.708  11.921   2.621  1.00  0.00     0.074 A 
ATOM     47  C   UNL     1       3.794  10.983   2.735  1.00  0.00     0.031 C 
ATOM     48  C   UNL     1       0.010   7.687  -1.456  1.00  0.00     0.029 A 
ATOM     49  C   UNL     1       0.406   9.054  -1.742  1.00  0.00     0.049 A 
ATOM     50  H   UNL     1       0.933  10.519  -0.342  1.00  0.00     0.167 HD
ATOM     51  C   UNL     1       2.684  13.272   2.438  1.00  0.00     0.034 A 
ATOM     52  C   UNL     1       0.474   9.696  -2.939  1.00  0.00     0.034 A 
ATOM     53  C   UNL     1       1.323  13.766   2.415  1.00  0.00     0.049 A 
ATOM     54  C   UNL     1       0.342  11.145  -2.647  1.00  0.00     0.074 A 
ATOM     55  C   UNL     1       0.257  13.688   3.293  1.00  0.00     0.029 A 
ATOM     56  N   UNL     1       0.761  14.079   1.195  1.00  0.00    -0.354 N 
ATOM     57  N   UNL     1      -0.740  11.672  -2.140  1.00  0.00    -0.248 NA
ATOM     58  C   UNL     1       1.555  11.922  -2.449  1.00  0.00     0.031 C 
ATOM     59  C   UNL     1      -0.872  13.404   2.466  1.00  0.00     0.029 A 
ATOM     60  C   UNL     1      -0.452  13.432   1.135  1.00  0.00     0.049 A 
ATOM     61  H   UNL     1       1.153  14.656   0.500  1.00  0.00     0.167 HD
ATOM     62  C   UNL     1      -0.289  12.578  -1.194  1.00  0.00     0.074 A 
ATOM     63  C   UNL     1       1.129  12.766  -1.503  1.00  0.00     0.031 C 
ATOM     64  C   UNL     1      -1.025  12.878  -0.081  1.00  0.00     0.034 A 
BRANCH  51  65
ATOM     65  C   UNL     1       3.848  14.107   1.948  1.00  0.00     0.023 A 
ATOM     66  C   UNL     1       3.658  15.500   1.850  1.00  0.00     0.031 A 
ATOM     67  C   UNL     1       5.011  13.603   1.324  1.00  0.00     0.131 A 
ATOM     68  C   UNL     1       4.533  16.299   1.093  1.00  0.00     0.055 A 
ATOM     69  C   UNL     1       5.917  14.413   0.633  1.00  0.00     0.041 A 
ATOM     70  F   UNL     1       5.291  12.297   1.260  1.00  0.00    -0.206 F 
ATOM     71  C   UNL     1       5.665  15.765   0.486  1.00  0.00     0.022 A 
BRANCH  68  72
ATOM     72  S   UNL     1       4.063  18.018   0.761  1.00  0.00     0.124 S 
ATOM     73  O   UNL     1       2.726  17.854   0.201  1.00  0.00    -0.237 OA
ATOM     74  O   UNL     1       4.137  18.611   2.091  1.00  0.00    -0.237 OA
ATOM     75  O   UNL     1       5.083  18.472  -0.182  1.00  0.00    -0.744 OA
ENDBRANCH  68  72
ENDBRANCH  51  65
BRANCH  52  76
ATOM     76  C   UNL     1       0.940   9.138  -4.239  1.00  0.00     0.023 A 
ATOM     77  C   UNL     1       0.681   9.759  -5.480  1.00  0.00     0.031 A 
ATOM     78  C   UNL     1       1.878   8.080  -4.246  1.00  0.00     0.131 A 
ATOM     79  C   UNL     1       1.349   9.321  -6.650  1.00  0.00     0.055 A 
ATOM     80  C   UNL     1       2.531   7.651  -5.403  1.00  0.00     0.041 A 
ATOM     81  F   UNL     1       2.257   7.479  -3.107  1.00  0.00    -0.206 F 
ATOM     82  C   UNL     1       2.277   8.278  -6.611  1.00  0.00     0.022 A 
BRANCH  79  83
ATOM     83  S   UNL     1       1.090  10.175  -8.241  1.00  0.00     0.124 S 
ATOM     84  O   UNL     1      -0.273   9.786  -8.583  1.00  0.00    -0.237 OA
ATOM     85  O   UNL     1       1.296  11.574  -7.884  1.00  0.00    -0.237 OA
ATOM     86  O   UNL     1       2.126   9.608  -9.105  1.00  0.00    -0.744 OA
ENDBRANCH  79  83
ENDBRANCH  52  76
BRANCH  64  87
ATOM     87  C   UNL     1      -2.472  12.417  -0.011  1.00  0.00     0.023 A 
ATOM     88  C   UNL     1      -2.909  11.079  -0.161  1.00  0.00     0.031 A 
ATOM     89  C   UNL     1      -3.438  13.373   0.352  1.00  0.00     0.131 A 
ATOM     90  C   UNL     1      -4.266  10.748   0.041  1.00  0.00     0.055 A 
ATOM     91  C   UNL     1      -4.774  13.039   0.576  1.00  0.00     0.041 A 
ATOM     92  F   UNL     1      -3.090  14.658   0.535  1.00  0.00    -0.206 F 
ATOM     93  C   UNL     1      -5.195  11.725   0.415  1.00  0.00     0.022 A 
BRANCH  90  94
ATOM     94  S   UNL     1      -4.858   9.040  -0.197  1.00  0.00     0.124 S 
ATOM     95  O   UNL     1      -4.282   8.653  -1.480  1.00  0.00    -0.237 OA
ATOM     96  O   UNL     1      -4.325   8.352   0.976  1.00  0.00    -0.237 OA
ATOM     97  O   UNL     1      -6.316   9.183  -0.205  1.00  0.00    -0.744 OA
ENDBRANCH  90  94
ENDBRANCH  64  87
ENDBRANCH  38  39
ENDBRANCH  30  33
ENDBRANCH  28  29
ENDBRANCH   1  28
TORSDOF 17
