REMARK SMILES Cc1ccc(C(=O)N2C[C@H](C(=O)NCCCCNC(=O)c3ccc(-c4c5nc(c(-c6cc(S(=O)(=O)[O-])ccc6F)c6ccc([nH]6)c(-c6cc(S(=O)(=O)[O-])ccc6F)c6nc(c(-c7cc(S(=O)(=O)[O-])ccc7F)c7ccc4[nH]7)C=C6)C=C5)cc3)Oc3ccccc32)o1
REMARK SMILES IDX 16 1 15 2 14 3 13 4 11 5 12 6 10 8 8 9 9 10 90 11 85 12
REMARK SMILES IDX 89 13 84 14 86 15 88 16 87 17 6 18 7 19 5 20 1 21 2 22 3 23
REMARK SMILES IDX 91 24 4 25 17 26 18 27 19 28 20 30 21 31 22 32 83 33 23 34
REMARK SMILES IDX 82 35 24 36 25 37 26 38 76 39 27 40 81 41 75 42 77 43 28 44
REMARK SMILES IDX 80 45 74 46 73 47 29 49 61 50 41 51 60 52 42 53 45 54 59 55
REMARK SMILES IDX 78 56 43 57 44 58 58 60 79 61 46 62 30 63 31 64 39 65 32 66
REMARK SMILES IDX 38 67 40 68 37 69 33 70 34 71 35 72 36 73 62 74 63 75 71 76
REMARK SMILES IDX 64 77 70 78 72 79 69 80 65 81 66 82 67 83 68 84 47 85 48 86
REMARK SMILES IDX 56 87 49 88 55 89 57 90 54 91 50 92 51 93 52 94 53 95
REMARK H PARENT 13 7 18 29 77 48 45 59
REMARK Flexibility Score: inf
ROOT
ATOM      1  C   UNL     1      -5.786  -3.956   2.298  1.00  0.00     0.023 C 
ENDROOT
BRANCH   1   2
ATOM      2  C   UNL     1      -5.504  -2.818   1.314  1.00  0.00     0.023 C 
BRANCH   2   3
ATOM      3  C   UNL     1      -6.525  -1.681   1.335  1.00  0.00     0.116 C 
BRANCH   3   4
ATOM      4  N   UNL     1      -6.407  -0.880   2.542  1.00  0.00    -0.353 N 
ATOM      5  C   UNL     1      -5.972   0.407   2.706  1.00  0.00     0.262 C 
ATOM      6  O   UNL     1      -5.929   0.857   3.854  1.00  0.00    -0.271 OA
ATOM      7  H   UNL     1      -6.684  -1.334   3.371  1.00  0.00     0.163 HD
BRANCH   5   8
ATOM      8  C   UNL     1      -5.495   1.248   1.518  1.00  0.00     0.281 C 
ATOM      9  N   UNL     1      -3.685   1.445  -0.156  1.00  0.00    -0.298 N 
ATOM     10  C   UNL     1      -4.144   0.733   1.036  1.00  0.00     0.181 C 
ATOM     11  C   UNL     1      -4.710   1.825  -1.075  1.00  0.00     0.087 A 
ATOM     12  C   UNL     1      -6.061   1.662  -0.723  1.00  0.00     0.144 A 
ATOM     13  C   UNL     1      -4.414   2.252  -2.377  1.00  0.00     0.030 A 
ATOM     14  O   UNL     1      -6.498   1.235   0.503  1.00  0.00    -0.477 OA
ATOM     15  C   UNL     1      -7.077   1.892  -1.655  1.00  0.00     0.049 A 
ATOM     16  C   UNL     1      -5.432   2.486  -3.307  1.00  0.00     0.002 A 
ATOM     17  C   UNL     1      -6.763   2.301  -2.948  1.00  0.00     0.004 A 
BRANCH   9  18
ATOM     18  C   UNL     1      -2.329   1.716  -0.385  1.00  0.00     0.294 C 
ATOM     19  O   UNL     1      -1.966   2.792  -0.871  1.00  0.00    -0.265 OA
BRANCH  18  20
ATOM     20  C   UNL     1      -1.374   0.656  -0.088  1.00  0.00     0.192 A 
ATOM     21  C   UNL     1       2.139   0.006   0.189  1.00  0.00     0.087 C 
ATOM     22  C   UNL     1       0.672  -0.146   0.145  1.00  0.00     0.101 A 
ATOM     23  C   UNL     1      -0.172  -1.231   0.201  1.00  0.00     0.046 A 
ATOM     24  O   UNL     1      -0.046   0.997  -0.016  1.00  0.00    -0.456 OA
ATOM     25  C   UNL     1      -1.483  -0.720   0.039  1.00  0.00     0.056 A 
ENDBRANCH  18  20
ENDBRANCH   9  18
ENDBRANCH   5   8
ENDBRANCH   3   4
ENDBRANCH   2   3
ENDBRANCH   1   2
BRANCH   1  26
ATOM     26  C   UNL     1      -7.128  -4.660   2.116  1.00  0.00     0.116 C 
BRANCH  26  27
ATOM     27  N   UNL     1      -7.305  -5.206   0.782  1.00  0.00    -0.352 N 
ATOM     28  C   UNL     1      -7.927  -6.367   0.393  1.00  0.00     0.251 C 
ATOM     29  H   UNL     1      -6.925  -4.666   0.052  1.00  0.00     0.163 HD
ATOM     30  O   UNL     1      -7.854  -6.717  -0.782  1.00  0.00    -0.269 OA
BRANCH  28  31
ATOM     31  C   UNL     1      -8.647  -7.205   1.379  1.00  0.00     0.039 A 
ATOM     32  C   UNL     1      -8.510  -8.595   1.299  1.00  0.00     0.014 A 
ATOM     33  C   UNL     1      -9.476  -6.642   2.354  1.00  0.00     0.014 A 
ATOM     34  C   UNL     1      -9.168  -9.415   2.219  1.00  0.00     0.010 A 
ATOM     35  C   UNL     1     -10.082  -7.457   3.309  1.00  0.00     0.010 A 
ATOM     36  C   UNL     1      -9.945  -8.851   3.243  1.00  0.00    -0.014 A 
BRANCH  36  37
ATOM     37  C   UNL     1     -10.656  -9.710   4.223  1.00  0.00     0.031 A 
ATOM     38  C   UNL     1     -12.160  -9.763   4.219  1.00  0.00     0.074 A 
ATOM     39  C   UNL     1      -9.956 -10.400   5.143  1.00  0.00     0.049 A 
ATOM     40  N   UNL     1     -12.971 -10.399   5.025  1.00  0.00    -0.248 NA
ATOM     41  C   UNL     1     -12.840  -8.964   3.189  1.00  0.00     0.031 C 
ATOM     42  C   UNL     1      -8.497 -10.391   5.277  1.00  0.00     0.029 A 
ATOM     43  N   UNL     1     -10.376 -11.236   6.145  1.00  0.00    -0.354 N 
ATOM     44  C   UNL     1     -14.256 -10.064   4.613  1.00  0.00     0.074 A 
ATOM     45  C   UNL     1     -14.112  -9.124   3.521  1.00  0.00     0.031 C 
ATOM     46  C   UNL     1      -8.145 -11.198   6.292  1.00  0.00     0.029 A 
ATOM     47  C   UNL     1      -9.350 -11.761   6.895  1.00  0.00     0.049 A 
ATOM     48  H   UNL     1     -11.325 -11.442   6.312  1.00  0.00     0.167 HD
ATOM     49  C   UNL     1     -15.446 -10.512   5.087  1.00  0.00     0.034 A 
ATOM     50  C   UNL     1      -9.379 -12.601   7.947  1.00  0.00     0.034 A 
ATOM     51  C   UNL     1     -15.573 -11.464   6.163  1.00  0.00     0.049 A 
ATOM     52  C   UNL     1     -10.708 -13.122   8.429  1.00  0.00     0.074 A 
ATOM     53  C   UNL     1     -16.724 -12.009   6.707  1.00  0.00     0.029 A 
ATOM     54  N   UNL     1     -14.507 -12.019   6.860  1.00  0.00    -0.354 N 
ATOM     55  N   UNL     1     -11.914 -12.821   8.007  1.00  0.00    -0.248 NA
ATOM     56  C   UNL     1     -10.675 -14.113   9.512  1.00  0.00     0.031 C 
ATOM     57  C   UNL     1     -16.355 -12.863   7.755  1.00  0.00     0.029 A 
ATOM     58  C   UNL     1     -14.972 -12.894   7.829  1.00  0.00     0.049 A 
ATOM     59  H   UNL     1     -13.558 -11.820   6.689  1.00  0.00     0.167 HD
ATOM     60  C   UNL     1     -12.782 -13.613   8.753  1.00  0.00     0.074 A 
ATOM     61  C   UNL     1     -11.960 -14.409   9.642  1.00  0.00     0.031 C 
ATOM     62  C   UNL     1     -14.137 -13.680   8.704  1.00  0.00     0.034 A 
BRANCH  49  63
ATOM     63  C   UNL     1     -16.694  -9.949   4.451  1.00  0.00     0.023 A 
ATOM     64  C   UNL     1     -16.992 -10.170   3.095  1.00  0.00     0.031 A 
ATOM     65  C   UNL     1     -17.570  -9.137   5.193  1.00  0.00     0.131 A 
ATOM     66  C   UNL     1     -18.081  -9.516   2.501  1.00  0.00     0.055 A 
ATOM     67  C   UNL     1     -18.701  -8.556   4.615  1.00  0.00     0.041 A 
ATOM     68  F   UNL     1     -17.328  -8.874   6.487  1.00  0.00    -0.206 F 
ATOM     69  C   UNL     1     -18.953  -8.730   3.257  1.00  0.00     0.022 A 
BRANCH  66  70
ATOM     70  S   UNL     1     -18.252  -9.585   0.697  1.00  0.00     0.124 S 
ATOM     71  O   UNL     1     -17.006  -8.960   0.260  1.00  0.00    -0.237 OA
ATOM     72  O   UNL     1     -18.372 -11.016   0.444  1.00  0.00    -0.237 OA
ATOM     73  O   UNL     1     -19.459  -8.802   0.436  1.00  0.00    -0.744 OA
ENDBRANCH  66  70
ENDBRANCH  49  63
BRANCH  50  74
ATOM     74  C   UNL     1      -8.114 -13.019   8.610  1.00  0.00     0.023 A 
ATOM     75  C   UNL     1      -7.654 -14.342   8.515  1.00  0.00     0.031 A 
ATOM     76  C   UNL     1      -7.365 -12.110   9.376  1.00  0.00     0.131 A 
ATOM     77  C   UNL     1      -6.502 -14.732   9.214  1.00  0.00     0.055 A 
ATOM     78  C   UNL     1      -6.197 -12.493  10.037  1.00  0.00     0.041 A 
ATOM     79  F   UNL     1      -7.758 -10.831   9.485  1.00  0.00    -0.206 F 
ATOM     80  C   UNL     1      -5.766 -13.815   9.967  1.00  0.00     0.022 A 
BRANCH  77  81
ATOM     81  S   UNL     1      -6.016 -16.479   9.177  1.00  0.00     0.124 S 
ATOM     82  O   UNL     1      -7.207 -17.132   9.707  1.00  0.00    -0.237 OA
ATOM     83  O   UNL     1      -5.746 -16.687   7.758  1.00  0.00    -0.237 OA
ATOM     84  O   UNL     1      -4.841 -16.523  10.045  1.00  0.00    -0.744 OA
ENDBRANCH  77  81
ENDBRANCH  50  74
BRANCH  62  85
ATOM     85  C   UNL     1     -14.798 -14.695   9.601  1.00  0.00     0.023 A 
ATOM     86  C   UNL     1     -14.815 -14.547  10.999  1.00  0.00     0.031 A 
ATOM     87  C   UNL     1     -15.395 -15.839   9.045  1.00  0.00     0.131 A 
ATOM     88  C   UNL     1     -15.368 -15.558  11.799  1.00  0.00     0.055 A 
ATOM     89  C   UNL     1     -15.987 -16.818   9.844  1.00  0.00     0.041 A 
ATOM     90  F   UNL     1     -15.405 -16.027   7.716  1.00  0.00    -0.206 F 
ATOM     91  C   UNL     1     -15.963 -16.687  11.230  1.00  0.00     0.022 A 
BRANCH  88  92
ATOM     92  S   UNL     1     -15.216 -15.423  13.602  1.00  0.00     0.124 S 
ATOM     93  O   UNL     1     -13.774 -15.290  13.778  1.00  0.00    -0.237 OA
ATOM     94  O   UNL     1     -16.006 -14.231  13.891  1.00  0.00    -0.237 OA
ATOM     95  O   UNL     1     -15.787 -16.678  14.089  1.00  0.00    -0.744 OA
ENDBRANCH  88  92
ENDBRANCH  62  85
ENDBRANCH  36  37
ENDBRANCH  28  31
ENDBRANCH  26  27
ENDBRANCH   1  26
TORSDOF 16
