REMARK SMILES COc1ccc([C@@H]2[C@H](C(=O)NCCCCNC(=O)c3ccc(-c4c5nc(c(-c6cc(S(=O)(=O)[O-])ccc6F)c6ccc([nH]6)c(-c6cc(S(=O)(=O)[O-])ccc6F)c6nc(c(-c7cc(S(=O)(=O)[O-])ccc7F)c7ccc4[nH]7)C=C6)C=C5)cc3)c3ccccc3C(=O)N2C2CC2)cc1
REMARK SMILES IDX 14 1 13 2 12 3 11 4 9 5 10 6 8 8 7 9 90 10 82 11 88 12 83 13
REMARK SMILES IDX 87 14 89 15 84 16 86 17 85 18 6 19 3 20 4 21 95 22 5 23
REMARK SMILES IDX 94 24 2 25 1 26 91 27 92 28 93 29 15 30 16 31 17 32 18 34
REMARK SMILES IDX 19 35 20 36 81 37 21 38 80 39 22 40 23 41 24 42 74 43 25 44
REMARK SMILES IDX 79 45 73 46 75 47 26 48 78 49 72 50 71 51 27 53 59 54 39 55
REMARK SMILES IDX 58 56 40 57 43 58 57 59 76 60 41 61 42 62 56 64 77 65 44 66
REMARK SMILES IDX 28 67 29 68 37 69 30 70 36 71 38 72 35 73 31 74 32 75 33 76
REMARK SMILES IDX 34 77 60 78 61 79 69 80 62 81 68 82 70 83 67 84 63 85 64 86
REMARK SMILES IDX 65 87 66 88 45 89 46 90 54 91 47 92 53 93 55 94 52 95 48 96
REMARK SMILES IDX 49 97 50 98 51 99
REMARK H PARENT 11 7 16 33 75 52 43 63
REMARK Flexibility Score: inf
ROOT
ATOM      1  C   UNL     1      -4.420  -3.325   8.895  1.00  0.00     0.023 C 
ENDROOT
BRANCH   1   2
ATOM      2  C   UNL     1      -3.056  -3.828   8.405  1.00  0.00     0.023 C 
BRANCH   2   3
ATOM      3  C   UNL     1      -2.789  -3.745   6.887  1.00  0.00     0.116 C 
BRANCH   3   4
ATOM      4  N   UNL     1      -2.571  -2.393   6.385  1.00  0.00    -0.355 N 
ATOM      5  C   UNL     1      -1.632  -1.580   6.966  1.00  0.00     0.230 C 
ATOM      6  O   UNL     1      -2.054  -0.886   7.893  1.00  0.00    -0.274 OA
ATOM      7  H   UNL     1      -3.101  -2.062   5.624  1.00  0.00     0.163 HD
BRANCH   5   8
ATOM      8  C   UNL     1      -0.127  -1.733   6.616  1.00  0.00     0.136 C 
ATOM      9  C   UNL     1       0.601  -0.427   6.125  1.00  0.00     0.133 C 
ATOM     10  N   UNL     1       0.512   0.641   7.135  1.00  0.00    -0.327 N 
ATOM     11  C   UNL     1       0.571  -2.117   7.938  1.00  0.00    -0.020 A 
ATOM     12  C   UNL     1       1.235   0.332   8.311  1.00  0.00     0.254 C 
ATOM     13  C   UNL     1       0.457  -3.424   8.438  1.00  0.00     0.005 A 
ATOM     14  C   UNL     1       1.167  -1.115   8.746  1.00  0.00     0.044 A 
ATOM     15  O   UNL     1       1.766   1.179   9.022  1.00  0.00    -0.269 OA
ATOM     16  C   UNL     1       0.827  -3.708   9.752  1.00  0.00     0.000 A 
ATOM     17  C   UNL     1       1.581  -1.430  10.046  1.00  0.00     0.014 A 
ATOM     18  C   UNL     1       1.380  -2.713  10.556  1.00  0.00     0.001 A 
BRANCH   9  19
ATOM     19  C   UNL     1       0.778  -0.039   4.640  1.00  0.00    -0.024 A 
ATOM     20  C   UNL     1       1.307   0.695   1.927  1.00  0.00     0.118 A 
ATOM     21  C   UNL     1       0.476   1.467   2.715  1.00  0.00     0.047 A 
ATOM     22  C   UNL     1       1.959  -0.393   2.496  1.00  0.00     0.047 A 
ATOM     23  C   UNL     1       0.238   1.108   4.048  1.00  0.00     0.010 A 
ATOM     24  C   UNL     1       1.683  -0.764   3.827  1.00  0.00     0.010 A 
BRANCH  20  25
ATOM     25  O   UNL     1       1.472   1.100   0.633  1.00  0.00    -0.497 OA
ATOM     26  C   UNL     1       1.331   0.033  -0.302  1.00  0.00     0.278 C 
ENDBRANCH  20  25
ENDBRANCH   9  19
BRANCH  10  27
ATOM     27  C   UNL     1      -0.723   1.380   7.421  1.00  0.00     0.086 C 
ATOM     28  C   UNL     1      -1.103   2.711   6.852  1.00  0.00     0.027 C 
ATOM     29  C   UNL     1      -1.926   1.498   6.520  1.00  0.00     0.027 C 
ENDBRANCH  10  27
ENDBRANCH   5   8
ENDBRANCH   3   4
ENDBRANCH   2   3
ENDBRANCH   1   2
BRANCH   1  30
ATOM     30  C   UNL     1      -5.637  -4.118   8.423  1.00  0.00     0.116 C 
BRANCH  30  31
ATOM     31  N   UNL     1      -5.570  -5.535   8.752  1.00  0.00    -0.352 N 
ATOM     32  C   UNL     1      -6.564  -6.395   9.152  1.00  0.00     0.251 C 
ATOM     33  H   UNL     1      -4.675  -5.938   8.677  1.00  0.00     0.163 HD
ATOM     34  O   UNL     1      -6.264  -7.544   9.474  1.00  0.00    -0.269 OA
BRANCH  32  35
ATOM     35  C   UNL     1      -7.973  -5.945   9.235  1.00  0.00     0.039 A 
ATOM     36  C   UNL     1      -8.743  -6.346  10.332  1.00  0.00     0.014 A 
ATOM     37  C   UNL     1      -8.544  -5.138   8.248  1.00  0.00     0.014 A 
ATOM     38  C   UNL     1     -10.053  -5.878  10.476  1.00  0.00     0.010 A 
ATOM     39  C   UNL     1      -9.824  -4.615   8.428  1.00  0.00     0.010 A 
ATOM     40  C   UNL     1     -10.592  -4.973   9.547  1.00  0.00    -0.014 A 
BRANCH  40  41
ATOM     41  C   UNL     1     -11.946  -4.383   9.736  1.00  0.00     0.031 A 
ATOM     42  C   UNL     1     -13.034  -4.643   8.726  1.00  0.00     0.074 A 
ATOM     43  C   UNL     1     -12.174  -3.556  10.778  1.00  0.00     0.049 A 
ATOM     44  N   UNL     1     -14.243  -4.147   8.667  1.00  0.00    -0.248 NA
ATOM     45  C   UNL     1     -12.710  -5.561   7.623  1.00  0.00     0.031 C 
ATOM     46  C   UNL     1     -11.190  -3.195  11.801  1.00  0.00     0.029 A 
ATOM     47  N   UNL     1     -13.298  -2.856  11.145  1.00  0.00    -0.354 N 
ATOM     48  C   UNL     1     -14.816  -4.674   7.515  1.00  0.00     0.074 A 
ATOM     49  C   UNL     1     -13.806  -5.492   6.880  1.00  0.00     0.031 C 
ATOM     50  C   UNL     1     -11.758  -2.360  12.686  1.00  0.00     0.029 A 
ATOM     51  C   UNL     1     -13.128  -2.080  12.270  1.00  0.00     0.049 A 
ATOM     52  H   UNL     1     -14.148  -2.905  10.650  1.00  0.00     0.167 HD
ATOM     53  C   UNL     1     -16.075  -4.503   7.040  1.00  0.00     0.034 A 
ATOM     54  C   UNL     1     -13.971  -1.225  12.885  1.00  0.00     0.034 A 
ATOM     55  C   UNL     1     -17.081  -3.705   7.698  1.00  0.00     0.049 A 
ATOM     56  C   UNL     1     -15.361  -1.044  12.323  1.00  0.00     0.074 A 
ATOM     57  C   UNL     1     -18.407  -3.530   7.340  1.00  0.00     0.029 A 
ATOM     58  N   UNL     1     -16.875  -2.945   8.842  1.00  0.00    -0.354 N 
ATOM     59  N   UNL     1     -15.906  -1.607  11.268  1.00  0.00    -0.248 NA
ATOM     60  C   UNL     1     -16.255  -0.125  13.040  1.00  0.00     0.031 C 
ATOM     61  C   UNL     1     -18.980  -2.606   8.218  1.00  0.00     0.029 A 
ATOM     62  C   UNL     1     -18.039  -2.271   9.178  1.00  0.00     0.049 A 
ATOM     63  H   UNL     1     -16.028  -2.893   9.340  1.00  0.00     0.167 HD
ATOM     64  C   UNL     1     -17.217  -1.137  11.224  1.00  0.00     0.074 A 
ATOM     65  C   UNL     1     -17.385  -0.264  12.365  1.00  0.00     0.031 C 
ATOM     66  C   UNL     1     -18.195  -1.405  10.322  1.00  0.00     0.034 A 
BRANCH  53  67
ATOM     67  C   UNL     1     -16.436  -5.167   5.734  1.00  0.00     0.023 A 
ATOM     68  C   UNL     1     -16.484  -6.565   5.599  1.00  0.00     0.031 A 
ATOM     69  C   UNL     1     -16.766  -4.385   4.612  1.00  0.00     0.131 A 
ATOM     70  C   UNL     1     -16.808  -7.137   4.359  1.00  0.00     0.055 A 
ATOM     71  C   UNL     1     -17.159  -4.960   3.402  1.00  0.00     0.041 A 
ATOM     72  F   UNL     1     -16.716  -3.045   4.676  1.00  0.00    -0.206 F 
ATOM     73  C   UNL     1     -17.173  -6.345   3.268  1.00  0.00     0.022 A 
BRANCH  70  74
ATOM     74  S   UNL     1     -16.647  -8.933   4.162  1.00  0.00     0.124 S 
ATOM     75  O   UNL     1     -15.224  -9.132   4.427  1.00  0.00    -0.237 OA
ATOM     76  O   UNL     1     -17.563  -9.446   5.173  1.00  0.00    -0.237 OA
ATOM     77  O   UNL     1     -17.054  -9.164   2.777  1.00  0.00    -0.744 OA
ENDBRANCH  70  74
ENDBRANCH  53  67
BRANCH  54  78
ATOM     78  C   UNL     1     -13.536  -0.446  14.084  1.00  0.00     0.023 A 
ATOM     79  C   UNL     1     -14.200  -0.581  15.315  1.00  0.00     0.031 A 
ATOM     80  C   UNL     1     -12.510   0.512  13.995  1.00  0.00     0.131 A 
ATOM     81  C   UNL     1     -13.884   0.277  16.380  1.00  0.00     0.055 A 
ATOM     82  C   UNL     1     -12.151   1.315  15.081  1.00  0.00     0.041 A 
ATOM     83  F   UNL     1     -11.840   0.687  12.845  1.00  0.00    -0.206 F 
ATOM     84  C   UNL     1     -12.855   1.214  16.276  1.00  0.00     0.022 A 
BRANCH  81  85
ATOM     85  S   UNL     1     -14.937   0.245  17.858  1.00  0.00     0.124 S 
ATOM     86  O   UNL     1     -16.259   0.466  17.284  1.00  0.00    -0.237 OA
ATOM     87  O   UNL     1     -14.680  -1.092  18.383  1.00  0.00    -0.237 OA
ATOM     88  O   UNL     1     -14.416   1.344  18.669  1.00  0.00    -0.744 OA
ENDBRANCH  81  85
ENDBRANCH  54  78
BRANCH  66  89
ATOM     89  C   UNL     1     -19.552  -0.792  10.573  1.00  0.00     0.023 A 
ATOM     90  C   UNL     1     -19.762   0.597  10.521  1.00  0.00     0.031 A 
ATOM     91  C   UNL     1     -20.651  -1.616  10.879  1.00  0.00     0.131 A 
ATOM     92  C   UNL     1     -21.026   1.124  10.827  1.00  0.00     0.055 A 
ATOM     93  C   UNL     1     -21.921  -1.090  11.117  1.00  0.00     0.041 A 
ATOM     94  F   UNL     1     -20.509  -2.950  10.945  1.00  0.00    -0.206 F 
ATOM     95  C   UNL     1     -22.111   0.289  11.106  1.00  0.00     0.022 A 
BRANCH  92  96
ATOM     96  S   UNL     1     -21.212   2.924  10.952  1.00  0.00     0.124 S 
ATOM     97  O   UNL     1     -20.240   3.259  11.987  1.00  0.00    -0.237 OA
ATOM     98  O   UNL     1     -20.881   3.366   9.601  1.00  0.00    -0.237 OA
ATOM     99  O   UNL     1     -22.612   3.099  11.334  1.00  0.00    -0.744 OA
ENDBRANCH  92  96
ENDBRANCH  66  89
ENDBRANCH  40  41
ENDBRANCH  32  35
ENDBRANCH  30  31
ENDBRANCH   1  30
TORSDOF 17
