REMARK SMILES O=C(NCCCCNC(=O)[C@@H]1CCCCC[C@H]1NS(=O)(=O)C(F)F)c1ccc(-c2c3nc(c(-c4cc(S(=O)(=O)[O-])ccc4F)c4ccc([nH]4)c(-c4cc(S(=O)(=O)[O-])ccc4F)c4nc(c(-c5cc(S(=O)(=O)[O-])ccc5F)c5ccc2[nH]5)C=C4)C=C3)cc1
REMARK SMILES IDX 6 1 5 2 4 3 3 4 1 5 2 6 25 8 26 9 87 10 27 11 86 12 28 13
REMARK SMILES IDX 29 14 30 15 80 16 31 17 85 18 79 19 81 20 32 21 84 22 78 23
REMARK SMILES IDX 77 24 33 26 65 27 45 28 64 29 46 30 49 31 63 32 82 33 47 34
REMARK SMILES IDX 48 35 62 37 83 38 50 39 34 40 35 41 43 42 36 43 42 44 44 45
REMARK SMILES IDX 41 46 37 47 38 48 39 49 40 50 66 51 67 52 75 53 68 54 74 55
REMARK SMILES IDX 76 56 73 57 69 58 70 59 71 60 72 61 51 62 52 63 60 64 53 65
REMARK SMILES IDX 59 66 61 67 58 68 54 69 55 70 56 71 57 72 7 73 8 74 9 75
REMARK SMILES IDX 10 77 11 78 12 79 13 80 14 81 17 83 16 84 15 85 18 87 19 89
REMARK SMILES IDX 20 90 21 91 22 92 23 93 24 94
REMARK H PARENT 3 7 81 25 49 36 8 76 18 88
REMARK Flexibility Score: 100.00
ROOT
ATOM      1  C   UNL     1       4.539  -0.359  -3.530  1.00  0.00     0.023 C 
ENDROOT
BRANCH   1   2
ATOM      2  C   UNL     1       4.932  -1.007  -2.212  1.00  0.00     0.023 C 
BRANCH   2   3
ATOM      3  C   UNL     1       4.481  -0.238  -0.982  1.00  0.00     0.116 C 
BRANCH   3   4
ATOM      4  N   UNL     1       3.044   0.018  -0.935  1.00  0.00    -0.352 N 
ATOM      5  O   UNL     1       1.015   0.129   0.073  1.00  0.00    -0.269 OA
ATOM      6  C   UNL     1       2.227  -0.014   0.174  1.00  0.00     0.251 C 
ATOM      7  H   UNL     1       2.611   0.238  -1.791  1.00  0.00     0.163 HD
BRANCH   6   8
ATOM      8  C   UNL     1       2.863  -0.260   1.482  1.00  0.00     0.039 A 
ATOM      9  C   UNL     1       3.986   0.489   1.837  1.00  0.00     0.014 A 
ATOM     10  C   UNL     1       2.428  -1.321   2.276  1.00  0.00     0.014 A 
ATOM     11  C   UNL     1       4.781   0.058   2.884  1.00  0.00     0.010 A 
ATOM     12  C   UNL     1       3.165  -1.671   3.410  1.00  0.00     0.010 A 
ATOM     13  C   UNL     1       4.366  -1.005   3.704  1.00  0.00    -0.014 A 
BRANCH  13  14
ATOM     14  C   UNL     1       5.178  -1.334   4.902  1.00  0.00     0.031 A 
ATOM     15  C   UNL     1       5.823  -2.680   5.074  1.00  0.00     0.074 A 
ATOM     16  C   UNL     1       5.365  -0.364   5.820  1.00  0.00     0.049 A 
ATOM     17  N   UNL     1       6.556  -3.119   6.066  1.00  0.00    -0.248 NA
ATOM     18  C   UNL     1       5.614  -3.666   4.003  1.00  0.00     0.031 C 
ATOM     19  C   UNL     1       4.786   0.983   5.747  1.00  0.00     0.029 A 
ATOM     20  N   UNL     1       6.105  -0.340   6.972  1.00  0.00    -0.354 N 
ATOM     21  C   UNL     1       6.892  -4.430   5.746  1.00  0.00     0.074 A 
ATOM     22  C   UNL     1       6.243  -4.729   4.486  1.00  0.00     0.031 C 
ATOM     23  C   UNL     1       5.242   1.716   6.770  1.00  0.00     0.029 A 
ATOM     24  C   UNL     1       6.056   0.868   7.628  1.00  0.00     0.049 A 
ATOM     25  H   UNL     1       6.622  -1.111   7.298  1.00  0.00     0.167 HD
ATOM     26  C   UNL     1       7.678  -5.294   6.438  1.00  0.00     0.034 A 
ATOM     27  C   UNL     1       6.572   1.245   8.812  1.00  0.00     0.034 A 
ATOM     28  C   UNL     1       8.305  -4.974   7.700  1.00  0.00     0.049 A 
ATOM     29  C   UNL     1       7.376   0.241   9.591  1.00  0.00     0.074 A 
ATOM     30  C   UNL     1       9.116  -5.773   8.489  1.00  0.00     0.029 A 
ATOM     31  N   UNL     1       8.188  -3.758   8.365  1.00  0.00    -0.354 N 
ATOM     32  N   UNL     1       7.680  -0.997   9.274  1.00  0.00    -0.248 NA
ATOM     33  C   UNL     1       7.909   0.685  10.882  1.00  0.00     0.031 C 
ATOM     34  C   UNL     1       9.428  -5.069   9.657  1.00  0.00     0.029 A 
ATOM     35  C   UNL     1       8.889  -3.797   9.562  1.00  0.00     0.049 A 
ATOM     36  H   UNL     1       7.683  -2.981   8.033  1.00  0.00     0.167 HD
ATOM     37  C   UNL     1       8.465  -1.470  10.320  1.00  0.00     0.074 A 
ATOM     38  C   UNL     1       8.609  -0.374  11.257  1.00  0.00     0.031 C 
ATOM     39  C   UNL     1       9.014  -2.699  10.493  1.00  0.00     0.034 A 
BRANCH  26  40
ATOM     40  C   UNL     1       7.872  -6.679   5.863  1.00  0.00     0.023 A 
ATOM     41  C   UNL     1       8.515  -6.883   4.630  1.00  0.00     0.031 A 
ATOM     42  C   UNL     1       7.405  -7.813   6.553  1.00  0.00     0.131 A 
ATOM     43  C   UNL     1       8.617  -8.177   4.095  1.00  0.00     0.055 A 
ATOM     44  C   UNL     1       7.582  -9.105   6.055  1.00  0.00     0.041 A 
ATOM     45  F   UNL     1       6.763  -7.683   7.725  1.00  0.00    -0.206 F 
ATOM     46  C   UNL     1       8.179  -9.293   4.812  1.00  0.00     0.022 A 
BRANCH  43  47
ATOM     47  S   UNL     1       9.202  -8.366   2.389  1.00  0.00     0.124 S 
ATOM     48  O   UNL     1       8.235  -7.555   1.653  1.00  0.00    -0.237 OA
ATOM     49  O   UNL     1      10.558  -7.833   2.460  1.00  0.00    -0.237 OA
ATOM     50  O   UNL     1       9.107  -9.804   2.151  1.00  0.00    -0.744 OA
ENDBRANCH  43  47
ENDBRANCH  26  40
BRANCH  27  51
ATOM     51  C   UNL     1       6.300   2.607   9.353  1.00  0.00     0.023 A 
ATOM     52  C   UNL     1       7.345   3.498   9.632  1.00  0.00     0.031 A 
ATOM     53  C   UNL     1       4.986   3.019   9.648  1.00  0.00     0.131 A 
ATOM     54  C   UNL     1       7.067   4.728  10.246  1.00  0.00     0.055 A 
ATOM     55  C   UNL     1       4.709   4.274  10.187  1.00  0.00     0.041 A 
ATOM     56  F   UNL     1       3.946   2.207   9.399  1.00  0.00    -0.206 F 
ATOM     57  C   UNL     1       5.756   5.130  10.509  1.00  0.00     0.022 A 
BRANCH  54  58
ATOM     58  S   UNL     1       8.459   5.742  10.813  1.00  0.00     0.124 S 
ATOM     59  O   UNL     1       9.179   4.804  11.667  1.00  0.00    -0.237 OA
ATOM     60  O   UNL     1       9.108   6.093   9.555  1.00  0.00    -0.237 OA
ATOM     61  O   UNL     1       7.809   6.850  11.510  1.00  0.00    -0.744 OA
ENDBRANCH  54  58
ENDBRANCH  27  51
BRANCH  39  62
ATOM     62  C   UNL     1       9.863  -2.893  11.726  1.00  0.00     0.023 A 
ATOM     63  C   UNL     1       9.317  -2.820  13.020  1.00  0.00     0.031 A 
ATOM     64  C   UNL     1      11.246  -3.114  11.604  1.00  0.00     0.131 A 
ATOM     65  C   UNL     1      10.160  -2.892  14.139  1.00  0.00     0.055 A 
ATOM     66  C   UNL     1      12.069  -3.260  12.722  1.00  0.00     0.041 A 
ATOM     67  F   UNL     1      11.823  -3.187  10.394  1.00  0.00    -0.206 F 
ATOM     68  C   UNL     1      11.530  -3.131  13.999  1.00  0.00     0.022 A 
BRANCH  65  69
ATOM     69  S   UNL     1       9.461  -2.547  15.777  1.00  0.00     0.124 S 
ATOM     70  O   UNL     1       8.919  -1.204  15.598  1.00  0.00    -0.237 OA
ATOM     71  O   UNL     1       8.479  -3.616  15.928  1.00  0.00    -0.237 OA
ATOM     72  O   UNL     1      10.616  -2.637  16.668  1.00  0.00    -0.744 OA
ENDBRANCH  65  69
ENDBRANCH  39  62
ENDBRANCH  13  14
ENDBRANCH   6   8
ENDBRANCH   3   4
ENDBRANCH   2   3
ENDBRANCH   1   2
BRANCH   1  73
ATOM     73  C   UNL     1       5.094   1.051  -3.724  1.00  0.00     0.116 C 
BRANCH  73  74
ATOM     74  N   UNL     1       6.444   1.021  -4.240  1.00  0.00    -0.356 N 
ATOM     75  C   UNL     1       6.928   1.163  -5.500  1.00  0.00     0.224 C 
ATOM     76  H   UNL     1       7.136   0.870  -3.556  1.00  0.00     0.163 HD
ATOM     77  O   UNL     1       8.150   1.067  -5.645  1.00  0.00    -0.275 OA
BRANCH  75  78
ATOM     78  C   UNL     1       6.038   1.457  -6.716  1.00  0.00     0.096 C 
BRANCH  78  79
ATOM     79  C   UNL     1       5.407   2.853  -6.603  1.00  0.00     0.015 C 
BRANCH  79  80
ATOM     80  C   UNL     1       4.309   3.192  -7.601  1.00  0.00     0.001 C 
BRANCH  80  81
ATOM     81  C   UNL     1       2.950   2.616  -7.223  1.00  0.00     0.000 CG0
ATOM     82  G   UNL     1       2.787   1.146  -7.571  1.00  0.00     0.000 G0
ENDBRANCH  80  81
ENDBRANCH  79  80
ENDBRANCH  78  79
BRANCH  78  83
ATOM     83  C   UNL     1       5.196   0.226  -7.152  1.00  0.00     0.082 C 
BRANCH  83  84
ATOM     84  C   UNL     1       3.707   0.220  -6.788  1.00  0.00     0.021 C 
BRANCH  84  85
ATOM     85  C   UNL     1       2.787   1.146  -7.571  1.00  0.00     0.002 CG0
ATOM     86  G   UNL     1       2.950   2.616  -7.223  1.00  0.00     0.000 G0
ENDBRANCH  84  85
ENDBRANCH  83  84
BRANCH  83  87
ATOM     87  N   UNL     1       5.373   0.032  -8.617  1.00  0.00    -0.206 NA
ATOM     88  H   UNL     1       6.373   0.137  -8.790  1.00  0.00     0.141 HD
BRANCH  87  89
ATOM     89  S   UNL     1       4.912  -1.353  -9.449  1.00  0.00     0.274 S 
ATOM     90  O   UNL     1       3.515  -1.611  -9.152  1.00  0.00    -0.206 OA
ATOM     91  O   UNL     1       5.289  -1.087 -10.823  1.00  0.00    -0.206 OA
BRANCH  89  92
ATOM     92  C   UNL     1       5.941  -2.719  -8.787  1.00  0.00     0.473 C 
ATOM     93  F   UNL     1       7.267  -2.546  -9.048  1.00  0.00    -0.191 F 
ATOM     94  F   UNL     1       5.822  -2.850  -7.435  1.00  0.00    -0.191 F 
ENDBRANCH  89  92
ENDBRANCH  87  89
ENDBRANCH  83  87
ENDBRANCH  78  83
ENDBRANCH  75  78
ENDBRANCH  73  74
ENDBRANCH   1  73
TORSDOF 17
