REMARK SMILES CO[C@H]1C[C@@H](C(=O)NCCCCNC(=O)c2ccc(-c3c4nc(c(-c5cc(S(=O)(=O)[O-])ccc5F)c5ccc([nH]5)c(-c5cc(S(=O)(=O)[O-])ccc5F)c5nc(c(-c6cc(S(=O)(=O)[O-])ccc6F)c6ccc3[nH]6)C=C5)C=C4)cc2)N(C(=O)CSc2cccs2)C1
REMARK SMILES IDX 10 1 9 2 8 3 6 4 7 5 5 7 3 8 4 9 89 10 79 11 2 12 1 13 80 14
REMARK SMILES IDX 81 15 82 16 83 17 84 18 85 19 88 20 86 21 87 22 11 23 12 24
REMARK SMILES IDX 13 25 14 26 15 28 16 29 17 30 78 31 18 32 77 33 19 34 20 35
REMARK SMILES IDX 21 36 71 37 22 38 76 39 70 40 72 41 23 42 75 43 69 44 68 45
REMARK SMILES IDX 24 47 56 48 36 49 55 50 37 51 40 52 54 53 73 54 38 55 39 56
REMARK SMILES IDX 53 58 74 59 41 60 25 61 26 62 34 63 27 64 33 65 35 66 32 67
REMARK SMILES IDX 28 68 29 69 30 70 31 71 57 72 58 73 66 74 59 75 65 76 67 77
REMARK SMILES IDX 64 78 60 79 61 80 62 81 63 82 42 83 43 84 51 85 44 86 50 87
REMARK SMILES IDX 52 88 49 89 45 90 46 91 47 92 48 93
REMARK H PARENT 8 6 13 27 72 46 40 57
REMARK Flexibility Score: inf
ROOT
ATOM      1  C   UNL     1       4.388   5.660   3.442  1.00  0.00     0.023 C 
ENDROOT
BRANCH   1   2
ATOM      2  C   UNL     1       2.989   5.116   3.729  1.00  0.00     0.116 C 
BRANCH   2   3
ATOM      3  N   UNL     1       1.947   5.885   3.072  1.00  0.00    -0.354 N 
ATOM      4  C   UNL     1       1.178   5.626   1.979  1.00  0.00     0.242 C 
ATOM      5  O   UNL     1       0.289   6.442   1.715  1.00  0.00    -0.273 OA
ATOM      6  H   UNL     1       1.764   6.755   3.494  1.00  0.00     0.163 HD
BRANCH   4   7
ATOM      7  C   UNL     1       1.254   4.306   1.188  1.00  0.00     0.177 C 
ATOM      8  C   UNL     1       0.863   1.940   1.506  1.00  0.00     0.139 C 
ATOM      9  C   UNL     1       0.303   3.314   1.870  1.00  0.00     0.069 C 
ATOM     10  C   UNL     1       2.372   2.188   1.484  1.00  0.00     0.152 C 
ATOM     11  N   UNL     1       2.526   3.587   1.098  1.00  0.00    -0.327 N 
BRANCH   8  12
ATOM     12  O   UNL     1       0.540   0.824   2.329  1.00  0.00    -0.380 OA
ATOM     13  C   UNL     1      -0.276   1.063   3.463  1.00  0.00     0.195 C 
ENDBRANCH   8  12
BRANCH  11  14
ATOM     14  C   UNL     1       3.684   4.016   0.482  1.00  0.00     0.233 C 
ATOM     15  O   UNL     1       4.670   3.276   0.408  1.00  0.00    -0.274 OA
BRANCH  14  16
ATOM     16  C   UNL     1       3.749   5.444  -0.046  1.00  0.00     0.175 C 
BRANCH  16  17
ATOM     17  S   UNL     1       3.125   5.540  -1.744  1.00  0.00    -0.105 SA
BRANCH  17  18
ATOM     18  C   UNL     1       4.585   5.061  -2.582  1.00  0.00     0.060 A 
ATOM     19  C   UNL     1       5.682   5.863  -2.812  1.00  0.00     0.027 A 
ATOM     20  S   UNL     1       4.808   3.478  -3.176  1.00  0.00    -0.137 S 
ATOM     21  C   UNL     1       6.745   5.144  -3.432  1.00  0.00     0.013 A 
ATOM     22  C   UNL     1       6.407   3.830  -3.668  1.00  0.00     0.066 A 
ENDBRANCH  17  18
ENDBRANCH  16  17
ENDBRANCH  14  16
ENDBRANCH  11  14
ENDBRANCH   4   7
ENDBRANCH   2   3
ENDBRANCH   1   2
BRANCH   1  23
ATOM     23  C   UNL     1       4.630   7.081   3.944  1.00  0.00     0.023 C 
BRANCH  23  24
ATOM     24  C   UNL     1       4.531   7.225   5.454  1.00  0.00     0.116 C 
BRANCH  24  25
ATOM     25  N   UNL     1       5.501   6.392   6.152  1.00  0.00    -0.352 N 
ATOM     26  C   UNL     1       6.399   6.754   7.127  1.00  0.00     0.251 C 
ATOM     27  H   UNL     1       5.515   5.443   5.890  1.00  0.00     0.163 HD
ATOM     28  O   UNL     1       7.281   5.975   7.475  1.00  0.00    -0.269 OA
BRANCH  26  29
ATOM     29  C   UNL     1       6.298   8.101   7.721  1.00  0.00     0.039 A 
ATOM     30  C   UNL     1       7.446   8.882   7.854  1.00  0.00     0.014 A 
ATOM     31  C   UNL     1       5.047   8.606   8.085  1.00  0.00     0.014 A 
ATOM     32  C   UNL     1       7.328  10.203   8.289  1.00  0.00     0.010 A 
ATOM     33  C   UNL     1       4.921   9.947   8.413  1.00  0.00     0.010 A 
ATOM     34  C   UNL     1       6.060  10.757   8.532  1.00  0.00    -0.014 A 
BRANCH  34  35
ATOM     35  C   UNL     1       5.891  12.173   8.946  1.00  0.00     0.031 A 
ATOM     36  C   UNL     1       5.235  12.479  10.266  1.00  0.00     0.074 A 
ATOM     37  C   UNL     1       6.241  13.167   8.106  1.00  0.00     0.049 A 
ATOM     38  N   UNL     1       4.865  13.631  10.761  1.00  0.00    -0.248 NA
ATOM     39  C   UNL     1       4.908  11.326  11.120  1.00  0.00     0.031 C 
ATOM     40  C   UNL     1       6.836  12.986   6.780  1.00  0.00     0.029 A 
ATOM     41  N   UNL     1       6.136  14.528   8.237  1.00  0.00    -0.354 N 
ATOM     42  C   UNL     1       4.236  13.338  11.967  1.00  0.00     0.074 A 
ATOM     43  C   UNL     1       4.208  11.897  12.087  1.00  0.00     0.031 C 
ATOM     44  C   UNL     1       7.072  14.191   6.235  1.00  0.00     0.029 A 
ATOM     45  C   UNL     1       6.600  15.227   7.146  1.00  0.00     0.049 A 
ATOM     46  H   UNL     1       5.763  14.965   9.037  1.00  0.00     0.167 HD
ATOM     47  C   UNL     1       3.756  14.193  12.903  1.00  0.00     0.034 A 
ATOM     48  C   UNL     1       6.629  16.553   6.907  1.00  0.00     0.034 A 
ATOM     49  C   UNL     1       3.829  15.627  12.776  1.00  0.00     0.049 A 
ATOM     50  C   UNL     1       6.091  17.488   7.962  1.00  0.00     0.074 A 
ATOM     51  C   UNL     1       3.440  16.595  13.685  1.00  0.00     0.029 A 
ATOM     52  N   UNL     1       4.328  16.300  11.667  1.00  0.00    -0.354 N 
ATOM     53  N   UNL     1       5.545  17.197   9.121  1.00  0.00    -0.248 NA
ATOM     54  C   UNL     1       6.181  18.926   7.681  1.00  0.00     0.031 C 
ATOM     55  C   UNL     1       3.645  17.849  13.101  1.00  0.00     0.029 A 
ATOM     56  C   UNL     1       4.232  17.669  11.858  1.00  0.00     0.049 A 
ATOM     57  H   UNL     1       4.696  15.867  10.863  1.00  0.00     0.167 HD
ATOM     58  C   UNL     1       5.256  18.420   9.720  1.00  0.00     0.074 A 
ATOM     59  C   UNL     1       5.702  19.447   8.801  1.00  0.00     0.031 C 
ATOM     60  C   UNL     1       4.678  18.674  10.922  1.00  0.00     0.034 A 
BRANCH  47  61
ATOM     61  C   UNL     1       3.102  13.592  14.124  1.00  0.00     0.023 A 
ATOM     62  C   UNL     1       3.810  12.755  15.006  1.00  0.00     0.031 A 
ATOM     63  C   UNL     1       1.740  13.820  14.391  1.00  0.00     0.131 A 
ATOM     64  C   UNL     1       3.138  12.108  16.052  1.00  0.00     0.055 A 
ATOM     65  C   UNL     1       1.098  13.245  15.490  1.00  0.00     0.041 A 
ATOM     66  F   UNL     1       1.004  14.591  13.576  1.00  0.00    -0.206 F 
ATOM     67  C   UNL     1       1.793  12.368  16.318  1.00  0.00     0.022 A 
BRANCH  64  68
ATOM     68  S   UNL     1       4.009  10.800  16.959  1.00  0.00     0.124 S 
ATOM     69  O   UNL     1       4.321   9.857  15.887  1.00  0.00    -0.237 OA
ATOM     70  O   UNL     1       5.144  11.514  17.532  1.00  0.00    -0.237 OA
ATOM     71  O   UNL     1       3.015  10.330  17.922  1.00  0.00    -0.744 OA
ENDBRANCH  64  68
ENDBRANCH  47  61
BRANCH  48  72
ATOM     72  C   UNL     1       7.180  17.082   5.625  1.00  0.00     0.023 A 
ATOM     73  C   UNL     1       8.334  17.882   5.612  1.00  0.00     0.031 A 
ATOM     74  C   UNL     1       6.543  16.827   4.398  1.00  0.00     0.131 A 
ATOM     75  C   UNL     1       8.787  18.439   4.406  1.00  0.00     0.055 A 
ATOM     76  C   UNL     1       7.028  17.340   3.193  1.00  0.00     0.041 A 
ATOM     77  F   UNL     1       5.440  16.062   4.351  1.00  0.00    -0.206 F 
ATOM     78  C   UNL     1       8.150  18.163   3.195  1.00  0.00     0.022 A 
BRANCH  75  79
ATOM     79  S   UNL     1      10.177  19.604   4.456  1.00  0.00     0.124 S 
ATOM     80  O   UNL     1       9.675  20.626   5.368  1.00  0.00    -0.237 OA
ATOM     81  O   UNL     1      11.257  18.764   4.964  1.00  0.00    -0.237 OA
ATOM     82  O   UNL     1      10.319  20.024   3.064  1.00  0.00    -0.744 OA
ENDBRANCH  75  79
ENDBRANCH  48  72
BRANCH  60  83
ATOM     83  C   UNL     1       4.542  20.121  11.324  1.00  0.00     0.023 A 
ATOM     84  C   UNL     1       3.672  20.995  10.651  1.00  0.00     0.031 A 
ATOM     85  C   UNL     1       5.293  20.628  12.399  1.00  0.00     0.131 A 
ATOM     86  C   UNL     1       3.612  22.345  11.028  1.00  0.00     0.055 A 
ATOM     87  C   UNL     1       5.184  21.957  12.808  1.00  0.00     0.041 A 
ATOM     88  F   UNL     1       6.140  19.834  13.075  1.00  0.00    -0.206 F 
ATOM     89  C   UNL     1       4.349  22.827  12.114  1.00  0.00     0.022 A 
BRANCH  86  90
ATOM     90  S   UNL     1       2.619  23.485  10.026  1.00  0.00     0.124 S 
ATOM     91  O   UNL     1       3.245  23.358   8.714  1.00  0.00    -0.237 OA
ATOM     92  O   UNL     1       1.278  22.922  10.150  1.00  0.00    -0.237 OA
ATOM     93  O   UNL     1       2.812  24.776  10.684  1.00  0.00    -0.744 OA
ENDBRANCH  86  90
ENDBRANCH  60  83
ENDBRANCH  34  35
ENDBRANCH  26  29
ENDBRANCH  24  25
ENDBRANCH  23  24
ENDBRANCH   1  23
TORSDOF 19
