REMARK SMILES CC(=O)Nc1ccc(/C=C2/CCc3oc(C(=O)NCCCCNC(=O)c4ccc(-c5c6nc(c(-c7cc(S(=O)(=O)[O-])ccc7F)c7ccc([nH]7)c(-c7cc(S(=O)(=O)[O-])ccc7F)c7nc(c(-c8cc(S(=O)(=O)[O-])ccc8F)c8ccc5[nH]8)C=C7)C=C6)cc4)c(C)c3C2=O)cc1
REMARK SMILES IDX 21 1 20 2 19 3 18 4 16 5 17 6 15 8 9 9 10 10 11 11 92 12
REMARK SMILES IDX 12 13 91 14 93 15 13 16 89 17 14 18 90 19 8 20 5 21 6 22
REMARK SMILES IDX 95 23 7 24 94 25 4 26 1 27 2 28 3 29 22 31 23 32 24 33 25 35
REMARK SMILES IDX 26 36 27 37 88 38 28 39 87 40 29 41 30 42 31 43 81 44 32 45
REMARK SMILES IDX 86 46 80 47 82 48 33 49 85 50 79 51 78 52 34 54 66 55 46 56
REMARK SMILES IDX 65 57 47 58 50 59 64 60 83 61 48 62 49 63 63 65 84 66 51 67
REMARK SMILES IDX 35 68 36 69 44 70 37 71 43 72 45 73 42 74 38 75 39 76 40 77
REMARK SMILES IDX 41 78 67 79 68 80 76 81 69 82 75 83 77 84 74 85 70 86 71 87
REMARK SMILES IDX 72 88 73 89 52 90 53 91 61 92 54 93 60 94 62 95 59 96 55 97
REMARK SMILES IDX 56 98 57 99 58 100
REMARK H PARENT 18 7 4 30 23 34 82 53 50 64
REMARK Flexibility Score: inf
ROOT
ATOM      1  C   UNL     1       0.891  14.938   0.500  1.00  0.00     0.023 C 
ENDROOT
BRANCH   1   2
ATOM      2  C   UNL     1       1.651  13.609   0.639  1.00  0.00     0.023 C 
BRANCH   2   3
ATOM      3  C   UNL     1       0.787  12.408   1.032  1.00  0.00     0.116 C 
BRANCH   3   4
ATOM      4  N   UNL     1      -0.086  11.983  -0.048  1.00  0.00    -0.349 N 
ATOM      5  C   UNL     1      -0.006  10.947  -0.953  1.00  0.00     0.287 C 
ATOM      6  O   UNL     1      -0.937  10.880  -1.760  1.00  0.00    -0.266 OA
ATOM      7  H   UNL     1      -0.889  12.543  -0.154  1.00  0.00     0.163 HD
BRANCH   5   8
ATOM      8  C   UNL     1       1.102  10.000  -0.960  1.00  0.00     0.195 A 
ATOM      9  C   UNL     1       4.122   5.370  -0.168  1.00  0.00     0.016 C 
ATOM     10  C   UNL     1       4.176   6.650  -0.585  1.00  0.00     0.001 C 
ATOM     11  C   UNL     1       4.979   7.731   0.122  1.00  0.00     0.048 C 
ATOM     12  C   UNL     1       3.342   7.165  -1.730  1.00  0.00     0.192 C 
ATOM     13  C   UNL     1       4.058   8.817   0.722  1.00  0.00     0.081 C 
ATOM     14  C   UNL     1       2.577   8.325  -1.315  1.00  0.00     0.067 A 
ATOM     15  O   UNL     1       3.310   6.664  -2.838  1.00  0.00    -0.289 OA
ATOM     16  C   UNL     1       2.945   9.068  -0.223  1.00  0.00     0.116 A 
ATOM     17  C   UNL     1       1.356   8.896  -1.784  1.00  0.00     0.012 A 
ATOM     18  O   UNL     1       2.099  10.093  -0.019  1.00  0.00    -0.455 OA
ATOM     19  C   UNL     1       0.517   8.338  -2.880  1.00  0.00     0.049 C 
BRANCH   9  20
ATOM     20  C   UNL     1       3.252   4.275  -0.646  1.00  0.00    -0.025 A 
ATOM     21  C   UNL     1       1.597   2.117  -1.420  1.00  0.00     0.041 A 
ATOM     22  C   UNL     1       1.182   3.428  -1.619  1.00  0.00     0.027 A 
ATOM     23  C   UNL     1       2.847   1.878  -0.848  1.00  0.00     0.027 A 
ATOM     24  C   UNL     1       1.976   4.489  -1.181  1.00  0.00     0.010 A 
ATOM     25  C   UNL     1       3.672   2.950  -0.474  1.00  0.00     0.010 A 
BRANCH  21  26
ATOM     26  N   UNL     1       0.739   1.101  -1.858  1.00  0.00    -0.326 N 
ATOM     27  C   UNL     1       0.939  -0.414   0.090  1.00  0.00     0.114 C 
ATOM     28  C   UNL     1       0.505  -0.134  -1.324  1.00  0.00     0.221 C 
ATOM     29  O   UNL     1      -0.127  -0.968  -1.974  1.00  0.00    -0.275 OA
ATOM     30  H   UNL     1       0.228   1.308  -2.673  1.00  0.00     0.169 HD
ENDBRANCH  21  26
ENDBRANCH   9  20
ENDBRANCH   5   8
ENDBRANCH   3   4
ENDBRANCH   2   3
ENDBRANCH   1   2
BRANCH   1  31
ATOM     31  C   UNL     1       0.210  15.431   1.778  1.00  0.00     0.116 C 
BRANCH  31  32
ATOM     32  N   UNL     1       1.158  15.691   2.856  1.00  0.00    -0.352 N 
ATOM     33  C   UNL     1       0.891  15.951   4.184  1.00  0.00     0.251 C 
ATOM     34  H   UNL     1       2.109  15.679   2.603  1.00  0.00     0.163 HD
ATOM     35  O   UNL     1       1.732  16.512   4.880  1.00  0.00    -0.269 OA
BRANCH  33  36
ATOM     36  C   UNL     1      -0.416  15.568   4.752  1.00  0.00     0.039 A 
ATOM     37  C   UNL     1      -1.126  16.467   5.552  1.00  0.00     0.014 A 
ATOM     38  C   UNL     1      -0.943  14.309   4.465  1.00  0.00     0.014 A 
ATOM     39  C   UNL     1      -2.416  16.137   5.967  1.00  0.00     0.010 A 
ATOM     40  C   UNL     1      -2.249  14.014   4.811  1.00  0.00     0.010 A 
ATOM     41  C   UNL     1      -2.995  14.923   5.564  1.00  0.00    -0.014 A 
BRANCH  41  42
ATOM     42  C   UNL     1      -4.432  14.695   5.770  1.00  0.00     0.031 A 
ATOM     43  C   UNL     1      -5.333  15.761   5.247  1.00  0.00     0.074 A 
ATOM     44  C   UNL     1      -4.972  13.522   6.165  1.00  0.00     0.049 A 
ATOM     45  N   UNL     1      -6.160  16.493   5.917  1.00  0.00    -0.248 NA
ATOM     46  C   UNL     1      -5.237  16.133   3.827  1.00  0.00     0.031 C 
ATOM     47  C   UNL     1      -4.269  12.275   6.465  1.00  0.00     0.029 A 
ATOM     48  N   UNL     1      -6.288  13.159   6.242  1.00  0.00    -0.354 N 
ATOM     49  C   UNL     1      -6.856  17.259   4.985  1.00  0.00     0.074 A 
ATOM     50  C   UNL     1      -6.123  17.128   3.753  1.00  0.00     0.031 C 
ATOM     51  C   UNL     1      -5.147  11.251   6.444  1.00  0.00     0.029 A 
ATOM     52  C   UNL     1      -6.489  11.781   6.267  1.00  0.00     0.049 A 
ATOM     53  H   UNL     1      -7.025  13.811   6.276  1.00  0.00     0.167 HD
ATOM     54  C   UNL     1      -8.093  17.763   5.262  1.00  0.00     0.034 A 
ATOM     55  C   UNL     1      -7.658  11.105   6.114  1.00  0.00     0.034 A 
ATOM     56  C   UNL     1      -8.372  17.702   6.682  1.00  0.00     0.049 A 
ATOM     57  C   UNL     1      -8.748  12.032   6.507  1.00  0.00     0.074 A 
ATOM     58  C   UNL     1      -7.726  18.161   7.816  1.00  0.00     0.029 A 
ATOM     59  N   UNL     1      -9.281  16.769   7.136  1.00  0.00    -0.354 N 
ATOM     60  N   UNL     1      -8.908  12.468   7.726  1.00  0.00    -0.248 NA
ATOM     61  C   UNL     1      -9.397  12.834   5.480  1.00  0.00     0.031 C 
ATOM     62  C   UNL     1      -7.891  17.120   8.776  1.00  0.00     0.029 A 
ATOM     63  C   UNL     1      -8.700  16.135   8.206  1.00  0.00     0.049 A 
ATOM     64  H   UNL     1     -10.175  16.592   6.764  1.00  0.00     0.167 HD
ATOM     65  C   UNL     1      -9.253  13.802   7.584  1.00  0.00     0.074 A 
ATOM     66  C   UNL     1      -9.671  13.933   6.190  1.00  0.00     0.031 C 
ATOM     67  C   UNL     1      -8.890  14.732   8.518  1.00  0.00     0.034 A 
BRANCH  54  68
ATOM     68  C   UNL     1      -9.204  17.984   4.251  1.00  0.00     0.023 A 
ATOM     69  C   UNL     1     -10.433  18.462   4.751  1.00  0.00     0.031 A 
ATOM     70  C   UNL     1      -9.241  17.480   2.933  1.00  0.00     0.131 A 
ATOM     71  C   UNL     1     -11.629  18.283   4.035  1.00  0.00     0.055 A 
ATOM     72  C   UNL     1     -10.422  17.383   2.189  1.00  0.00     0.041 A 
ATOM     73  F   UNL     1      -8.167  16.970   2.321  1.00  0.00    -0.206 F 
ATOM     74  C   UNL     1     -11.633  17.744   2.754  1.00  0.00     0.022 A 
BRANCH  71  75
ATOM     75  S   UNL     1     -13.191  18.555   4.911  1.00  0.00     0.124 S 
ATOM     76  O   UNL     1     -13.012  17.709   6.086  1.00  0.00    -0.237 OA
ATOM     77  O   UNL     1     -13.159  19.995   5.141  1.00  0.00    -0.237 OA
ATOM     78  O   UNL     1     -14.198  18.097   3.956  1.00  0.00    -0.744 OA
ENDBRANCH  71  75
ENDBRANCH  54  68
BRANCH  55  79
ATOM     79  C   UNL     1      -7.870   9.766   5.498  1.00  0.00     0.023 A 
ATOM     80  C   UNL     1      -9.067   9.037   5.659  1.00  0.00     0.031 A 
ATOM     81  C   UNL     1      -6.956   9.269   4.540  1.00  0.00     0.131 A 
ATOM     82  C   UNL     1      -9.301   7.870   4.892  1.00  0.00     0.055 A 
ATOM     83  C   UNL     1      -7.183   8.106   3.801  1.00  0.00     0.041 A 
ATOM     84  F   UNL     1      -5.841   9.944   4.219  1.00  0.00    -0.206 F 
ATOM     85  C   UNL     1      -8.364   7.405   3.967  1.00  0.00     0.022 A 
BRANCH  82  86
ATOM     86  S   UNL     1     -10.902   7.005   4.989  1.00  0.00     0.124 S 
ATOM     87  O   UNL     1     -10.779   6.266   6.240  1.00  0.00    -0.237 OA
ATOM     88  O   UNL     1     -11.860   8.105   4.974  1.00  0.00    -0.237 OA
ATOM     89  O   UNL     1     -10.911   6.176   3.782  1.00  0.00    -0.744 OA
ENDBRANCH  82  86
ENDBRANCH  55  79
BRANCH  67  90
ATOM     90  C   UNL     1      -8.407  14.264   9.876  1.00  0.00     0.023 A 
ATOM     91  C   UNL     1      -7.354  13.346  10.084  1.00  0.00     0.031 A 
ATOM     92  C   UNL     1      -8.960  14.885  11.012  1.00  0.00     0.131 A 
ATOM     93  C   UNL     1      -6.906  13.067  11.389  1.00  0.00     0.055 A 
ATOM     94  C   UNL     1      -8.496  14.627  12.301  1.00  0.00     0.041 A 
ATOM     95  F   UNL     1      -9.944  15.791  10.884  1.00  0.00    -0.206 F 
ATOM     96  C   UNL     1      -7.471  13.709  12.495  1.00  0.00     0.022 A 
BRANCH  93  97
ATOM     97  S   UNL     1      -5.585  11.846  11.672  1.00  0.00     0.124 S 
ATOM     98  O   UNL     1      -5.986  10.710  10.851  1.00  0.00    -0.237 OA
ATOM     99  O   UNL     1      -4.391  12.564  11.232  1.00  0.00    -0.237 OA
ATOM    100  O   UNL     1      -5.649  11.606  13.115  1.00  0.00    -0.744 OA
ENDBRANCH  93  97
ENDBRANCH  67  90
ENDBRANCH  41  42
ENDBRANCH  33  36
ENDBRANCH  31  32
ENDBRANCH   1  31
TORSDOF 16
