REMARK SMILES C[N@H+]1CCCN(c2nc3ccccc3c(=O)n2CC(=O)NCCCCNC(=O)c2ccc(-c3c4nc(c(-c5cc(S(=O)(=O)[O-])ccc5F)c5ccc([nH]5)c(-c5cc(S(=O)(=O)[O-])ccc5F)c5nc(c(-c6cc(S(=O)(=O)[O-])ccc6F)c6ccc3[nH]6)C=C5)C=C4)cc2)CC1
REMARK SMILES IDX 22 1 21 2 19 3 20 4 18 6 17 7 7 8 8 9 9 10 15 11 10 12 14 13
REMARK SMILES IDX 16 14 11 15 13 16 12 17 6 18 92 19 93 20 2 21 1 22 3 24 5 26
REMARK SMILES IDX 4 27 23 29 24 30 25 31 26 32 27 33 28 35 29 36 30 37 91 38
REMARK SMILES IDX 31 39 90 40 32 41 33 42 34 43 84 44 35 45 89 46 83 47 85 48
REMARK SMILES IDX 36 49 88 50 82 51 81 52 37 54 69 55 49 56 68 57 50 58 53 59
REMARK SMILES IDX 67 60 86 61 51 62 52 63 66 65 87 66 54 67 38 68 39 69 47 70
REMARK SMILES IDX 40 71 46 72 48 73 45 74 41 75 42 76 43 77 44 78 70 79 71 80
REMARK SMILES IDX 79 81 72 82 78 83 80 84 77 85 73 86 74 87 75 88 76 89 55 90
REMARK SMILES IDX 56 91 64 92 57 93 63 94 65 95 62 96 58 97 59 98 60 99 61 100
REMARK H PARENT 21 5 2 23 26 34 85 53 53 64
REMARK Flexibility Score: 80.00
ROOT
ATOM      1  C   UNL     1      -1.551   6.490  -1.113  1.00  0.00     0.116 C 
ENDROOT
BRANCH   1   2
ATOM      2  N   UNL     1      -2.631   6.543  -2.068  1.00  0.00    -0.355 N 
ATOM      3  C   UNL     1      -2.861   5.713  -3.131  1.00  0.00     0.240 C 
ATOM      4  O   UNL     1      -4.003   5.699  -3.600  1.00  0.00    -0.273 OA
ATOM      5  H   UNL     1      -3.285   7.268  -1.939  1.00  0.00     0.163 HD
BRANCH   3   6
ATOM      6  C   UNL     1      -1.804   4.696  -3.596  1.00  0.00     0.229 C 
BRANCH   6   7
ATOM      7  N   UNL     1      -0.492   5.276  -3.888  1.00  0.00    -0.269 N 
ATOM      8  C   UNL     1       0.675   4.942  -3.206  1.00  0.00     0.209 A 
ATOM      9  N   UNL     1       1.793   5.583  -3.413  1.00  0.00    -0.214 NA
ATOM     10  C   UNL     1       1.833   6.632  -4.335  1.00  0.00     0.080 A 
ATOM     11  C   UNL     1      -0.481   6.180  -4.951  1.00  0.00     0.263 A 
ATOM     12  C   UNL     1       3.004   7.385  -4.457  1.00  0.00     0.029 A 
ATOM     13  C   UNL     1       0.744   6.966  -5.127  1.00  0.00     0.066 A 
ATOM     14  O   UNL     1      -1.424   6.357  -5.718  1.00  0.00    -0.268 OA
ATOM     15  C   UNL     1       3.071   8.463  -5.346  1.00  0.00     0.002 A 
ATOM     16  C   UNL     1       0.795   8.042  -6.022  1.00  0.00     0.016 A 
ATOM     17  C   UNL     1       1.964   8.794  -6.127  1.00  0.00     0.001 A 
BRANCH   8  18
ATOM     18  N   UNL     1       0.683   3.930  -2.257  1.00  0.00    -0.336 N 
BRANCH  18  19
ATOM     19  C   UNL     1       0.528   2.527  -2.681  1.00  0.00     0.181 C 
BRANCH  19  20
ATOM     20  C   UNL     1       1.252   1.462  -1.825  1.00  0.00     0.283 C 
BRANCH  20  21
ATOM     21  N   UNL     1       0.608   1.189  -0.523  1.00  0.00    -0.336 N 
ATOM     22  C   UNL     1       0.991  -0.142  -0.036  1.00  0.00     0.332 C 
ATOM     23  H   UNL     1      -0.397   1.240  -0.688  1.00  0.00     0.347 HD
BRANCH  21  24
ATOM     24  C   UNL     1       0.944   2.181   0.508  1.00  0.00     0.263 CG0
ATOM     25  G   UNL     1       0.544   3.613   0.179  1.00  0.00     0.000 G0
ENDBRANCH  21  24
ENDBRANCH  20  21
ENDBRANCH  19  20
ENDBRANCH  18  19
BRANCH  18  26
ATOM     26  C   UNL     1       1.344   4.195  -0.977  1.00  0.00     0.125 C 
BRANCH  26  27
ATOM     27  C   UNL     1       0.544   3.613   0.179  1.00  0.00     0.083 CG0
ATOM     28  G   UNL     1       0.944   2.181   0.508  1.00  0.00     0.000 G0
ENDBRANCH  26  27
ENDBRANCH  18  26
ENDBRANCH   8  18
ENDBRANCH   6   7
ENDBRANCH   3   6
ENDBRANCH   1   2
BRANCH   1  29
ATOM     29  C   UNL     1      -0.569   7.647  -1.253  1.00  0.00     0.023 C 
BRANCH  29  30
ATOM     30  C   UNL     1      -1.071   8.976  -0.693  1.00  0.00     0.023 C 
BRANCH  30  31
ATOM     31  C   UNL     1      -1.452   8.958   0.783  1.00  0.00     0.116 C 
BRANCH  31  32
ATOM     32  N   UNL     1      -0.366   8.575   1.676  1.00  0.00    -0.352 N 
ATOM     33  C   UNL     1      -0.153   9.002   2.970  1.00  0.00     0.251 C 
ATOM     34  H   UNL     1       0.291   7.938   1.314  1.00  0.00     0.163 HD
ATOM     35  O   UNL     1       0.850   8.653   3.584  1.00  0.00    -0.269 OA
BRANCH  33  36
ATOM     36  C   UNL     1      -1.130   9.933   3.575  1.00  0.00     0.039 A 
ATOM     37  C   UNL     1      -2.494   9.639   3.530  1.00  0.00     0.014 A 
ATOM     38  C   UNL     1      -0.685  11.157   4.080  1.00  0.00     0.014 A 
ATOM     39  C   UNL     1      -3.417  10.637   3.815  1.00  0.00     0.010 A 
ATOM     40  C   UNL     1      -1.620  12.131   4.446  1.00  0.00     0.010 A 
ATOM     41  C   UNL     1      -2.992  11.901   4.259  1.00  0.00    -0.014 A 
BRANCH  41  42
ATOM     42  C   UNL     1      -4.003  12.962   4.512  1.00  0.00     0.031 A 
ATOM     43  C   UNL     1      -4.036  14.217   3.678  1.00  0.00     0.074 A 
ATOM     44  C   UNL     1      -4.933  12.765   5.467  1.00  0.00     0.049 A 
ATOM     45  N   UNL     1      -4.867  15.225   3.746  1.00  0.00    -0.248 NA
ATOM     46  C   UNL     1      -3.006  14.365   2.637  1.00  0.00     0.031 C 
ATOM     47  C   UNL     1      -4.996  11.590   6.337  1.00  0.00     0.029 A 
ATOM     48  N   UNL     1      -6.005  13.527   5.857  1.00  0.00    -0.354 N 
ATOM     49  C   UNL     1      -4.451  16.133   2.779  1.00  0.00     0.074 A 
ATOM     50  C   UNL     1      -3.277  15.570   2.151  1.00  0.00     0.031 C 
ATOM     51  C   UNL     1      -6.073  11.687   7.127  1.00  0.00     0.029 A 
ATOM     52  C   UNL     1      -6.742  12.961   6.872  1.00  0.00     0.049 A 
ATOM     53  H   UNL     1      -6.227  14.396   5.450  1.00  0.00     0.167 HD
ATOM     54  C   UNL     1      -5.008  17.320   2.440  1.00  0.00     0.034 A 
ATOM     55  C   UNL     1      -7.823  13.415   7.538  1.00  0.00     0.034 A 
ATOM     56  C   UNL     1      -6.202  17.853   3.047  1.00  0.00     0.049 A 
ATOM     57  C   UNL     1      -8.422  14.738   7.138  1.00  0.00     0.074 A 
ATOM     58  C   UNL     1      -6.864  19.028   2.735  1.00  0.00     0.029 A 
ATOM     59  N   UNL     1      -6.914  17.255   4.075  1.00  0.00    -0.354 N 
ATOM     60  N   UNL     1      -8.047  15.554   6.182  1.00  0.00    -0.248 NA
ATOM     61  C   UNL     1      -9.592  15.203   7.896  1.00  0.00     0.031 C 
ATOM     62  C   UNL     1      -7.943  19.167   3.607  1.00  0.00     0.029 A 
ATOM     63  C   UNL     1      -7.994  18.049   4.424  1.00  0.00     0.049 A 
ATOM     64  H   UNL     1      -6.686  16.394   4.495  1.00  0.00     0.167 HD
ATOM     65  C   UNL     1      -8.938  16.622   6.217  1.00  0.00     0.074 A 
ATOM     66  C   UNL     1      -9.893  16.331   7.266  1.00  0.00     0.031 C 
ATOM     67  C   UNL     1      -8.953  17.746   5.459  1.00  0.00     0.034 A 
BRANCH  54  68
ATOM     68  C   UNL     1      -4.371  18.143   1.348  1.00  0.00     0.023 A 
ATOM     69  C   UNL     1      -3.829  19.407   1.650  1.00  0.00     0.031 A 
ATOM     70  C   UNL     1      -4.452  17.756  -0.000  1.00  0.00     0.131 A 
ATOM     71  C   UNL     1      -3.432  20.259   0.612  1.00  0.00     0.055 A 
ATOM     72  C   UNL     1      -4.020  18.595  -1.029  1.00  0.00     0.041 A 
ATOM     73  F   UNL     1      -4.961  16.560  -0.337  1.00  0.00    -0.206 F 
ATOM     74  C   UNL     1      -3.521  19.859  -0.725  1.00  0.00     0.022 A 
BRANCH  71  75
ATOM     75  S   UNL     1      -2.843  21.941   0.953  1.00  0.00     0.124 S 
ATOM     76  O   UNL     1      -1.545  21.948   0.280  1.00  0.00    -0.237 OA
ATOM     77  O   UNL     1      -3.876  22.758   0.324  1.00  0.00    -0.237 OA
ATOM     78  O   UNL     1      -2.784  22.003   2.409  1.00  0.00    -0.744 OA
ENDBRANCH  71  75
ENDBRANCH  54  68
BRANCH  55  79
ATOM     79  C   UNL     1      -8.405  12.579   8.629  1.00  0.00     0.023 A 
ATOM     80  C   UNL     1      -7.637  12.237   9.758  1.00  0.00     0.031 A 
ATOM     81  C   UNL     1      -9.686  12.018   8.507  1.00  0.00     0.131 A 
ATOM     82  C   UNL     1      -8.126  11.302  10.678  1.00  0.00     0.055 A 
ATOM     83  C   UNL     1     -10.200  11.144   9.467  1.00  0.00     0.041 A 
ATOM     84  F   UNL     1     -10.451  12.302   7.442  1.00  0.00    -0.206 F 
ATOM     85  C   UNL     1      -9.410  10.765  10.548  1.00  0.00     0.022 A 
BRANCH  82  86
ATOM     86  S   UNL     1      -7.047  10.631  11.975  1.00  0.00     0.124 S 
ATOM     87  O   UNL     1      -7.665  11.160  13.186  1.00  0.00    -0.237 OA
ATOM     88  O   UNL     1      -7.188   9.191  11.770  1.00  0.00    -0.237 OA
ATOM     89  O   UNL     1      -5.734  11.174  11.643  1.00  0.00    -0.744 OA
ENDBRANCH  82  86
ENDBRANCH  55  79
BRANCH  67  90
ATOM     90  C   UNL     1     -10.027  18.775   5.714  1.00  0.00     0.023 A 
ATOM     91  C   UNL     1     -10.967  19.078   4.711  1.00  0.00     0.031 A 
ATOM     92  C   UNL     1     -10.018  19.560   6.879  1.00  0.00     0.131 A 
ATOM     93  C   UNL     1     -11.834  20.165   4.876  1.00  0.00     0.055 A 
ATOM     94  C   UNL     1     -10.913  20.616   7.058  1.00  0.00     0.041 A 
ATOM     95  F   UNL     1      -9.132  19.316   7.859  1.00  0.00    -0.206 F 
ATOM     96  C   UNL     1     -11.817  20.931   6.046  1.00  0.00     0.022 A 
BRANCH  93  97
ATOM     97  S   UNL     1     -12.954  20.681   3.545  1.00  0.00     0.124 S 
ATOM     98  O   UNL     1     -14.264  20.511   4.170  1.00  0.00    -0.237 OA
ATOM     99  O   UNL     1     -12.547  22.066   3.319  1.00  0.00    -0.237 OA
ATOM    100  O   UNL     1     -12.659  19.755   2.457  1.00  0.00    -0.744 OA
ENDBRANCH  93  97
ENDBRANCH  67  90
ENDBRANCH  41  42
ENDBRANCH  33  36
ENDBRANCH  31  32
ENDBRANCH  30  31
ENDBRANCH  29  30
ENDBRANCH   1  29
TORSDOF 16
