REMARK SMILES CC(C)CCOCC[N@@H+]1[C@@H](C(=O)NCCCCNC(=O)c2ccc(-c3c4nc(c(-c5cc(S(=O)(=O)[O-])ccc5F)c5ccc([nH]5)c(-c5cc(S(=O)(=O)[O-])ccc5F)c5nc(c(-c6cc(S(=O)(=O)[O-])ccc6F)c6ccc3[nH]6)C=C5)C=C4)cc2)CC[C@H]2CCCC[C@H]21
REMARK SMILES IDX 14 1 13 2 11 3 12 4 10 6 9 7 91 8 84 10 86 11 90 12 85 13
REMARK SMILES IDX 87 14 89 15 88 16 8 17 7 18 6 19 5 20 4 21 2 22 1 23 3 24
REMARK SMILES IDX 15 25 16 26 17 27 18 28 19 29 20 31 21 32 22 33 83 34 23 35
REMARK SMILES IDX 82 36 24 37 25 38 26 39 76 40 27 41 81 42 75 43 77 44 28 45
REMARK SMILES IDX 80 46 74 47 73 48 29 50 61 51 41 52 60 53 42 54 45 55 59 56
REMARK SMILES IDX 78 57 43 58 44 59 58 61 79 62 46 63 30 64 31 65 39 66 32 67
REMARK SMILES IDX 38 68 40 69 37 70 33 71 34 72 35 73 36 74 62 75 63 76 71 77
REMARK SMILES IDX 64 78 70 79 72 80 69 81 65 82 66 83 67 84 68 85 47 86 48 87
REMARK SMILES IDX 56 88 49 89 55 90 57 91 54 92 50 93 51 94 52 95 53 96
REMARK H PARENT 13 5 9 9 18 30 77 49 45 60
REMARK Flexibility Score: inf
ROOT
ATOM      1  C   UNL     1      -2.498   2.160  -0.908  1.00  0.00     0.116 C 
ENDROOT
BRANCH   1   2
ATOM      2  N   UNL     1      -1.803   2.893  -1.946  1.00  0.00    -0.351 N 
ATOM      3  C   UNL     1      -0.465   3.142  -2.064  1.00  0.00     0.278 C 
ATOM      4  O   UNL     1      -0.060   3.636  -3.121  1.00  0.00    -0.268 OA
ATOM      5  H   UNL     1      -2.370   3.260  -2.662  1.00  0.00     0.163 HD
BRANCH   3   6
ATOM      6  C   UNL     1       0.522   2.837  -0.917  1.00  0.00     0.274 C 
ATOM      7  N   UNL     1       0.580   1.366  -0.566  1.00  0.00    -0.320 N 
ATOM      8  C   UNL     1       1.455   1.169   0.633  1.00  0.00     0.187 C 
ATOM      9  H   UNL     1      -0.347   1.008  -0.337  1.00  0.00     0.349 HD
ATOM     10  C   UNL     1       0.225   3.794   0.243  1.00  0.00     0.076 C 
ATOM     11  C   UNL     1       1.129   2.098   1.830  1.00  0.00     0.048 C 
ATOM     12  C   UNL     1       1.481  -0.249   1.247  1.00  0.00     0.065 C 
ATOM     13  C   UNL     1       1.165   3.562   1.408  1.00  0.00     0.016 C 
ATOM     14  C   UNL     1      -0.162   1.742   2.600  1.00  0.00     0.010 C 
ATOM     15  C   UNL     1       0.197  -0.710   1.931  1.00  0.00     0.006 C 
ATOM     16  C   UNL     1      -0.788   0.393   2.274  1.00  0.00     0.001 C 
BRANCH   7  17
ATOM     17  C   UNL     1       1.131   0.632  -1.761  1.00  0.00     0.291 C 
BRANCH  17  18
ATOM     18  C   UNL     1       0.106   0.113  -2.810  1.00  0.00     0.221 C 
BRANCH  18  19
ATOM     19  O   UNL     1      -0.235  -1.268  -2.650  1.00  0.00    -0.376 OA
BRANCH  19  20
ATOM     20  C   UNL     1      -1.111  -1.512  -1.562  1.00  0.00     0.160 C 
BRANCH  20  21
ATOM     21  C   UNL     1      -1.188  -3.007  -1.226  1.00  0.00     0.031 C 
BRANCH  21  22
ATOM     22  C   UNL     1       0.114  -3.844  -1.072  1.00  0.00    -0.015 C 
ATOM     23  C   UNL     1       1.419  -3.183  -1.498  1.00  0.00     0.007 C 
ATOM     24  C   UNL     1       0.262  -4.379   0.357  1.00  0.00     0.007 C 
ENDBRANCH  21  22
ENDBRANCH  20  21
ENDBRANCH  19  20
ENDBRANCH  18  19
ENDBRANCH  17  18
ENDBRANCH   7  17
ENDBRANCH   3   6
ENDBRANCH   1   2
BRANCH   1  25
ATOM     25  C   UNL     1      -3.484   3.024  -0.131  1.00  0.00     0.023 C 
BRANCH  25  26
ATOM     26  C   UNL     1      -4.655   3.548  -0.957  1.00  0.00     0.023 C 
BRANCH  26  27
ATOM     27  C   UNL     1      -5.479   2.478  -1.663  1.00  0.00     0.116 C 
BRANCH  27  28
ATOM     28  N   UNL     1      -6.057   1.508  -0.743  1.00  0.00    -0.352 N 
ATOM     29  C   UNL     1      -7.361   1.084  -0.647  1.00  0.00     0.251 C 
ATOM     30  H   UNL     1      -5.429   1.101  -0.103  1.00  0.00     0.163 HD
ATOM     31  O   UNL     1      -7.706   0.357   0.283  1.00  0.00    -0.269 OA
BRANCH  29  32
ATOM     32  C   UNL     1      -8.348   1.545  -1.646  1.00  0.00     0.039 A 
ATOM     33  C   UNL     1      -9.544   2.114  -1.205  1.00  0.00     0.014 A 
ATOM     34  C   UNL     1      -8.059   1.472  -3.012  1.00  0.00     0.014 A 
ATOM     35  C   UNL     1     -10.412   2.697  -2.131  1.00  0.00     0.010 A 
ATOM     36  C   UNL     1      -8.891   2.114  -3.924  1.00  0.00     0.010 A 
ATOM     37  C   UNL     1     -10.068   2.748  -3.492  1.00  0.00    -0.014 A 
BRANCH  37  38
ATOM     38  C   UNL     1     -10.898   3.489  -4.477  1.00  0.00     0.031 A 
ATOM     39  C   UNL     1     -11.558   2.754  -5.610  1.00  0.00     0.074 A 
ATOM     40  C   UNL     1     -10.973   4.834  -4.403  1.00  0.00     0.049 A 
ATOM     41  N   UNL     1     -12.220   3.233  -6.631  1.00  0.00    -0.248 NA
ATOM     42  C   UNL     1     -11.432   1.288  -5.611  1.00  0.00     0.031 C 
ATOM     43  C   UNL     1     -10.338   5.662  -3.373  1.00  0.00     0.029 A 
ATOM     44  N   UNL     1     -11.595   5.747  -5.219  1.00  0.00    -0.354 N 
ATOM     45  C   UNL     1     -12.567   2.134  -7.409  1.00  0.00     0.074 A 
ATOM     46  C   UNL     1     -12.009   0.967  -6.759  1.00  0.00     0.031 C 
ATOM     47  C   UNL     1     -10.612   6.955  -3.615  1.00  0.00     0.029 A 
ATOM     48  C   UNL     1     -11.396   7.056  -4.842  1.00  0.00     0.049 A 
ATOM     49  H   UNL     1     -12.134   5.489  -6.002  1.00  0.00     0.167 HD
ATOM     50  C   UNL     1     -13.294   2.104  -8.552  1.00  0.00     0.034 A 
ATOM     51  C   UNL     1     -11.777   8.209  -5.430  1.00  0.00     0.034 A 
ATOM     52  C   UNL     1     -13.872   3.272  -9.167  1.00  0.00     0.049 A 
ATOM     53  C   UNL     1     -12.567   8.143  -6.714  1.00  0.00     0.074 A 
ATOM     54  C   UNL     1     -14.722   3.337 -10.258  1.00  0.00     0.029 A 
ATOM     55  N   UNL     1     -13.650   4.580  -8.757  1.00  0.00    -0.354 N 
ATOM     56  N   UNL     1     -12.961   7.086  -7.387  1.00  0.00    -0.248 NA
ATOM     57  C   UNL     1     -12.964   9.422  -7.317  1.00  0.00     0.031 C 
ATOM     58  C   UNL     1     -14.954   4.685 -10.552  1.00  0.00     0.029 A 
ATOM     59  C   UNL     1     -14.307   5.460  -9.604  1.00  0.00     0.049 A 
ATOM     60  H   UNL     1     -13.107   4.843  -7.980  1.00  0.00     0.167 HD
ATOM     61  C   UNL     1     -13.676   7.577  -8.476  1.00  0.00     0.074 A 
ATOM     62  C   UNL     1     -13.672   9.020  -8.362  1.00  0.00     0.031 C 
ATOM     63  C   UNL     1     -14.284   6.897  -9.481  1.00  0.00     0.034 A 
BRANCH  50  64
ATOM     64  C   UNL     1     -13.484   0.771  -9.231  1.00  0.00     0.023 A 
ATOM     65  C   UNL     1     -14.229  -0.264  -8.642  1.00  0.00     0.031 A 
ATOM     66  C   UNL     1     -12.920   0.541 -10.499  1.00  0.00     0.131 A 
ATOM     67  C   UNL     1     -14.348  -1.500  -9.296  1.00  0.00     0.055 A 
ATOM     68  C   UNL     1     -13.099  -0.667 -11.175  1.00  0.00     0.041 A 
ATOM     69  F   UNL     1     -12.183   1.488 -11.100  1.00  0.00    -0.206 F 
ATOM     70  C   UNL     1     -13.808  -1.700 -10.569  1.00  0.00     0.022 A 
BRANCH  67  71
ATOM     71  S   UNL     1     -15.133  -2.877  -8.416  1.00  0.00     0.124 S 
ATOM     72  O   UNL     1     -14.254  -3.026  -7.258  1.00  0.00    -0.237 OA
ATOM     73  O   UNL     1     -16.467  -2.357  -8.141  1.00  0.00    -0.237 OA
ATOM     74  O   UNL     1     -15.077  -3.975  -9.378  1.00  0.00    -0.744 OA
ENDBRANCH  67  71
ENDBRANCH  50  64
BRANCH  51  75
ATOM     75  C   UNL     1     -11.397   9.528  -4.847  1.00  0.00     0.023 A 
ATOM     76  C   UNL     1     -12.377  10.431  -4.405  1.00  0.00     0.031 A 
ATOM     77  C   UNL     1     -10.052   9.938  -4.792  1.00  0.00     0.131 A 
ATOM     78  C   UNL     1     -12.006  11.719  -3.986  1.00  0.00     0.055 A 
ATOM     79  C   UNL     1      -9.683  11.198  -4.318  1.00  0.00     0.041 A 
ATOM     80  F   UNL     1      -9.073   9.114  -5.200  1.00  0.00    -0.206 F 
ATOM     81  C   UNL     1     -10.665  12.104  -3.928  1.00  0.00     0.022 A 
BRANCH  78  82
ATOM     82  S   UNL     1     -13.313  12.923  -3.625  1.00  0.00     0.124 S 
ATOM     83  O   UNL     1     -14.081  12.908  -4.865  1.00  0.00    -0.237 OA
ATOM     84  O   UNL     1     -13.960  12.326  -2.461  1.00  0.00    -0.237 OA
ATOM     85  O   UNL     1     -12.575  14.157  -3.362  1.00  0.00    -0.744 OA
ENDBRANCH  78  82
ENDBRANCH  51  75
BRANCH  63  86
ATOM     86  C   UNL     1     -15.025   7.713 -10.510  1.00  0.00     0.023 A 
ATOM     87  C   UNL     1     -14.346   8.541 -11.420  1.00  0.00     0.031 A 
ATOM     88  C   UNL     1     -16.428   7.660 -10.577  1.00  0.00     0.131 A 
ATOM     89  C   UNL     1     -15.075   9.320 -12.331  1.00  0.00     0.055 A 
ATOM     90  C   UNL     1     -17.145   8.395 -11.522  1.00  0.00     0.041 A 
ATOM     91  F   UNL     1     -17.125   6.886  -9.729  1.00  0.00    -0.206 F 
ATOM     92  C   UNL     1     -16.469   9.239 -12.399  1.00  0.00     0.022 A 
BRANCH  89  93
ATOM     93  S   UNL     1     -14.181  10.495 -13.384  1.00  0.00     0.124 S 
ATOM     94  O   UNL     1     -13.580  11.388 -12.399  1.00  0.00    -0.237 OA
ATOM     95  O   UNL     1     -13.257   9.628 -14.107  1.00  0.00    -0.237 OA
ATOM     96  O   UNL     1     -15.235  11.093 -14.202  1.00  0.00    -0.744 OA
ENDBRANCH  89  93
ENDBRANCH  63  86
ENDBRANCH  37  38
ENDBRANCH  29  32
ENDBRANCH  27  28
ENDBRANCH  26  27
ENDBRANCH  25  26
ENDBRANCH   1  25
TORSDOF 20
