REMARK SMILES CC1(C)CC[C@@]2(C(=O)NCCCCNC(=O)c3ccc(-c4c5nc(c(-c6cc(S(=O)(=O)[O-])ccc6F)c6ccc([nH]6)c(-c6cc(S(=O)(=O)[O-])ccc6F)c6nc(c(-c7cc(S(=O)(=O)[O-])ccc7F)c7ccc4[nH]7)C=C6)C=C5)cc3)CC[C@@]3(C)C(=CC[C@H]4[C@@]5(C)CC[C@H](O)C(C)(C)[C@@H]5CC[C@]43C)[C@@H]2C1
REMARK SMILES IDX 12 1 11 2 10 3 9 4 7 5 8 6 6 8 1 9 2 10 3 11 4 12 103 13
REMARK SMILES IDX 5 14 102 15 84 16 80 17 82 18 85 19 81 20 83 21 100 22 86 23
REMARK SMILES IDX 87 24 99 25 101 26 88 27 98 28 89 29 90 30 97 31 91 32 94 33
REMARK SMILES IDX 92 34 95 35 96 36 93 37 13 39 14 40 15 41 16 43 17 44 18 45
REMARK SMILES IDX 79 46 19 47 78 48 20 49 21 50 22 51 72 52 23 53 77 54 71 55
REMARK SMILES IDX 73 56 24 57 76 58 70 59 69 60 25 62 57 63 37 64 56 65 38 66
REMARK SMILES IDX 41 67 55 68 74 69 39 70 40 71 54 73 75 74 42 75 26 76 27 77
REMARK SMILES IDX 35 78 28 79 34 80 36 81 33 82 29 83 30 84 31 85 32 86 58 87
REMARK SMILES IDX 59 88 67 89 60 90 66 91 68 92 65 93 61 94 62 95 63 96 64 97
REMARK SMILES IDX 43 98 44 99 52 100 45 101 51 102 53 103 50 104 46 105 47 106
REMARK SMILES IDX 48 107 49 108
REMARK H PARENT 9 7 93 38 14 42 73 61 41 72
REMARK Flexibility Score: inf
ROOT
ATOM      1  C   UNL     1       2.301   1.435  -4.211  1.00  0.00     0.023 C 
ENDROOT
BRANCH   1   2
ATOM      2  C   UNL     1       2.203  -0.063  -3.874  1.00  0.00     0.023 C 
BRANCH   2   3
ATOM      3  C   UNL     1       1.349  -0.576  -2.704  1.00  0.00     0.116 C 
BRANCH   3   4
ATOM      4  N   UNL     1      -0.039  -0.248  -2.479  1.00  0.00    -0.356 N 
ATOM      5  C   UNL     1      -1.064  -1.102  -2.070  1.00  0.00     0.226 C 
ATOM      6  O   UNL     1      -1.246  -2.200  -2.595  1.00  0.00    -0.274 OA
ATOM      7  H   UNL     1      -0.293   0.691  -2.633  1.00  0.00     0.163 HD
BRANCH   5   8
ATOM      8  C   UNL     1      -1.844  -0.686  -0.762  1.00  0.00     0.056 C 
ATOM      9  C   UNL     1       0.769  -0.471   2.345  1.00  0.00     0.011 C 
ATOM     10  C   UNL     1       0.736  -0.492   0.802  1.00  0.00    -0.035 C 
ATOM     11  C   UNL     1       2.241  -0.546   0.383  1.00  0.00     0.011 C 
ATOM     12  C   UNL     1       0.093  -1.831   0.395  1.00  0.00     0.007 C 
ATOM     13  C   UNL     1      -0.018   0.823   0.239  1.00  0.00     0.015 C 
ATOM     14  C   UNL     1      -1.415  -1.731   0.293  1.00  0.00     0.018 C 
ATOM     15  C   UNL     1      -1.529   0.752  -0.303  1.00  0.00     0.031 C 
ATOM     16  C   UNL     1      -2.053   1.696  -1.492  1.00  0.00    -0.064 C 
ATOM     17  C   UNL     1      -3.382  -0.799  -0.833  1.00  0.00     0.018 C 
ATOM     18  C   UNL     1      -3.510   1.501  -2.069  1.00  0.00    -0.006 C 
ATOM     19  C   UNL     1      -1.236   2.573  -2.100  1.00  0.00    -0.027 C 
ATOM     20  C   UNL     1      -3.998   0.040  -1.933  1.00  0.00     0.013 C 
ATOM     21  C   UNL     1      -4.371   2.355  -1.068  1.00  0.00     0.017 C 
ATOM     22  C   UNL     1      -3.751   2.031  -3.658  1.00  0.00    -0.020 C 
ATOM     23  C   UNL     1      -1.349   2.953  -3.552  1.00  0.00     0.032 C 
ATOM     24  C   UNL     1      -2.397   2.198  -4.433  1.00  0.00     0.006 C 
ATOM     25  C   UNL     1      -4.796   1.229  -4.553  1.00  0.00     0.008 C 
ATOM     26  C   UNL     1      -4.361   3.490  -3.623  1.00  0.00     0.012 C 
ATOM     27  C   UNL     1      -1.903   1.090  -5.535  1.00  0.00    -0.025 C 
ATOM     28  C   UNL     1      -4.351   0.796  -5.985  1.00  0.00     0.005 C 
ATOM     29  C   UNL     1      -1.344   1.952  -6.705  1.00  0.00     0.012 C 
ATOM     30  C   UNL     1      -0.797   0.154  -5.101  1.00  0.00     0.010 C 
ATOM     31  C   UNL     1      -3.020   0.064  -5.921  1.00  0.00     0.003 C 
ATOM     32  C   UNL     1      -0.264  -0.885  -6.084  1.00  0.00     0.033 C 
ATOM     33  C   UNL     1      -2.615  -1.016  -7.043  1.00  0.00    -0.006 C 
ATOM     34  C   UNL     1      -1.371  -1.813  -6.535  1.00  0.00     0.120 C 
ATOM     35  C   UNL     1      -2.304  -0.449  -8.441  1.00  0.00     0.014 C 
ATOM     36  C   UNL     1      -3.736  -2.063  -7.235  1.00  0.00     0.014 C 
BRANCH  34  37
ATOM     37  O   UNL     1      -0.850  -2.704  -7.524  1.00  0.00    -0.393 OA
ATOM     38  H   UNL     1      -0.531  -2.192  -8.284  1.00  0.00     0.210 HD
ENDBRANCH  34  37
ENDBRANCH   5   8
ENDBRANCH   3   4
ENDBRANCH   2   3
ENDBRANCH   1   2
BRANCH   1  39
ATOM     39  C   UNL     1       2.768   2.326  -3.076  1.00  0.00     0.116 C 
BRANCH  39  40
ATOM     40  N   UNL     1       4.170   2.072  -2.797  1.00  0.00    -0.352 N 
ATOM     41  C   UNL     1       5.224   2.381  -3.621  1.00  0.00     0.251 C 
ATOM     42  H   UNL     1       4.385   1.640  -1.939  1.00  0.00     0.163 HD
ATOM     43  O   UNL     1       6.259   1.688  -3.572  1.00  0.00    -0.269 OA
BRANCH  41  44
ATOM     44  C   UNL     1       5.117   3.503  -4.577  1.00  0.00     0.039 A 
ATOM     45  C   UNL     1       5.678   3.414  -5.855  1.00  0.00     0.014 A 
ATOM     46  C   UNL     1       4.468   4.676  -4.186  1.00  0.00     0.014 A 
ATOM     47  C   UNL     1       5.573   4.496  -6.736  1.00  0.00     0.010 A 
ATOM     48  C   UNL     1       4.255   5.696  -5.103  1.00  0.00     0.010 A 
ATOM     49  C   UNL     1       4.851   5.644  -6.370  1.00  0.00    -0.014 A 
BRANCH  49  50
ATOM     50  C   UNL     1       4.778   6.850  -7.238  1.00  0.00     0.031 A 
ATOM     51  C   UNL     1       5.297   8.168  -6.713  1.00  0.00     0.074 A 
ATOM     52  C   UNL     1       4.177   6.786  -8.441  1.00  0.00     0.049 A 
ATOM     53  N   UNL     1       5.213   9.365  -7.233  1.00  0.00    -0.248 NA
ATOM     54  C   UNL     1       5.940   8.139  -5.389  1.00  0.00     0.031 C 
ATOM     55  C   UNL     1       3.582   5.583  -9.025  1.00  0.00     0.029 A 
ATOM     56  N   UNL     1       3.953   7.758  -9.384  1.00  0.00    -0.354 N 
ATOM     57  C   UNL     1       5.751  10.229  -6.281  1.00  0.00     0.074 A 
ATOM     58  C   UNL     1       6.067   9.427  -5.121  1.00  0.00     0.031 C 
ATOM     59  C   UNL     1       3.089   5.881 -10.238  1.00  0.00     0.029 A 
ATOM     60  C   UNL     1       3.287   7.303 -10.498  1.00  0.00     0.049 A 
ATOM     61  H   UNL     1       4.242   8.692  -9.273  1.00  0.00     0.167 HD
ATOM     62  C   UNL     1       5.993  11.560  -6.379  1.00  0.00     0.034 A 
ATOM     63  C   UNL     1       2.873   7.962 -11.598  1.00  0.00     0.034 A 
ATOM     64  C   UNL     1       5.704  12.323  -7.567  1.00  0.00     0.049 A 
ATOM     65  C   UNL     1       3.170   9.436 -11.706  1.00  0.00     0.074 A 
ATOM     66  C   UNL     1       5.982  13.652  -7.831  1.00  0.00     0.029 A 
ATOM     67  N   UNL     1       5.061  11.820  -8.694  1.00  0.00    -0.354 N 
ATOM     68  N   UNL     1       3.747  10.228 -10.831  1.00  0.00    -0.248 NA
ATOM     69  C   UNL     1       2.773  10.101 -12.952  1.00  0.00     0.031 C 
ATOM     70  C   UNL     1       5.438  13.971  -9.080  1.00  0.00     0.029 A 
ATOM     71  C   UNL     1       4.898  12.822  -9.638  1.00  0.00     0.049 A 
ATOM     72  H   UNL     1       4.765  10.888  -8.804  1.00  0.00     0.167 HD
ATOM     73  C   UNL     1       3.800  11.484 -11.429  1.00  0.00     0.074 A 
ATOM     74  C   UNL     1       3.215  11.334 -12.748  1.00  0.00     0.031 C 
ATOM     75  C   UNL     1       4.289  12.653 -10.939  1.00  0.00     0.034 A 
BRANCH  62  76
ATOM     76  C   UNL     1       6.567  12.257  -5.162  1.00  0.00     0.023 A 
ATOM     77  C   UNL     1       7.785  11.857  -4.580  1.00  0.00     0.031 A 
ATOM     78  C   UNL     1       5.853  13.288  -4.527  1.00  0.00     0.131 A 
ATOM     79  C   UNL     1       8.187  12.392  -3.347  1.00  0.00     0.055 A 
ATOM     80  C   UNL     1       6.314  13.894  -3.354  1.00  0.00     0.041 A 
ATOM     81  F   UNL     1       4.675  13.708  -5.016  1.00  0.00    -0.206 F 
ATOM     82  C   UNL     1       7.474  13.429  -2.743  1.00  0.00     0.022 A 
BRANCH  79  83
ATOM     83  S   UNL     1       9.533  11.572  -2.446  1.00  0.00     0.124 S 
ATOM     84  O   UNL     1       9.025  10.206  -2.340  1.00  0.00    -0.237 OA
ATOM     85  O   UNL     1      10.671  11.762  -3.340  1.00  0.00    -0.237 OA
ATOM     86  O   UNL     1       9.598  12.304  -1.185  1.00  0.00    -0.744 OA
ENDBRANCH  79  83
ENDBRANCH  62  76
BRANCH  63  87
ATOM     87  C   UNL     1       2.141   7.233 -12.674  1.00  0.00     0.023 A 
ATOM     88  C   UNL     1       2.709   7.041 -13.943  1.00  0.00     0.031 A 
ATOM     89  C   UNL     1       0.860   6.699 -12.438  1.00  0.00     0.131 A 
ATOM     90  C   UNL     1       1.990   6.356 -14.936  1.00  0.00     0.055 A 
ATOM     91  C   UNL     1       0.169   5.978 -13.413  1.00  0.00     0.041 A 
ATOM     92  F   UNL     1       0.274   6.847 -11.239  1.00  0.00    -0.206 F 
ATOM     93  C   UNL     1       0.732   5.809 -14.674  1.00  0.00     0.022 A 
BRANCH  90  94
ATOM     94  S   UNL     1       2.704   6.228 -16.599  1.00  0.00     0.124 S 
ATOM     95  O   UNL     1       2.845   7.631 -16.971  1.00  0.00    -0.237 OA
ATOM     96  O   UNL     1       3.945   5.504 -16.342  1.00  0.00    -0.237 OA
ATOM     97  O   UNL     1       1.694   5.482 -17.347  1.00  0.00    -0.744 OA
ENDBRANCH  90  94
ENDBRANCH  63  87
BRANCH  75  98
ATOM     98  C   UNL     1       4.232  13.854 -11.851  1.00  0.00     0.023 A 
ATOM     99  C   UNL     1       3.008  14.419 -12.249  1.00  0.00     0.031 A 
ATOM    100  C   UNL     1       5.418  14.439 -12.328  1.00  0.00     0.131 A 
ATOM    101  C   UNL     1       2.998  15.498 -13.145  1.00  0.00     0.055 A 
ATOM    102  C   UNL     1       5.402  15.556 -13.162  1.00  0.00     0.041 A 
ATOM    103  F   UNL     1       6.615  13.938 -11.982  1.00  0.00    -0.206 F 
ATOM    104  C   UNL     1       4.187  16.083 -13.588  1.00  0.00     0.022 A 
BRANCH 101 105
ATOM    105  S   UNL     1       1.406  16.058 -13.809  1.00  0.00     0.124 S 
ATOM    106  O   UNL     1       0.896  14.842 -14.436  1.00  0.00    -0.237 OA
ATOM    107  O   UNL     1       0.704  16.500 -12.609  1.00  0.00    -0.237 OA
ATOM    108  O   UNL     1       1.779  17.124 -14.738  1.00  0.00    -0.744 OA
ENDBRANCH 101 105
ENDBRANCH  75  98
ENDBRANCH  49  50
ENDBRANCH  41  44
ENDBRANCH  39  40
ENDBRANCH   1  39
TORSDOF 15
