REMARK SMILES Nc1ncccc1C[N@@H+]1CC2(CC[NH2+]CC2)C[C@H]1C(=O)NCCCCNC(=O)c1ccc(-c2c3nc(c(-c4cc(S(=O)(=O)[O-])ccc4F)c4ccc([nH]4)c(-c4cc(S(=O)(=O)[O-])ccc4F)c4nc(c(-c5cc(S(=O)(=O)[O-])ccc5F)c5ccc2[nH]5)C=C4)C=C3)cc1
REMARK SMILES IDX 23 1 22 2 21 3 19 4 20 5 18 7 9 8 10 9 11 11 17 12 12 13
REMARK SMILES IDX 16 14 13 15 15 16 14 17 8 20 7 21 2 22 3 23 4 24 6 25 5 26
REMARK SMILES IDX 1 27 24 30 25 31 26 32 27 33 28 35 29 36 30 37 91 38 31 39
REMARK SMILES IDX 90 40 32 41 33 42 34 43 84 44 35 45 89 46 83 47 85 48 36 49
REMARK SMILES IDX 88 50 82 51 81 52 37 54 69 55 49 56 68 57 50 58 53 59 67 60
REMARK SMILES IDX 86 61 51 62 52 63 66 65 87 66 54 67 38 68 39 69 47 70 40 71
REMARK SMILES IDX 46 72 48 73 45 74 41 75 42 76 43 77 44 78 70 79 71 80 79 81
REMARK SMILES IDX 72 82 78 83 80 84 77 85 73 86 74 87 75 88 76 89 55 90 56 91
REMARK SMILES IDX 64 92 57 93 63 94 65 95 62 96 58 97 59 98 60 99 61 100
REMARK H PARENT 21 6 9 10 14 18 14 19 1 28 1 29 26 34 85 53 53 64
REMARK Flexibility Score: inf
ROOT
ATOM      1  C   UNL     1      -1.197  -5.937   3.499  1.00  0.00     0.023 C 
ENDROOT
BRANCH   1   2
ATOM      2  C   UNL     1      -1.145  -4.486   3.957  1.00  0.00     0.116 C 
BRANCH   2   3
ATOM      3  N   UNL     1       0.159  -3.922   4.144  1.00  0.00    -0.351 N 
ATOM      4  C   UNL     1       0.694  -2.789   3.601  1.00  0.00     0.278 C 
ATOM      5  O   UNL     1       1.769  -2.420   4.098  1.00  0.00    -0.268 OA
ATOM      6  H   UNL     1       0.753  -4.421   4.750  1.00  0.00     0.163 HD
BRANCH   4   7
ATOM      7  C   UNL     1       0.082  -1.984   2.407  1.00  0.00     0.275 C 
ATOM      8  N   UNL     1      -0.048  -2.825   1.206  1.00  0.00    -0.320 N 
ATOM      9  C   UNL     1      -1.473  -2.984   0.892  1.00  0.00     0.270 C 
ATOM     10  H   UNL     1       0.305  -3.764   1.391  1.00  0.00     0.349 HD
ATOM     11  C   UNL     1      -2.301  -1.928   1.683  1.00  0.00     0.036 C 
ATOM     12  C   UNL     1      -1.234  -1.208   2.539  1.00  0.00     0.089 C 
ATOM     13  C   UNL     1      -3.449  -2.400   2.624  1.00  0.00     0.074 C 
ATOM     14  C   UNL     1      -3.068  -1.043   0.667  1.00  0.00     0.074 C 
ATOM     15  C   UNL     1      -4.501  -3.231   1.905  1.00  0.00     0.261 C 
ATOM     16  C   UNL     1      -4.154  -1.859  -0.067  1.00  0.00     0.261 C 
ATOM     17  N   UNL     1      -5.133  -2.454   0.841  1.00  0.00    -0.346 N 
ATOM     18  H   UNL     1      -5.684  -1.707   1.264  1.00  0.00     0.346 HD
ATOM     19  H   UNL     1      -5.719  -3.087   0.297  1.00  0.00     0.346 HD
BRANCH   8  20
ATOM     20  C   UNL     1       0.851  -2.418   0.099  1.00  0.00     0.303 C 
BRANCH  20  21
ATOM     21  C   UNL     1       0.754  -0.985  -0.399  1.00  0.00     0.048 A 
ATOM     22  C   UNL     1       1.587   0.047   0.051  1.00  0.00     0.132 A 
ATOM     23  N   UNL     1       1.343   1.349  -0.203  1.00  0.00    -0.239 NA
ATOM     24  C   UNL     1       0.288   1.654  -0.983  1.00  0.00     0.113 A 
ATOM     25  C   UNL     1      -0.248  -0.633  -1.311  1.00  0.00     0.015 A 
ATOM     26  C   UNL     1      -0.505   0.705  -1.592  1.00  0.00     0.021 A 
BRANCH  22  27
ATOM     27  N   UNL     1       2.696  -0.170   0.838  1.00  0.00    -0.383 N 
ATOM     28  H   UNL     1       3.250   0.591   1.129  1.00  0.00     0.158 HD
ATOM     29  H   UNL     1       2.936  -1.085   1.109  1.00  0.00     0.158 HD
ENDBRANCH  22  27
ENDBRANCH  20  21
ENDBRANCH   8  20
ENDBRANCH   4   7
ENDBRANCH   2   3
ENDBRANCH   1   2
BRANCH   1  30
ATOM     30  C   UNL     1      -1.609  -6.938   4.575  1.00  0.00     0.023 C 
BRANCH  30  31
ATOM     31  C   UNL     1      -2.924  -6.658   5.304  1.00  0.00     0.116 C 
BRANCH  31  32
ATOM     32  N   UNL     1      -4.101  -6.581   4.452  1.00  0.00    -0.352 N 
ATOM     33  C   UNL     1      -5.397  -6.950   4.769  1.00  0.00     0.251 C 
ATOM     34  H   UNL     1      -3.959  -6.224   3.545  1.00  0.00     0.163 HD
ATOM     35  O   UNL     1      -6.285  -6.872   3.939  1.00  0.00    -0.269 OA
BRANCH  33  36
ATOM     36  C   UNL     1      -5.665  -7.501   6.120  1.00  0.00     0.039 A 
ATOM     37  C   UNL     1      -6.251  -8.764   6.231  1.00  0.00     0.014 A 
ATOM     38  C   UNL     1      -5.239  -6.817   7.262  1.00  0.00     0.014 A 
ATOM     39  C   UNL     1      -6.317  -9.385   7.482  1.00  0.00     0.010 A 
ATOM     40  C   UNL     1      -5.237  -7.469   8.492  1.00  0.00     0.010 A 
ATOM     41  C   UNL     1      -5.761  -8.766   8.614  1.00  0.00    -0.014 A 
BRANCH  41  42
ATOM     42  C   UNL     1      -5.705  -9.461   9.929  1.00  0.00     0.031 A 
ATOM     43  C   UNL     1      -6.442  -8.896  11.112  1.00  0.00     0.074 A 
ATOM     44  C   UNL     1      -4.934 -10.557  10.077  1.00  0.00     0.049 A 
ATOM     45  N   UNL     1      -6.458  -9.307  12.354  1.00  0.00    -0.248 NA
ATOM     46  C   UNL     1      -7.238  -7.684  10.869  1.00  0.00     0.031 C 
ATOM     47  C   UNL     1      -4.129 -11.176   9.021  1.00  0.00     0.029 A 
ATOM     48  N   UNL     1      -4.694 -11.344  11.176  1.00  0.00    -0.354 N 
ATOM     49  C   UNL     1      -7.255  -8.399  13.043  1.00  0.00     0.074 A 
ATOM     50  C   UNL     1      -7.637  -7.376  12.092  1.00  0.00     0.031 C 
ATOM     51  C   UNL     1      -3.514 -12.263   9.514  1.00  0.00     0.029 A 
ATOM     52  C   UNL     1      -3.844 -12.398  10.930  1.00  0.00     0.049 A 
ATOM     53  H   UNL     1      -5.092 -11.170  12.060  1.00  0.00     0.167 HD
ATOM     54  C   UNL     1      -7.659  -8.430  14.339  1.00  0.00     0.034 A 
ATOM     55  C   UNL     1      -3.382 -13.362  11.751  1.00  0.00     0.034 A 
ATOM     56  C   UNL     1      -7.277  -9.461  15.273  1.00  0.00     0.049 A 
ATOM     57  C   UNL     1      -3.821 -13.366  13.193  1.00  0.00     0.074 A 
ATOM     58  C   UNL     1      -7.662  -9.618  16.593  1.00  0.00     0.029 A 
ATOM     59  N   UNL     1      -6.415 -10.513  14.986  1.00  0.00    -0.354 N 
ATOM     60  N   UNL     1      -4.615 -12.527  13.817  1.00  0.00    -0.248 NA
ATOM     61  C   UNL     1      -3.309 -14.453  14.037  1.00  0.00     0.031 C 
ATOM     62  C   UNL     1      -6.989 -10.727  17.120  1.00  0.00     0.029 A 
ATOM     63  C   UNL     1      -6.238 -11.306  16.110  1.00  0.00     0.049 A 
ATOM     64  H   UNL     1      -5.992 -10.673  14.111  1.00  0.00     0.167 HD
ATOM     65  C   UNL     1      -4.723 -13.006  15.120  1.00  0.00     0.074 A 
ATOM     66  C   UNL     1      -3.922 -14.211  15.187  1.00  0.00     0.031 C 
ATOM     67  C   UNL     1      -5.427 -12.500  16.165  1.00  0.00     0.034 A 
BRANCH  54  68
ATOM     68  C   UNL     1      -8.543  -7.299  14.809  1.00  0.00     0.023 A 
ATOM     69  C   UNL     1      -9.805  -7.066  14.230  1.00  0.00     0.031 A 
ATOM     70  C   UNL     1      -8.103  -6.407  15.801  1.00  0.00     0.131 A 
ATOM     71  C   UNL     1     -10.532  -5.917  14.572  1.00  0.00     0.055 A 
ATOM     72  C   UNL     1      -8.876  -5.315  16.205  1.00  0.00     0.041 A 
ATOM     73  F   UNL     1      -6.901  -6.564  16.379  1.00  0.00    -0.206 F 
ATOM     74  C   UNL     1     -10.089  -5.053  15.575  1.00  0.00     0.022 A 
BRANCH  71  75
ATOM     75  S   UNL     1     -11.974  -5.479  13.563  1.00  0.00     0.124 S 
ATOM     76  O   UNL     1     -11.378  -5.361  12.234  1.00  0.00    -0.237 OA
ATOM     77  O   UNL     1     -12.861  -6.619  13.767  1.00  0.00    -0.237 OA
ATOM     78  O   UNL     1     -12.431  -4.219  14.146  1.00  0.00    -0.744 OA
ENDBRANCH  71  75
ENDBRANCH  54  68
BRANCH  55  79
ATOM     79  C   UNL     1      -2.459 -14.415  11.238  1.00  0.00     0.023 A 
ATOM     80  C   UNL     1      -2.865 -15.758  11.177  1.00  0.00     0.031 A 
ATOM     81  C   UNL     1      -1.148 -14.104  10.840  1.00  0.00     0.131 A 
ATOM     82  C   UNL     1      -1.956 -16.747  10.770  1.00  0.00     0.055 A 
ATOM     83  C   UNL     1      -0.261 -15.085  10.390  1.00  0.00     0.041 A 
ATOM     84  F   UNL     1      -0.712 -12.834  10.872  1.00  0.00    -0.206 F 
ATOM     85  C   UNL     1      -0.661 -16.418  10.365  1.00  0.00     0.022 A 
BRANCH  82  86
ATOM     86  S   UNL     1      -2.472 -18.484  10.845  1.00  0.00     0.124 S 
ATOM     87  O   UNL     1      -2.791 -18.639  12.259  1.00  0.00    -0.237 OA
ATOM     88  O   UNL     1      -3.604 -18.504   9.925  1.00  0.00    -0.237 OA
ATOM     89  O   UNL     1      -1.288 -19.210  10.387  1.00  0.00    -0.744 OA
ENDBRANCH  82  86
ENDBRANCH  55  79
BRANCH  67  90
ATOM     90  C   UNL     1      -5.395 -13.284  17.454  1.00  0.00     0.023 A 
ATOM     91  C   UNL     1      -4.223 -13.399  18.222  1.00  0.00     0.031 A 
ATOM     92  C   UNL     1      -6.554 -13.936  17.910  1.00  0.00     0.131 A 
ATOM     93  C   UNL     1      -4.223 -14.193  19.379  1.00  0.00     0.055 A 
ATOM     94  C   UNL     1      -6.562 -14.679  19.091  1.00  0.00     0.041 A 
ATOM     95  F   UNL     1      -7.699 -13.861  17.214  1.00  0.00    -0.206 F 
ATOM     96  C   UNL     1      -5.388 -14.821  19.826  1.00  0.00     0.022 A 
BRANCH  93  97
ATOM     97  S   UNL     1      -2.654 -14.466  20.249  1.00  0.00     0.124 S 
ATOM     98  O   UNL     1      -1.834 -15.081  19.210  1.00  0.00    -0.237 OA
ATOM     99  O   UNL     1      -2.276 -13.112  20.642  1.00  0.00    -0.237 OA
ATOM    100  O   UNL     1      -3.023 -15.350  21.353  1.00  0.00    -0.744 OA
ENDBRANCH  93  97
ENDBRANCH  67  90
ENDBRANCH  41  42
ENDBRANCH  33  36
ENDBRANCH  31  32
ENDBRANCH  30  31
ENDBRANCH   1  30
TORSDOF 17
