REMARK SMILES CC[C@H](C(=O)NCCCCNC(=O)c1ccc(-c2c3nc(c(-c4cc(S(=O)(=O)[O-])ccc4F)c4ccc([nH]4)c(-c4cc(S(=O)(=O)[O-])ccc4F)c4nc(c(-c5cc(S(=O)(=O)[O-])ccc5F)c5ccc2[nH]5)C=C4)C=C3)cc1)[N@@H+](C)Cc1cncn1C(C)C
REMARK SMILES IDX 8 1 7 2 6 3 4 4 5 5 3 7 2 8 1 9 77 10 78 11 79 13 80 14
REMARK SMILES IDX 81 15 84 16 82 17 83 18 85 19 86 20 87 21 9 22 10 23 11 24
REMARK SMILES IDX 12 25 13 27 14 28 15 29 76 30 16 31 75 32 17 33 18 34 19 35
REMARK SMILES IDX 69 36 20 37 74 38 68 39 70 40 21 41 73 42 67 43 66 44 22 46
REMARK SMILES IDX 54 47 34 48 53 49 35 50 38 51 52 52 71 53 36 54 37 55 51 57
REMARK SMILES IDX 72 58 39 59 23 60 24 61 32 62 25 63 31 64 33 65 30 66 26 67
REMARK SMILES IDX 27 68 28 69 29 70 55 71 56 72 64 73 57 74 63 75 65 76 62 77
REMARK SMILES IDX 58 78 59 79 60 80 61 81 40 82 41 83 49 84 42 85 48 86 50 87
REMARK SMILES IDX 47 88 43 89 44 90 45 91 46 92
REMARK H PARENT 6 6 77 12 11 26 70 45 38 56
REMARK Flexibility Score: inf
ROOT
ATOM      1  C   UNL     1       0.208   1.131  -2.147  1.00  0.00     0.023 C 
ENDROOT
BRANCH   1   2
ATOM      2  C   UNL     1      -0.547   1.352  -0.839  1.00  0.00     0.116 C 
BRANCH   2   3
ATOM      3  N   UNL     1      -0.231   0.340   0.147  1.00  0.00    -0.351 N 
ATOM      4  C   UNL     1       0.523   0.329   1.272  1.00  0.00     0.278 C 
ATOM      5  O   UNL     1       0.574  -0.770   1.850  1.00  0.00    -0.268 OA
ATOM      6  H   UNL     1      -0.656  -0.528  -0.041  1.00  0.00     0.163 HD
BRANCH   4   7
ATOM      7  C   UNL     1       1.262   1.547   1.907  1.00  0.00     0.273 C 
BRANCH   7   8
ATOM      8  C   UNL     1       1.650   2.789   1.092  1.00  0.00     0.072 C 
ATOM      9  C   UNL     1       2.567   2.494  -0.089  1.00  0.00     0.011 C 
ENDBRANCH   7   8
BRANCH   7  10
ATOM     10  N   UNL     1       0.662   1.870   3.221  1.00  0.00    -0.322 N 
ATOM     11  C   UNL     1       1.545   2.478   4.190  1.00  0.00     0.333 C 
ATOM     12  H   UNL     1       0.569   0.903   3.533  1.00  0.00     0.348 HD
BRANCH  10  13
ATOM     13  C   UNL     1      -0.766   2.101   3.368  1.00  0.00     0.319 C 
BRANCH  13  14
ATOM     14  C   UNL     1      -1.366   3.167   2.520  1.00  0.00     0.093 A 
ATOM     15  C   UNL     1      -2.267   3.026   1.480  1.00  0.00     0.140 A 
ATOM     16  N   UNL     1      -1.245   4.533   2.667  1.00  0.00    -0.327 N 
ATOM     17  N   UNL     1      -2.577   4.229   0.913  1.00  0.00    -0.245 NA
ATOM     18  C   UNL     1      -1.944   5.116   1.640  1.00  0.00     0.200 A 
BRANCH  16  19
ATOM     19  C   UNL     1      -0.577   5.274   3.729  1.00  0.00     0.082 C 
ATOM     20  C   UNL     1       0.598   6.094   3.195  1.00  0.00     0.031 C 
ATOM     21  C   UNL     1      -1.554   6.163   4.503  1.00  0.00     0.031 C 
ENDBRANCH  16  19
ENDBRANCH  13  14
ENDBRANCH  10  13
ENDBRANCH   7  10
ENDBRANCH   4   7
ENDBRANCH   2   3
ENDBRANCH   1   2
BRANCH   1  22
ATOM     22  C   UNL     1      -0.354   0.021  -3.034  1.00  0.00     0.023 C 
BRANCH  22  23
ATOM     23  C   UNL     1      -1.808   0.193  -3.458  1.00  0.00     0.116 C 
BRANCH  23  24
ATOM     24  N   UNL     1      -2.090   1.478  -4.084  1.00  0.00    -0.352 N 
ATOM     25  C   UNL     1      -2.919   1.739  -5.151  1.00  0.00     0.251 C 
ATOM     26  H   UNL     1      -1.629   2.257  -3.695  1.00  0.00     0.163 HD
ATOM     27  O   UNL     1      -2.993   2.868  -5.628  1.00  0.00    -0.269 OA
BRANCH  25  28
ATOM     28  C   UNL     1      -3.677   0.619  -5.741  1.00  0.00     0.039 A 
ATOM     29  C   UNL     1      -3.497   0.322  -7.094  1.00  0.00     0.014 A 
ATOM     30  C   UNL     1      -4.460  -0.201  -4.925  1.00  0.00     0.014 A 
ATOM     31  C   UNL     1      -4.020  -0.865  -7.607  1.00  0.00     0.010 A 
ATOM     32  C   UNL     1      -4.924  -1.413  -5.423  1.00  0.00     0.010 A 
ATOM     33  C   UNL     1      -4.684  -1.768  -6.760  1.00  0.00    -0.014 A 
BRANCH  33  34
ATOM     34  C   UNL     1      -5.087  -3.117  -7.230  1.00  0.00     0.031 A 
ATOM     35  C   UNL     1      -6.540  -3.493  -7.273  1.00  0.00     0.074 A 
ATOM     36  C   UNL     1      -4.136  -4.030  -7.508  1.00  0.00     0.049 A 
ATOM     37  N   UNL     1      -7.086  -4.654  -7.521  1.00  0.00    -0.248 NA
ATOM     38  C   UNL     1      -7.501  -2.425  -6.962  1.00  0.00     0.031 C 
ATOM     39  C   UNL     1      -2.691  -3.794  -7.448  1.00  0.00     0.029 A 
ATOM     40  N   UNL     1      -4.239  -5.349  -7.875  1.00  0.00    -0.354 N 
ATOM     41  C   UNL     1      -8.456  -4.465  -7.376  1.00  0.00     0.074 A 
ATOM     42  C   UNL     1      -8.648  -3.088  -6.971  1.00  0.00     0.031 C 
ATOM     43  C   UNL     1      -2.045  -4.925  -7.774  1.00  0.00     0.029 A 
ATOM     44  C   UNL     1      -3.024  -5.977  -8.024  1.00  0.00     0.049 A 
ATOM     45  H   UNL     1      -5.101  -5.802  -8.018  1.00  0.00     0.167 HD
ATOM     46  C   UNL     1      -9.459  -5.354  -7.581  1.00  0.00     0.034 A 
ATOM     47  C   UNL     1      -2.732  -7.261  -8.308  1.00  0.00     0.034 A 
ATOM     48  C   UNL     1      -9.248  -6.717  -8.003  1.00  0.00     0.049 A 
ATOM     49  C   UNL     1      -3.862  -8.235  -8.515  1.00  0.00     0.074 A 
ATOM     50  C   UNL     1     -10.191  -7.676  -8.326  1.00  0.00     0.029 A 
ATOM     51  N   UNL     1      -8.004  -7.318  -8.149  1.00  0.00    -0.354 N 
ATOM     52  N   UNL     1      -5.156  -8.025  -8.434  1.00  0.00    -0.248 NA
ATOM     53  C   UNL     1      -3.493  -9.616  -8.851  1.00  0.00     0.031 C 
ATOM     54  C   UNL     1      -9.520  -8.872  -8.613  1.00  0.00     0.029 A 
ATOM     55  C   UNL     1      -8.156  -8.644  -8.524  1.00  0.00     0.049 A 
ATOM     56  H   UNL     1      -7.140  -6.868  -8.008  1.00  0.00     0.167 HD
ATOM     57  C   UNL     1      -5.755  -9.247  -8.723  1.00  0.00     0.074 A 
ATOM     58  C   UNL     1      -4.682 -10.182  -8.996  1.00  0.00     0.031 C 
ATOM     59  C   UNL     1      -7.073  -9.567  -8.764  1.00  0.00     0.034 A 
BRANCH  46  60
ATOM     60  C   UNL     1     -10.866  -4.876  -7.324  1.00  0.00     0.023 A 
ATOM     61  C   UNL     1     -11.447  -3.851  -8.091  1.00  0.00     0.031 A 
ATOM     62  C   UNL     1     -11.622  -5.424  -6.273  1.00  0.00     0.131 A 
ATOM     63  C   UNL     1     -12.711  -3.351  -7.747  1.00  0.00     0.055 A 
ATOM     64  C   UNL     1     -12.912  -4.973  -5.984  1.00  0.00     0.041 A 
ATOM     65  F   UNL     1     -11.112  -6.392  -5.496  1.00  0.00    -0.206 F 
ATOM     66  C   UNL     1     -13.457  -3.920  -6.713  1.00  0.00     0.022 A 
BRANCH  63  67
ATOM     67  S   UNL     1     -13.306  -1.856  -8.584  1.00  0.00     0.124 S 
ATOM     68  O   UNL     1     -12.270  -0.889  -8.230  1.00  0.00    -0.237 OA
ATOM     69  O   UNL     1     -13.343  -2.270  -9.982  1.00  0.00    -0.237 OA
ATOM     70  O   UNL     1     -14.610  -1.615  -7.970  1.00  0.00    -0.744 OA
ENDBRANCH  63  67
ENDBRANCH  46  60
BRANCH  47  71
ATOM     71  C   UNL     1      -1.316  -7.714  -8.385  1.00  0.00     0.023 A 
ATOM     72  C   UNL     1      -0.753  -8.119  -9.605  1.00  0.00     0.031 A 
ATOM     73  C   UNL     1      -0.514  -7.779  -7.232  1.00  0.00     0.131 A 
ATOM     74  C   UNL     1       0.562  -8.607  -9.640  1.00  0.00     0.055 A 
ATOM     75  C   UNL     1       0.807  -8.227  -7.278  1.00  0.00     0.041 A 
ATOM     76  F   UNL     1      -1.004  -7.395  -6.043  1.00  0.00    -0.206 F 
ATOM     77  C   UNL     1       1.349  -8.655  -8.486  1.00  0.00     0.022 A 
BRANCH  74  78
ATOM     78  S   UNL     1       1.213  -9.240 -11.210  1.00  0.00     0.124 S 
ATOM     79  O   UNL     1       0.259 -10.297 -11.524  1.00  0.00    -0.237 OA
ATOM     80  O   UNL     1       1.159  -8.054 -12.059  1.00  0.00    -0.237 OA
ATOM     81  O   UNL     1       2.558  -9.694 -10.864  1.00  0.00    -0.744 OA
ENDBRANCH  74  78
ENDBRANCH  47  71
BRANCH  59  82
ATOM     82  C   UNL     1      -7.412 -10.986  -9.136  1.00  0.00     0.023 A 
ATOM     83  C   UNL     1      -7.156 -12.055  -8.260  1.00  0.00     0.031 A 
ATOM     84  C   UNL     1      -7.984 -11.273 -10.388  1.00  0.00     0.131 A 
ATOM     85  C   UNL     1      -7.430 -13.369  -8.666  1.00  0.00     0.055 A 
ATOM     86  C   UNL     1      -8.300 -12.578 -10.767  1.00  0.00     0.041 A 
ATOM     87  F   UNL     1      -8.245 -10.287 -11.261  1.00  0.00    -0.206 F 
ATOM     88  C   UNL     1      -8.014 -13.636  -9.908  1.00  0.00     0.022 A 
BRANCH  85  89
ATOM     89  S   UNL     1      -6.955 -14.736  -7.573  1.00  0.00     0.124 S 
ATOM     90  O   UNL     1      -5.505 -14.582  -7.509  1.00  0.00    -0.237 OA
ATOM     91  O   UNL     1      -7.683 -14.427  -6.347  1.00  0.00    -0.237 OA
ATOM     92  O   UNL     1      -7.421 -15.924  -8.287  1.00  0.00    -0.744 OA
ENDBRANCH  85  89
ENDBRANCH  59  82
ENDBRANCH  33  34
ENDBRANCH  25  28
ENDBRANCH  23  24
ENDBRANCH  22  23
ENDBRANCH   1  22
TORSDOF 19
