REMARK SMILES C[N@H+]1CCO[C@H](c2noc(-c3ccccc3C(=O)NCCCCNC(=O)c3ccc(-c4c5nc(c(-c6cc(S(=O)(=O)[O-])ccc6F)c6ccc([nH]6)c(-c6cc(S(=O)(=O)[O-])ccc6F)c6nc(c(-c7cc(S(=O)(=O)[O-])ccc7F)c7ccc4[nH]7)C=C6)C=C5)cc3)n2)C1
REMARK SMILES IDX 22 1 21 2 20 3 19 4 17 5 18 6 16 8 11 9 12 10 13 11 15 12
REMARK SMILES IDX 14 13 10 14 7 15 8 16 90 17 9 18 6 19 1 20 2 21 3 22 91 23
REMARK SMILES IDX 4 25 5 26 23 27 24 28 25 29 26 31 27 32 28 33 89 34 29 35
REMARK SMILES IDX 88 36 30 37 31 38 32 39 82 40 33 41 87 42 81 43 83 44 34 45
REMARK SMILES IDX 86 46 80 47 79 48 35 50 67 51 47 52 66 53 48 54 51 55 65 56
REMARK SMILES IDX 84 57 49 58 50 59 64 61 85 62 52 63 36 64 37 65 45 66 38 67
REMARK SMILES IDX 44 68 46 69 43 70 39 71 40 72 41 73 42 74 68 75 69 76 77 77
REMARK SMILES IDX 70 78 76 79 78 80 75 81 71 82 72 83 73 84 74 85 53 86 54 87
REMARK SMILES IDX 62 88 55 89 61 90 63 91 60 92 56 93 57 94 58 95 59 96
REMARK H PARENT 19 7 2 24 24 30 83 49 51 60
REMARK Flexibility Score: inf
ROOT
ATOM      1  C   UNL     1       0.871  -5.267  -0.336  1.00  0.00     0.023 C 
ENDROOT
BRANCH   1   2
ATOM      2  C   UNL     1      -0.225  -6.226   0.149  1.00  0.00     0.023 C 
BRANCH   2   3
ATOM      3  C   UNL     1      -1.665  -5.765   0.002  1.00  0.00     0.116 C 
BRANCH   3   4
ATOM      4  N   UNL     1      -2.538  -6.750   0.615  1.00  0.00    -0.352 N 
ATOM      5  C   UNL     1      -3.653  -6.330   1.294  1.00  0.00     0.252 C 
ATOM      6  O   UNL     1      -4.702  -6.136   0.685  1.00  0.00    -0.269 OA
ATOM      7  H   UNL     1      -2.331  -7.709   0.544  1.00  0.00     0.163 HD
BRANCH   5   8
ATOM      8  C   UNL     1      -3.651  -6.414   2.784  1.00  0.00     0.052 A 
ATOM      9  C   UNL     1      -2.655  -5.986   3.683  1.00  0.00     0.053 A 
ATOM     10  C   UNL     1      -2.888  -6.170   5.067  1.00  0.00     0.015 A 
ATOM     11  C   UNL     1      -4.049  -6.772   5.553  1.00  0.00     0.001 A 
ATOM     12  C   UNL     1      -4.819  -7.029   3.296  1.00  0.00     0.014 A 
ATOM     13  C   UNL     1      -5.015  -7.212   4.663  1.00  0.00     0.001 A 
BRANCH   9  14
ATOM     14  C   UNL     1      -1.395  -5.337   3.346  1.00  0.00     0.258 A 
ATOM     15  C   UNL     1       0.263  -4.119   2.856  1.00  0.00     0.206 A 
ATOM     16  N   UNL     1       0.818  -5.137   3.529  1.00  0.00    -0.059 NA
ATOM     17  N   UNL     1      -1.122  -4.188   2.769  1.00  0.00    -0.189 NA
ATOM     18  O   UNL     1      -0.274  -5.944   3.854  1.00  0.00    -0.334 OA
BRANCH  15  19
ATOM     19  C   UNL     1       1.108  -3.108   2.078  1.00  0.00     0.245 C 
ATOM     20  C   UNL     1      -0.540  -0.344  -1.063  1.00  0.00     0.332 C 
ATOM     21  N   UNL     1       0.036  -1.585  -0.624  1.00  0.00    -0.333 N 
ATOM     22  C   UNL     1       1.358  -2.374  -1.608  1.00  0.00     0.290 C 
ATOM     23  C   UNL     1      -0.002  -1.788   1.166  1.00  0.00     0.303 C 
ATOM     24  H   UNL     1      -0.628  -2.287  -0.952  1.00  0.00     0.348 HD
ATOM     25  C   UNL     1       2.672  -3.551  -0.760  1.00  0.00     0.222 C 
ATOM     26  O   UNL     1       2.414  -3.953   1.054  1.00  0.00    -0.358 OA
ENDBRANCH  15  19
ENDBRANCH   9  14
ENDBRANCH   5   8
ENDBRANCH   3   4
ENDBRANCH   2   3
ENDBRANCH   1   2
BRANCH   1  27
ATOM     27  C   UNL     1       0.598  -3.670  -0.045  1.00  0.00     0.116 C 
BRANCH  27  28
ATOM     28  N   UNL     1       1.876  -2.180   0.414  1.00  0.00    -0.352 N 
ATOM     29  C   UNL     1       2.579  -0.932   0.324  1.00  0.00     0.251 C 
ATOM     30  H   UNL     1       2.282  -2.547   1.233  1.00  0.00     0.163 HD
ATOM     31  O   UNL     1       2.998  -0.470   1.393  1.00  0.00    -0.269 OA
BRANCH  29  32
ATOM     32  C   UNL     1       3.208  -0.347  -0.900  1.00  0.00     0.039 A 
ATOM     33  C   UNL     1       4.519  -0.711  -1.237  1.00  0.00     0.014 A 
ATOM     34  C   UNL     1       2.527   0.505  -1.757  1.00  0.00     0.014 A 
ATOM     35  C   UNL     1       5.034  -0.425  -2.514  1.00  0.00     0.010 A 
ATOM     36  C   UNL     1       2.976   0.655  -3.074  1.00  0.00     0.010 A 
ATOM     37  C   UNL     1       4.222   0.157  -3.498  1.00  0.00    -0.014 A 
BRANCH  37  38
ATOM     38  C   UNL     1       4.620   0.250  -4.949  1.00  0.00     0.031 A 
ATOM     39  C   UNL     1       4.349   1.521  -5.728  1.00  0.00     0.074 A 
ATOM     40  C   UNL     1       5.086  -0.819  -5.636  1.00  0.00     0.049 A 
ATOM     41  N   UNL     1       4.253   1.705  -7.021  1.00  0.00    -0.248 NA
ATOM     42  C   UNL     1       4.050   2.717  -4.932  1.00  0.00     0.031 C 
ATOM     43  C   UNL     1       5.340  -2.157  -5.093  1.00  0.00     0.029 A 
ATOM     44  N   UNL     1       5.420  -0.948  -6.966  1.00  0.00    -0.354 N 
ATOM     45  C   UNL     1       3.729   2.987  -7.183  1.00  0.00     0.074 A 
ATOM     46  C   UNL     1       3.524   3.514  -5.849  1.00  0.00     0.031 C 
ATOM     47  C   UNL     1       5.842  -2.944  -6.059  1.00  0.00     0.029 A 
ATOM     48  C   UNL     1       5.888  -2.197  -7.310  1.00  0.00     0.049 A 
ATOM     49  H   UNL     1       5.332  -0.212  -7.614  1.00  0.00     0.167 HD
ATOM     50  C   UNL     1       3.447   3.659  -8.331  1.00  0.00     0.034 A 
ATOM     51  C   UNL     1       6.299  -2.693  -8.495  1.00  0.00     0.034 A 
ATOM     52  C   UNL     1       3.824   3.198  -9.646  1.00  0.00     0.049 A 
ATOM     53  C   UNL     1       6.239  -1.829  -9.726  1.00  0.00     0.074 A 
ATOM     54  C   UNL     1       3.680   3.838 -10.867  1.00  0.00     0.029 A 
ATOM     55  N   UNL     1       4.480   2.003  -9.905  1.00  0.00    -0.354 N 
ATOM     56  N   UNL     1       5.696  -0.644  -9.870  1.00  0.00    -0.248 NA
ATOM     57  C   UNL     1       6.850  -2.365 -10.951  1.00  0.00     0.031 C 
ATOM     58  C   UNL     1       4.252   3.034 -11.861  1.00  0.00     0.029 A 
ATOM     59  C   UNL     1       4.782   1.908 -11.255  1.00  0.00     0.049 A 
ATOM     60  H   UNL     1       4.699   1.322  -9.229  1.00  0.00     0.167 HD
ATOM     61  C   UNL     1       5.916  -0.288 -11.197  1.00  0.00     0.074 A 
ATOM     62  C   UNL     1       6.652  -1.374 -11.808  1.00  0.00     0.031 C 
ATOM     63  C   UNL     1       5.536   0.836 -11.850  1.00  0.00     0.034 A 
BRANCH  50  64
ATOM     64  C   UNL     1       2.674   4.953  -8.208  1.00  0.00     0.023 A 
ATOM     65  C   UNL     1       3.162   6.048  -7.479  1.00  0.00     0.031 A 
ATOM     66  C   UNL     1       1.385   5.060  -8.764  1.00  0.00     0.131 A 
ATOM     67  C   UNL     1       2.319   7.134  -7.201  1.00  0.00     0.055 A 
ATOM     68  C   UNL     1       0.595   6.199  -8.584  1.00  0.00     0.041 A 
ATOM     69  F   UNL     1       0.856   4.047  -9.468  1.00  0.00    -0.206 F 
ATOM     70  C   UNL     1       1.050   7.233  -7.773  1.00  0.00     0.022 A 
BRANCH  67  71
ATOM     71  S   UNL     1       2.833   8.304  -5.914  1.00  0.00     0.124 S 
ATOM     72  O   UNL     1       2.864   7.440  -4.736  1.00  0.00    -0.237 OA
ATOM     73  O   UNL     1       4.128   8.764  -6.401  1.00  0.00    -0.237 OA
ATOM     74  O   UNL     1       1.770   9.307  -5.918  1.00  0.00    -0.744 OA
ENDBRANCH  67  71
ENDBRANCH  50  64
BRANCH  51  75
ATOM     75  C   UNL     1       6.832  -4.080  -8.591  1.00  0.00     0.023 A 
ATOM     76  C   UNL     1       8.205  -4.298  -8.790  1.00  0.00     0.031 A 
ATOM     77  C   UNL     1       5.983  -5.196  -8.534  1.00  0.00     0.131 A 
ATOM     78  C   UNL     1       8.686  -5.602  -8.975  1.00  0.00     0.055 A 
ATOM     79  C   UNL     1       6.472  -6.496  -8.681  1.00  0.00     0.041 A 
ATOM     80  F   UNL     1       4.666  -5.037  -8.329  1.00  0.00    -0.206 F 
ATOM     81  C   UNL     1       7.829  -6.704  -8.915  1.00  0.00     0.022 A 
BRANCH  78  82
ATOM     82  S   UNL     1      10.442  -5.829  -9.367  1.00  0.00     0.124 S 
ATOM     83  O   UNL     1      10.584  -5.029 -10.578  1.00  0.00    -0.237 OA
ATOM     84  O   UNL     1      11.088  -5.300  -8.170  1.00  0.00    -0.237 OA
ATOM     85  O   UNL     1      10.565  -7.273  -9.552  1.00  0.00    -0.744 OA
ENDBRANCH  78  82
ENDBRANCH  51  75
BRANCH  63  86
ATOM     86  C   UNL     1       5.982   0.981 -13.279  1.00  0.00     0.023 A 
ATOM     87  C   UNL     1       5.387   0.247 -14.319  1.00  0.00     0.031 A 
ATOM     88  C   UNL     1       7.033   1.859 -13.595  1.00  0.00     0.131 A 
ATOM     89  C   UNL     1       5.874   0.379 -15.629  1.00  0.00     0.055 A 
ATOM     90  C   UNL     1       7.492   2.008 -14.904  1.00  0.00     0.041 A 
ATOM     91  F   UNL     1       7.633   2.578 -12.633  1.00  0.00    -0.206 F 
ATOM     92  C   UNL     1       6.917   1.260 -15.928  1.00  0.00     0.022 A 
BRANCH  89  93
ATOM     93  S   UNL     1       5.158  -0.655 -16.936  1.00  0.00     0.124 S 
ATOM     94  O   UNL     1       5.460  -2.002 -16.460  1.00  0.00    -0.237 OA
ATOM     95  O   UNL     1       3.751  -0.269 -16.905  1.00  0.00    -0.237 OA
ATOM     96  O   UNL     1       5.885  -0.245 -18.136  1.00  0.00    -0.744 OA
ENDBRANCH  89  93
ENDBRANCH  63  86
ENDBRANCH  37  38
ENDBRANCH  29  32
ENDBRANCH  27  28
ENDBRANCH   1  27
TORSDOF 16
