REMARK SMILES Cc1ccc(C)c([C@@H](C)[N@@H+](CC(=O)NCCCCNC(=O)c2ccc(-c3c4nc(c(-c5cc(S(=O)(=O)[O-])ccc5F)c5ccc([nH]5)c(-c5cc(S(=O)(=O)[O-])ccc5F)c5nc(c(-c6cc(S(=O)(=O)[O-])ccc6F)c6ccc3[nH]6)C=C5)C=C4)cc2)CC(F)(F)F)c1
REMARK SMILES IDX 16 1 15 2 14 3 12 4 13 5 11 7 10 8 8 10 9 11 7 12 1 13 2 14
REMARK SMILES IDX 3 15 90 16 4 17 5 18 6 19 85 20 86 21 87 22 88 23 89 24
REMARK SMILES IDX 17 25 18 26 19 27 20 28 21 30 22 31 23 32 84 33 24 34 83 35
REMARK SMILES IDX 25 36 26 37 27 38 77 39 28 40 82 41 76 42 78 43 29 44 81 45
REMARK SMILES IDX 75 46 74 47 30 49 62 50 42 51 61 52 43 53 46 54 60 55 79 56
REMARK SMILES IDX 44 57 45 58 59 60 80 61 47 62 31 63 32 64 40 65 33 66 39 67
REMARK SMILES IDX 41 68 38 69 34 70 35 71 36 72 37 73 63 74 64 75 72 76 65 77
REMARK SMILES IDX 71 78 73 79 70 80 66 81 67 82 68 83 69 84 48 85 49 86 57 87
REMARK SMILES IDX 50 88 56 89 58 90 55 91 51 92 52 93 53 94 54 95
REMARK H PARENT 14 6 10 9 19 29 78 48 46 59
REMARK Flexibility Score: inf
ROOT
ATOM      1  C   UNL     1      -0.618   3.240  -2.703  1.00  0.00     0.023 C 
ENDROOT
BRANCH   1   2
ATOM      2  C   UNL     1      -1.237   4.380  -1.823  1.00  0.00     0.116 C 
BRANCH   2   3
ATOM      3  N   UNL     1      -2.670   4.355  -1.552  1.00  0.00    -0.351 N 
ATOM      4  C   UNL     1      -3.399   4.174  -0.404  1.00  0.00     0.275 C 
ATOM      5  O   UNL     1      -4.624   4.292  -0.501  1.00  0.00    -0.269 OA
ATOM      6  H   UNL     1      -3.225   4.496  -2.353  1.00  0.00     0.163 HD
BRANCH   4   7
ATOM      7  C   UNL     1      -2.756   3.758   0.929  1.00  0.00     0.364 C 
BRANCH   7   8
ATOM      8  N   UNL     1      -2.707   2.288   1.166  1.00  0.00    -0.314 N 
ATOM      9  H   UNL     1      -1.979   2.131   1.864  1.00  0.00     0.349 HD
BRANCH   8  10
ATOM     10  C   UNL     1      -2.140   1.527   0.053  1.00  0.00     0.212 C 
ATOM     11  C   UNL     1      -3.074   1.179  -1.110  1.00  0.00     0.081 C 
BRANCH  10  12
ATOM     12  C   UNL     1      -1.134   0.412   0.386  1.00  0.00     0.012 A 
ATOM     13  C   UNL     1       2.709   0.256   0.256  1.00  0.00     0.044 C 
ATOM     14  C   UNL     1       1.271  -0.160   0.363  1.00  0.00    -0.051 A 
ATOM     15  C   UNL     1       0.936  -1.511   0.315  1.00  0.00     0.004 A 
ATOM     16  C   UNL     1       0.238   0.784   0.440  1.00  0.00     0.013 A 
ATOM     17  C   UNL     1      -0.401  -1.903   0.357  1.00  0.00     0.004 A 
ATOM     18  C   UNL     1      -1.446  -0.961   0.405  1.00  0.00    -0.042 A 
ATOM     19  C   UNL     1      -2.844  -1.505   0.348  1.00  0.00     0.045 C 
ENDBRANCH  10  12
ENDBRANCH   8  10
BRANCH   8  20
ATOM     20  C   UNL     1      -3.818   1.724   1.967  1.00  0.00     0.380 C 
BRANCH  20  21
ATOM     21  C   UNL     1      -5.299   1.530   1.534  1.00  0.00     0.438 C 
ATOM     22  F   UNL     1      -5.465   0.581   0.589  1.00  0.00    -0.165 F 
ATOM     23  F   UNL     1      -6.017   1.091   2.606  1.00  0.00    -0.165 F 
ATOM     24  F   UNL     1      -5.888   2.660   1.113  1.00  0.00    -0.165 F 
ENDBRANCH  20  21
ENDBRANCH   8  20
ENDBRANCH   7   8
ENDBRANCH   4   7
ENDBRANCH   2   3
ENDBRANCH   1   2
BRANCH   1  25
ATOM     25  C   UNL     1      -1.463   2.432  -3.730  1.00  0.00     0.023 C 
BRANCH  25  26
ATOM     26  C   UNL     1      -1.201   2.496  -5.260  1.00  0.00     0.116 C 
BRANCH  26  27
ATOM     27  N   UNL     1       0.147   2.820  -5.686  1.00  0.00    -0.352 N 
ATOM     28  C   UNL     1       0.728   4.017  -6.079  1.00  0.00     0.251 C 
ATOM     29  H   UNL     1       0.762   2.051  -5.698  1.00  0.00     0.163 HD
ATOM     30  O   UNL     1       1.810   3.976  -6.641  1.00  0.00    -0.269 OA
BRANCH  28  31
ATOM     31  C   UNL     1       0.078   5.332  -5.802  1.00  0.00     0.039 A 
ATOM     32  C   UNL     1       0.650   6.534  -6.238  1.00  0.00     0.014 A 
ATOM     33  C   UNL     1      -1.085   5.406  -5.052  1.00  0.00     0.014 A 
ATOM     34  C   UNL     1       0.077   7.755  -5.851  1.00  0.00     0.010 A 
ATOM     35  C   UNL     1      -1.692   6.577  -4.722  1.00  0.00     0.010 A 
ATOM     36  C   UNL     1      -1.070   7.754  -5.048  1.00  0.00    -0.014 A 
BRANCH  36  37
ATOM     37  C   UNL     1      -1.836   8.926  -4.686  1.00  0.00     0.031 A 
ATOM     38  C   UNL     1      -2.592   9.468  -5.829  1.00  0.00     0.074 A 
ATOM     39  C   UNL     1      -2.212   9.232  -3.428  1.00  0.00     0.049 A 
ATOM     40  N   UNL     1      -2.199  10.397  -6.630  1.00  0.00    -0.248 NA
ATOM     41  C   UNL     1      -3.778   8.730  -6.301  1.00  0.00     0.031 C 
ATOM     42  C   UNL     1      -1.963   8.496  -2.185  1.00  0.00     0.029 A 
ATOM     43  N   UNL     1      -3.016  10.249  -3.026  1.00  0.00    -0.354 N 
ATOM     44  C   UNL     1      -3.257  10.575  -7.505  1.00  0.00     0.074 A 
ATOM     45  C   UNL     1      -3.983   9.337  -7.472  1.00  0.00     0.031 C 
ATOM     46  C   UNL     1      -2.740   9.003  -1.199  1.00  0.00     0.029 A 
ATOM     47  C   UNL     1      -3.421  10.186  -1.700  1.00  0.00     0.049 A 
ATOM     48  H   UNL     1      -3.291  10.976  -3.630  1.00  0.00     0.167 HD
ATOM     49  C   UNL     1      -3.633  11.825  -7.894  1.00  0.00     0.034 A 
ATOM     50  C   UNL     1      -4.269  11.046  -1.076  1.00  0.00     0.034 A 
ATOM     51  C   UNL     1      -2.658  12.807  -7.435  1.00  0.00     0.049 A 
ATOM     52  C   UNL     1      -4.262  12.303  -1.872  1.00  0.00     0.074 A 
ATOM     53  C   UNL     1      -1.287  12.947  -7.569  1.00  0.00     0.029 A 
ATOM     54  N   UNL     1      -2.999  13.594  -6.351  1.00  0.00    -0.354 N 
ATOM     55  N   UNL     1      -3.206  13.058  -2.015  1.00  0.00    -0.248 NA
ATOM     56  C   UNL     1      -5.285  12.487  -2.890  1.00  0.00     0.031 C 
ATOM     57  C   UNL     1      -0.830  13.396  -6.292  1.00  0.00     0.029 A 
ATOM     58  C   UNL     1      -1.942  13.601  -5.472  1.00  0.00     0.049 A 
ATOM     59  H   UNL     1      -3.854  14.068  -6.229  1.00  0.00     0.167 HD
ATOM     60  C   UNL     1      -3.229  13.468  -3.340  1.00  0.00     0.074 A 
ATOM     61  C   UNL     1      -4.592  13.194  -3.789  1.00  0.00     0.031 C 
ATOM     62  C   UNL     1      -2.072  13.712  -4.026  1.00  0.00     0.034 A 
BRANCH  49  63
ATOM     63  C   UNL     1      -5.032  12.228  -8.318  1.00  0.00     0.023 A 
ATOM     64  C   UNL     1      -5.211  13.584  -8.647  1.00  0.00     0.031 A 
ATOM     65  C   UNL     1      -6.222  11.472  -8.209  1.00  0.00     0.131 A 
ATOM     66  C   UNL     1      -6.492  14.153  -8.716  1.00  0.00     0.055 A 
ATOM     67  C   UNL     1      -7.497  12.030  -8.345  1.00  0.00     0.041 A 
ATOM     68  F   UNL     1      -6.248  10.174  -7.899  1.00  0.00    -0.206 F 
ATOM     69  C   UNL     1      -7.640  13.387  -8.562  1.00  0.00     0.022 A 
BRANCH  66  70
ATOM     70  S   UNL     1      -6.607  15.953  -8.834  1.00  0.00     0.124 S 
ATOM     71  O   UNL     1      -5.792  16.368  -7.697  1.00  0.00    -0.237 OA
ATOM     72  O   UNL     1      -6.045  16.201 -10.157  1.00  0.00    -0.237 OA
ATOM     73  O   UNL     1      -8.040  16.206  -8.704  1.00  0.00    -0.744 OA
ENDBRANCH  66  70
ENDBRANCH  49  63
BRANCH  50  74
ATOM     74  C   UNL     1      -5.236  10.770   0.017  1.00  0.00     0.023 A 
ATOM     75  C   UNL     1      -5.786  11.793   0.816  1.00  0.00     0.031 A 
ATOM     76  C   UNL     1      -5.827   9.491   0.125  1.00  0.00     0.131 A 
ATOM     77  C   UNL     1      -6.883  11.521   1.666  1.00  0.00     0.055 A 
ATOM     78  C   UNL     1      -6.905   9.226   0.972  1.00  0.00     0.041 A 
ATOM     79  F   UNL     1      -5.430   8.476  -0.658  1.00  0.00    -0.206 F 
ATOM     80  C   UNL     1      -7.447  10.245   1.739  1.00  0.00     0.022 A 
BRANCH  77  81
ATOM     81  S   UNL     1      -7.670  12.867   2.610  1.00  0.00     0.124 S 
ATOM     82  O   UNL     1      -6.667  13.158   3.628  1.00  0.00    -0.237 OA
ATOM     83  O   UNL     1      -7.874  13.889   1.589  1.00  0.00    -0.237 OA
ATOM     84  O   UNL     1      -8.900  12.256   3.115  1.00  0.00    -0.744 OA
ENDBRANCH  77  81
ENDBRANCH  50  74
BRANCH  62  85
ATOM     85  C   UNL     1      -0.791  13.905  -3.229  1.00  0.00     0.023 A 
ATOM     86  C   UNL     1      -0.249  12.973  -2.315  1.00  0.00     0.031 A 
ATOM     87  C   UNL     1      -0.037  15.063  -3.496  1.00  0.00     0.131 A 
ATOM     88  C   UNL     1       0.995  13.225  -1.700  1.00  0.00     0.055 A 
ATOM     89  C   UNL     1       1.202  15.300  -2.902  1.00  0.00     0.041 A 
ATOM     90  F   UNL     1      -0.483  15.980  -4.372  1.00  0.00    -0.206 F 
ATOM     91  C   UNL     1       1.721  14.383  -1.995  1.00  0.00     0.022 A 
BRANCH  88  92
ATOM     92  S   UNL     1       1.688  12.053  -0.488  1.00  0.00     0.124 S 
ATOM     93  O   UNL     1       0.567  11.774   0.401  1.00  0.00    -0.237 OA
ATOM     94  O   UNL     1       2.123  10.944  -1.333  1.00  0.00    -0.237 OA
ATOM     95  O   UNL     1       2.781  12.808   0.130  1.00  0.00    -0.744 OA
ENDBRANCH  88  92
ENDBRANCH  62  85
ENDBRANCH  36  37
ENDBRANCH  28  31
ENDBRANCH  26  27
ENDBRANCH  25  26
ENDBRANCH   1  25
TORSDOF 19
