REMARK SMILES C#Cc1cc(Cl)c2c(c1)C=C(C(=O)NCCCCNC(=O)c1ccc(-c3c4nc(c(-c5cc(S(=O)(=O)[O-])ccc5F)c5ccc([nH]5)c(-c5cc(S(=O)(=O)[O-])ccc5F)c5nc(c(-c6cc(S(=O)(=O)[O-])ccc6F)c6ccc3[nH]6)C=C5)C=C4)cc1)[C@@H](C(F)(F)F)O2
REMARK SMILES IDX 17 1 16 2 15 3 14 4 12 5 13 6 11 8 3 9 4 10 9 11 5 12 8 13
REMARK SMILES IDX 6 14 7 15 10 16 90 17 85 18 2 19 1 20 86 21 87 22 88 23
REMARK SMILES IDX 89 24 18 25 19 26 20 27 21 29 22 30 23 31 84 32 24 33 83 34
REMARK SMILES IDX 25 35 26 36 27 37 77 38 28 39 82 40 76 41 78 42 29 43 81 44
REMARK SMILES IDX 75 45 74 46 30 48 62 49 42 50 61 51 43 52 46 53 60 54 79 55
REMARK SMILES IDX 44 56 45 57 59 59 80 60 47 61 31 62 32 63 40 64 33 65 39 66
REMARK SMILES IDX 41 67 38 68 34 69 35 70 36 71 37 72 63 73 64 74 72 75 65 76
REMARK SMILES IDX 71 77 73 78 70 79 66 80 67 81 68 82 69 83 48 84 49 85 57 86
REMARK SMILES IDX 50 87 56 88 58 89 55 90 51 91 52 92 53 93 54 94
REMARK H PARENT 14 7 19 28 78 47 46 58
REMARK Flexibility Score: inf
ROOT
ATOM      1  C   UNL     1     -10.848   3.641   1.683  1.00  0.00     0.023 C 
ENDROOT
BRANCH   1   2
ATOM      2  C   UNL     1      -9.789   2.555   1.539  1.00  0.00     0.023 C 
BRANCH   2   3
ATOM      3  C   UNL     1      -9.037   2.624   0.217  1.00  0.00     0.116 C 
BRANCH   3   4
ATOM      4  N   UNL     1      -7.930   3.566   0.263  1.00  0.00    -0.352 N 
ATOM      5  C   UNL     1      -6.578   3.506   0.192  1.00  0.00     0.251 C 
ATOM      6  O   UNL     1      -5.987   4.589   0.231  1.00  0.00    -0.270 OA
ATOM      7  H   UNL     1      -8.247   4.492   0.375  1.00  0.00     0.163 HD
BRANCH   5   8
ATOM      8  C   UNL     1      -5.790   2.242   0.081  1.00  0.00     0.067 C 
ATOM      9  C   UNL     1      -1.480   0.040   0.056  1.00  0.00     0.027 A 
ATOM     10  C   UNL     1      -2.107  -1.207   0.055  1.00  0.00     0.041 A 
ATOM     11  C   UNL     1      -2.241   1.214   0.083  1.00  0.00     0.029 A 
ATOM     12  C   UNL     1      -3.495  -1.279   0.081  1.00  0.00     0.084 A 
ATOM     13  C   UNL     1      -3.638   1.144   0.108  1.00  0.00     0.020 A 
ATOM     14  Cl  UNL     1      -4.240  -2.838   0.090  1.00  0.00    -0.080 Cl
ATOM     15  C   UNL     1      -4.260  -0.109   0.100  1.00  0.00     0.146 A 
ATOM     16  C   UNL     1      -4.454   2.352   0.197  1.00  0.00     0.025 C 
ATOM     17  O   UNL     1      -5.614  -0.247   0.166  1.00  0.00    -0.474 OA
ATOM     18  C   UNL     1      -6.419   0.905  -0.173  1.00  0.00     0.314 C 
BRANCH   9  19
ATOM     19  C   UNL     1      -0.052   0.099   0.048  1.00  0.00    -0.070 C 
ATOM     20  C   UNL     1       1.149   0.112   0.048  1.00  0.00     0.010 C 
ENDBRANCH   9  19
BRANCH  18  21
ATOM     21  C   UNL     1      -6.926   0.761  -1.622  1.00  0.00     0.429 C 
ATOM     22  F   UNL     1      -7.832  -0.244  -1.709  1.00  0.00    -0.167 F 
ATOM     23  F   UNL     1      -7.544   1.875  -2.077  1.00  0.00    -0.167 F 
ATOM     24  F   UNL     1      -5.926   0.486  -2.490  1.00  0.00    -0.167 F 
ENDBRANCH  18  21
ENDBRANCH   5   8
ENDBRANCH   3   4
ENDBRANCH   2   3
ENDBRANCH   1   2
BRANCH   1  25
ATOM     25  C   UNL     1     -11.847   3.703   0.534  1.00  0.00     0.116 C 
BRANCH  25  26
ATOM     26  N   UNL     1     -12.511   2.430   0.278  1.00  0.00    -0.352 N 
ATOM     27  C   UNL     1     -13.855   2.203   0.095  1.00  0.00     0.251 C 
ATOM     28  H   UNL     1     -11.927   1.639   0.231  1.00  0.00     0.163 HD
ATOM     29  O   UNL     1     -14.294   1.061   0.027  1.00  0.00    -0.269 OA
BRANCH  27  30
ATOM     30  C   UNL     1     -14.748   3.373   0.027  1.00  0.00     0.039 A 
ATOM     31  C   UNL     1     -15.823   3.457   0.910  1.00  0.00     0.014 A 
ATOM     32  C   UNL     1     -14.431   4.435  -0.827  1.00  0.00     0.014 A 
ATOM     33  C   UNL     1     -16.546   4.646   0.985  1.00  0.00     0.010 A 
ATOM     34  C   UNL     1     -15.089   5.647  -0.678  1.00  0.00     0.010 A 
ATOM     35  C   UNL     1     -16.158   5.762   0.223  1.00  0.00    -0.014 A 
BRANCH  35  36
ATOM     36  C   UNL     1     -16.884   7.051   0.333  1.00  0.00     0.031 A 
ATOM     37  C   UNL     1     -17.616   7.592  -0.863  1.00  0.00     0.074 A 
ATOM     38  C   UNL     1     -16.869   7.736   1.494  1.00  0.00     0.049 A 
ATOM     39  N   UNL     1     -18.286   8.708  -0.982  1.00  0.00    -0.248 NA
ATOM     40  C   UNL     1     -17.572   6.784  -2.093  1.00  0.00     0.031 C 
ATOM     41  C   UNL     1     -16.175   7.317   2.715  1.00  0.00     0.029 A 
ATOM     42  N   UNL     1     -17.463   8.922   1.843  1.00  0.00    -0.354 N 
ATOM     43  C   UNL     1     -18.748   8.730  -2.292  1.00  0.00     0.074 A 
ATOM     44  C   UNL     1     -18.216   7.559  -2.951  1.00  0.00     0.031 C 
ATOM     45  C   UNL     1     -16.429   8.204   3.690  1.00  0.00     0.029 A 
ATOM     46  C   UNL     1     -17.256   9.281   3.155  1.00  0.00     0.049 A 
ATOM     47  H   UNL     1     -17.989   9.466   1.214  1.00  0.00     0.167 HD
ATOM     48  C   UNL     1     -19.572   9.626  -2.882  1.00  0.00     0.034 A 
ATOM     49  C   UNL     1     -17.684  10.356   3.848  1.00  0.00     0.034 A 
ATOM     50  C   UNL     1     -20.107  10.781  -2.211  1.00  0.00     0.049 A 
ATOM     51  C   UNL     1     -18.542  11.378   3.149  1.00  0.00     0.074 A 
ATOM     52  C   UNL     1     -20.972  11.738  -2.711  1.00  0.00     0.029 A 
ATOM     53  N   UNL     1     -19.828  11.139  -0.899  1.00  0.00    -0.354 N 
ATOM     54  N   UNL     1     -18.985  11.374   1.913  1.00  0.00    -0.248 NA
ATOM     55  C   UNL     1     -18.957  12.548   3.934  1.00  0.00     0.031 C 
ATOM     56  C   UNL     1     -21.157  12.713  -1.728  1.00  0.00     0.029 A 
ATOM     57  C   UNL     1     -20.475  12.323  -0.586  1.00  0.00     0.049 A 
ATOM     58  H   UNL     1     -19.256  10.628  -0.283  1.00  0.00     0.167 HD
ATOM     59  C   UNL     1     -19.750  12.528   1.780  1.00  0.00     0.074 A 
ATOM     60  C   UNL     1     -19.717  13.199   3.063  1.00  0.00     0.031 C 
ATOM     61  C   UNL     1     -20.423  12.987   0.695  1.00  0.00     0.034 A 
BRANCH  48  62
ATOM     62  C   UNL     1     -19.944   9.393  -4.322  1.00  0.00     0.023 A 
ATOM     63  C   UNL     1     -20.726   8.291  -4.706  1.00  0.00     0.031 A 
ATOM     64  C   UNL     1     -19.533  10.294  -5.319  1.00  0.00     0.131 A 
ATOM     65  C   UNL     1     -21.041   8.095  -6.058  1.00  0.00     0.055 A 
ATOM     66  C   UNL     1     -19.907  10.130  -6.654  1.00  0.00     0.041 A 
ATOM     67  F   UNL     1     -18.766  11.351  -5.010  1.00  0.00    -0.206 F 
ATOM     68  C   UNL     1     -20.660   9.022  -7.031  1.00  0.00     0.022 A 
BRANCH  65  69
ATOM     69  S   UNL     1     -21.888   6.566  -6.538  1.00  0.00     0.124 S 
ATOM     70  O   UNL     1     -20.906   5.553  -6.155  1.00  0.00    -0.237 OA
ATOM     71  O   UNL     1     -23.104   6.611  -5.735  1.00  0.00    -0.237 OA
ATOM     72  O   UNL     1     -22.084   6.721  -7.978  1.00  0.00    -0.744 OA
ENDBRANCH  65  69
ENDBRANCH  48  62
BRANCH  49  73
ATOM     73  C   UNL     1     -17.313  10.515   5.283  1.00  0.00     0.023 A 
ATOM     74  C   UNL     1     -18.287  10.442   6.291  1.00  0.00     0.031 A 
ATOM     75  C   UNL     1     -15.978  10.732   5.668  1.00  0.00     0.131 A 
ATOM     76  C   UNL     1     -17.915  10.604   7.635  1.00  0.00     0.055 A 
ATOM     77  C   UNL     1     -15.607  10.850   7.008  1.00  0.00     0.041 A 
ATOM     78  F   UNL     1     -15.008  10.803   4.742  1.00  0.00    -0.206 F 
ATOM     79  C   UNL     1     -16.579  10.792   8.001  1.00  0.00     0.022 A 
BRANCH  76  80
ATOM     80  S   UNL     1     -19.209  10.595   8.905  1.00  0.00     0.124 S 
ATOM     81  O   UNL     1     -19.995  11.766   8.536  1.00  0.00    -0.237 OA
ATOM     82  O   UNL     1     -19.843   9.299   8.684  1.00  0.00    -0.237 OA
ATOM     83  O   UNL     1     -18.460  10.713  10.155  1.00  0.00    -0.744 OA
ENDBRANCH  76  80
ENDBRANCH  49  73
BRANCH  61  84
ATOM     84  C   UNL     1     -21.199  14.270   0.843  1.00  0.00     0.023 A 
ATOM     85  C   UNL     1     -20.549  15.505   0.992  1.00  0.00     0.031 A 
ATOM     86  C   UNL     1     -22.604  14.262   0.763  1.00  0.00     0.131 A 
ATOM     87  C   UNL     1     -21.304  16.683   1.084  1.00  0.00     0.055 A 
ATOM     88  C   UNL     1     -23.347  15.441   0.801  1.00  0.00     0.041 A 
ATOM     89  F   UNL     1     -23.273  13.107   0.615  1.00  0.00    -0.206 F 
ATOM     90  C   UNL     1     -22.697  16.661   0.968  1.00  0.00     0.022 A 
BRANCH  87  91
ATOM     91  S   UNL     1     -20.442  18.246   1.397  1.00  0.00     0.124 S 
ATOM     92  O   UNL     1     -19.844  18.005   2.706  1.00  0.00    -0.237 OA
ATOM     93  O   UNL     1     -19.510  18.321   0.276  1.00  0.00    -0.237 OA
ATOM     94  O   UNL     1     -21.514  19.239   1.377  1.00  0.00    -0.744 OA
ENDBRANCH  87  91
ENDBRANCH  61  84
ENDBRANCH  35  36
ENDBRANCH  27  30
ENDBRANCH  25  26
ENDBRANCH   1  25
TORSDOF 16
