REMARK SMILES COCC[NH2+]CC(=O)N1C[C@H](OC)C[C@@H]1C(=O)NCCCCNC(=O)c1ccc(-c2c3nc(c(-c4cc(S(=O)(=O)[O-])ccc4F)c4ccc([nH]4)c(-c4cc(S(=O)(=O)[O-])ccc4F)c4nc(c(-c5cc(S(=O)(=O)[O-])ccc5F)c5ccc2[nH]5)C=C4)C=C3)cc1
REMARK SMILES IDX 19 1 18 2 16 3 17 4 15 6 9 7 10 8 11 9 14 10 7 11 8 12 6 13
REMARK SMILES IDX 5 14 4 17 3 18 2 19 1 20 12 21 13 22 20 23 21 24 22 25 23 26
REMARK SMILES IDX 24 27 25 29 26 30 27 31 88 32 28 33 87 34 29 35 30 36 31 37
REMARK SMILES IDX 81 38 32 39 86 40 80 41 82 42 33 43 85 44 79 45 78 46 34 48
REMARK SMILES IDX 66 49 46 50 65 51 47 52 50 53 64 54 83 55 48 56 49 57 63 59
REMARK SMILES IDX 84 60 51 61 35 62 36 63 44 64 37 65 43 66 45 67 42 68 38 69
REMARK SMILES IDX 39 70 40 71 41 72 67 73 68 74 76 75 69 76 75 77 77 78 74 79
REMARK SMILES IDX 70 80 71 81 72 82 73 83 52 84 53 85 61 86 54 87 60 88 62 89
REMARK SMILES IDX 59 90 55 91 56 92 57 93 58 94
REMARK H PARENT 18 5 5 15 5 16 23 28 82 47 50 58
REMARK Flexibility Score: inf
ROOT
ATOM      1  C   UNL     1      -1.107   7.110  -0.653  1.00  0.00     0.116 C 
ENDROOT
BRANCH   1   2
ATOM      2  N   UNL     1      -2.250   7.131   0.225  1.00  0.00    -0.354 N 
ATOM      3  C   UNL     1      -3.100   6.113   0.547  1.00  0.00     0.242 C 
ATOM      4  O   UNL     1      -4.013   6.373   1.339  1.00  0.00    -0.273 OA
ATOM      5  H   UNL     1      -2.444   7.998   0.650  1.00  0.00     0.163 HD
BRANCH   3   6
ATOM      6  C   UNL     1      -3.058   4.738  -0.162  1.00  0.00     0.177 C 
ATOM      7  N   UNL     1      -1.793   3.994  -0.195  1.00  0.00    -0.323 N 
ATOM      8  C   UNL     1      -1.812   3.208  -1.412  1.00  0.00     0.152 C 
ATOM      9  C   UNL     1      -2.414   4.122  -2.460  1.00  0.00     0.139 C 
ATOM     10  C   UNL     1      -3.489   4.864  -1.649  1.00  0.00     0.069 C 
BRANCH   7  11
ATOM     11  C   UNL     1      -1.289   3.384   0.950  1.00  0.00     0.278 C 
ATOM     12  O   UNL     1      -2.001   2.764   1.738  1.00  0.00    -0.268 OA
BRANCH  11  13
ATOM     13  C   UNL     1       0.233   3.540   1.155  1.00  0.00     0.362 C 
BRANCH  13  14
ATOM     14  N   UNL     1       1.011   2.292   0.956  1.00  0.00    -0.337 N 
ATOM     15  H   UNL     1       1.969   2.447   1.272  1.00  0.00     0.346 HD
ATOM     16  H   UNL     1       0.562   1.551   1.493  1.00  0.00     0.346 HD
BRANCH  14  17
ATOM     17  C   UNL     1       1.037   1.883  -0.449  1.00  0.00     0.289 C 
BRANCH  17  18
ATOM     18  C   UNL     1       2.052   0.809  -0.859  1.00  0.00     0.221 C 
BRANCH  18  19
ATOM     19  O   UNL     1       1.469  -0.496  -0.908  1.00  0.00    -0.379 OA
ATOM     20  C   UNL     1       1.234  -1.047   0.377  1.00  0.00     0.195 C 
ENDBRANCH  18  19
ENDBRANCH  17  18
ENDBRANCH  14  17
ENDBRANCH  13  14
ENDBRANCH  11  13
ENDBRANCH   7  11
BRANCH   9  21
ATOM     21  O   UNL     1      -1.519   5.082  -3.042  1.00  0.00    -0.380 OA
ATOM     22  C   UNL     1      -0.139   4.727  -3.111  1.00  0.00     0.195 C 
ENDBRANCH   9  21
ENDBRANCH   3   6
ENDBRANCH   1   2
BRANCH   1  23
ATOM     23  C   UNL     1      -1.233   8.066  -1.839  1.00  0.00     0.023 C 
BRANCH  23  24
ATOM     24  C   UNL     1      -0.617   9.444  -1.611  1.00  0.00     0.023 C 
BRANCH  24  25
ATOM     25  C   UNL     1       0.835   9.445  -1.150  1.00  0.00     0.116 C 
BRANCH  25  26
ATOM     26  N   UNL     1       1.754   8.757  -2.048  1.00  0.00    -0.352 N 
ATOM     27  C   UNL     1       3.041   9.120  -2.395  1.00  0.00     0.251 C 
ATOM     28  H   UNL     1       1.416   7.929  -2.458  1.00  0.00     0.163 HD
ATOM     29  O   UNL     1       3.667   8.475  -3.209  1.00  0.00    -0.269 OA
BRANCH  27  30
ATOM     30  C   UNL     1       3.610  10.354  -1.793  1.00  0.00     0.039 A 
ATOM     31  C   UNL     1       4.144  11.331  -2.635  1.00  0.00     0.014 A 
ATOM     32  C   UNL     1       3.511  10.582  -0.419  1.00  0.00     0.014 A 
ATOM     33  C   UNL     1       4.497  12.574  -2.104  1.00  0.00     0.010 A 
ATOM     34  C   UNL     1       3.762  11.853   0.085  1.00  0.00     0.010 A 
ATOM     35  C   UNL     1       4.263  12.865  -0.750  1.00  0.00    -0.014 A 
BRANCH  35  36
ATOM     36  C   UNL     1       4.554  14.211  -0.186  1.00  0.00     0.031 A 
ATOM     37  C   UNL     1       5.562  14.360   0.922  1.00  0.00     0.074 A 
ATOM     38  C   UNL     1       3.877  15.290  -0.630  1.00  0.00     0.049 A 
ATOM     39  N   UNL     1       5.931  15.434   1.571  1.00  0.00    -0.248 NA
ATOM     40  C   UNL     1       6.210  13.125   1.390  1.00  0.00     0.031 C 
ATOM     41  C   UNL     1       2.829  15.272  -1.654  1.00  0.00     0.029 A 
ATOM     42  N   UNL     1       3.970  16.614  -0.279  1.00  0.00    -0.354 N 
ATOM     43  C   UNL     1       6.844  15.003   2.529  1.00  0.00     0.074 A 
ATOM     44  C   UNL     1       6.895  13.560   2.434  1.00  0.00     0.031 C 
ATOM     45  C   UNL     1       2.414  16.529  -1.882  1.00  0.00     0.029 A 
ATOM     46  C   UNL     1       3.133  17.439  -0.996  1.00  0.00     0.049 A 
ATOM     47  H   UNL     1       4.580  16.943   0.420  1.00  0.00     0.167 HD
ATOM     48  C   UNL     1       7.600  15.739   3.381  1.00  0.00     0.034 A 
ATOM     49  C   UNL     1       2.970  18.776  -0.949  1.00  0.00     0.034 A 
ATOM     50  C   UNL     1       7.546  17.179   3.455  1.00  0.00     0.049 A 
ATOM     51  C   UNL     1       3.815  19.579   0.008  1.00  0.00     0.074 A 
ATOM     52  C   UNL     1       8.290  18.033   4.250  1.00  0.00     0.029 A 
ATOM     53  N   UNL     1       6.693  17.980   2.705  1.00  0.00    -0.354 N 
ATOM     54  N   UNL     1       4.715  19.161   0.869  1.00  0.00    -0.248 NA
ATOM     55  C   UNL     1       3.635  21.035  -0.018  1.00  0.00     0.031 C 
ATOM     56  C   UNL     1       7.846  19.341   4.026  1.00  0.00     0.029 A 
ATOM     57  C   UNL     1       6.879  19.315   3.033  1.00  0.00     0.049 A 
ATOM     58  H   UNL     1       6.051  17.649   2.037  1.00  0.00     0.167 HD
ATOM     59  C   UNL     1       5.234  20.310   1.461  1.00  0.00     0.074 A 
ATOM     60  C   UNL     1       4.556  21.434   0.847  1.00  0.00     0.031 C 
ATOM     61  C   UNL     1       6.190  20.427   2.419  1.00  0.00     0.034 A 
BRANCH  48  62
ATOM     62  C   UNL     1       8.530  14.981   4.302  1.00  0.00     0.023 A 
ATOM     63  C   UNL     1       9.547  14.149   3.796  1.00  0.00     0.031 A 
ATOM     64  C   UNL     1       8.360  15.031   5.696  1.00  0.00     0.131 A 
ATOM     65  C   UNL     1      10.275  13.323   4.664  1.00  0.00     0.055 A 
ATOM     66  C   UNL     1       9.157  14.280   6.563  1.00  0.00     0.041 A 
ATOM     67  F   UNL     1       7.396  15.790   6.241  1.00  0.00    -0.206 F 
ATOM     68  C   UNL     1      10.107  13.402   6.047  1.00  0.00     0.022 A 
BRANCH  65  69
ATOM     69  S   UNL     1      11.304  12.013   3.945  1.00  0.00     0.124 S 
ATOM     70  O   UNL     1      10.321  11.258   3.171  1.00  0.00    -0.237 OA
ATOM     71  O   UNL     1      12.283  12.768   3.173  1.00  0.00    -0.237 OA
ATOM     72  O   UNL     1      11.834  11.313   5.114  1.00  0.00    -0.744 OA
ENDBRANCH  65  69
ENDBRANCH  48  62
BRANCH  49  73
ATOM     73  C   UNL     1       1.991  19.451  -1.849  1.00  0.00     0.023 A 
ATOM     74  C   UNL     1       2.424  20.332  -2.854  1.00  0.00     0.031 A 
ATOM     75  C   UNL     1       0.608  19.256  -1.695  1.00  0.00     0.131 A 
ATOM     76  C   UNL     1       1.483  21.020  -3.636  1.00  0.00     0.055 A 
ATOM     77  C   UNL     1      -0.323  19.905  -2.508  1.00  0.00     0.041 A 
ATOM     78  F   UNL     1       0.141  18.418  -0.755  1.00  0.00    -0.206 F 
ATOM     79  C   UNL     1       0.113  20.803  -3.478  1.00  0.00     0.022 A 
BRANCH  76  80
ATOM     80  S   UNL     1       2.076  22.260  -4.819  1.00  0.00     0.124 S 
ATOM     81  O   UNL     1       2.779  23.192  -3.946  1.00  0.00    -0.237 OA
ATOM     82  O   UNL     1       2.912  21.457  -5.706  1.00  0.00    -0.237 OA
ATOM     83  O   UNL     1       0.847  22.772  -5.421  1.00  0.00    -0.744 OA
ENDBRANCH  76  80
ENDBRANCH  49  73
BRANCH  61  84
ATOM     84  C   UNL     1       6.594  21.827   2.816  1.00  0.00     0.023 A 
ATOM     85  C   UNL     1       5.702  22.705   3.457  1.00  0.00     0.031 A 
ATOM     86  C   UNL     1       7.886  22.297   2.522  1.00  0.00     0.131 A 
ATOM     87  C   UNL     1       6.091  24.027   3.719  1.00  0.00     0.055 A 
ATOM     88  C   UNL     1       8.289  23.593   2.845  1.00  0.00     0.041 A 
ATOM     89  F   UNL     1       8.780  21.503   1.909  1.00  0.00    -0.206 F 
ATOM     90  C   UNL     1       7.384  24.472   3.433  1.00  0.00     0.022 A 
BRANCH  87  91
ATOM     91  S   UNL     1       4.846  25.194   4.336  1.00  0.00     0.124 S 
ATOM     92  O   UNL     1       3.809  25.101   3.313  1.00  0.00    -0.237 OA
ATOM     93  O   UNL     1       4.509  24.630   5.639  1.00  0.00    -0.237 OA
ATOM     94  O   UNL     1       5.562  26.468   4.378  1.00  0.00    -0.744 OA
ENDBRANCH  87  91
ENDBRANCH  61  84
ENDBRANCH  35  36
ENDBRANCH  27  30
ENDBRANCH  25  26
ENDBRANCH  24  25
ENDBRANCH  23  24
ENDBRANCH   1  23
TORSDOF 21
