REMARK SMILES COC(=O)[C@H]1CN(C(=O)[C@@H]2CC=CC[C@@H]2C(=O)NCCCCNC(=O)c2ccc(-c3c4nc(c(-c5cc(S(=O)(=O)[O-])ccc5F)c5ccc([nH]5)c(-c5cc(S(=O)(=O)[O-])ccc5F)c5nc(c(-c6cc(S(=O)(=O)[O-])ccc6F)c6ccc3[nH]6)C=C5)C=C4)cc2)C[C@H]1C
REMARK SMILES IDX 20 1 19 2 18 3 16 4 17 5 15 7 10 8 11 9 12 10 14 11 13 12
REMARK SMILES IDX 8 13 9 14 7 15 5 16 6 17 90 18 89 19 91 20 3 21 4 22 2 23
REMARK SMILES IDX 1 24 21 25 22 26 23 27 24 28 25 30 26 31 27 32 88 33 28 34
REMARK SMILES IDX 87 35 29 36 30 37 31 38 81 39 32 40 86 41 80 42 82 43 33 44
REMARK SMILES IDX 85 45 79 46 78 47 34 49 66 50 46 51 65 52 47 53 50 54 64 55
REMARK SMILES IDX 83 56 48 57 49 58 63 60 84 61 51 62 35 63 36 64 44 65 37 66
REMARK SMILES IDX 43 67 45 68 42 69 38 70 39 71 40 72 41 73 67 74 68 75 76 76
REMARK SMILES IDX 69 77 75 78 77 79 74 80 70 81 71 82 72 83 73 84 52 85 53 86
REMARK SMILES IDX 61 87 54 88 60 89 62 90 59 91 55 92 56 93 57 94 58 95
REMARK H PARENT 18 6 23 29 82 48 50 59
REMARK Flexibility Score: inf
ROOT
ATOM      1  C   UNL     1      -2.576  -6.505   8.942  1.00  0.00     0.023 C 
ENDROOT
BRANCH   1   2
ATOM      2  C   UNL     1      -2.730  -5.098   8.367  1.00  0.00     0.116 C 
BRANCH   2   3
ATOM      3  N   UNL     1      -1.873  -4.099   8.987  1.00  0.00    -0.356 N 
ATOM      4  C   UNL     1      -0.859  -3.337   8.488  1.00  0.00     0.224 C 
ATOM      5  O   UNL     1      -0.445  -2.415   9.196  1.00  0.00    -0.275 OA
ATOM      6  H   UNL     1      -2.061  -3.945   9.941  1.00  0.00     0.163 HD
BRANCH   4   7
ATOM      7  C   UNL     1      -0.253  -3.623   7.123  1.00  0.00     0.095 C 
ATOM      8  C   UNL     1       0.887  -4.671   7.073  1.00  0.00     0.095 C 
ATOM      9  C   UNL     1       2.345  -4.173   7.020  1.00  0.00     0.041 C 
ATOM     10  C   UNL     1       2.536  -2.702   6.875  1.00  0.00    -0.030 C 
ATOM     11  C   UNL     1       0.118  -2.285   6.446  1.00  0.00     0.041 C 
ATOM     12  C   UNL     1       1.540  -1.851   6.616  1.00  0.00    -0.030 C 
BRANCH   8  13
ATOM     13  C   UNL     1       0.794  -5.891   7.999  1.00  0.00     0.226 C 
ATOM     14  O   UNL     1       0.485  -6.974   7.487  1.00  0.00    -0.275 OA
BRANCH  13  15
ATOM     15  N   UNL     1       1.108  -5.818   9.339  1.00  0.00    -0.341 N 
ATOM     16  C   UNL     1       1.706  -6.641  11.513  1.00  0.00     0.123 C 
ATOM     17  C   UNL     1       1.042  -7.004  10.180  1.00  0.00     0.135 C 
ATOM     18  C   UNL     1       2.047  -5.136  11.413  1.00  0.00     0.021 C 
ATOM     19  C   UNL     1       1.327  -4.651  10.162  1.00  0.00     0.123 C 
ATOM     20  C   UNL     1       1.658  -4.248  12.595  1.00  0.00     0.010 C 
BRANCH  16  21
ATOM     21  C   UNL     1       0.852  -7.025  12.707  1.00  0.00     0.310 C 
ATOM     22  O   UNL     1      -0.326  -7.335  12.667  1.00  0.00    -0.252 OA
BRANCH  21  23
ATOM     23  O   UNL     1       1.600  -6.937  13.845  1.00  0.00    -0.469 OA
ATOM     24  C   UNL     1       0.851  -7.065  15.058  1.00  0.00     0.282 C 
ENDBRANCH  21  23
ENDBRANCH  16  21
ENDBRANCH  13  15
ENDBRANCH   8  13
ENDBRANCH   4   7
ENDBRANCH   2   3
ENDBRANCH   1   2
BRANCH   1  25
ATOM     25  C   UNL     1      -2.639  -6.613  10.464  1.00  0.00     0.023 C 
BRANCH  25  26
ATOM     26  C   UNL     1      -3.996  -6.307  11.072  1.00  0.00     0.116 C 
BRANCH  26  27
ATOM     27  N   UNL     1      -4.996  -7.294  10.693  1.00  0.00    -0.352 N 
ATOM     28  C   UNL     1      -5.703  -8.179  11.472  1.00  0.00     0.251 C 
ATOM     29  H   UNL     1      -5.197  -7.334   9.731  1.00  0.00     0.163 HD
ATOM     30  O   UNL     1      -6.319  -9.092  10.928  1.00  0.00    -0.269 OA
BRANCH  28  31
ATOM     31  C   UNL     1      -5.716  -8.047  12.948  1.00  0.00     0.039 A 
ATOM     32  C   UNL     1      -5.735  -9.203  13.734  1.00  0.00     0.014 A 
ATOM     33  C   UNL     1      -5.747  -6.793  13.564  1.00  0.00     0.014 A 
ATOM     34  C   UNL     1      -5.729  -9.098  15.128  1.00  0.00     0.010 A 
ATOM     35  C   UNL     1      -5.633  -6.691  14.947  1.00  0.00     0.010 A 
ATOM     36  C   UNL     1      -5.643  -7.841  15.748  1.00  0.00    -0.014 A 
BRANCH  36  37
ATOM     37  C   UNL     1      -5.613  -7.702  17.229  1.00  0.00     0.031 A 
ATOM     38  C   UNL     1      -6.708  -6.939  17.929  1.00  0.00     0.074 A 
ATOM     39  C   UNL     1      -4.584  -8.213  17.934  1.00  0.00     0.049 A 
ATOM     40  N   UNL     1      -6.819  -6.618  19.193  1.00  0.00    -0.248 NA
ATOM     41  C   UNL     1      -7.809  -6.442  17.088  1.00  0.00     0.031 C 
ATOM     42  C   UNL     1      -3.450  -8.945  17.365  1.00  0.00     0.029 A 
ATOM     43  N   UNL     1      -4.320  -8.193  19.281  1.00  0.00    -0.354 N 
ATOM     44  C   UNL     1      -7.994  -5.880  19.295  1.00  0.00     0.074 A 
ATOM     45  C   UNL     1      -8.513  -5.730  17.953  1.00  0.00     0.031 C 
ATOM     46  C   UNL     1      -2.631  -9.329  18.358  1.00  0.00     0.029 A 
ATOM     47  C   UNL     1      -3.146  -8.823  19.626  1.00  0.00     0.049 A 
ATOM     48  H   UNL     1      -4.915  -7.766  19.939  1.00  0.00     0.167 HD
ATOM     49  C   UNL     1      -8.605  -5.403  20.408  1.00  0.00     0.034 A 
ATOM     50  C   UNL     1      -2.545  -8.961  20.826  1.00  0.00     0.034 A 
ATOM     51  C   UNL     1      -8.080  -5.569  21.740  1.00  0.00     0.049 A 
ATOM     52  C   UNL     1      -3.219  -8.376  22.045  1.00  0.00     0.074 A 
ATOM     53  C   UNL     1      -8.623  -5.146  22.940  1.00  0.00     0.029 A 
ATOM     54  N   UNL     1      -6.887  -6.210  22.049  1.00  0.00    -0.354 N 
ATOM     55  N   UNL     1      -4.348  -7.709  22.126  1.00  0.00    -0.248 NA
ATOM     56  C   UNL     1      -2.545  -8.572  23.335  1.00  0.00     0.031 C 
ATOM     57  C   UNL     1      -7.728  -5.470  23.965  1.00  0.00     0.029 A 
ATOM     58  C   UNL     1      -6.667  -6.172  23.416  1.00  0.00     0.049 A 
ATOM     59  H   UNL     1      -6.286  -6.630  21.392  1.00  0.00     0.167 HD
ATOM     60  C   UNL     1      -4.535  -7.443  23.480  1.00  0.00     0.074 A 
ATOM     61  C   UNL     1      -3.414  -8.036  24.178  1.00  0.00     0.031 C 
ATOM     62  C   UNL     1      -5.542  -6.772  24.095  1.00  0.00     0.034 A 
BRANCH  49  63
ATOM     63  C   UNL     1      -9.902  -4.650  20.221  1.00  0.00     0.023 A 
ATOM     64  C   UNL     1     -11.037  -5.270  19.668  1.00  0.00     0.031 A 
ATOM     65  C   UNL     1     -10.005  -3.294  20.578  1.00  0.00     0.131 A 
ATOM     66  C   UNL     1     -12.195  -4.520  19.417  1.00  0.00     0.055 A 
ATOM     67  C   UNL     1     -11.190  -2.575  20.407  1.00  0.00     0.041 A 
ATOM     68  F   UNL     1      -8.950  -2.640  21.089  1.00  0.00    -0.206 F 
ATOM     69  C   UNL     1     -12.290  -3.183  19.809  1.00  0.00     0.022 A 
BRANCH  66  70
ATOM     70  S   UNL     1     -13.520  -5.277  18.437  1.00  0.00     0.124 S 
ATOM     71  O   UNL     1     -12.824  -5.582  17.188  1.00  0.00    -0.237 OA
ATOM     72  O   UNL     1     -13.901  -6.424  19.252  1.00  0.00    -0.237 OA
ATOM     73  O   UNL     1     -14.522  -4.218  18.340  1.00  0.00    -0.744 OA
ENDBRANCH  66  70
ENDBRANCH  49  63
BRANCH  50  74
ATOM     74  C   UNL     1      -1.231  -9.661  20.946  1.00  0.00     0.023 A 
ATOM     75  C   UNL     1      -1.094 -10.812  21.738  1.00  0.00     0.031 A 
ATOM     76  C   UNL     1      -0.075  -9.148  20.330  1.00  0.00     0.131 A 
ATOM     77  C   UNL     1       0.176 -11.370  21.951  1.00  0.00     0.055 A 
ATOM     78  C   UNL     1       1.176  -9.748  20.488  1.00  0.00     0.041 A 
ATOM     79  F   UNL     1      -0.144  -8.051  19.558  1.00  0.00    -0.206 F 
ATOM     80  C   UNL     1       1.310 -10.855  21.320  1.00  0.00     0.022 A 
BRANCH  77  81
ATOM     81  S   UNL     1       0.345 -12.699  23.175  1.00  0.00     0.124 S 
ATOM     82  O   UNL     1      -0.226 -12.079  24.364  1.00  0.00    -0.237 OA
ATOM     83  O   UNL     1      -0.440 -13.769  22.568  1.00  0.00    -0.237 OA
ATOM     84  O   UNL     1       1.786 -12.934  23.223  1.00  0.00    -0.744 OA
ENDBRANCH  77  81
ENDBRANCH  50  74
BRANCH  62  85
ATOM     85  C   UNL     1      -5.503  -6.698  25.603  1.00  0.00     0.023 A 
ATOM     86  C   UNL     1      -4.496  -5.995  26.287  1.00  0.00     0.031 A 
ATOM     87  C   UNL     1      -6.490  -7.348  26.366  1.00  0.00     0.131 A 
ATOM     88  C   UNL     1      -4.465  -6.008  27.689  1.00  0.00     0.055 A 
ATOM     89  C   UNL     1      -6.493  -7.300  27.760  1.00  0.00     0.041 A 
ATOM     90  F   UNL     1      -7.474  -8.037  25.766  1.00  0.00    -0.206 F 
ATOM     91  C   UNL     1      -5.468  -6.638  28.430  1.00  0.00     0.022 A 
BRANCH  88  92
ATOM     92  S   UNL     1      -3.040  -5.270  28.534  1.00  0.00     0.124 S 
ATOM     93  O   UNL     1      -1.929  -6.035  27.979  1.00  0.00    -0.237 OA
ATOM     94  O   UNL     1      -3.121  -3.873  28.121  1.00  0.00    -0.237 OA
ATOM     95  O   UNL     1      -3.316  -5.514  29.949  1.00  0.00    -0.744 OA
ENDBRANCH  88  92
ENDBRANCH  62  85
ENDBRANCH  36  37
ENDBRANCH  28  31
ENDBRANCH  26  27
ENDBRANCH  25  26
ENDBRANCH   1  25
TORSDOF 18
