REMARK SMILES O=C(NCCCCNC(=O)C1(C/C=C/c2ccccc2)CCCCC1)c1ccc(-c2c3nc(c(-c4cc(S(=O)(=O)[O-])ccc4F)c4ccc([nH]4)c(-c4cc(S(=O)(=O)[O-])ccc4F)c4nc(c(-c5cc(S(=O)(=O)[O-])ccc5F)c5ccc2[nH]5)C=C4)C=C3)cc1
REMARK SMILES IDX 5 1 4 2 3 3 1 4 2 5 26 7 27 8 88 9 28 10 87 11 29 12 30 13
REMARK SMILES IDX 31 14 81 15 32 16 86 17 80 18 82 19 33 20 85 21 79 22 78 23
REMARK SMILES IDX 34 25 66 26 46 27 65 28 47 29 50 30 64 31 83 32 48 33 49 34
REMARK SMILES IDX 63 36 84 37 51 38 35 39 36 40 44 41 37 42 43 43 45 44 42 45
REMARK SMILES IDX 38 46 39 47 40 48 41 49 67 50 68 51 76 52 69 53 75 54 77 55
REMARK SMILES IDX 74 56 70 57 71 58 72 59 73 60 52 61 53 62 61 63 54 64 60 65
REMARK SMILES IDX 62 66 59 67 55 68 56 69 57 70 58 71 6 72 7 73 8 74 9 75
REMARK SMILES IDX 10 77 11 78 21 79 25 80 22 81 24 82 23 83 12 84 13 85 14 86
REMARK SMILES IDX 15 87 16 88 20 89 17 90 19 91 18 92
REMARK H PARENT 3 6 82 24 50 35 8 76
REMARK Flexibility Score: inf
ROOT
ATOM      1  C   UNL     1       5.467  -0.981   1.699  1.00  0.00     0.023 C 
ENDROOT
BRANCH   1   2
ATOM      2  C   UNL     1       4.803  -0.620   0.381  1.00  0.00     0.116 C 
BRANCH   2   3
ATOM      3  N   UNL     1       3.348  -0.759   0.385  1.00  0.00    -0.352 N 
ATOM      4  O   UNL     1       1.206  -0.191  -0.075  1.00  0.00    -0.269 OA
ATOM      5  C   UNL     1       2.404   0.034  -0.221  1.00  0.00     0.251 C 
ATOM      6  H   UNL     1       2.995  -1.527   0.890  1.00  0.00     0.163 HD
BRANCH   5   7
ATOM      7  C   UNL     1       2.862   1.196  -1.004  1.00  0.00     0.039 A 
ATOM      8  C   UNL     1       3.906   1.052  -1.920  1.00  0.00     0.014 A 
ATOM      9  C   UNL     1       2.314   2.451  -0.735  1.00  0.00     0.014 A 
ATOM     10  C   UNL     1       4.527   2.183  -2.423  1.00  0.00     0.010 A 
ATOM     11  C   UNL     1       2.874   3.581  -1.329  1.00  0.00     0.010 A 
ATOM     12  C   UNL     1       4.013   3.458  -2.141  1.00  0.00    -0.014 A 
BRANCH  12  13
ATOM     13  C   UNL     1       4.662   4.651  -2.732  1.00  0.00     0.031 A 
ATOM     14  C   UNL     1       5.290   5.698  -1.859  1.00  0.00     0.074 A 
ATOM     15  C   UNL     1       4.684   4.767  -4.073  1.00  0.00     0.049 A 
ATOM     16  N   UNL     1       5.823   6.843  -2.197  1.00  0.00    -0.248 NA
ATOM     17  C   UNL     1       5.309   5.428  -0.414  1.00  0.00     0.031 C 
ATOM     18  C   UNL     1       4.114   3.794  -5.010  1.00  0.00     0.029 A 
ATOM     19  N   UNL     1       5.206   5.740  -4.881  1.00  0.00    -0.354 N 
ATOM     20  C   UNL     1       6.212   7.450  -1.007  1.00  0.00     0.074 A 
ATOM     21  C   UNL     1       5.830   6.550   0.063  1.00  0.00     0.031 C 
ATOM     22  C   UNL     1       4.344   4.204  -6.264  1.00  0.00     0.029 A 
ATOM     23  C   UNL     1       4.997   5.506  -6.219  1.00  0.00     0.049 A 
ATOM     24  H   UNL     1       5.684   6.529  -4.538  1.00  0.00     0.167 HD
ATOM     25  C   UNL     1       6.829   8.646  -0.832  1.00  0.00     0.034 A 
ATOM     26  C   UNL     1       5.258   6.273  -7.292  1.00  0.00     0.034 A 
ATOM     27  C   UNL     1       7.202   9.515  -1.925  1.00  0.00     0.049 A 
ATOM     28  C   UNL     1       5.906   7.609  -7.076  1.00  0.00     0.074 A 
ATOM     29  C   UNL     1       7.850  10.738  -1.877  1.00  0.00     0.029 A 
ATOM     30  N   UNL     1       6.953   9.255  -3.269  1.00  0.00    -0.354 N 
ATOM     31  N   UNL     1       6.253   8.180  -5.945  1.00  0.00    -0.248 NA
ATOM     32  C   UNL     1       6.197   8.402  -8.273  1.00  0.00     0.031 C 
ATOM     33  C   UNL     1       7.935  11.243  -3.180  1.00  0.00     0.029 A 
ATOM     34  C   UNL     1       7.408  10.304  -4.053  1.00  0.00     0.049 A 
ATOM     35  H   UNL     1       6.517   8.442  -3.614  1.00  0.00     0.167 HD
ATOM     36  C   UNL     1       6.820   9.398  -6.297  1.00  0.00     0.074 A 
ATOM     37  C   UNL     1       6.776   9.472  -7.745  1.00  0.00     0.031 C 
ATOM     38  C   UNL     1       7.337  10.364  -5.496  1.00  0.00     0.034 A 
BRANCH  25  39
ATOM     39  C   UNL     1       7.075   9.101   0.589  1.00  0.00     0.023 A 
ATOM     40  C   UNL     1       7.911   8.387   1.466  1.00  0.00     0.031 A 
ATOM     41  C   UNL     1       6.423  10.242   1.090  1.00  0.00     0.131 A 
ATOM     42  C   UNL     1       8.005   8.771   2.814  1.00  0.00     0.055 A 
ATOM     43  C   UNL     1       6.587  10.668   2.410  1.00  0.00     0.041 A 
ATOM     44  F   UNL     1       5.596  10.955   0.309  1.00  0.00    -0.206 F 
ATOM     45  C   UNL     1       7.367   9.920   3.287  1.00  0.00     0.022 A 
BRANCH  42  46
ATOM     46  S   UNL     1       8.835   7.653   3.978  1.00  0.00     0.124 S 
ATOM     47  O   UNL     1       8.102   6.406   3.765  1.00  0.00    -0.237 OA
ATOM     48  O   UNL     1      10.213   7.672   3.504  1.00  0.00    -0.237 OA
ATOM     49  O   UNL     1       8.611   8.282   5.278  1.00  0.00    -0.744 OA
ENDBRANCH  42  46
ENDBRANCH  25  39
BRANCH  26  50
ATOM     50  C   UNL     1       4.850   5.802  -8.642  1.00  0.00     0.023 A 
ATOM     51  C   UNL     1       5.803   5.435  -9.603  1.00  0.00     0.031 A 
ATOM     52  C   UNL     1       3.488   5.666  -8.970  1.00  0.00     0.131 A 
ATOM     53  C   UNL     1       5.379   4.960 -10.854  1.00  0.00     0.055 A 
ATOM     54  C   UNL     1       3.073   5.153 -10.198  1.00  0.00     0.041 A 
ATOM     55  F   UNL     1       2.540   5.989  -8.076  1.00  0.00    -0.206 F 
ATOM     56  C   UNL     1       4.023   4.802 -11.152  1.00  0.00     0.022 A 
BRANCH  53  57
ATOM     57  S   UNL     1       6.633   4.574 -12.105  1.00  0.00     0.124 S 
ATOM     58  O   UNL     1       7.286   5.867 -12.281  1.00  0.00    -0.237 OA
ATOM     59  O   UNL     1       7.420   3.542 -11.439  1.00  0.00    -0.237 OA
ATOM     60  O   UNL     1       5.844   4.113 -13.246  1.00  0.00    -0.744 OA
ENDBRANCH  53  57
ENDBRANCH  26  50
BRANCH  38  61
ATOM     61  C   UNL     1       7.937  11.561  -6.185  1.00  0.00     0.023 A 
ATOM     62  C   UNL     1       7.138  12.510  -6.846  1.00  0.00     0.031 A 
ATOM     63  C   UNL     1       9.330  11.745  -6.186  1.00  0.00     0.131 A 
ATOM     64  C   UNL     1       7.745  13.580  -7.520  1.00  0.00     0.055 A 
ATOM     65  C   UNL     1       9.924  12.838  -6.815  1.00  0.00     0.041 A 
ATOM     66  F   UNL     1      10.135  10.863  -5.571  1.00  0.00    -0.206 F 
ATOM     67  C   UNL     1       9.132  13.758  -7.496  1.00  0.00     0.022 A 
BRANCH  64  68
ATOM     68  S   UNL     1       6.703  14.703  -8.490  1.00  0.00     0.124 S 
ATOM     69  O   UNL     1       6.127  13.801  -9.482  1.00  0.00    -0.237 OA
ATOM     70  O   UNL     1       5.779  15.220  -7.485  1.00  0.00    -0.237 OA
ATOM     71  O   UNL     1       7.653  15.681  -9.018  1.00  0.00    -0.744 OA
ENDBRANCH  64  68
ENDBRANCH  38  61
ENDBRANCH  12  13
ENDBRANCH   5   7
ENDBRANCH   2   3
ENDBRANCH   1   2
BRANCH   1  72
ATOM     72  C   UNL     1       5.135  -2.379   2.191  1.00  0.00     0.023 C 
BRANCH  72  73
ATOM     73  C   UNL     1       5.757  -3.548   1.439  1.00  0.00     0.116 C 
BRANCH  73  74
ATOM     74  N   UNL     1       6.966  -3.973   2.103  1.00  0.00    -0.356 N 
ATOM     75  C   UNL     1       7.182  -4.637   3.263  1.00  0.00     0.226 C 
ATOM     76  H   UNL     1       7.790  -3.735   1.621  1.00  0.00     0.163 HD
ATOM     77  O   UNL     1       8.327  -4.472   3.712  1.00  0.00    -0.274 OA
BRANCH  75  78
ATOM     78  C   UNL     1       6.235  -5.689   3.932  1.00  0.00     0.053 C 
ATOM     79  C   UNL     1       6.629  -7.041   3.261  1.00  0.00     0.017 C 
ATOM     80  C   UNL     1       6.660  -5.759   5.437  1.00  0.00     0.017 C 
ATOM     81  C   UNL     1       6.153  -8.285   4.017  1.00  0.00     0.001 C 
ATOM     82  C   UNL     1       6.122  -6.976   6.182  1.00  0.00     0.001 C 
ATOM     83  C   UNL     1       6.550  -8.262   5.489  1.00  0.00     0.000 C 
BRANCH  78  84
ATOM     84  C   UNL     1       4.683  -5.529   3.834  1.00  0.00     0.044 C 
BRANCH  84  85
ATOM     85  C   UNL     1       4.074  -4.286   4.433  1.00  0.00    -0.025 C 
ATOM     86  C   UNL     1       2.887  -3.785   4.040  1.00  0.00     0.004 C 
BRANCH  86  87
ATOM     87  C   UNL     1       2.440  -2.393   4.282  1.00  0.00    -0.026 A 
ATOM     88  C   UNL     1       1.403  -1.883   3.482  1.00  0.00     0.008 A 
ATOM     89  C   UNL     1       3.118  -1.502   5.127  1.00  0.00     0.008 A 
ATOM     90  C   UNL     1       1.098  -0.518   3.484  1.00  0.00     0.001 A 
ATOM     91  C   UNL     1       2.813  -0.137   5.127  1.00  0.00     0.001 A 
ATOM     92  C   UNL     1       1.812   0.356   4.296  1.00  0.00     0.000 A 
ENDBRANCH  86  87
ENDBRANCH  84  85
ENDBRANCH  78  84
ENDBRANCH  75  78
ENDBRANCH  73  74
ENDBRANCH  72  73
ENDBRANCH   1  72
TORSDOF 17
