REMARK SMILES O=C(Nc1ccc2c(c1)OCO2)N[C@H]1C=C[C@@H](C(=O)NCCCCNC(=O)c2ccc(-c3c4nc(c(-c5cc(S(=O)(=O)[O-])ccc5F)c5ccc([nH]5)c(-c5cc(S(=O)(=O)[O-])ccc5F)c5nc(c(-c6cc(S(=O)(=O)[O-])ccc6F)c6ccc3[nH]6)C=C5)C=C4)cc2)C1
REMARK SMILES IDX 23 1 22 2 21 3 20 4 18 5 19 6 17 8 14 9 15 10 91 11 16 12
REMARK SMILES IDX 13 13 1 14 2 15 3 16 4 19 5 20 9 21 6 22 8 23 7 24 10 25
REMARK SMILES IDX 12 26 11 27 24 28 25 29 26 30 27 32 28 33 29 34 90 35 30 36
REMARK SMILES IDX 89 37 31 38 32 39 33 40 83 41 34 42 88 43 82 44 84 45 35 46
REMARK SMILES IDX 87 47 81 48 80 49 36 51 68 52 48 53 67 54 49 55 52 56 66 57
REMARK SMILES IDX 85 58 50 59 51 60 65 62 86 63 53 64 37 65 38 66 46 67 39 68
REMARK SMILES IDX 45 69 47 70 44 71 40 72 41 73 42 74 43 75 69 76 70 77 78 78
REMARK SMILES IDX 71 79 77 80 79 81 76 82 72 83 73 84 74 85 75 86 54 87 55 88
REMARK SMILES IDX 63 89 56 90 62 91 64 92 61 93 57 94 58 95 59 96 60 97
REMARK H PARENT 20 7 3 17 13 18 25 31 84 50 52 61
REMARK Flexibility Score: inf
ROOT
ATOM      1  C   UNL     1       6.743   4.189  -0.472  1.00  0.00     0.023 C 
ENDROOT
BRANCH   1   2
ATOM      2  C   UNL     1       5.611   3.329   0.089  1.00  0.00     0.023 C 
BRANCH   2   3
ATOM      3  C   UNL     1       5.285   3.585   1.558  1.00  0.00     0.116 C 
BRANCH   3   4
ATOM      4  N   UNL     1       4.643   4.867   1.760  1.00  0.00    -0.356 N 
ATOM      5  C   UNL     1       3.387   5.182   2.181  1.00  0.00     0.227 C 
ATOM      6  O   UNL     1       3.119   6.381   2.306  1.00  0.00    -0.274 OA
ATOM      7  H   UNL     1       5.211   5.645   1.557  1.00  0.00     0.163 HD
BRANCH   5   8
ATOM      8  C   UNL     1       2.320   4.127   2.499  1.00  0.00     0.103 C 
ATOM      9  C   UNL     1       1.850   1.800   1.846  1.00  0.00     0.107 C 
ATOM     10  C   UNL     1       2.460   1.892   3.206  1.00  0.00    -0.006 C 
ATOM     11  C   UNL     1       1.907   3.244   1.315  1.00  0.00     0.047 C 
ATOM     12  C   UNL     1       2.715   3.155   3.567  1.00  0.00    -0.016 C 
BRANCH   9  13
ATOM     13  N   UNL     1       2.654   0.913   1.042  1.00  0.00    -0.332 N 
ATOM     14  O   UNL     1       0.908   0.001  -0.099  1.00  0.00    -0.248 OA
ATOM     15  C   UNL     1       2.118   0.100   0.094  1.00  0.00     0.319 C 
ATOM     16  N   UNL     1       2.985  -0.530  -0.749  1.00  0.00    -0.308 N 
ATOM     17  H   UNL     1       2.559  -0.915  -1.548  1.00  0.00     0.171 HD
ATOM     18  H   UNL     1       3.627   0.895   1.186  1.00  0.00     0.165 HD
BRANCH  16  19
ATOM     19  C   UNL     1       4.375  -0.733  -0.689  1.00  0.00     0.046 A 
ATOM     20  C   UNL     1       5.095  -0.811   0.521  1.00  0.00     0.030 A 
ATOM     21  C   UNL     1       5.044  -0.897  -1.909  1.00  0.00     0.076 A 
ATOM     22  C   UNL     1       6.482  -0.996   0.519  1.00  0.00     0.053 A 
ATOM     23  C   UNL     1       6.414  -1.049  -1.882  1.00  0.00     0.167 A 
ATOM     24  C   UNL     1       7.112  -1.100  -0.700  1.00  0.00     0.165 A 
ATOM     25  O   UNL     1       7.227  -1.155  -2.967  1.00  0.00    -0.454 OA
ATOM     26  O   UNL     1       8.443  -1.276  -0.895  1.00  0.00    -0.454 OA
ATOM     27  C   UNL     1       8.526  -1.163  -2.329  1.00  0.00     0.468 C 
ENDBRANCH  16  19
ENDBRANCH   9  13
ENDBRANCH   5   8
ENDBRANCH   3   4
ENDBRANCH   2   3
ENDBRANCH   1   2
BRANCH   1  28
ATOM     28  C   UNL     1       8.075   4.079   0.264  1.00  0.00     0.116 C 
BRANCH  28  29
ATOM     29  N   UNL     1       8.591   2.720   0.320  1.00  0.00    -0.352 N 
ATOM     30  C   UNL     1       9.885   2.285   0.156  1.00  0.00     0.251 C 
ATOM     31  H   UNL     1       7.925   2.018   0.499  1.00  0.00     0.163 HD
ATOM     32  O   UNL     1      10.131   1.083   0.126  1.00  0.00    -0.269 OA
BRANCH  30  33
ATOM     33  C   UNL     1      10.971   3.267  -0.035  1.00  0.00     0.039 A 
ATOM     34  C   UNL     1      11.872   3.071  -1.085  1.00  0.00     0.014 A 
ATOM     35  C   UNL     1      11.084   4.385   0.795  1.00  0.00     0.014 A 
ATOM     36  C   UNL     1      12.844   4.037  -1.349  1.00  0.00     0.010 A 
ATOM     37  C   UNL     1      12.008   5.379   0.487  1.00  0.00     0.010 A 
ATOM     38  C   UNL     1      12.895   5.216  -0.589  1.00  0.00    -0.014 A 
BRANCH  38  39
ATOM     39  C   UNL     1      13.872   6.289  -0.899  1.00  0.00     0.031 A 
ATOM     40  C   UNL     1      14.939   6.639   0.101  1.00  0.00     0.074 A 
ATOM     41  C   UNL     1      13.754   6.989  -2.043  1.00  0.00     0.049 A 
ATOM     42  N   UNL     1      15.822   7.603   0.068  1.00  0.00    -0.248 NA
ATOM     43  C   UNL     1      14.995   5.811   1.314  1.00  0.00     0.031 C 
ATOM     44  C   UNL     1      12.734   6.763  -3.071  1.00  0.00     0.029 A 
ATOM     45  N   UNL     1      14.487   8.041  -2.531  1.00  0.00    -0.354 N 
ATOM     46  C   UNL     1      16.527   7.511   1.262  1.00  0.00     0.074 A 
ATOM     47  C   UNL     1      15.925   6.435   2.021  1.00  0.00     0.031 C 
ATOM     48  C   UNL     1      12.921   7.636  -4.074  1.00  0.00     0.029 A 
ATOM     49  C   UNL     1      14.040   8.512  -3.744  1.00  0.00     0.049 A 
ATOM     50  H   UNL     1      15.261   8.423  -2.057  1.00  0.00     0.167 HD
ATOM     51  C   UNL     1      17.593   8.241   1.677  1.00  0.00     0.034 A 
ATOM     52  C   UNL     1      14.476   9.541  -4.496  1.00  0.00     0.034 A 
ATOM     53  C   UNL     1      18.185   9.302   0.899  1.00  0.00     0.049 A 
ATOM     54  C   UNL     1      15.649  10.351  -4.009  1.00  0.00     0.074 A 
ATOM     55  C   UNL     1      19.295  10.074   1.195  1.00  0.00     0.029 A 
ATOM     56  N   UNL     1      17.712   9.745  -0.330  1.00  0.00    -0.354 N 
ATOM     57  N   UNL     1      16.334  10.225  -2.896  1.00  0.00    -0.248 NA
ATOM     58  C   UNL     1      16.114  11.435  -4.884  1.00  0.00     0.031 C 
ATOM     59  C   UNL     1      19.455  11.022   0.178  1.00  0.00     0.029 A 
ATOM     60  C   UNL     1      18.490  10.796  -0.791  1.00  0.00     0.049 A 
ATOM     61  H   UNL     1      16.936   9.368  -0.805  1.00  0.00     0.167 HD
ATOM     62  C   UNL     1      17.331  11.195  -2.952  1.00  0.00     0.074 A 
ATOM     63  C   UNL     1      17.163  11.888  -4.214  1.00  0.00     0.031 C 
ATOM     64  C   UNL     1      18.301  11.484  -2.047  1.00  0.00     0.034 A 
BRANCH  51  65
ATOM     65  C   UNL     1      18.155   7.927   3.043  1.00  0.00     0.023 A 
ATOM     66  C   UNL     1      18.694   6.663   3.346  1.00  0.00     0.031 A 
ATOM     67  C   UNL     1      18.108   8.883   4.073  1.00  0.00     0.131 A 
ATOM     68  C   UNL     1      19.078   6.361   4.661  1.00  0.00     0.055 A 
ATOM     69  C   UNL     1      18.575   8.605   5.359  1.00  0.00     0.041 A 
ATOM     70  F   UNL     1      17.586  10.100   3.852  1.00  0.00    -0.206 F 
ATOM     71  C   UNL     1      19.046   7.331   5.665  1.00  0.00     0.022 A 
BRANCH  68  72
ATOM     72  S   UNL     1      19.462   4.637   5.074  1.00  0.00     0.124 S 
ATOM     73  O   UNL     1      18.216   3.964   4.713  1.00  0.00    -0.237 OA
ATOM     74  O   UNL     1      20.610   4.356   4.221  1.00  0.00    -0.237 OA
ATOM     75  O   UNL     1      19.743   4.682   6.508  1.00  0.00    -0.744 OA
ENDBRANCH  68  72
ENDBRANCH  51  65
BRANCH  52  76
ATOM     76  C   UNL     1      13.801   9.872  -5.783  1.00  0.00     0.023 A 
ATOM     77  C   UNL     1      14.472   9.726  -7.008  1.00  0.00     0.031 A 
ATOM     78  C   UNL     1      12.486  10.368  -5.806  1.00  0.00     0.131 A 
ATOM     79  C   UNL     1      13.841  10.111  -8.201  1.00  0.00     0.055 A 
ATOM     80  C   UNL     1      11.845  10.705  -6.999  1.00  0.00     0.041 A 
ATOM     81  F   UNL     1      11.797  10.519  -4.663  1.00  0.00    -0.206 F 
ATOM     82  C   UNL     1      12.528  10.588  -8.206  1.00  0.00     0.022 A 
BRANCH  79  83
ATOM     83  S   UNL     1      14.790  10.044  -9.745  1.00  0.00     0.124 S 
ATOM     84  O   UNL     1      15.908  10.931  -9.446  1.00  0.00    -0.237 OA
ATOM     85  O   UNL     1      15.105   8.623  -9.844  1.00  0.00    -0.237 OA
ATOM     86  O   UNL     1      13.847  10.542 -10.745  1.00  0.00    -0.744 OA
ENDBRANCH  79  83
ENDBRANCH  52  76
BRANCH  64  87
ATOM     87  C   UNL     1      19.282  12.568  -2.420  1.00  0.00     0.023 A 
ATOM     88  C   UNL     1      18.894  13.915  -2.525  1.00  0.00     0.031 A 
ATOM     89  C   UNL     1      20.624  12.242  -2.685  1.00  0.00     0.131 A 
ATOM     90  C   UNL     1      19.826  14.879  -2.936  1.00  0.00     0.055 A 
ATOM     91  C   UNL     1      21.560  13.214  -3.038  1.00  0.00     0.041 A 
ATOM     92  F   UNL     1      21.048  10.970  -2.603  1.00  0.00    -0.206 F 
ATOM     93  C   UNL     1      21.160  14.540  -3.178  1.00  0.00     0.022 A 
BRANCH  90  94
ATOM     94  S   UNL     1      19.252  16.573  -3.236  1.00  0.00     0.124 S 
ATOM     95  O   UNL     1      18.237  16.372  -4.266  1.00  0.00    -0.237 OA
ATOM     96  O   UNL     1      18.757  16.973  -1.923  1.00  0.00    -0.237 OA
ATOM     97  O   UNL     1      20.457  17.270  -3.682  1.00  0.00    -0.744 OA
ENDBRANCH  90  94
ENDBRANCH  64  87
ENDBRANCH  38  39
ENDBRANCH  30  33
ENDBRANCH  28  29
ENDBRANCH   1  28
TORSDOF 16
