REMARK SMILES CC(C)(C)OC(=O)N1CCC[C@](Cc2ccccc2)(C(=O)NCCCCNC(=O)c2ccc(-c3c4nc(c(-c5cc(S(=O)(=O)[O-])ccc5F)c5ccc([nH]5)c(-c5cc(S(=O)(=O)[O-])ccc5F)c5nc(c(-c6cc(S(=O)(=O)[O-])ccc6F)c6ccc3[nH]6)C=C5)C=C4)cc2)C1
REMARK SMILES IDX 24 1 23 2 22 3 20 4 21 5 12 7 8 8 9 9 93 10 10 11 11 12 6 13
REMARK SMILES IDX 7 14 5 15 2 16 1 17 3 18 4 19 13 20 14 21 15 22 19 23 16 24
REMARK SMILES IDX 18 25 17 26 25 27 26 28 27 29 28 30 29 32 30 33 31 34 92 35
REMARK SMILES IDX 32 36 91 37 33 38 34 39 35 40 85 41 36 42 90 43 84 44 86 45
REMARK SMILES IDX 37 46 89 47 83 48 82 49 38 51 70 52 50 53 69 54 51 55 54 56
REMARK SMILES IDX 68 57 87 58 52 59 53 60 67 62 88 63 55 64 39 65 40 66 48 67
REMARK SMILES IDX 41 68 47 69 49 70 46 71 42 72 43 73 44 74 45 75 71 76 72 77
REMARK SMILES IDX 80 78 73 79 79 80 81 81 78 82 74 83 75 84 76 85 77 86 56 87
REMARK SMILES IDX 57 88 65 89 58 90 64 91 66 92 63 93 59 94 60 95 61 96 62 97
REMARK H PARENT 22 6 27 31 86 50 54 61
REMARK Flexibility Score: inf
ROOT
ATOM      1  C   UNL     1       6.805   5.727   2.547  1.00  0.00     0.023 C 
ENDROOT
BRANCH   1   2
ATOM      2  C   UNL     1       5.678   6.542   3.188  1.00  0.00     0.116 C 
BRANCH   2   3
ATOM      3  N   UNL     1       4.400   6.208   2.585  1.00  0.00    -0.356 N 
ATOM      4  C   UNL     1       3.423   5.295   2.807  1.00  0.00     0.228 C 
ATOM      5  O   UNL     1       2.686   5.136   1.825  1.00  0.00    -0.274 OA
ATOM      6  H   UNL     1       4.190   6.794   1.822  1.00  0.00     0.163 HD
BRANCH   4   7
ATOM      7  C   UNL     1       3.102   4.591   4.164  1.00  0.00     0.071 C 
ATOM      8  N   UNL     1       0.878   3.609   3.433  1.00  0.00    -0.307 N 
ATOM      9  C   UNL     1       0.126   4.471   4.322  1.00  0.00     0.123 C 
ATOM     10  C   UNL     1       2.257   3.317   3.829  1.00  0.00     0.140 C 
ATOM     11  C   UNL     1       0.842   5.798   4.508  1.00  0.00     0.023 C 
ATOM     12  C   UNL     1       2.270   5.584   5.024  1.00  0.00     0.021 C 
BRANCH   8  13
ATOM     13  C   UNL     1       0.297   3.192   2.242  1.00  0.00     0.410 C 
ATOM     14  O   UNL     1      -0.743   3.662   1.810  1.00  0.00    -0.224 OA
BRANCH  13  15
ATOM     15  O   UNL     1       0.967   2.153   1.667  1.00  0.00    -0.444 OA
BRANCH  15  16
ATOM     16  C   UNL     1       0.527   1.589   0.400  1.00  0.00     0.106 C 
ATOM     17  C   UNL     1       1.241   0.231   0.295  1.00  0.00     0.056 C 
ATOM     18  C   UNL     1       0.996   2.492  -0.744  1.00  0.00     0.056 C 
ATOM     19  C   UNL     1      -0.985   1.321   0.317  1.00  0.00     0.056 C 
ENDBRANCH  15  16
ENDBRANCH  13  15
ENDBRANCH   8  13
BRANCH   7  20
ATOM     20  C   UNL     1       4.400   4.195   4.919  1.00  0.00     0.054 C 
BRANCH  20  21
ATOM     21  C   UNL     1       4.381   3.492   6.263  1.00  0.00    -0.047 A 
ATOM     22  C   UNL     1       4.798   4.192   7.413  1.00  0.00     0.004 A 
ATOM     23  C   UNL     1       4.084   2.133   6.390  1.00  0.00     0.004 A 
ATOM     24  C   UNL     1       4.894   3.557   8.652  1.00  0.00     0.000 A 
ATOM     25  C   UNL     1       4.152   1.504   7.636  1.00  0.00     0.000 A 
ATOM     26  C   UNL     1       4.559   2.213   8.765  1.00  0.00     0.000 A 
ENDBRANCH  20  21
ENDBRANCH   7  20
ENDBRANCH   4   7
ENDBRANCH   2   3
ENDBRANCH   1   2
BRANCH   1  27
ATOM     27  C   UNL     1       7.258   6.271   1.188  1.00  0.00     0.023 C 
BRANCH  27  28
ATOM     28  C   UNL     1       7.703   7.731   1.198  1.00  0.00     0.116 C 
BRANCH  28  29
ATOM     29  N   UNL     1       8.728   8.010   2.194  1.00  0.00    -0.352 N 
ATOM     30  C   UNL     1       9.808   8.853   2.091  1.00  0.00     0.251 C 
ATOM     31  H   UNL     1       8.634   7.535   3.051  1.00  0.00     0.163 HD
ATOM     32  O   UNL     1      10.656   8.882   2.977  1.00  0.00    -0.269 OA
BRANCH  30  33
ATOM     33  C   UNL     1       9.946   9.685   0.879  1.00  0.00     0.039 A 
ATOM     34  C   UNL     1      11.149   9.657   0.173  1.00  0.00     0.014 A 
ATOM     35  C   UNL     1       8.861  10.430   0.409  1.00  0.00     0.014 A 
ATOM     36  C   UNL     1      11.240  10.323  -1.050  1.00  0.00     0.010 A 
ATOM     37  C   UNL     1       8.928  11.022  -0.847  1.00  0.00     0.010 A 
ATOM     38  C   UNL     1      10.117  10.974  -1.590  1.00  0.00    -0.014 A 
BRANCH  38  39
ATOM     39  C   UNL     1      10.169  11.610  -2.932  1.00  0.00     0.031 A 
ATOM     40  C   UNL     1       9.957  13.093  -3.067  1.00  0.00     0.074 A 
ATOM     41  C   UNL     1      10.347  10.844  -4.028  1.00  0.00     0.049 A 
ATOM     42  N   UNL     1       9.896  13.825  -4.150  1.00  0.00    -0.248 NA
ATOM     43  C   UNL     1       9.758  13.848  -1.820  1.00  0.00     0.031 C 
ATOM     44  C   UNL     1      10.520   9.389  -4.024  1.00  0.00     0.029 A 
ATOM     45  N   UNL     1      10.405  11.178  -5.358  1.00  0.00    -0.354 N 
ATOM     46  C   UNL     1       9.640  15.121  -3.716  1.00  0.00     0.074 A 
ATOM     47  C   UNL     1       9.491  15.061  -2.278  1.00  0.00     0.031 C 
ATOM     48  C   UNL     1      10.696   8.963  -5.285  1.00  0.00     0.029 A 
ATOM     49  C   UNL     1      10.596  10.101  -6.193  1.00  0.00     0.049 A 
ATOM     50  H   UNL     1      10.319  12.103  -5.684  1.00  0.00     0.167 HD
ATOM     51  C   UNL     1       9.564  16.259  -4.448  1.00  0.00     0.034 A 
ATOM     52  C   UNL     1      10.669  10.036  -7.538  1.00  0.00     0.034 A 
ATOM     53  C   UNL     1       9.726  16.301  -5.881  1.00  0.00     0.049 A 
ATOM     54  C   UNL     1      10.548  11.313  -8.332  1.00  0.00     0.074 A 
ATOM     55  C   UNL     1       9.721  17.404  -6.716  1.00  0.00     0.029 A 
ATOM     56  N   UNL     1       9.914  15.190  -6.694  1.00  0.00    -0.354 N 
ATOM     57  N   UNL     1      10.362  12.540  -7.902  1.00  0.00    -0.248 NA
ATOM     58  C   UNL     1      10.658  11.198  -9.792  1.00  0.00     0.031 C 
ATOM     59  C   UNL     1       9.827  16.955  -8.036  1.00  0.00     0.029 A 
ATOM     60  C   UNL     1       9.990  15.579  -8.022  1.00  0.00     0.049 A 
ATOM     61  H   UNL     1       9.982  14.261  -6.373  1.00  0.00     0.167 HD
ATOM     62  C   UNL     1      10.369  13.346  -9.038  1.00  0.00     0.074 A 
ATOM     63  C   UNL     1      10.595  12.467 -10.167  1.00  0.00     0.031 C 
ATOM     64  C   UNL     1      10.208  14.690  -9.140  1.00  0.00     0.034 A 
BRANCH  51  65
ATOM     65  C   UNL     1       9.268  17.544  -3.711  1.00  0.00     0.023 A 
ATOM     66  C   UNL     1      10.143  18.055  -2.736  1.00  0.00     0.031 A 
ATOM     67  C   UNL     1       8.088  18.261  -3.974  1.00  0.00     0.131 A 
ATOM     68  C   UNL     1       9.791  19.204  -2.011  1.00  0.00     0.055 A 
ATOM     69  C   UNL     1       7.784  19.451  -3.309  1.00  0.00     0.041 A 
ATOM     70  F   UNL     1       7.202  17.812  -4.877  1.00  0.00    -0.206 F 
ATOM     71  C   UNL     1       8.632  19.921  -2.310  1.00  0.00     0.022 A 
BRANCH  68  72
ATOM     72  S   UNL     1      10.800  19.664  -0.575  1.00  0.00     0.124 S 
ATOM     73  O   UNL     1      10.692  18.467   0.256  1.00  0.00    -0.237 OA
ATOM     74  O   UNL     1      12.107  19.911  -1.173  1.00  0.00    -0.237 OA
ATOM     75  O   UNL     1      10.123  20.845  -0.045  1.00  0.00    -0.744 OA
ENDBRANCH  68  72
ENDBRANCH  51  65
BRANCH  52  76
ATOM     76  C   UNL     1      10.851   8.725  -8.228  1.00  0.00     0.023 A 
ATOM     77  C   UNL     1      11.989   8.470  -9.010  1.00  0.00     0.031 A 
ATOM     78  C   UNL     1       9.862   7.727  -8.163  1.00  0.00     0.131 A 
ATOM     79  C   UNL     1      12.084   7.275  -9.741  1.00  0.00     0.055 A 
ATOM     80  C   UNL     1       9.990   6.514  -8.842  1.00  0.00     0.041 A 
ATOM     81  F   UNL     1       8.753   7.915  -7.429  1.00  0.00    -0.206 F 
ATOM     82  C   UNL     1      11.100   6.289  -9.650  1.00  0.00     0.022 A 
BRANCH  79  83
ATOM     83  S   UNL     1      13.467   7.073 -10.898  1.00  0.00     0.124 S 
ATOM     84  O   UNL     1      13.301   8.235 -11.763  1.00  0.00    -0.237 OA
ATOM     85  O   UNL     1      14.617   7.098 -10.001  1.00  0.00    -0.237 OA
ATOM     86  O   UNL     1      13.197   5.782 -11.527  1.00  0.00    -0.744 OA
ENDBRANCH  79  83
ENDBRANCH  52  76
BRANCH  64  87
ATOM     87  C   UNL     1      10.325  15.295 -10.519  1.00  0.00     0.023 A 
ATOM     88  C   UNL     1       9.397  15.012 -11.536  1.00  0.00     0.031 A 
ATOM     89  C   UNL     1      11.390  16.164 -10.819  1.00  0.00     0.131 A 
ATOM     90  C   UNL     1       9.585  15.544 -12.820  1.00  0.00     0.055 A 
ATOM     91  C   UNL     1      11.532  16.745 -12.080  1.00  0.00     0.041 A 
ATOM     92  F   UNL     1      12.309  16.468  -9.888  1.00  0.00    -0.206 F 
ATOM     93  C   UNL     1      10.635  16.424 -13.093  1.00  0.00     0.022 A 
BRANCH  90  94
ATOM     94  S   UNL     1       8.495  14.989 -14.160  1.00  0.00     0.124 S 
ATOM     95  O   UNL     1       8.711  13.546 -14.148  1.00  0.00    -0.237 OA
ATOM     96  O   UNL     1       7.184  15.441 -13.704  1.00  0.00    -0.237 OA
ATOM     97  O   UNL     1       9.015  15.684 -15.336  1.00  0.00    -0.744 OA
ENDBRANCH  90  94
ENDBRANCH  64  87
ENDBRANCH  38  39
ENDBRANCH  30  33
ENDBRANCH  28  29
ENDBRANCH  27  28
ENDBRANCH   1  27
TORSDOF 19
