REMARK SMILES O=C(Cc1ccc(S(=O)(=O)C[C@H]2CCCO2)cc1)NCCCCNC(=O)c1ccc(-c2c3nc(c(-c4cc(S(=O)(=O)[O-])ccc4F)c4ccc([nH]4)c(-c4cc(S(=O)(=O)[O-])ccc4F)c4nc(c(-c5cc(S(=O)(=O)[O-])ccc5F)c5ccc2[nH]5)C=C4)C=C3)cc1
REMARK SMILES IDX 21 1 20 2 19 3 1 4 2 5 3 7 4 8 5 9 18 10 6 11 17 12 7 13
REMARK SMILES IDX 8 14 9 15 10 16 11 17 12 18 13 19 16 20 14 21 15 22 22 23
REMARK SMILES IDX 23 24 24 25 25 26 26 28 27 29 28 30 89 31 29 32 88 33 30 34
REMARK SMILES IDX 31 35 32 36 82 37 33 38 87 39 81 40 83 41 34 42 86 43 80 44
REMARK SMILES IDX 79 45 35 47 67 48 47 49 66 50 48 51 51 52 65 53 84 54 49 55
REMARK SMILES IDX 50 56 64 58 85 59 52 60 36 61 37 62 45 63 38 64 44 65 46 66
REMARK SMILES IDX 43 67 39 68 40 69 41 70 42 71 68 72 69 73 77 74 70 75 76 76
REMARK SMILES IDX 78 77 75 78 71 79 72 80 73 81 74 82 53 83 54 84 62 85 55 86
REMARK SMILES IDX 61 87 63 88 60 89 56 90 57 91 58 92 59 93
REMARK H PARENT 19 6 24 27 83 46 51 57
REMARK Flexibility Score: inf
ROOT
ATOM      1  C   UNL     1      11.785   6.243  -1.675  1.00  0.00     0.023 C 
ENDROOT
BRANCH   1   2
ATOM      2  C   UNL     1      10.821   6.383  -2.848  1.00  0.00     0.116 C 
BRANCH   2   3
ATOM      3  N   UNL     1       9.602   7.082  -2.496  1.00  0.00    -0.356 N 
ATOM      4  O   UNL     1       9.482   8.339  -4.420  1.00  0.00    -0.275 OA
ATOM      5  C   UNL     1       8.979   7.957  -3.368  1.00  0.00     0.224 C 
ATOM      6  H   UNL     1       9.203   6.928  -1.609  1.00  0.00     0.163 HD
BRANCH   5   7
ATOM      7  C   UNL     1       7.589   8.382  -2.925  1.00  0.00     0.135 C 
BRANCH   7   8
ATOM      8  C   UNL     1       6.510   7.324  -3.068  1.00  0.00    -0.039 A 
ATOM      9  C   UNL     1       5.180   7.677  -2.788  1.00  0.00     0.005 A 
ATOM     10  C   UNL     1       6.780   5.999  -3.443  1.00  0.00     0.005 A 
ATOM     11  C   UNL     1       4.152   6.738  -2.908  1.00  0.00     0.020 A 
ATOM     12  C   UNL     1       5.764   5.045  -3.518  1.00  0.00     0.020 A 
ATOM     13  C   UNL     1       4.447   5.424  -3.282  1.00  0.00     0.067 A 
BRANCH  13  14
ATOM     14  S   UNL     1       3.098   4.285  -3.447  1.00  0.00     0.180 S 
ATOM     15  O   UNL     1       2.822   3.828  -2.096  1.00  0.00    -0.224 OA
ATOM     16  O   UNL     1       2.054   4.957  -4.202  1.00  0.00    -0.224 OA
BRANCH  14  17
ATOM     17  C   UNL     1       3.600   2.862  -4.367  1.00  0.00     0.174 C 
BRANCH  17  18
ATOM     18  C   UNL     1       4.314   3.081  -5.699  1.00  0.00     0.133 C 
ATOM     19  C   UNL     1       3.822   2.139  -6.790  1.00  0.00     0.035 C 
ATOM     20  O   UNL     1       4.136   4.400  -6.221  1.00  0.00    -0.377 OA
ATOM     21  C   UNL     1       2.719   2.943  -7.433  1.00  0.00     0.031 C 
ATOM     22  C   UNL     1       3.273   4.348  -7.364  1.00  0.00     0.160 C 
ENDBRANCH  17  18
ENDBRANCH  14  17
ENDBRANCH  13  14
ENDBRANCH   7   8
ENDBRANCH   5   7
ENDBRANCH   2   3
ENDBRANCH   1   2
BRANCH   1  23
ATOM     23  C   UNL     1      11.237   5.495  -0.455  1.00  0.00     0.023 C 
BRANCH  23  24
ATOM     24  C   UNL     1      10.762   4.066  -0.706  1.00  0.00     0.116 C 
BRANCH  24  25
ATOM     25  N   UNL     1      11.838   3.178  -1.112  1.00  0.00    -0.352 N 
ATOM     26  C   UNL     1      12.266   1.995  -0.555  1.00  0.00     0.251 C 
ATOM     27  H   UNL     1      12.339   3.468  -1.908  1.00  0.00     0.163 HD
ATOM     28  O   UNL     1      13.306   1.484  -0.963  1.00  0.00    -0.269 OA
BRANCH  26  29
ATOM     29  C   UNL     1      11.506   1.350   0.543  1.00  0.00     0.039 A 
ATOM     30  C   UNL     1      12.212   0.818   1.628  1.00  0.00     0.014 A 
ATOM     31  C   UNL     1      10.114   1.239   0.503  1.00  0.00     0.014 A 
ATOM     32  C   UNL     1      11.521   0.245   2.701  1.00  0.00     0.010 A 
ATOM     33  C   UNL     1       9.422   0.723   1.601  1.00  0.00     0.010 A 
ATOM     34  C   UNL     1      10.117   0.226   2.715  1.00  0.00    -0.014 A 
BRANCH  34  35
ATOM     35  C   UNL     1       9.361  -0.295   3.887  1.00  0.00     0.031 A 
ATOM     36  C   UNL     1       8.496  -1.519   3.752  1.00  0.00     0.074 A 
ATOM     37  C   UNL     1       9.397   0.375   5.056  1.00  0.00     0.049 A 
ATOM     38  N   UNL     1       7.691  -2.067   4.626  1.00  0.00    -0.248 NA
ATOM     39  C   UNL     1       8.521  -2.200   2.449  1.00  0.00     0.031 C 
ATOM     40  C   UNL     1      10.170   1.593   5.309  1.00  0.00     0.029 A 
ATOM     41  N   UNL     1       8.758   0.137   6.248  1.00  0.00    -0.354 N 
ATOM     42  C   UNL     1       7.098  -3.145   3.977  1.00  0.00     0.074 A 
ATOM     43  C   UNL     1       7.603  -3.140   2.619  1.00  0.00     0.031 C 
ATOM     44  C   UNL     1       9.973   1.985   6.578  1.00  0.00     0.029 A 
ATOM     45  C   UNL     1       9.027   1.076   7.218  1.00  0.00     0.049 A 
ATOM     46  H   UNL     1       8.164  -0.634   6.396  1.00  0.00     0.167 HD
ATOM     47  C   UNL     1       6.226  -4.061   4.470  1.00  0.00     0.034 A 
ATOM     48  C   UNL     1       8.555   1.201   8.474  1.00  0.00     0.034 A 
ATOM     49  C   UNL     1       5.745  -4.066   5.831  1.00  0.00     0.049 A 
ATOM     50  C   UNL     1       7.574   0.181   8.995  1.00  0.00     0.074 A 
ATOM     51  C   UNL     1       4.915  -4.986   6.450  1.00  0.00     0.029 A 
ATOM     52  N   UNL     1       6.042  -3.100   6.785  1.00  0.00    -0.354 N 
ATOM     53  N   UNL     1       7.060  -0.859   8.381  1.00  0.00    -0.248 NA
ATOM     54  C   UNL     1       7.118   0.350  10.381  1.00  0.00     0.031 C 
ATOM     55  C   UNL     1       4.662  -4.545   7.754  1.00  0.00     0.029 A 
ATOM     56  C   UNL     1       5.388  -3.387   7.975  1.00  0.00     0.049 A 
ATOM     57  H   UNL     1       6.631  -2.325   6.638  1.00  0.00     0.167 HD
ATOM     58  C   UNL     1       6.243  -1.485   9.318  1.00  0.00     0.074 A 
ATOM     59  C   UNL     1       6.342  -0.713  10.539  1.00  0.00     0.031 C 
ATOM     60  C   UNL     1       5.485  -2.603   9.183  1.00  0.00     0.034 A 
BRANCH  47  61
ATOM     61  C   UNL     1       5.717  -5.117   3.518  1.00  0.00     0.023 A 
ATOM     62  C   UNL     1       6.577  -6.062   2.932  1.00  0.00     0.031 A 
ATOM     63  C   UNL     1       4.354  -5.165   3.173  1.00  0.00     0.131 A 
ATOM     64  C   UNL     1       6.082  -6.962   1.976  1.00  0.00     0.055 A 
ATOM     65  C   UNL     1       3.853  -6.116   2.282  1.00  0.00     0.041 A 
ATOM     66  F   UNL     1       3.487  -4.278   3.686  1.00  0.00    -0.206 F 
ATOM     67  C   UNL     1       4.721  -7.013   1.666  1.00  0.00     0.022 A 
BRANCH  64  68
ATOM     68  S   UNL     1       7.265  -7.968   1.040  1.00  0.00     0.124 S 
ATOM     69  O   UNL     1       8.090  -6.940   0.409  1.00  0.00    -0.237 OA
ATOM     70  O   UNL     1       7.911  -8.752   2.086  1.00  0.00    -0.237 OA
ATOM     71  O   UNL     1       6.419  -8.727   0.122  1.00  0.00    -0.744 OA
ENDBRANCH  64  68
ENDBRANCH  47  61
BRANCH  48  72
ATOM     72  C   UNL     1       8.987   2.340   9.333  1.00  0.00     0.023 A 
ATOM     73  C   UNL     1       9.749   2.120  10.491  1.00  0.00     0.031 A 
ATOM     74  C   UNL     1       8.607   3.659   9.032  1.00  0.00     0.131 A 
ATOM     75  C   UNL     1      10.069   3.197  11.332  1.00  0.00     0.055 A 
ATOM     76  C   UNL     1       8.969   4.734   9.846  1.00  0.00     0.041 A 
ATOM     77  F   UNL     1       7.884   3.924   7.932  1.00  0.00    -0.206 F 
ATOM     78  C   UNL     1       9.693   4.504  11.011  1.00  0.00     0.022 A 
BRANCH  75  79
ATOM     79  S   UNL     1      10.919   2.853  12.897  1.00  0.00     0.124 S 
ATOM     80  O   UNL     1       9.988   1.938  13.547  1.00  0.00    -0.237 OA
ATOM     81  O   UNL     1      12.175   2.271  12.436  1.00  0.00    -0.237 OA
ATOM     82  O   UNL     1      11.036   4.171  13.517  1.00  0.00    -0.744 OA
ENDBRANCH  75  79
ENDBRANCH  48  72
BRANCH  60  83
ATOM     83  C   UNL     1       4.744  -3.078  10.408  1.00  0.00     0.023 A 
ATOM     84  C   UNL     1       3.672  -2.352  10.954  1.00  0.00     0.031 A 
ATOM     85  C   UNL     1       5.133  -4.269  11.049  1.00  0.00     0.131 A 
ATOM     86  C   UNL     1       3.058  -2.795  12.136  1.00  0.00     0.055 A 
ATOM     87  C   UNL     1       4.482  -4.733  12.193  1.00  0.00     0.041 A 
ATOM     88  F   UNL     1       6.152  -5.000  10.571  1.00  0.00    -0.206 F 
ATOM     89  C   UNL     1       3.447  -3.989  12.750  1.00  0.00     0.022 A 
BRANCH  86  90
ATOM     90  S   UNL     1       1.796  -1.746  12.910  1.00  0.00     0.124 S 
ATOM     91  O   UNL     1       2.535  -0.512  13.155  1.00  0.00    -0.237 OA
ATOM     92  O   UNL     1       0.768  -1.679  11.877  1.00  0.00    -0.237 OA
ATOM     93  O   UNL     1       1.419  -2.491  14.110  1.00  0.00    -0.744 OA
ENDBRANCH  86  90
ENDBRANCH  60  83
ENDBRANCH  34  35
ENDBRANCH  26  29
ENDBRANCH  24  25
ENDBRANCH  23  24
ENDBRANCH   1  23
TORSDOF 18
