REMARK SMILES CS(=O)(=O)c1ccc(/C=C(/C(=O)NCCCCNC(=O)c2ccc(-c3c4nc(c(-c5cc(S(=O)(=O)[O-])ccc5F)c5ccc([nH]5)c(-c5cc(S(=O)(=O)[O-])ccc5F)c5nc(c(-c6cc(S(=O)(=O)[O-])ccc6F)c6ccc3[nH]6)C=C5)C=C4)cc2)c2ccc(-c3ccc(F)cc3F)cc2)cc1
REMARK SMILES IDX 16 1 15 2 14 3 13 4 11 5 12 6 10 8 9 9 8 10 5 11 6 12 99 13
REMARK SMILES IDX 7 14 98 15 2 16 1 17 3 18 4 19 84 20 85 21 97 22 86 23 96 24
REMARK SMILES IDX 87 25 88 26 89 27 94 28 90 29 93 30 95 31 91 32 92 33 17 34
REMARK SMILES IDX 18 35 19 36 20 38 21 39 22 40 83 41 23 42 82 43 24 44 25 45
REMARK SMILES IDX 26 46 76 47 27 48 81 49 75 50 77 51 28 52 80 53 74 54 73 55
REMARK SMILES IDX 29 57 61 58 41 59 60 60 42 61 45 62 59 63 78 64 43 65 44 66
REMARK SMILES IDX 58 68 79 69 46 70 30 71 31 72 39 73 32 74 38 75 40 76 37 77
REMARK SMILES IDX 33 78 34 79 35 80 36 81 62 82 63 83 71 84 64 85 70 86 72 87
REMARK SMILES IDX 69 88 65 89 66 90 67 91 68 92 47 93 48 94 56 95 49 96 55 97
REMARK SMILES IDX 57 98 54 99 50 100 51 101 52 102 53 103
REMARK H PARENT 13 7 18 37 77 56 45 67
REMARK Flexibility Score: inf
ROOT
ATOM      1  C   UNL     1       5.242  -3.348  -9.168  1.00  0.00     0.023 C 
ENDROOT
BRANCH   1   2
ATOM      2  C   UNL     1       4.433  -3.008  -7.910  1.00  0.00     0.023 C 
BRANCH   2   3
ATOM      3  C   UNL     1       2.949  -3.375  -8.001  1.00  0.00     0.116 C 
BRANCH   3   4
ATOM      4  N   UNL     1       2.791  -4.814  -7.959  1.00  0.00    -0.352 N 
ATOM      5  C   UNL     1       2.458  -5.693  -6.977  1.00  0.00     0.251 C 
ATOM      6  O   UNL     1       2.487  -6.886  -7.287  1.00  0.00    -0.269 OA
ATOM      7  H   UNL     1       2.960  -5.248  -8.826  1.00  0.00     0.163 HD
BRANCH   5   8
ATOM      8  C   UNL     1       1.987  -5.268  -5.603  1.00  0.00     0.047 C 
ATOM      9  C   UNL     1       2.509  -4.194  -4.967  1.00  0.00     0.022 C 
BRANCH   9  10
ATOM     10  C   UNL     1       2.084  -3.566  -3.697  1.00  0.00    -0.025 A 
ATOM     11  C   UNL     1       1.054  -2.253  -1.438  1.00  0.00     0.067 A 
ATOM     12  C   UNL     1       1.312  -3.625  -1.393  1.00  0.00     0.021 A 
ATOM     13  C   UNL     1       1.363  -1.516  -2.581  1.00  0.00     0.021 A 
ATOM     14  C   UNL     1       1.845  -4.272  -2.513  1.00  0.00     0.009 A 
ATOM     15  C   UNL     1       1.879  -2.175  -3.701  1.00  0.00     0.009 A 
BRANCH  11  16
ATOM     16  S   UNL     1       0.299  -1.479  -0.029  1.00  0.00     0.175 S 
ATOM     17  C   UNL     1       1.005   0.141   0.089  1.00  0.00     0.163 C 
ATOM     18  O   UNL     1       0.737  -2.213   1.147  1.00  0.00    -0.224 OA
ATOM     19  O   UNL     1      -1.109  -1.334  -0.337  1.00  0.00    -0.224 OA
ENDBRANCH  11  16
ENDBRANCH   9  10
BRANCH   8  20
ATOM     20  C   UNL     1       1.066  -6.196  -4.898  1.00  0.00    -0.013 A 
ATOM     21  C   UNL     1       1.540  -7.472  -4.566  1.00  0.00     0.009 A 
ATOM     22  C   UNL     1      -0.219  -5.835  -4.484  1.00  0.00     0.009 A 
ATOM     23  C   UNL     1       0.767  -8.353  -3.811  1.00  0.00     0.009 A 
ATOM     24  C   UNL     1      -0.983  -6.714  -3.698  1.00  0.00     0.009 A 
ATOM     25  C   UNL     1      -0.500  -7.984  -3.332  1.00  0.00    -0.015 A 
BRANCH  25  26
ATOM     26  C   UNL     1      -1.261  -8.904  -2.461  1.00  0.00     0.018 A 
ATOM     27  C   UNL     1      -0.599  -9.655  -1.464  1.00  0.00     0.015 A 
ATOM     28  C   UNL     1      -2.648  -9.091  -2.584  1.00  0.00     0.133 A 
ATOM     29  C   UNL     1      -1.290 -10.561  -0.655  1.00  0.00     0.040 A 
ATOM     30  C   UNL     1      -3.347  -9.987  -1.777  1.00  0.00     0.079 A 
ATOM     31  F   UNL     1      -3.347  -8.414  -3.509  1.00  0.00    -0.206 F 
ATOM     32  C   UNL     1      -2.658 -10.719  -0.823  1.00  0.00     0.126 A 
ATOM     33  F   UNL     1      -3.319 -11.591  -0.051  1.00  0.00    -0.207 F 
ENDBRANCH  25  26
ENDBRANCH   8  20
ENDBRANCH   5   8
ENDBRANCH   3   4
ENDBRANCH   2   3
ENDBRANCH   1   2
BRANCH   1  34
ATOM     34  C   UNL     1       4.782  -2.648 -10.443  1.00  0.00     0.116 C 
BRANCH  34  35
ATOM     35  N   UNL     1       4.768  -1.198 -10.318  1.00  0.00    -0.352 N 
ATOM     36  C   UNL     1       5.127  -0.255 -11.253  1.00  0.00     0.251 C 
ATOM     37  H   UNL     1       4.462  -0.845  -9.451  1.00  0.00     0.163 HD
ATOM     38  O   UNL     1       5.174   0.931 -10.945  1.00  0.00    -0.269 OA
BRANCH  36  39
ATOM     39  C   UNL     1       5.494  -0.701 -12.612  1.00  0.00     0.039 A 
ATOM     40  C   UNL     1       6.724  -0.307 -13.143  1.00  0.00     0.014 A 
ATOM     41  C   UNL     1       4.653  -1.560 -13.323  1.00  0.00     0.014 A 
ATOM     42  C   UNL     1       7.152  -0.850 -14.357  1.00  0.00     0.010 A 
ATOM     43  C   UNL     1       5.107  -2.143 -14.502  1.00  0.00     0.010 A 
ATOM     44  C   UNL     1       6.369  -1.809 -15.019  1.00  0.00    -0.014 A 
BRANCH  44  45
ATOM     45  C   UNL     1       6.861  -2.509 -16.233  1.00  0.00     0.031 A 
ATOM     46  C   UNL     1       6.152  -2.325 -17.544  1.00  0.00     0.074 A 
ATOM     47  C   UNL     1       7.888  -3.376 -16.129  1.00  0.00     0.049 A 
ATOM     48  N   UNL     1       6.337  -2.948 -18.679  1.00  0.00    -0.248 NA
ATOM     49  C   UNL     1       5.075  -1.324 -17.573  1.00  0.00     0.031 C 
ATOM     50  C   UNL     1       8.639  -3.655 -14.902  1.00  0.00     0.029 A 
ATOM     51  N   UNL     1       8.467  -4.199 -17.063  1.00  0.00    -0.354 N 
ATOM     52  C   UNL     1       5.396  -2.422 -19.557  1.00  0.00     0.074 A 
ATOM     53  C   UNL     1       4.607  -1.469 -18.804  1.00  0.00     0.031 C 
ATOM     54  C   UNL     1       9.585  -4.571 -15.163  1.00  0.00     0.029 A 
ATOM     55  C   UNL     1       9.474  -4.989 -16.557  1.00  0.00     0.049 A 
ATOM     56  H   UNL     1       8.188  -4.222 -18.007  1.00  0.00     0.167 HD
ATOM     57  C   UNL     1       5.222  -2.695 -20.874  1.00  0.00     0.034 A 
ATOM     58  C   UNL     1      10.206  -5.958 -17.142  1.00  0.00     0.034 A 
ATOM     59  C   UNL     1       6.021  -3.643 -21.609  1.00  0.00     0.049 A 
ATOM     60  C   UNL     1       9.944  -6.293 -18.590  1.00  0.00     0.074 A 
ATOM     61  C   UNL     1       5.965  -3.958 -22.956  1.00  0.00     0.029 A 
ATOM     62  N   UNL     1       7.016  -4.441 -21.058  1.00  0.00    -0.354 N 
ATOM     63  N   UNL     1       9.078  -5.755 -19.417  1.00  0.00    -0.248 NA
ATOM     64  C   UNL     1      10.755  -7.366 -19.180  1.00  0.00     0.031 C 
ATOM     65  C   UNL     1       6.876  -4.989 -23.204  1.00  0.00     0.029 A 
ATOM     66  C   UNL     1       7.552  -5.272 -22.029  1.00  0.00     0.049 A 
ATOM     67  H   UNL     1       7.298  -4.419 -20.115  1.00  0.00     0.167 HD
ATOM     68  C   UNL     1       9.260  -6.409 -20.632  1.00  0.00     0.074 A 
ATOM     69  C   UNL     1      10.327  -7.369 -20.434  1.00  0.00     0.031 C 
ATOM     70  C   UNL     1       8.607  -6.232 -21.809  1.00  0.00     0.034 A 
BRANCH  57  71
ATOM     71  C   UNL     1       4.111  -1.970 -21.592  1.00  0.00     0.023 A 
ATOM     72  C   UNL     1       4.131  -0.574 -21.756  1.00  0.00     0.031 A 
ATOM     73  C   UNL     1       3.012  -2.678 -22.107  1.00  0.00     0.131 A 
ATOM     74  C   UNL     1       3.043   0.076 -22.356  1.00  0.00     0.055 A 
ATOM     75  C   UNL     1       1.967  -2.033 -22.772  1.00  0.00     0.041 A 
ATOM     76  F   UNL     1       2.928  -4.010 -21.963  1.00  0.00    -0.206 F 
ATOM     77  C   UNL     1       1.972  -0.646 -22.887  1.00  0.00     0.022 A 
BRANCH  74  78
ATOM     78  S   UNL     1       2.988   1.888 -22.313  1.00  0.00     0.124 S 
ATOM     79  O   UNL     1       3.002   2.150 -20.876  1.00  0.00    -0.237 OA
ATOM     80  O   UNL     1       4.196   2.258 -23.042  1.00  0.00    -0.237 OA
ATOM     81  O   UNL     1       1.730   2.209 -22.985  1.00  0.00    -0.744 OA
ENDBRANCH  74  78
ENDBRANCH  57  71
BRANCH  58  82
ATOM     82  C   UNL     1      11.233  -6.711 -16.366  1.00  0.00     0.023 A 
ATOM     83  C   UNL     1      12.591  -6.646 -16.716  1.00  0.00     0.031 A 
ATOM     84  C   UNL     1      10.867  -7.553 -15.300  1.00  0.00     0.131 A 
ATOM     85  C   UNL     1      13.527  -7.448 -16.044  1.00  0.00     0.055 A 
ATOM     86  C   UNL     1      11.810  -8.306 -14.598  1.00  0.00     0.041 A 
ATOM     87  F   UNL     1       9.583  -7.652 -14.922  1.00  0.00    -0.206 F 
ATOM     88  C   UNL     1      13.147  -8.268 -14.979  1.00  0.00     0.022 A 
BRANCH  85  89
ATOM     89  S   UNL     1      15.236  -7.477 -16.650  1.00  0.00     0.124 S 
ATOM     90  O   UNL     1      15.052  -7.887 -18.037  1.00  0.00    -0.237 OA
ATOM     91  O   UNL     1      15.655  -6.095 -16.438  1.00  0.00    -0.237 OA
ATOM     92  O   UNL     1      15.885  -8.462 -15.787  1.00  0.00    -0.744 OA
ENDBRANCH  85  89
ENDBRANCH  58  82
BRANCH  70  93
ATOM     93  C   UNL     1       9.057  -7.073 -22.976  1.00  0.00     0.023 A 
ATOM     94  C   UNL     1       8.826  -8.459 -23.017  1.00  0.00     0.031 A 
ATOM     95  C   UNL     1       9.720  -6.477 -24.063  1.00  0.00     0.131 A 
ATOM     96  C   UNL     1       9.290  -9.211 -24.106  1.00  0.00     0.055 A 
ATOM     97  C   UNL     1      10.132  -7.222 -25.168  1.00  0.00     0.041 A 
ATOM     98  F   UNL     1       9.967  -5.157 -24.072  1.00  0.00    -0.206 F 
ATOM     99  C   UNL     1       9.926  -8.598 -25.190  1.00  0.00     0.022 A 
BRANCH  96 100
ATOM    100  S   UNL     1       9.103 -11.014 -24.064  1.00  0.00     0.124 S 
ATOM    101  O   UNL     1       9.910 -11.375 -22.903  1.00  0.00    -0.237 OA
ATOM    102  O   UNL     1       7.661 -11.177 -23.913  1.00  0.00    -0.237 OA
ATOM    103  O   UNL     1       9.642 -11.445 -25.353  1.00  0.00    -0.744 OA
ENDBRANCH  96 100
ENDBRANCH  70  93
ENDBRANCH  44  45
ENDBRANCH  36  39
ENDBRANCH  34  35
ENDBRANCH   1  34
TORSDOF 18
