REMARK SMILES CC[C@](C)(NC(=O)CNC(=O)c1cccc(Cl)c1)C(=O)NCCCCNC(=O)c1ccc(-c2c3nc(c(-c4cc(S(=O)(=O)[O-])ccc4F)c4ccc([nH]4)c(-c4cc(S(=O)(=O)[O-])ccc4F)c4nc(c(-c5cc(S(=O)(=O)[O-])ccc5F)c5ccc2[nH]5)C=C4)C=C3)cc1
REMARK SMILES IDX 23 1 22 2 21 3 19 4 20 5 3 7 4 8 2 9 1 10 5 11 6 12 7 14
REMARK SMILES IDX 8 15 9 16 10 17 11 19 12 20 13 21 18 22 14 23 16 24 15 25
REMARK SMILES IDX 17 26 24 27 25 28 26 29 27 30 28 32 29 33 30 34 91 35 31 36
REMARK SMILES IDX 90 37 32 38 33 39 34 40 84 41 35 42 89 43 83 44 85 45 36 46
REMARK SMILES IDX 88 47 82 48 81 49 37 51 69 52 49 53 68 54 50 55 53 56 67 57
REMARK SMILES IDX 86 58 51 59 52 60 66 62 87 63 54 64 38 65 39 66 47 67 40 68
REMARK SMILES IDX 46 69 48 70 45 71 41 72 42 73 43 74 44 75 70 76 71 77 79 78
REMARK SMILES IDX 72 79 78 80 80 81 77 82 73 83 74 84 75 85 76 86 55 87 56 88
REMARK SMILES IDX 64 89 57 90 63 91 65 92 62 93 58 94 59 95 60 96 61 97
REMARK H PARENT 21 6 5 13 9 18 26 31 85 50 53 61
REMARK Flexibility Score: inf
ROOT
ATOM      1  C   UNL     1       2.407   4.192   4.781  1.00  0.00     0.023 C 
ENDROOT
BRANCH   1   2
ATOM      2  C   UNL     1       1.883   4.246   3.342  1.00  0.00     0.116 C 
BRANCH   2   3
ATOM      3  N   UNL     1       2.453   3.318   2.372  1.00  0.00    -0.354 N 
ATOM      4  C   UNL     1       1.913   2.226   1.736  1.00  0.00     0.245 C 
ATOM      5  O   UNL     1       2.398   1.893   0.654  1.00  0.00    -0.272 OA
ATOM      6  H   UNL     1       3.388   3.507   2.130  1.00  0.00     0.163 HD
BRANCH   4   7
ATOM      7  C   UNL     1       0.633   1.534   2.227  1.00  0.00     0.116 C 
ATOM      8  C   UNL     1       0.449   0.097   1.701  1.00  0.00     0.045 C 
BRANCH   7   9
ATOM      9  C   UNL     1      -0.527   2.417   1.659  1.00  0.00     0.035 C 
ATOM     10  C   UNL     1      -0.673   2.373   0.128  1.00  0.00     0.007 C 
ENDBRANCH   7   9
BRANCH   7  11
ATOM     11  N   UNL     1       0.638   1.459   3.697  1.00  0.00    -0.340 N 
ATOM     12  C   UNL     1       1.564   0.838   4.505  1.00  0.00     0.240 C 
ATOM     13  H   UNL     1      -0.108   1.906   4.157  1.00  0.00     0.164 HD
ATOM     14  O   UNL     1       1.155   0.439   5.602  1.00  0.00    -0.273 OA
BRANCH  12  15
ATOM     15  C   UNL     1       3.085   0.759   4.157  1.00  0.00     0.216 C 
BRANCH  15  16
ATOM     16  N   UNL     1       3.605  -0.226   3.224  1.00  0.00    -0.343 N 
ATOM     17  C   UNL     1       4.612  -0.154   2.281  1.00  0.00     0.251 C 
ATOM     18  H   UNL     1       3.159  -1.102   3.272  1.00  0.00     0.164 HD
ATOM     19  O   UNL     1       5.040  -1.205   1.805  1.00  0.00    -0.269 OA
BRANCH  17  20
ATOM     20  C   UNL     1       5.120   1.123   1.714  1.00  0.00     0.041 A 
ATOM     21  C   UNL     1       5.714   2.146   2.458  1.00  0.00     0.014 A 
ATOM     22  C   UNL     1       4.983   1.280   0.325  1.00  0.00     0.034 A 
ATOM     23  C   UNL     1       6.051   3.358   1.832  1.00  0.00     0.002 A 
ATOM     24  C   UNL     1       5.262   2.505  -0.278  1.00  0.00     0.041 A 
ATOM     25  C   UNL     1       5.781   3.554   0.474  1.00  0.00     0.020 A 
ATOM     26  Cl  UNL     1       4.881   2.750  -1.939  1.00  0.00    -0.084 Cl
ENDBRANCH  17  20
ENDBRANCH  15  16
ENDBRANCH  12  15
ENDBRANCH   7  11
ENDBRANCH   4   7
ENDBRANCH   2   3
ENDBRANCH   1   2
BRANCH   1  27
ATOM     27  C   UNL     1       3.910   4.337   5.009  1.00  0.00     0.023 C 
BRANCH  27  28
ATOM     28  C   UNL     1       4.571   5.518   4.321  1.00  0.00     0.116 C 
BRANCH  28  29
ATOM     29  N   UNL     1       4.074   6.791   4.804  1.00  0.00    -0.352 N 
ATOM     30  C   UNL     1       4.766   7.860   5.313  1.00  0.00     0.251 C 
ATOM     31  H   UNL     1       3.097   6.904   4.761  1.00  0.00     0.163 HD
ATOM     32  O   UNL     1       4.135   8.784   5.832  1.00  0.00    -0.269 OA
BRANCH  30  33
ATOM     33  C   UNL     1       6.246   7.898   5.275  1.00  0.00     0.039 A 
ATOM     34  C   UNL     1       6.931   8.383   6.393  1.00  0.00     0.014 A 
ATOM     35  C   UNL     1       6.964   7.480   4.150  1.00  0.00     0.014 A 
ATOM     36  C   UNL     1       8.328   8.399   6.402  1.00  0.00     0.010 A 
ATOM     37  C   UNL     1       8.357   7.419   4.192  1.00  0.00     0.010 A 
ATOM     38  C   UNL     1       9.056   7.886   5.316  1.00  0.00    -0.014 A 
BRANCH  38  39
ATOM     39  C   UNL     1      10.544   7.847   5.342  1.00  0.00     0.031 A 
ATOM     40  C   UNL     1      11.341   8.647   4.346  1.00  0.00     0.074 A 
ATOM     41  C   UNL     1      11.177   7.064   6.239  1.00  0.00     0.049 A 
ATOM     42  N   UNL     1      12.638   8.708   4.182  1.00  0.00    -0.248 NA
ATOM     43  C   UNL     1      10.578   9.466   3.392  1.00  0.00     0.031 C 
ATOM     44  C   UNL     1      10.515   6.222   7.239  1.00  0.00     0.029 A 
ATOM     45  N   UNL     1      12.515   6.846   6.459  1.00  0.00    -0.354 N 
ATOM     46  C   UNL     1      12.846   9.561   3.103  1.00  0.00     0.074 A 
ATOM     47  C   UNL     1      11.538   9.943   2.615  1.00  0.00     0.031 C 
ATOM     48  C   UNL     1      11.448   5.608   7.985  1.00  0.00     0.029 A 
ATOM     49  C   UNL     1      12.772   5.966   7.486  1.00  0.00     0.049 A 
ATOM     50  H   UNL     1      13.224   7.278   5.931  1.00  0.00     0.167 HD
ATOM     51  C   UNL     1      14.019  10.003   2.581  1.00  0.00     0.034 A 
ATOM     52  C   UNL     1      13.940   5.490   7.964  1.00  0.00     0.034 A 
ATOM     53  C   UNL     1      15.315   9.621   3.087  1.00  0.00     0.049 A 
ATOM     54  C   UNL     1      15.229   5.962   7.337  1.00  0.00     0.074 A 
ATOM     55  C   UNL     1      16.563  10.053   2.669  1.00  0.00     0.029 A 
ATOM     56  N   UNL     1      15.536   8.709   4.112  1.00  0.00    -0.354 N 
ATOM     57  N   UNL     1      15.407   6.809   6.350  1.00  0.00    -0.248 NA
ATOM     58  C   UNL     1      16.474   5.418   7.895  1.00  0.00     0.031 C 
ATOM     59  C   UNL     1      17.535   9.341   3.380  1.00  0.00     0.029 A 
ATOM     60  C   UNL     1      16.898   8.535   4.309  1.00  0.00     0.049 A 
ATOM     61  H   UNL     1      14.829   8.253   4.623  1.00  0.00     0.167 HD
ATOM     62  C   UNL     1      16.787   6.928   6.196  1.00  0.00     0.074 A 
ATOM     63  C   UNL     1      17.390   6.077   7.201  1.00  0.00     0.031 C 
ATOM     64  C   UNL     1      17.491   7.676   5.309  1.00  0.00     0.034 A 
BRANCH  51  65
ATOM     65  C   UNL     1      13.950  10.922   1.383  1.00  0.00     0.023 A 
ATOM     66  C   UNL     1      13.338  12.186   1.451  1.00  0.00     0.031 A 
ATOM     67  C   UNL     1      14.494  10.522   0.149  1.00  0.00     0.131 A 
ATOM     68  C   UNL     1      13.219  12.970   0.293  1.00  0.00     0.055 A 
ATOM     69  C   UNL     1      14.449  11.344  -0.978  1.00  0.00     0.041 A 
ATOM     70  F   UNL     1      15.070   9.317   0.014  1.00  0.00    -0.206 F 
ATOM     71  C   UNL     1      13.795  12.571  -0.915  1.00  0.00     0.022 A 
BRANCH  68  72
ATOM     72  S   UNL     1      12.169  14.448   0.354  1.00  0.00     0.124 S 
ATOM     73  O   UNL     1      10.885  13.881   0.759  1.00  0.00    -0.237 OA
ATOM     74  O   UNL     1      12.844  15.274   1.347  1.00  0.00    -0.237 OA
ATOM     75  O   UNL     1      12.212  14.956  -1.016  1.00  0.00    -0.744 OA
ENDBRANCH  68  72
ENDBRANCH  51  65
BRANCH  52  76
ATOM     76  C   UNL     1      13.957   4.505   9.085  1.00  0.00     0.023 A 
ATOM     77  C   UNL     1      14.570   4.814  10.310  1.00  0.00     0.031 A 
ATOM     78  C   UNL     1      13.412   3.218   8.930  1.00  0.00     0.131 A 
ATOM     79  C   UNL     1      14.671   3.834  11.310  1.00  0.00     0.055 A 
ATOM     80  C   UNL     1      13.460   2.266   9.950  1.00  0.00     0.041 A 
ATOM     81  F   UNL     1      12.813   2.868   7.780  1.00  0.00    -0.206 F 
ATOM     82  C   UNL     1      14.107   2.567  11.144  1.00  0.00     0.022 A 
BRANCH  79  83
ATOM     83  S   UNL     1      15.646   4.206  12.794  1.00  0.00     0.124 S 
ATOM     84  O   UNL     1      16.947   4.530  12.220  1.00  0.00    -0.237 OA
ATOM     85  O   UNL     1      14.903   5.320  13.372  1.00  0.00    -0.237 OA
ATOM     86  O   UNL     1      15.592   2.960  13.557  1.00  0.00    -0.744 OA
ENDBRANCH  79  83
ENDBRANCH  52  76
BRANCH  64  87
ATOM     87  C   UNL     1      18.997   7.646   5.423  1.00  0.00     0.023 A 
ATOM     88  C   UNL     1      19.739   6.478   5.177  1.00  0.00     0.031 A 
ATOM     89  C   UNL     1      19.699   8.808   5.794  1.00  0.00     0.131 A 
ATOM     90  C   UNL     1      21.130   6.481   5.364  1.00  0.00     0.055 A 
ATOM     91  C   UNL     1      21.090   8.822   5.910  1.00  0.00     0.041 A 
ATOM     92  F   UNL     1      19.044   9.952   6.047  1.00  0.00    -0.206 F 
ATOM     93  C   UNL     1      21.812   7.651   5.708  1.00  0.00     0.022 A 
BRANCH  90  94
ATOM     94  S   UNL     1      22.028   4.908   5.251  1.00  0.00     0.124 S 
ATOM     95  O   UNL     1      21.358   4.104   6.269  1.00  0.00    -0.237 OA
ATOM     96  O   UNL     1      21.790   4.512   3.867  1.00  0.00    -0.237 OA
ATOM     97  O   UNL     1      23.408   5.278   5.561  1.00  0.00    -0.744 OA
ENDBRANCH  90  94
ENDBRANCH  64  87
ENDBRANCH  38  39
ENDBRANCH  30  33
ENDBRANCH  28  29
ENDBRANCH  27  28
ENDBRANCH   1  27
TORSDOF 19
