REMARK SMILES C[C@@]12CC[C@@H]3c4ccc(O)cc4/C(=N/OCC(=O)NCCCCNC(=O)c4ccc(-c5c6nc(c(-c7cc(S(=O)(=O)[O-])ccc7F)c7ccc([nH]7)c(-c7cc(S(=O)(=O)[O-])ccc7F)c7nc(c(-c8cc(S(=O)(=O)[O-])ccc8F)c8ccc5[nH]8)C=C7)C=C6)cc4)C[C@H]3[C@@H]1C[C@@H](O)[C@@H]2O
REMARK SMILES IDX 21 1 20 2 19 3 17 4 18 5 16 7 15 8 14 9 1 10 2 11 3 12 92 13
REMARK SMILES IDX 96 14 4 15 91 16 93 17 94 18 5 19 90 20 6 21 13 22 7 23
REMARK SMILES IDX 12 24 8 25 11 26 9 27 97 28 95 30 10 32 22 34 23 35 24 36
REMARK SMILES IDX 25 37 26 39 27 40 28 41 89 42 29 43 88 44 30 45 31 46 32 47
REMARK SMILES IDX 82 48 33 49 87 50 81 51 83 52 34 53 86 54 80 55 79 56 35 58
REMARK SMILES IDX 67 59 47 60 66 61 48 62 51 63 65 64 84 65 49 66 50 67 64 69
REMARK SMILES IDX 85 70 52 71 36 72 37 73 45 74 38 75 44 76 46 77 43 78 39 79
REMARK SMILES IDX 40 80 41 81 42 82 68 83 69 84 77 85 70 86 76 87 78 88 75 89
REMARK SMILES IDX 71 90 72 91 73 92 74 93 53 94 54 95 62 96 55 97 61 98 63 99
REMARK SMILES IDX 60 100 56 101 57 102 58 103 59 104
REMARK H PARENT 19 6 97 29 95 31 10 33 24 38 83 57 51 68
REMARK Flexibility Score: inf
ROOT
ATOM      1  C   UNL     1       2.601   7.177  -0.486  1.00  0.00     0.023 C 
ENDROOT
BRANCH   1   2
ATOM      2  C   UNL     1       2.053   7.946   0.715  1.00  0.00     0.116 C 
BRANCH   2   3
ATOM      3  N   UNL     1       1.199   9.041   0.305  1.00  0.00    -0.353 N 
ATOM      4  C   UNL     1      -0.169   9.047   0.249  1.00  0.00     0.260 C 
ATOM      5  O   UNL     1      -0.743  10.065  -0.144  1.00  0.00    -0.271 OA
ATOM      6  H   UNL     1       1.652   9.873   0.037  1.00  0.00     0.163 HD
BRANCH   4   7
ATOM      7  C   UNL     1      -0.936   7.835   0.776  1.00  0.00     0.363 C 
BRANCH   7   8
ATOM      8  O   UNL     1      -0.521   6.588   0.224  1.00  0.00    -0.385 OA
BRANCH   8   9
ATOM      9  N   UNL     1      -1.143   6.448  -1.011  1.00  0.00    -0.090 NA
ATOM     10  C   UNL     1       0.123  -0.790  -0.165  1.00  0.00     0.014 C 
ATOM     11  C   UNL     1      -0.186   0.196  -1.327  1.00  0.00    -0.001 C 
ATOM     12  C   UNL     1      -1.709   0.179  -1.488  1.00  0.00     0.010 C 
ATOM     13  C   UNL     1       0.381   1.600  -0.997  1.00  0.00     0.004 C 
ATOM     14  C   UNL     1       0.618  -0.212  -2.592  1.00  0.00     0.149 C 
ATOM     15  C   UNL     1      -2.259   1.232  -2.421  1.00  0.00     0.009 C 
ATOM     16  C   UNL     1      -0.293   2.794  -1.756  1.00  0.00     0.006 C 
ATOM     17  C   UNL     1       1.899   1.448  -1.334  1.00  0.00     0.039 C 
ATOM     18  C   UNL     1       2.053   0.231  -2.276  1.00  0.00     0.144 C 
ATOM     19  C   UNL     1      -1.815   2.631  -2.014  1.00  0.00     0.024 C 
ATOM     20  C   UNL     1      -0.119   4.142  -0.992  1.00  0.00     0.065 C 
ATOM     21  C   UNL     1      -2.238   3.712  -2.999  1.00  0.00    -0.035 A 
ATOM     22  C   UNL     1      -0.982   5.280  -1.555  1.00  0.00     0.088 C 
ATOM     23  C   UNL     1      -3.105   3.494  -4.081  1.00  0.00     0.008 A 
ATOM     24  C   UNL     1      -1.786   5.018  -2.774  1.00  0.00     0.006 A 
ATOM     25  C   UNL     1      -3.518   4.555  -4.891  1.00  0.00     0.046 A 
ATOM     26  C   UNL     1      -2.197   6.087  -3.582  1.00  0.00     0.056 A 
ATOM     27  C   UNL     1      -3.071   5.842  -4.631  1.00  0.00     0.116 A 
BRANCH  14  28
ATOM     28  O   UNL     1       0.172   0.425  -3.785  1.00  0.00    -0.390 OA
ATOM     29  H   UNL     1       0.244   1.387  -3.684  1.00  0.00     0.211 HD
ENDBRANCH  14  28
BRANCH  18  30
ATOM     30  O   UNL     1       2.774  -0.815  -1.628  1.00  0.00    -0.390 OA
ATOM     31  H   UNL     1       2.312  -1.069  -0.814  1.00  0.00     0.211 HD
ENDBRANCH  18  30
BRANCH  27  32
ATOM     32  O   UNL     1      -3.541   6.850  -5.418  1.00  0.00    -0.508 OA
ATOM     33  H   UNL     1      -4.130   6.660  -6.121  1.00  0.00     0.293 HD
ENDBRANCH  27  32
ENDBRANCH   8   9
ENDBRANCH   7   8
ENDBRANCH   4   7
ENDBRANCH   2   3
ENDBRANCH   1   2
BRANCH   1  34
ATOM     34  C   UNL     1       3.594   7.966  -1.339  1.00  0.00     0.023 C 
BRANCH  34  35
ATOM     35  C   UNL     1       4.770   8.559  -0.575  1.00  0.00     0.116 C 
BRANCH  35  36
ATOM     36  N   UNL     1       5.568   7.565   0.131  1.00  0.00    -0.352 N 
ATOM     37  C   UNL     1       6.933   7.560   0.315  1.00  0.00     0.251 C 
ATOM     38  H   UNL     1       5.074   6.808   0.522  1.00  0.00     0.163 HD
ATOM     39  O   UNL     1       7.490   6.611   0.858  1.00  0.00    -0.269 OA
BRANCH  37  40
ATOM     40  C   UNL     1       7.710   8.699  -0.215  1.00  0.00     0.039 A 
ATOM     41  C   UNL     1       7.333  10.005   0.109  1.00  0.00     0.014 A 
ATOM     42  C   UNL     1       8.710   8.456  -1.156  1.00  0.00     0.014 A 
ATOM     43  C   UNL     1       7.824  11.062  -0.650  1.00  0.00     0.010 A 
ATOM     44  C   UNL     1       9.259   9.529  -1.860  1.00  0.00     0.010 A 
ATOM     45  C   UNL     1       8.772  10.832  -1.660  1.00  0.00    -0.014 A 
BRANCH  45  46
ATOM     46  C   UNL     1       9.211  11.948  -2.539  1.00  0.00     0.031 A 
ATOM     47  C   UNL     1       8.913  11.913  -4.015  1.00  0.00     0.074 A 
ATOM     48  C   UNL     1       9.855  13.003  -2.004  1.00  0.00     0.049 A 
ATOM     49  N   UNL     1       9.294  12.743  -4.951  1.00  0.00    -0.248 NA
ATOM     50  C   UNL     1       8.079  10.803  -4.508  1.00  0.00     0.031 C 
ATOM     51  C   UNL     1      10.166  13.160  -0.584  1.00  0.00     0.029 A 
ATOM     52  N   UNL     1      10.364  14.139  -2.585  1.00  0.00    -0.354 N 
ATOM     53  C   UNL     1       8.775  12.245  -6.141  1.00  0.00     0.074 A 
ATOM     54  C   UNL     1       8.066  11.028  -5.816  1.00  0.00     0.031 C 
ATOM     55  C   UNL     1      10.797  14.327  -0.400  1.00  0.00     0.029 A 
ATOM     56  C   UNL     1      11.012  14.966  -1.696  1.00  0.00     0.049 A 
ATOM     57  H   UNL     1      10.275  14.341  -3.544  1.00  0.00     0.167 HD
ATOM     58  C   UNL     1       8.874  12.767  -7.386  1.00  0.00     0.034 A 
ATOM     59  C   UNL     1      11.734  16.087  -1.899  1.00  0.00     0.034 A 
ATOM     60  C   UNL     1       9.550  14.002  -7.684  1.00  0.00     0.049 A 
ATOM     61  C   UNL     1      11.860  16.628  -3.300  1.00  0.00     0.074 A 
ATOM     62  C   UNL     1       9.681  14.624  -8.914  1.00  0.00     0.029 A 
ATOM     63  N   UNL     1      10.191  14.809  -6.757  1.00  0.00    -0.354 N 
ATOM     64  N   UNL     1      11.344  16.155  -4.411  1.00  0.00    -0.248 NA
ATOM     65  C   UNL     1      12.656  17.849  -3.485  1.00  0.00     0.031 C 
ATOM     66  C   UNL     1      10.452  15.771  -8.742  1.00  0.00     0.029 A 
ATOM     67  C   UNL     1      10.738  15.911  -7.393  1.00  0.00     0.049 A 
ATOM     68  H   UNL     1      10.249  14.627  -5.791  1.00  0.00     0.167 HD
ATOM     69  C   UNL     1      11.734  17.032  -5.419  1.00  0.00     0.074 A 
ATOM     70  C   UNL     1      12.510  18.076  -4.785  1.00  0.00     0.031 C 
ATOM     71  C   UNL     1      11.477  16.970  -6.748  1.00  0.00     0.034 A 
BRANCH  58  72
ATOM     72  C   UNL     1       8.234  12.043  -8.544  1.00  0.00     0.023 A 
ATOM     73  C   UNL     1       9.039  11.551  -9.590  1.00  0.00     0.031 A 
ATOM     74  C   UNL     1       6.838  12.011  -8.705  1.00  0.00     0.131 A 
ATOM     75  C   UNL     1       8.443  11.102 -10.774  1.00  0.00     0.055 A 
ATOM     76  C   UNL     1       6.248  11.523  -9.872  1.00  0.00     0.041 A 
ATOM     77  F   UNL     1       6.030  12.468  -7.735  1.00  0.00    -0.206 F 
ATOM     78  C   UNL     1       7.052  11.082 -10.920  1.00  0.00     0.022 A 
BRANCH  75  79
ATOM     79  S   UNL     1       9.450  10.601 -12.198  1.00  0.00     0.124 S 
ATOM     80  O   UNL     1       8.954   9.251 -12.457  1.00  0.00    -0.237 OA
ATOM     81  O   UNL     1       9.085  11.602 -13.196  1.00  0.00    -0.237 OA
ATOM     82  O   UNL     1      10.819  10.671 -11.700  1.00  0.00    -0.744 OA
ENDBRANCH  75  79
ENDBRANCH  58  72
BRANCH  59  83
ATOM     83  C   UNL     1      12.381  16.752  -0.730  1.00  0.00     0.023 A 
ATOM     84  C   UNL     1      13.321  16.060   0.058  1.00  0.00     0.031 A 
ATOM     85  C   UNL     1      11.995  18.037  -0.317  1.00  0.00     0.131 A 
ATOM     86  C   UNL     1      13.781  16.623   1.255  1.00  0.00     0.055 A 
ATOM     87  C   UNL     1      12.516  18.627   0.837  1.00  0.00     0.041 A 
ATOM     88  F   UNL     1      11.092  18.732  -1.025  1.00  0.00    -0.206 F 
ATOM     89  C   UNL     1      13.398  17.910   1.640  1.00  0.00     0.022 A 
BRANCH  86  90
ATOM     90  S   UNL     1      14.761  15.639   2.424  1.00  0.00     0.124 S 
ATOM     91  O   UNL     1      16.031  16.357   2.434  1.00  0.00    -0.237 OA
ATOM     92  O   UNL     1      13.965  15.745   3.646  1.00  0.00    -0.237 OA
ATOM     93  O   UNL     1      14.787  14.312   1.819  1.00  0.00    -0.744 OA
ENDBRANCH  86  90
ENDBRANCH  59  83
BRANCH  71  94
ATOM     94  C   UNL     1      12.002  18.058  -7.651  1.00  0.00     0.023 A 
ATOM     95  C   UNL     1      11.096  18.866  -8.366  1.00  0.00     0.031 A 
ATOM     96  C   UNL     1      13.368  18.151  -7.961  1.00  0.00     0.131 A 
ATOM     97  C   UNL     1      11.562  19.684  -9.402  1.00  0.00     0.055 A 
ATOM     98  C   UNL     1      13.833  19.007  -8.960  1.00  0.00     0.041 A 
ATOM     99  F   UNL     1      14.267  17.392  -7.314  1.00  0.00    -0.206 F 
ATOM    100  C   UNL     1      12.926  19.763  -9.699  1.00  0.00     0.022 A 
BRANCH  97 101
ATOM    101  S   UNL     1      10.407  20.590 -10.468  1.00  0.00     0.124 S 
ATOM    102  O   UNL     1      10.863  21.969 -10.306  1.00  0.00    -0.237 OA
ATOM    103  O   UNL     1      10.668  19.997 -11.776  1.00  0.00    -0.237 OA
ATOM    104  O   UNL     1       9.097  20.301  -9.895  1.00  0.00    -0.744 OA
ENDBRANCH  97 101
ENDBRANCH  71  94
ENDBRANCH  45  46
ENDBRANCH  37  40
ENDBRANCH  35  36
ENDBRANCH  34  35
ENDBRANCH   1  34
TORSDOF 19
