REMARK SMILES C[C@@H]1Oc2c(C(=O)NCCCCNC(=O)c3ccc(-c4c5nc(c(-c6cc(S(=O)(=O)[O-])ccc6F)c6ccc([nH]6)c(-c6cc(S(=O)(=O)[O-])ccc6F)c6nc(c(-c7cc(S(=O)(=O)[O-])ccc7F)c7ccc4[nH]7)C=C6)C=C5)cc3)cccc2[C@@H]1C
REMARK SMILES IDX 12 1 11 2 10 3 9 4 8 5 6 6 7 7 5 9 1 10 2 11 3 12 83 13 4 14
REMARK SMILES IDX 82 15 84 16 81 17 79 18 80 19 13 20 14 21 15 23 16 24 17 25
REMARK SMILES IDX 78 26 18 27 77 28 19 29 20 30 21 31 71 32 22 33 76 34 70 35
REMARK SMILES IDX 72 36 23 37 75 38 69 39 68 40 24 42 56 43 36 44 55 45 37 46
REMARK SMILES IDX 40 47 54 48 73 49 38 50 39 51 53 53 74 54 41 55 25 56 26 57
REMARK SMILES IDX 34 58 27 59 33 60 35 61 32 62 28 63 29 64 30 65 31 66 57 67
REMARK SMILES IDX 58 68 66 69 59 70 65 71 67 72 64 73 60 74 61 75 62 76 63 77
REMARK SMILES IDX 42 78 43 79 51 80 44 81 50 82 52 83 49 84 45 85 46 86 47 87
REMARK SMILES IDX 48 88
REMARK H PARENT 8 8 13 22 72 41 40 52
REMARK Flexibility Score: inf
ROOT
ATOM      1  C   UNL     1      -2.554   7.594   6.943  1.00  0.00     0.116 C 
ENDROOT
BRANCH   1   2
ATOM      2  C   UNL     1      -3.005   7.070   5.585  1.00  0.00     0.023 C 
BRANCH   2   3
ATOM      3  C   UNL     1      -1.901   7.018   4.525  1.00  0.00     0.023 C 
BRANCH   3   4
ATOM      4  C   UNL     1      -0.817   5.968   4.792  1.00  0.00     0.116 C 
BRANCH   4   5
ATOM      5  N   UNL     1      -1.234   4.664   4.319  1.00  0.00    -0.352 N 
ATOM      6  C   UNL     1      -1.084   3.996   3.126  1.00  0.00     0.255 C 
ATOM      7  O   UNL     1      -1.605   2.882   3.073  1.00  0.00    -0.269 OA
ATOM      8  H   UNL     1      -1.730   4.146   4.993  1.00  0.00     0.163 HD
BRANCH   6   9
ATOM      9  C   UNL     1      -0.340   4.540   1.944  1.00  0.00     0.082 A 
ATOM     10  C   UNL     1      -0.005   0.630  -0.798  1.00  0.00     0.053 C 
ATOM     11  C   UNL     1       0.713   1.823  -0.183  1.00  0.00     0.177 C 
ATOM     12  O   UNL     1      -0.081   2.310   0.924  1.00  0.00    -0.489 OA
ATOM     13  C   UNL     1       1.000   2.999  -1.139  1.00  0.00     0.060 C 
ATOM     14  C   UNL     1       0.110   3.671   0.949  1.00  0.00     0.136 A 
ATOM     15  C   UNL     1       0.775   4.125  -0.190  1.00  0.00     0.001 A 
ATOM     16  C   UNL     1       0.071   3.127  -2.343  1.00  0.00     0.017 C 
ATOM     17  C   UNL     1       1.055   5.467  -0.376  1.00  0.00     0.008 A 
ATOM     18  C   UNL     1      -0.104   5.904   1.714  1.00  0.00     0.018 A 
ATOM     19  C   UNL     1       0.606   6.362   0.587  1.00  0.00     0.001 A 
ENDBRANCH   6   9
ENDBRANCH   4   5
ENDBRANCH   3   4
ENDBRANCH   2   3
ENDBRANCH   1   2
BRANCH   1  20
ATOM     20  N   UNL     1      -2.058   8.963   6.908  1.00  0.00    -0.352 N 
ATOM     21  C   UNL     1      -2.038   9.890   7.929  1.00  0.00     0.251 C 
ATOM     22  H   UNL     1      -1.689   9.264   6.046  1.00  0.00     0.163 HD
ATOM     23  O   UNL     1      -1.665  11.035   7.714  1.00  0.00    -0.269 OA
BRANCH  21  24
ATOM     24  C   UNL     1      -2.537   9.493   9.266  1.00  0.00     0.039 A 
ATOM     25  C   UNL     1      -2.130   8.293   9.847  1.00  0.00     0.014 A 
ATOM     26  C   UNL     1      -3.485  10.299   9.904  1.00  0.00     0.014 A 
ATOM     27  C   UNL     1      -2.808   7.805  10.958  1.00  0.00     0.010 A 
ATOM     28  C   UNL     1      -4.103   9.845  11.073  1.00  0.00     0.010 A 
ATOM     29  C   UNL     1      -3.817   8.565  11.573  1.00  0.00    -0.014 A 
BRANCH  29  30
ATOM     30  C   UNL     1      -4.567   7.979  12.716  1.00  0.00     0.031 A 
ATOM     31  C   UNL     1      -6.035   7.662  12.595  1.00  0.00     0.074 A 
ATOM     32  C   UNL     1      -3.899   7.654  13.839  1.00  0.00     0.049 A 
ATOM     33  N   UNL     1      -6.820   7.065  13.455  1.00  0.00    -0.248 NA
ATOM     34  C   UNL     1      -6.712   8.067  11.352  1.00  0.00     0.031 C 
ATOM     35  C   UNL     1      -2.477   7.915  14.066  1.00  0.00     0.029 A 
ATOM     36  N   UNL     1      -4.305   7.005  14.978  1.00  0.00    -0.354 N 
ATOM     37  C   UNL     1      -8.080   7.035  12.868  1.00  0.00     0.074 A 
ATOM     38  C   UNL     1      -7.965   7.707  11.593  1.00  0.00     0.031 C 
ATOM     39  C   UNL     1      -2.114   7.373  15.236  1.00  0.00     0.029 A 
ATOM     40  C   UNL     1      -3.286   6.778  15.875  1.00  0.00     0.049 A 
ATOM     41  H   UNL     1      -5.236   6.728  15.139  1.00  0.00     0.167 HD
ATOM     42  C   UNL     1      -9.223   6.481  13.341  1.00  0.00     0.034 A 
ATOM     43  C   UNL     1      -3.288   6.158  17.073  1.00  0.00     0.034 A 
ATOM     44  C   UNL     1      -9.320   5.796  14.605  1.00  0.00     0.049 A 
ATOM     45  C   UNL     1      -4.570   5.548  17.575  1.00  0.00     0.074 A 
ATOM     46  C   UNL     1     -10.433   5.197  15.170  1.00  0.00     0.029 A 
ATOM     47  N   UNL     1      -8.271   5.603  15.493  1.00  0.00    -0.354 N 
ATOM     48  N   UNL     1      -5.744   5.499  16.989  1.00  0.00    -0.248 NA
ATOM     49  C   UNL     1      -4.533   4.901  18.894  1.00  0.00     0.031 C 
ATOM     50  C   UNL     1     -10.070   4.685  16.417  1.00  0.00     0.029 A 
ATOM     51  C   UNL     1      -8.715   4.905  16.605  1.00  0.00     0.049 A 
ATOM     52  H   UNL     1      -7.348   5.915  15.353  1.00  0.00     0.167 HD
ATOM     53  C   UNL     1      -6.577   4.800  17.857  1.00  0.00     0.074 A 
ATOM     54  C   UNL     1      -5.766   4.420  18.995  1.00  0.00     0.031 C 
ATOM     55  C   UNL     1      -7.896   4.509  17.725  1.00  0.00     0.034 A 
BRANCH  42  56
ATOM     56  C   UNL     1     -10.471   6.569  12.498  1.00  0.00     0.023 A 
ATOM     57  C   UNL     1     -11.591   7.284  12.964  1.00  0.00     0.031 A 
ATOM     58  C   UNL     1     -10.597   5.846  11.298  1.00  0.00     0.131 A 
ATOM     59  C   UNL     1     -12.796   7.234  12.252  1.00  0.00     0.055 A 
ATOM     60  C   UNL     1     -11.789   5.830  10.572  1.00  0.00     0.041 A 
ATOM     61  F   UNL     1      -9.557   5.150  10.810  1.00  0.00    -0.206 F 
ATOM     62  C   UNL     1     -12.899   6.516  11.056  1.00  0.00     0.022 A 
BRANCH  59  63
ATOM     63  S   UNL     1     -14.292   8.045  12.879  1.00  0.00     0.124 S 
ATOM     64  O   UNL     1     -14.601   8.979  11.799  1.00  0.00    -0.237 OA
ATOM     65  O   UNL     1     -15.215   6.921  13.014  1.00  0.00    -0.237 OA
ATOM     66  O   UNL     1     -13.861   8.661  14.129  1.00  0.00    -0.744 OA
ENDBRANCH  59  63
ENDBRANCH  42  56
BRANCH  43  67
ATOM     67  C   UNL     1      -2.006   6.038  17.827  1.00  0.00     0.023 A 
ATOM     68  C   UNL     1      -1.302   7.184  18.243  1.00  0.00     0.031 A 
ATOM     69  C   UNL     1      -1.408   4.784  18.035  1.00  0.00     0.131 A 
ATOM     70  C   UNL     1      -0.011   7.055  18.771  1.00  0.00     0.055 A 
ATOM     71  C   UNL     1      -0.152   4.657  18.632  1.00  0.00     0.041 A 
ATOM     72  F   UNL     1      -2.033   3.663  17.642  1.00  0.00    -0.206 F 
ATOM     73  C   UNL     1       0.561   5.798  18.985  1.00  0.00     0.022 A 
BRANCH  70  74
ATOM     74  S   UNL     1       1.024   8.519  19.054  1.00  0.00     0.124 S 
ATOM     75  O   UNL     1       1.239   8.465  20.496  1.00  0.00    -0.237 OA
ATOM     76  O   UNL     1       2.193   8.222  18.229  1.00  0.00    -0.237 OA
ATOM     77  O   UNL     1       0.197   9.622  18.578  1.00  0.00    -0.744 OA
ENDBRANCH  70  74
ENDBRANCH  43  67
BRANCH  55  78
ATOM     78  C   UNL     1      -8.576   3.728  18.824  1.00  0.00     0.023 A 
ATOM     79  C   UNL     1      -9.120   2.458  18.551  1.00  0.00     0.031 A 
ATOM     80  C   UNL     1      -8.816   4.297  20.086  1.00  0.00     0.131 A 
ATOM     81  C   UNL     1      -9.902   1.812  19.517  1.00  0.00     0.055 A 
ATOM     82  C   UNL     1      -9.561   3.631  21.060  1.00  0.00     0.041 A 
ATOM     83  F   UNL     1      -8.330   5.512  20.389  1.00  0.00    -0.206 F 
ATOM     84  C   UNL     1     -10.120   2.389  20.772  1.00  0.00     0.022 A 
BRANCH  81  85
ATOM     85  S   UNL     1     -10.740   0.246  19.150  1.00  0.00     0.124 S 
ATOM     86  O   UNL     1     -10.100  -0.666  20.095  1.00  0.00    -0.237 OA
ATOM     87  O   UNL     1     -12.135   0.566  19.441  1.00  0.00    -0.237 OA
ATOM     88  O   UNL     1     -10.434   0.002  17.744  1.00  0.00    -0.744 OA
ENDBRANCH  81  85
ENDBRANCH  55  78
ENDBRANCH  29  30
ENDBRANCH  21  24
ENDBRANCH   1  20
TORSDOF 14
