REMARK SMILES O=C(N[C@@H]1[C@@H](C(=O)NCCCCNC(=O)c2ccc(-c3c4nc(c(-c5cc(S(=O)(=O)[O-])ccc5F)c5ccc([nH]5)c(-c5cc(S(=O)(=O)[O-])ccc5F)c5nc(c(-c6cc(S(=O)(=O)[O-])ccc6F)c6ccc3[nH]6)C=C5)C=C4)cc2)[C@H]2C=C[C@@H]1C2)OCc1ccccc1
REMARK SMILES IDX 10 1 9 2 8 3 6 4 7 5 5 7 4 8 82 9 79 10 81 11 83 12 80 13
REMARK SMILES IDX 3 14 1 15 2 16 84 18 85 19 86 20 87 21 91 22 88 23 90 24
REMARK SMILES IDX 89 25 11 26 12 27 13 28 14 29 15 31 16 32 17 33 78 34 18 35
REMARK SMILES IDX 77 36 19 37 20 38 21 39 71 40 22 41 76 42 70 43 72 44 23 45
REMARK SMILES IDX 75 46 69 47 68 48 24 50 56 51 36 52 55 53 37 54 40 55 54 56
REMARK SMILES IDX 73 57 38 58 39 59 53 61 74 62 41 63 25 64 26 65 34 66 27 67
REMARK SMILES IDX 33 68 35 69 32 70 28 71 29 72 30 73 31 74 57 75 58 76 66 77
REMARK SMILES IDX 59 78 65 79 67 80 64 81 60 82 61 83 62 84 63 85 42 86 43 87
REMARK SMILES IDX 51 88 44 89 50 90 52 91 49 92 45 93 46 94 47 95 48 96
REMARK H PARENT 8 6 3 17 13 30 72 49 40 60
REMARK Flexibility Score: inf
ROOT
ATOM      1  C   UNL     1       9.032  -1.975  -2.609  1.00  0.00     0.023 C 
ENDROOT
BRANCH   1   2
ATOM      2  C   UNL     1       8.148  -0.773  -2.961  1.00  0.00     0.116 C 
BRANCH   2   3
ATOM      3  N   UNL     1       7.081  -1.121  -3.888  1.00  0.00    -0.356 N 
ATOM      4  C   UNL     1       5.787  -1.495  -3.763  1.00  0.00     0.225 C 
ATOM      5  O   UNL     1       5.176  -1.625  -4.835  1.00  0.00    -0.275 OA
ATOM      6  H   UNL     1       7.370  -1.073  -4.828  1.00  0.00     0.163 HD
BRANCH   4   7
ATOM      7  C   UNL     1       5.015  -1.762  -2.475  1.00  0.00     0.108 C 
ATOM      8  C   UNL     1       4.900  -0.604  -1.438  1.00  0.00     0.105 C 
ATOM      9  C   UNL     1       5.264  -1.356  -0.153  1.00  0.00     0.035 C 
ATOM     10  C   UNL     1       5.402  -3.007  -1.619  1.00  0.00     0.026 C 
ATOM     11  C   UNL     1       6.686  -1.828  -0.128  1.00  0.00    -0.025 C 
ATOM     12  C   UNL     1       4.577  -2.713  -0.363  1.00  0.00     0.018 C 
ATOM     13  C   UNL     1       6.740  -2.882  -0.948  1.00  0.00    -0.027 C 
BRANCH   8  14
ATOM     14  N   UNL     1       3.546   0.018  -1.439  1.00  0.00    -0.317 N 
ATOM     15  O   UNL     1       1.573   0.871  -0.754  1.00  0.00    -0.225 OA
ATOM     16  C   UNL     1       2.598   0.258  -0.477  1.00  0.00     0.407 C 
ATOM     17  H   UNL     1       3.270   0.327  -2.332  1.00  0.00     0.167 HD
BRANCH  16  18
ATOM     18  O   UNL     1       2.749  -0.384   0.696  1.00  0.00    -0.445 OA
BRANCH  18  19
ATOM     19  C   UNL     1       3.289   0.302   1.857  1.00  0.00     0.270 C 
BRANCH  19  20
ATOM     20  C   UNL     1       3.835  -0.829   2.730  1.00  0.00    -0.011 A 
ATOM     21  C   UNL     1       3.088  -2.016   2.833  1.00  0.00     0.007 A 
ATOM     22  C   UNL     1       5.160  -0.827   3.201  1.00  0.00     0.007 A 
ATOM     23  C   UNL     1       3.687  -3.204   3.248  1.00  0.00     0.000 A 
ATOM     24  C   UNL     1       5.758  -2.025   3.616  1.00  0.00     0.000 A 
ATOM     25  C   UNL     1       5.031  -3.215   3.610  1.00  0.00     0.000 A 
ENDBRANCH  19  20
ENDBRANCH  18  19
ENDBRANCH  16  18
ENDBRANCH   8  14
ENDBRANCH   4   7
ENDBRANCH   2   3
ENDBRANCH   1   2
BRANCH   1  26
ATOM     26  C   UNL     1      10.430  -2.005  -3.206  1.00  0.00     0.023 C 
BRANCH  26  27
ATOM     27  C   UNL     1      11.337  -0.891  -2.717  1.00  0.00     0.116 C 
BRANCH  27  28
ATOM     28  N   UNL     1      11.639  -0.921  -1.290  1.00  0.00    -0.352 N 
ATOM     29  C   UNL     1      12.758  -0.378  -0.676  1.00  0.00     0.251 C 
ATOM     30  H   UNL     1      10.985  -1.369  -0.706  1.00  0.00     0.163 HD
ATOM     31  O   UNL     1      12.949  -0.487   0.518  1.00  0.00    -0.269 OA
BRANCH  29  32
ATOM     32  C   UNL     1      13.740   0.284  -1.565  1.00  0.00     0.039 A 
ATOM     33  C   UNL     1      15.013  -0.273  -1.700  1.00  0.00     0.014 A 
ATOM     34  C   UNL     1      13.301   1.294  -2.423  1.00  0.00     0.014 A 
ATOM     35  C   UNL     1      15.813   0.116  -2.777  1.00  0.00     0.010 A 
ATOM     36  C   UNL     1      14.054   1.595  -3.548  1.00  0.00     0.010 A 
ATOM     37  C   UNL     1      15.316   1.006  -3.743  1.00  0.00    -0.014 A 
BRANCH  37  38
ATOM     38  C   UNL     1      16.092   1.366  -4.959  1.00  0.00     0.031 A 
ATOM     39  C   UNL     1      16.452   2.807  -5.195  1.00  0.00     0.074 A 
ATOM     40  C   UNL     1      16.389   0.432  -5.885  1.00  0.00     0.049 A 
ATOM     41  N   UNL     1      16.986   3.370  -6.247  1.00  0.00    -0.248 NA
ATOM     42  C   UNL     1      16.112   3.746  -4.116  1.00  0.00     0.031 C 
ATOM     43  C   UNL     1      16.060  -0.992  -5.795  1.00  0.00     0.029 A 
ATOM     44  N   UNL     1      17.030   0.545  -7.094  1.00  0.00    -0.354 N 
ATOM     45  C   UNL     1      17.022   4.731  -5.964  1.00  0.00     0.074 A 
ATOM     46  C   UNL     1      16.370   4.911  -4.685  1.00  0.00     0.031 C 
ATOM     47  C   UNL     1      16.536  -1.624  -6.882  1.00  0.00     0.029 A 
ATOM     48  C   UNL     1      17.158  -0.646  -7.770  1.00  0.00     0.049 A 
ATOM     49  H   UNL     1      17.368   1.401  -7.445  1.00  0.00     0.167 HD
ATOM     50  C   UNL     1      17.580   5.736  -6.684  1.00  0.00     0.034 A 
ATOM     51  C   UNL     1      17.709  -0.916  -8.971  1.00  0.00     0.034 A 
ATOM     52  C   UNL     1      18.248   5.536  -7.945  1.00  0.00     0.049 A 
ATOM     53  C   UNL     1      18.299   0.217  -9.773  1.00  0.00     0.074 A 
ATOM     54  C   UNL     1      18.885   6.467  -8.744  1.00  0.00     0.029 A 
ATOM     55  N   UNL     1      18.364   4.311  -8.592  1.00  0.00    -0.354 N 
ATOM     56  N   UNL     1      18.354   1.496  -9.480  1.00  0.00    -0.248 NA
ATOM     57  C   UNL     1      18.906  -0.130 -11.065  1.00  0.00     0.031 C 
ATOM     58  C   UNL     1      19.338   5.818  -9.899  1.00  0.00     0.029 A 
ATOM     59  C   UNL     1      19.046   4.468  -9.789  1.00  0.00     0.049 A 
ATOM     60  H   UNL     1      18.014   3.457  -8.251  1.00  0.00     0.167 HD
ATOM     61  C   UNL     1      19.041   2.097 -10.531  1.00  0.00     0.074 A 
ATOM     62  C   UNL     1      19.377   1.042 -11.465  1.00  0.00     0.031 C 
ATOM     63  C   UNL     1      19.375   3.401 -10.704  1.00  0.00     0.034 A 
BRANCH  50  64
ATOM     64  C   UNL     1      17.465   7.130  -6.113  1.00  0.00     0.023 A 
ATOM     65  C   UNL     1      18.003   7.452  -4.854  1.00  0.00     0.031 A 
ATOM     66  C   UNL     1      16.740   8.126  -6.789  1.00  0.00     0.131 A 
ATOM     67  C   UNL     1      17.707   8.686  -4.259  1.00  0.00     0.055 A 
ATOM     68  C   UNL     1      16.538   9.392  -6.235  1.00  0.00     0.041 A 
ATOM     69  F   UNL     1      16.184   7.875  -7.985  1.00  0.00    -0.206 F 
ATOM     70  C   UNL     1      17.001   9.671  -4.952  1.00  0.00     0.022 A 
BRANCH  67  71
ATOM     71  S   UNL     1      18.082   8.902  -2.497  1.00  0.00     0.124 S 
ATOM     72  O   UNL     1      17.319   7.809  -1.899  1.00  0.00    -0.237 OA
ATOM     73  O   UNL     1      19.533   8.762  -2.463  1.00  0.00    -0.237 OA
ATOM     74  O   UNL     1      17.575  10.240  -2.200  1.00  0.00    -0.744 OA
ENDBRANCH  67  71
ENDBRANCH  50  64
BRANCH  51  75
ATOM     75  C   UNL     1      17.748  -2.313  -9.492  1.00  0.00     0.023 A 
ATOM     76  C   UNL     1      18.973  -2.979  -9.662  1.00  0.00     0.031 A 
ATOM     77  C   UNL     1      16.573  -2.988  -9.866  1.00  0.00     0.131 A 
ATOM     78  C   UNL     1      19.000  -4.262 -10.231  1.00  0.00     0.055 A 
ATOM     79  C   UNL     1      16.602  -4.283 -10.388  1.00  0.00     0.041 A 
ATOM     80  F   UNL     1      15.376  -2.399  -9.718  1.00  0.00    -0.206 F 
ATOM     81  C   UNL     1      17.822  -4.923 -10.585  1.00  0.00     0.022 A 
BRANCH  78  82
ATOM     82  S   UNL     1      20.610  -5.027 -10.569  1.00  0.00     0.124 S 
ATOM     83  O   UNL     1      21.211  -4.062 -11.482  1.00  0.00    -0.237 OA
ATOM     84  O   UNL     1      21.195  -5.101  -9.235  1.00  0.00    -0.237 OA
ATOM     85  O   UNL     1      20.255  -6.314 -11.164  1.00  0.00    -0.744 OA
ENDBRANCH  78  82
ENDBRANCH  51  75
BRANCH  63  86
ATOM     86  C   UNL     1      20.205   3.745 -11.915  1.00  0.00     0.023 A 
ATOM     87  C   UNL     1      19.683   3.682 -13.218  1.00  0.00     0.031 A 
ATOM     88  C   UNL     1      21.541   4.155 -11.753  1.00  0.00     0.131 A 
ATOM     89  C   UNL     1      20.507   3.985 -14.314  1.00  0.00     0.055 A 
ATOM     90  C   UNL     1      22.339   4.505 -12.842  1.00  0.00     0.041 A 
ATOM     91  F   UNL     1      22.087   4.231 -10.529  1.00  0.00    -0.206 F 
ATOM     92  C   UNL     1      21.826   4.412 -14.132  1.00  0.00     0.022 A 
BRANCH  89  93
ATOM     93  S   UNL     1      19.852   3.752 -15.989  1.00  0.00     0.124 S 
ATOM     94  O   UNL     1      19.544   2.326 -15.999  1.00  0.00    -0.237 OA
ATOM     95  O   UNL     1      18.703   4.652 -16.004  1.00  0.00    -0.237 OA
ATOM     96  O   UNL     1      20.963   4.154 -16.851  1.00  0.00    -0.744 OA
ENDBRANCH  89  93
ENDBRANCH  63  86
ENDBRANCH  37  38
ENDBRANCH  29  32
ENDBRANCH  27  28
ENDBRANCH  26  27
ENDBRANCH   1  26
TORSDOF 18
