REMARK SMILES CCC[NH2+][C@@]1(C(=O)NCCCCNC(=O)c2ccc(-c3c4nc(c(-c5cc(S(=O)(=O)[O-])ccc5F)c5ccc([nH]5)c(-c5cc(S(=O)(=O)[O-])ccc5F)c5nc(c(-c6cc(S(=O)(=O)[O-])ccc6F)c6ccc3[nH]6)C=C5)C=C4)cc2)CC[C@@H](SC2CCCC2)C1
REMARK SMILES IDX 10 1 9 2 8 3 6 4 7 5 5 7 79 8 88 9 80 10 81 11 4 12 3 15
REMARK SMILES IDX 2 16 1 17 82 18 83 19 84 20 87 21 85 22 86 23 11 24 12 25
REMARK SMILES IDX 13 26 14 27 15 29 16 30 17 31 78 32 18 33 77 34 19 35 20 36
REMARK SMILES IDX 21 37 71 38 22 39 76 40 70 41 72 42 23 43 75 44 69 45 68 46
REMARK SMILES IDX 24 48 56 49 36 50 55 51 37 52 40 53 54 54 73 55 38 56 39 57
REMARK SMILES IDX 53 59 74 60 41 61 25 62 26 63 34 64 27 65 33 66 35 67 32 68
REMARK SMILES IDX 28 69 29 70 30 71 31 72 57 73 58 74 66 75 59 76 65 77 67 78
REMARK SMILES IDX 64 79 60 80 61 81 62 82 63 83 42 84 43 85 51 86 44 87 50 88
REMARK SMILES IDX 52 89 49 90 45 91 46 92 47 93 48 94
REMARK H PARENT 8 6 4 13 4 14 13 28 72 47 40 58
REMARK Flexibility Score: inf
ROOT
ATOM      1  C   UNL     1       3.519  -6.283   3.918  1.00  0.00     0.023 C 
ENDROOT
BRANCH   1   2
ATOM      2  C   UNL     1       2.017  -6.086   3.744  1.00  0.00     0.116 C 
BRANCH   2   3
ATOM      3  N   UNL     1       1.648  -4.697   3.787  1.00  0.00    -0.351 N 
ATOM      4  C   UNL     1       1.283  -3.814   2.833  1.00  0.00     0.281 C 
ATOM      5  O   UNL     1       1.149  -2.647   3.244  1.00  0.00    -0.268 OA
ATOM      6  H   UNL     1       1.663  -4.314   4.694  1.00  0.00     0.163 HD
BRANCH   4   7
ATOM      7  C   UNL     1       1.048  -4.123   1.283  1.00  0.00     0.176 C 
ATOM      8  C   UNL     1      -0.010  -5.212   1.017  1.00  0.00     0.080 C 
ATOM      9  C   UNL     1       2.333  -4.618   0.585  1.00  0.00     0.093 C 
ATOM     10  C   UNL     1       0.701  -6.491   0.576  1.00  0.00     0.022 C 
ATOM     11  C   UNL     1       2.139  -6.104   0.259  1.00  0.00     0.054 C 
BRANCH   7  12
ATOM     12  N   UNL     1       0.454  -2.837   0.788  1.00  0.00    -0.334 N 
ATOM     13  H   UNL     1      -0.558  -2.958   0.792  1.00  0.00     0.347 HD
ATOM     14  H   UNL     1       0.841  -2.137   1.420  1.00  0.00     0.347 HD
BRANCH  12  15
ATOM     15  C   UNL     1       0.814  -2.342  -0.526  1.00  0.00     0.261 C 
BRANCH  15  16
ATOM     16  C   UNL     1       0.176  -0.978  -0.815  1.00  0.00     0.058 C 
ATOM     17  C   UNL     1       0.772   0.150   0.018  1.00  0.00     0.010 C 
ENDBRANCH  15  16
ENDBRANCH  12  15
ENDBRANCH   7  12
BRANCH  11  18
ATOM     18  S   UNL     1       2.892  -6.718  -1.299  1.00  0.00    -0.155 SA
BRANCH  18  19
ATOM     19  C   UNL     1       1.853  -6.197  -2.708  1.00  0.00     0.047 C 
ATOM     20  C   UNL     1       0.349  -6.412  -2.679  1.00  0.00     0.014 C 
ATOM     21  C   UNL     1       2.018  -4.762  -3.204  1.00  0.00     0.014 C 
ATOM     22  C   UNL     1      -0.099  -5.736  -3.965  1.00  0.00     0.001 C 
ATOM     23  C   UNL     1       0.745  -4.465  -4.011  1.00  0.00     0.001 C 
ENDBRANCH  18  19
ENDBRANCH  11  18
ENDBRANCH   4   7
ENDBRANCH   2   3
ENDBRANCH   1   2
BRANCH   1  24
ATOM     24  C   UNL     1       3.949  -6.538   5.361  1.00  0.00     0.023 C 
BRANCH  24  25
ATOM     25  C   UNL     1       3.265  -7.721   6.042  1.00  0.00     0.116 C 
BRANCH  25  26
ATOM     26  N   UNL     1       3.329  -8.964   5.285  1.00  0.00    -0.352 N 
ATOM     27  C   UNL     1       3.350 -10.247   5.787  1.00  0.00     0.251 C 
ATOM     28  H   UNL     1       3.362  -8.878   4.305  1.00  0.00     0.163 HD
ATOM     29  O   UNL     1       3.473 -11.212   5.040  1.00  0.00    -0.269 OA
BRANCH  27  30
ATOM     30  C   UNL     1       3.276 -10.419   7.250  1.00  0.00     0.039 A 
ATOM     31  C   UNL     1       4.325 -11.063   7.907  1.00  0.00     0.014 A 
ATOM     32  C   UNL     1       2.239  -9.820   7.969  1.00  0.00     0.014 A 
ATOM     33  C   UNL     1       4.379 -11.031   9.301  1.00  0.00     0.010 A 
ATOM     34  C   UNL     1       2.336  -9.723   9.351  1.00  0.00     0.010 A 
ATOM     35  C   UNL     1       3.412 -10.318  10.030  1.00  0.00    -0.014 A 
BRANCH  35  36
ATOM     36  C   UNL     1       3.507 -10.176  11.505  1.00  0.00     0.031 A 
ATOM     37  C   UNL     1       2.430 -10.754  12.380  1.00  0.00     0.074 A 
ATOM     38  C   UNL     1       4.513  -9.460  12.046  1.00  0.00     0.049 A 
ATOM     39  N   UNL     1       2.272 -10.657  13.675  1.00  0.00    -0.248 NA
ATOM     40  C   UNL     1       1.365 -11.505  11.698  1.00  0.00     0.031 C 
ATOM     41  C   UNL     1       5.585  -8.801  11.294  1.00  0.00     0.029 A 
ATOM     42  N   UNL     1       4.795  -9.156  13.354  1.00  0.00    -0.354 N 
ATOM     43  C   UNL     1       1.081 -11.316  13.960  1.00  0.00     0.074 A 
ATOM     44  C   UNL     1       0.527 -11.747  12.694  1.00  0.00     0.031 C 
ATOM     45  C   UNL     1       6.418  -8.193  12.155  1.00  0.00     0.029 A 
ATOM     46  C   UNL     1       5.923  -8.385  13.514  1.00  0.00     0.049 A 
ATOM     47  H   UNL     1       4.241  -9.462  14.108  1.00  0.00     0.167 HD
ATOM     48  C   UNL     1       0.516 -11.563  15.168  1.00  0.00     0.034 A 
ATOM     49  C   UNL     1       6.489  -7.885  14.630  1.00  0.00     0.034 A 
ATOM     50  C   UNL     1       1.097 -11.148  16.421  1.00  0.00     0.049 A 
ATOM     51  C   UNL     1       5.853  -8.185  15.963  1.00  0.00     0.074 A 
ATOM     52  C   UNL     1       0.645 -11.395  17.705  1.00  0.00     0.029 A 
ATOM     53  N   UNL     1       2.258 -10.396  16.546  1.00  0.00    -0.354 N 
ATOM     54  N   UNL     1       4.754  -8.857  16.221  1.00  0.00    -0.248 NA
ATOM     55  C   UNL     1       6.540  -7.671  17.154  1.00  0.00     0.031 C 
ATOM     56  C   UNL     1       1.504 -10.749  18.604  1.00  0.00     0.029 A 
ATOM     57  C   UNL     1       2.527 -10.153  17.884  1.00  0.00     0.049 A 
ATOM     58  H   UNL     1       2.810 -10.081  15.794  1.00  0.00     0.167 HD
ATOM     59  C   UNL     1       4.636  -8.869  17.608  1.00  0.00     0.074 A 
ATOM     60  C   UNL     1       5.782  -8.151  18.129  1.00  0.00     0.031 C 
ATOM     61  C   UNL     1       3.671  -9.427  18.383  1.00  0.00     0.034 A 
BRANCH  48  62
ATOM     62  C   UNL     1      -0.801 -12.300  15.173  1.00  0.00     0.023 A 
ATOM     63  C   UNL     1      -0.913 -13.610  14.675  1.00  0.00     0.031 A 
ATOM     64  C   UNL     1      -1.970 -11.670  15.634  1.00  0.00     0.131 A 
ATOM     65  C   UNL     1      -2.175 -14.212  14.563  1.00  0.00     0.055 A 
ATOM     66  C   UNL     1      -3.212 -12.309  15.602  1.00  0.00     0.041 A 
ATOM     67  F   UNL     1      -1.930 -10.413  16.103  1.00  0.00    -0.206 F 
ATOM     68  C   UNL     1      -3.323 -13.581  15.047  1.00  0.00     0.022 A 
BRANCH  65  69
ATOM     69  S   UNL     1      -2.312 -15.764  13.635  1.00  0.00     0.124 S 
ATOM     70  O   UNL     1      -1.826 -15.361  12.317  1.00  0.00    -0.237 OA
ATOM     71  O   UNL     1      -1.445 -16.661  14.389  1.00  0.00    -0.237 OA
ATOM     72  O   UNL     1      -3.739 -16.076  13.696  1.00  0.00    -0.744 OA
ENDBRANCH  65  69
ENDBRANCH  48  62
BRANCH  49  73
ATOM     73  C   UNL     1       7.723  -7.054  14.546  1.00  0.00     0.023 A 
ATOM     74  C   UNL     1       8.939  -7.514  15.077  1.00  0.00     0.031 A 
ATOM     75  C   UNL     1       7.697  -5.772  13.970  1.00  0.00     0.131 A 
ATOM     76  C   UNL     1      10.068  -6.680  15.064  1.00  0.00     0.055 A 
ATOM     77  C   UNL     1       8.834  -4.964  13.918  1.00  0.00     0.041 A 
ATOM     78  F   UNL     1       6.562  -5.290  13.440  1.00  0.00    -0.206 F 
ATOM     79  C   UNL     1      10.027  -5.413  14.479  1.00  0.00     0.022 A 
BRANCH  76  80
ATOM     80  S   UNL     1      11.578  -7.250  15.892  1.00  0.00     0.124 S 
ATOM     81  O   UNL     1      11.104  -7.475  17.253  1.00  0.00    -0.237 OA
ATOM     82  O   UNL     1      11.911  -8.445  15.123  1.00  0.00    -0.237 OA
ATOM     83  O   UNL     1      12.500  -6.129  15.728  1.00  0.00    -0.744 OA
ENDBRANCH  76  80
ENDBRANCH  49  73
BRANCH  61  84
ATOM     84  C   UNL     1       3.847  -9.314  19.876  1.00  0.00     0.023 A 
ATOM     85  C   UNL     1       3.745  -8.081  20.541  1.00  0.00     0.031 A 
ATOM     86  C   UNL     1       4.136 -10.459  20.639  1.00  0.00     0.131 A 
ATOM     87  C   UNL     1       3.985  -8.011  21.921  1.00  0.00     0.055 A 
ATOM     88  C   UNL     1       4.319 -10.392  22.021  1.00  0.00     0.041 A 
ATOM     89  F   UNL     1       4.245 -11.662  20.052  1.00  0.00    -0.206 F 
ATOM     90  C   UNL     1       4.257  -9.161  22.667  1.00  0.00     0.022 A 
BRANCH  87  91
ATOM     91  S   UNL     1       4.021  -6.382  22.718  1.00  0.00     0.124 S 
ATOM     92  O   UNL     1       5.080  -5.705  21.976  1.00  0.00    -0.237 OA
ATOM     93  O   UNL     1       2.667  -5.891  22.486  1.00  0.00    -0.237 OA
ATOM     94  O   UNL     1       4.339  -6.688  24.111  1.00  0.00    -0.744 OA
ENDBRANCH  87  91
ENDBRANCH  61  84
ENDBRANCH  35  36
ENDBRANCH  27  30
ENDBRANCH  25  26
ENDBRANCH  24  25
ENDBRANCH   1  24
TORSDOF 19
