REMARK SMILES O=C(NCCCCNC(=O)c1cc(S(=O)(=O)Nc2cc(F)ccc2F)cc2c1OCCO2)c1ccc(-c2c3nc(c(-c4cc(S(=O)(=O)[O-])ccc4F)c4ccc([nH]4)c(-c4cc(S(=O)(=O)[O-])ccc4F)c4nc(c(-c5cc(S(=O)(=O)[O-])ccc5F)c5ccc2[nH]5)C=C4)C=C3)cc1
REMARK SMILES IDX 5 1 4 2 3 3 1 4 2 5 33 7 34 8 95 9 35 10 94 11 36 12 37 13
REMARK SMILES IDX 38 14 88 15 39 16 93 17 87 18 89 19 40 20 92 21 86 22 85 23
REMARK SMILES IDX 41 25 73 26 53 27 72 28 54 29 57 30 71 31 90 32 55 33 56 34
REMARK SMILES IDX 70 36 91 37 58 38 42 39 43 40 51 41 44 42 50 43 52 44 49 45
REMARK SMILES IDX 45 46 46 47 47 48 48 49 74 50 75 51 83 52 76 53 82 54 84 55
REMARK SMILES IDX 81 56 77 57 78 58 79 59 80 60 59 61 60 62 68 63 61 64 67 65
REMARK SMILES IDX 69 66 66 67 62 68 63 69 64 70 65 71 6 72 7 73 8 74 9 75
REMARK SMILES IDX 10 77 11 78 12 79 28 80 13 81 27 82 29 83 26 84 32 85 30 86
REMARK SMILES IDX 31 87 14 88 15 89 16 90 17 91 18 93 19 94 24 95 20 96 23 97
REMARK SMILES IDX 25 98 21 99 22 100
REMARK H PARENT 3 6 89 24 57 35 8 76 17 92
REMARK Flexibility Score: inf
ROOT
ATOM      1  C   UNL     1       5.000   0.873  -2.688  1.00  0.00     0.023 C 
ENDROOT
BRANCH   1   2
ATOM      2  C   UNL     1       4.598   0.884  -1.221  1.00  0.00     0.116 C 
BRANCH   2   3
ATOM      3  N   UNL     1       3.159   0.832  -0.999  1.00  0.00    -0.352 N 
ATOM      4  O   UNL     1       1.206   0.033  -0.193  1.00  0.00    -0.269 OA
ATOM      5  C   UNL     1       2.433  -0.020  -0.194  1.00  0.00     0.251 C 
ATOM      6  H   UNL     1       2.630   1.499  -1.494  1.00  0.00     0.163 HD
BRANCH   5   7
ATOM      7  C   UNL     1       3.136  -1.022   0.642  1.00  0.00     0.039 A 
ATOM      8  C   UNL     1       4.270  -0.663   1.369  1.00  0.00     0.014 A 
ATOM      9  C   UNL     1       2.678  -2.343   0.670  1.00  0.00     0.014 A 
ATOM     10  C   UNL     1       5.048  -1.650   1.961  1.00  0.00     0.010 A 
ATOM     11  C   UNL     1       3.407  -3.320   1.362  1.00  0.00     0.010 A 
ATOM     12  C   UNL     1       4.622  -2.990   1.979  1.00  0.00    -0.014 A 
BRANCH  12  13
ATOM     13  C   UNL     1       5.457  -3.990   2.701  1.00  0.00     0.031 A 
ATOM     14  C   UNL     1       6.120  -5.133   1.979  1.00  0.00     0.074 A 
ATOM     15  C   UNL     1       5.678  -3.800   4.018  1.00  0.00     0.049 A 
ATOM     16  N   UNL     1       6.941  -6.037   2.452  1.00  0.00    -0.248 NA
ATOM     17  C   UNL     1       5.819  -5.290   0.549  1.00  0.00     0.031 C 
ATOM     18  C   UNL     1       5.073  -2.734   4.823  1.00  0.00     0.029 A 
ATOM     19  N   UNL     1       6.491  -4.460   4.902  1.00  0.00    -0.354 N 
ATOM     20  C   UNL     1       7.250  -6.875   1.385  1.00  0.00     0.074 A 
ATOM     21  C   UNL     1       6.498  -6.389   0.247  1.00  0.00     0.031 C 
ATOM     22  C   UNL     1       5.588  -2.769   6.059  1.00  0.00     0.029 A 
ATOM     23  C   UNL     1       6.500  -3.902   6.160  1.00  0.00     0.049 A 
ATOM     24  H   UNL     1       7.018  -5.256   4.661  1.00  0.00     0.167 HD
ATOM     25  C   UNL     1       8.090  -7.941   1.358  1.00  0.00     0.034 A 
ATOM     26  C   UNL     1       7.156  -4.266   7.279  1.00  0.00     0.034 A 
ATOM     27  C   UNL     1       8.834  -8.412   2.504  1.00  0.00     0.049 A 
ATOM     28  C   UNL     1       8.072  -5.456   7.219  1.00  0.00     0.074 A 
ATOM     29  C   UNL     1       9.712  -9.480   2.584  1.00  0.00     0.029 A 
ATOM     30  N   UNL     1       8.788  -7.847   3.772  1.00  0.00    -0.354 N 
ATOM     31  N   UNL     1       8.351  -6.231   6.197  1.00  0.00    -0.248 NA
ATOM     32  C   UNL     1       8.766  -5.816   8.460  1.00  0.00     0.031 C 
ATOM     33  C   UNL     1      10.152  -9.594   3.908  1.00  0.00     0.029 A 
ATOM     34  C   UNL     1       9.604  -8.556   4.643  1.00  0.00     0.049 A 
ATOM     35  H   UNL     1       8.254  -7.057   4.018  1.00  0.00     0.167 HD
ATOM     36  C   UNL     1       9.257  -7.172   6.675  1.00  0.00     0.074 A 
ATOM     37  C   UNL     1       9.509  -6.836   8.062  1.00  0.00     0.031 C 
ATOM     38  C   UNL     1       9.820  -8.226   6.032  1.00  0.00     0.034 A 
BRANCH  25  39
ATOM     39  C   UNL     1       8.223  -8.694   0.055  1.00  0.00     0.023 A 
ATOM     40  C   UNL     1       8.808  -8.110  -1.083  1.00  0.00     0.031 A 
ATOM     41  C   UNL     1       7.765 -10.021  -0.050  1.00  0.00     0.131 A 
ATOM     42  C   UNL     1       8.874  -8.831  -2.286  1.00  0.00     0.055 A 
ATOM     43  C   UNL     1       7.895 -10.755  -1.230  1.00  0.00     0.041 A 
ATOM     44  F   UNL     1       7.181 -10.626   0.997  1.00  0.00    -0.206 F 
ATOM     45  C   UNL     1       8.443 -10.158  -2.361  1.00  0.00     0.022 A 
BRANCH  42  46
ATOM     46  S   UNL     1       9.437  -7.975  -3.783  1.00  0.00     0.124 S 
ATOM     47  O   UNL     1       8.444  -6.910  -3.906  1.00  0.00    -0.237 OA
ATOM     48  O   UNL     1      10.784  -7.553  -3.419  1.00  0.00    -0.237 OA
ATOM     49  O   UNL     1       9.365  -9.007  -4.816  1.00  0.00    -0.744 OA
ENDBRANCH  42  46
ENDBRANCH  25  39
BRANCH  26  50
ATOM     50  C   UNL     1       6.937  -3.524   8.553  1.00  0.00     0.023 A 
ATOM     51  C   UNL     1       7.986  -2.846   9.194  1.00  0.00     0.031 A 
ATOM     52  C   UNL     1       5.672  -3.514   9.169  1.00  0.00     0.131 A 
ATOM     53  C   UNL     1       7.762  -2.227  10.434  1.00  0.00     0.055 A 
ATOM     54  C   UNL     1       5.440  -2.846  10.371  1.00  0.00     0.041 A 
ATOM     55  F   UNL     1       4.633  -4.144   8.597  1.00  0.00    -0.206 F 
ATOM     56  C   UNL     1       6.493  -2.210  11.019  1.00  0.00     0.022 A 
BRANCH  53  57
ATOM     57  S   UNL     1       9.179  -1.527  11.323  1.00  0.00     0.124 S 
ATOM     58  O   UNL     1      10.088  -2.665  11.380  1.00  0.00    -0.237 OA
ATOM     59  O   UNL     1       9.575  -0.433  10.443  1.00  0.00    -0.237 OA
ATOM     60  O   UNL     1       8.607  -1.118  12.604  1.00  0.00    -0.744 OA
ENDBRANCH  53  57
ENDBRANCH  26  50
BRANCH  38  61
ATOM     61  C   UNL     1      10.770  -9.073   6.841  1.00  0.00     0.023 A 
ATOM     62  C   UNL     1      10.320  -9.834   7.936  1.00  0.00     0.031 A 
ATOM     63  C   UNL     1      12.146  -9.074   6.555  1.00  0.00     0.131 A 
ATOM     64  C   UNL     1      11.246 -10.502   8.750  1.00  0.00     0.055 A 
ATOM     65  C   UNL     1      13.056  -9.793   7.331  1.00  0.00     0.041 A 
ATOM     66  F   UNL     1      12.630  -8.363   5.523  1.00  0.00    -0.206 F 
ATOM     67  C   UNL     1      12.610 -10.497   8.447  1.00  0.00     0.022 A 
BRANCH  64  68
ATOM     68  S   UNL     1      10.655 -11.277  10.280  1.00  0.00     0.124 S 
ATOM     69  O   UNL     1      10.028 -10.153  10.967  1.00  0.00    -0.237 OA
ATOM     70  O   UNL     1       9.748 -12.304   9.778  1.00  0.00    -0.237 OA
ATOM     71  O   UNL     1      11.878 -11.781  10.902  1.00  0.00    -0.744 OA
ENDBRANCH  64  68
ENDBRANCH  38  61
ENDBRANCH  12  13
ENDBRANCH   5   7
ENDBRANCH   2   3
ENDBRANCH   1   2
BRANCH   1  72
ATOM     72  C   UNL     1       4.547   2.073  -3.510  1.00  0.00     0.023 C 
BRANCH  72  73
ATOM     73  C   UNL     1       4.851   3.447  -2.920  1.00  0.00     0.116 C 
BRANCH  73  74
ATOM     74  N   UNL     1       6.262   3.705  -2.665  1.00  0.00    -0.352 N 
ATOM     75  C   UNL     1       6.989   4.846  -2.932  1.00  0.00     0.255 C 
ATOM     76  H   UNL     1       6.763   2.968  -2.246  1.00  0.00     0.163 HD
ATOM     77  O   UNL     1       8.178   4.927  -2.642  1.00  0.00    -0.269 OA
BRANCH  75  78
ATOM     78  C   UNL     1       6.369   5.919  -3.737  1.00  0.00     0.087 A 
ATOM     79  C   UNL     1       6.896   6.087  -5.022  1.00  0.00     0.040 A 
ATOM     80  C   UNL     1       5.208   6.585  -3.349  1.00  0.00     0.174 A 
ATOM     81  C   UNL     1       6.148   6.739  -5.995  1.00  0.00     0.092 A 
ATOM     82  C   UNL     1       4.522   7.348  -4.299  1.00  0.00     0.163 A 
ATOM     83  O   UNL     1       4.767   6.430  -2.061  1.00  0.00    -0.485 OA
ATOM     84  C   UNL     1       4.962   7.389  -5.625  1.00  0.00     0.072 A 
ATOM     85  O   UNL     1       3.356   8.015  -4.021  1.00  0.00    -0.486 OA
ATOM     86  C   UNL     1       3.392   6.793  -1.921  1.00  0.00     0.271 C 
ATOM     87  C   UNL     1       3.127   8.120  -2.611  1.00  0.00     0.271 C 
BRANCH  81  88
ATOM     88  S   UNL     1       6.478   6.606  -7.744  1.00  0.00     0.262 S 
ATOM     89  O   UNL     1       5.447   5.736  -8.276  1.00  0.00    -0.201 OA
ATOM     90  O   UNL     1       6.632   7.960  -8.226  1.00  0.00    -0.201 OA
BRANCH  88  91
ATOM     91  N   UNL     1       7.959   5.880  -8.019  1.00  0.00    -0.277 N 
ATOM     92  H   UNL     1       8.548   6.298  -8.689  1.00  0.00     0.180 HD
BRANCH  91  93
ATOM     93  C   UNL     1       8.443   4.709  -7.366  1.00  0.00     0.087 A 
ATOM     94  C   UNL     1       7.642   3.630  -6.998  1.00  0.00     0.069 A 
ATOM     95  C   UNL     1       9.793   4.730  -6.977  1.00  0.00     0.147 A 
ATOM     96  C   UNL     1       8.172   2.668  -6.135  1.00  0.00     0.125 A 
ATOM     97  C   UNL     1      10.318   3.764  -6.128  1.00  0.00     0.044 A 
ATOM     98  F   UNL     1      10.566   5.762  -7.353  1.00  0.00    -0.205 F 
ATOM     99  F   UNL     1       7.379   1.688  -5.684  1.00  0.00    -0.207 F 
ATOM    100  C   UNL     1       9.490   2.738  -5.681  1.00  0.00     0.042 A 
ENDBRANCH  91  93
ENDBRANCH  88  91
ENDBRANCH  81  88
ENDBRANCH  75  78
ENDBRANCH  73  74
ENDBRANCH  72  73
ENDBRANCH   1  72
TORSDOF 17
