REMARK SMILES Cc1cc2c(c(C)c1Cl)C=C(C(=O)NCCCCNC(=O)c1ccc(-c3c4nc(c(-c5cc(S(=O)(=O)[O-])ccc5F)c5ccc([nH]5)c(-c5cc(S(=O)(=O)[O-])ccc5F)c5nc(c(-c6cc(S(=O)(=O)[O-])ccc6F)c6ccc3[nH]6)C=C5)C=C4)cc1)[C@@H](C(F)(F)F)O2
REMARK SMILES IDX 17 1 16 2 15 3 14 4 12 5 13 6 11 8 1 9 2 10 3 11 8 12 4 13
REMARK SMILES IDX 6 14 9 15 5 16 90 17 7 18 10 19 85 20 86 21 87 22 88 23
REMARK SMILES IDX 89 24 18 25 19 26 20 27 21 29 22 30 23 31 84 32 24 33 83 34
REMARK SMILES IDX 25 35 26 36 27 37 77 38 28 39 82 40 76 41 78 42 29 43 81 44
REMARK SMILES IDX 75 45 74 46 30 48 62 49 42 50 61 51 43 52 46 53 60 54 79 55
REMARK SMILES IDX 44 56 45 57 59 59 80 60 47 61 31 62 32 63 40 64 33 65 39 66
REMARK SMILES IDX 41 67 38 68 34 69 35 70 36 71 37 72 63 73 64 74 72 75 65 76
REMARK SMILES IDX 71 77 73 78 70 79 66 80 67 81 68 82 69 83 48 84 49 85 57 86
REMARK SMILES IDX 50 87 56 88 58 89 55 90 51 91 52 92 53 93 54 94
REMARK H PARENT 14 7 19 28 78 47 46 58
REMARK Flexibility Score: inf
ROOT
ATOM      1  C   UNL     1       1.357  -7.865   7.532  1.00  0.00     0.023 C 
ENDROOT
BRANCH   1   2
ATOM      2  C   UNL     1       1.254  -7.056   6.236  1.00  0.00     0.023 C 
BRANCH   2   3
ATOM      3  C   UNL     1      -0.168  -6.641   5.870  1.00  0.00     0.116 C 
BRANCH   3   4
ATOM      4  N   UNL     1      -0.571  -5.424   6.553  1.00  0.00    -0.352 N 
ATOM      5  C   UNL     1      -0.684  -4.112   6.247  1.00  0.00     0.251 C 
ATOM      6  O   UNL     1      -1.070  -3.387   7.170  1.00  0.00    -0.270 OA
ATOM      7  H   UNL     1      -0.830  -5.602   7.486  1.00  0.00     0.163 HD
BRANCH   5   8
ATOM      8  C   UNL     1      -0.389  -3.504   4.914  1.00  0.00     0.067 C 
ATOM      9  C   UNL     1       0.851   0.343  -0.195  1.00  0.00     0.046 C 
ATOM     10  C   UNL     1       0.447  -0.244   1.130  1.00  0.00    -0.028 A 
ATOM     11  C   UNL     1       0.642  -1.616   1.325  1.00  0.00     0.052 A 
ATOM     12  C   UNL     1      -0.050   0.529   2.199  1.00  0.00     0.047 A 
ATOM     13  C   UNL     1       0.325  -2.211   2.542  1.00  0.00     0.128 A 
ATOM     14  C   UNL     1      -0.395  -0.068   3.437  1.00  0.00    -0.021 A 
ATOM     15  Cl  UNL     1      -0.201   2.248   1.981  1.00  0.00    -0.084 Cl
ATOM     16  C   UNL     1      -0.181  -1.458   3.605  1.00  0.00     0.022 A 
ATOM     17  O   UNL     1       0.589  -3.548   2.630  1.00  0.00    -0.475 OA
ATOM     18  C   UNL     1      -0.953   0.743   4.583  1.00  0.00     0.047 C 
ATOM     19  C   UNL     1      -0.413  -2.158   4.873  1.00  0.00     0.026 C 
ATOM     20  C   UNL     1      -0.123  -4.284   3.662  1.00  0.00     0.314 C 
BRANCH  20  21
ATOM     21  C   UNL     1      -1.399  -4.899   3.059  1.00  0.00     0.429 C 
ATOM     22  F   UNL     1      -1.081  -5.811   2.107  1.00  0.00    -0.167 F 
ATOM     23  F   UNL     1      -2.148  -5.549   3.980  1.00  0.00    -0.167 F 
ATOM     24  F   UNL     1      -2.199  -3.974   2.481  1.00  0.00    -0.167 F 
ENDBRANCH  20  21
ENDBRANCH   5   8
ENDBRANCH   3   4
ENDBRANCH   2   3
ENDBRANCH   1   2
BRANCH   1  25
ATOM     25  C   UNL     1       0.482  -9.116   7.600  1.00  0.00     0.116 C 
BRANCH  25  26
ATOM     26  N   UNL     1       0.602  -9.982   6.436  1.00  0.00    -0.352 N 
ATOM     27  C   UNL     1       0.482 -11.351   6.386  1.00  0.00     0.251 C 
ATOM     28  H   UNL     1       0.792  -9.534   5.580  1.00  0.00     0.163 HD
ATOM     29  O   UNL     1       0.673 -11.956   5.336  1.00  0.00    -0.269 OA
BRANCH  27  30
ATOM     30  C   UNL     1       0.171 -12.073   7.633  1.00  0.00     0.039 A 
ATOM     31  C   UNL     1       1.073 -13.032   8.095  1.00  0.00     0.014 A 
ATOM     32  C   UNL     1      -0.956 -11.724   8.384  1.00  0.00     0.014 A 
ATOM     33  C   UNL     1       0.888 -13.587   9.360  1.00  0.00     0.010 A 
ATOM     34  C   UNL     1      -1.107 -12.238   9.668  1.00  0.00     0.010 A 
ATOM     35  C   UNL     1      -0.178 -13.162  10.171  1.00  0.00    -0.014 A 
BRANCH  35  36
ATOM     36  C   UNL     1      -0.322 -13.668  11.556  1.00  0.00     0.031 A 
ATOM     37  C   UNL     1      -1.476 -14.559  11.913  1.00  0.00     0.074 A 
ATOM     38  C   UNL     1       0.567 -13.291  12.496  1.00  0.00     0.049 A 
ATOM     39  N   UNL     1      -1.792 -15.074  13.072  1.00  0.00    -0.248 NA
ATOM     40  C   UNL     1      -2.409 -14.894  10.827  1.00  0.00     0.031 C 
ATOM     41  C   UNL     1       1.707 -12.398  12.273  1.00  0.00     0.029 A 
ATOM     42  N   UNL     1       0.657 -13.617  13.825  1.00  0.00    -0.354 N 
ATOM     43  C   UNL     1      -2.961 -15.792  12.858  1.00  0.00     0.074 A 
ATOM     44  C   UNL     1      -3.329 -15.597  11.471  1.00  0.00     0.031 C 
ATOM     45  C   UNL     1       2.405 -12.282  13.415  1.00  0.00     0.029 A 
ATOM     46  C   UNL     1       1.746 -13.065  14.456  1.00  0.00     0.049 A 
ATOM     47  H   UNL     1       0.003 -14.192  14.283  1.00  0.00     0.167 HD
ATOM     48  C   UNL     1      -3.650 -16.567  13.730  1.00  0.00     0.034 A 
ATOM     49  C   UNL     1       2.169 -13.183  15.729  1.00  0.00     0.034 A 
ATOM     50  C   UNL     1      -3.265 -16.770  15.102  1.00  0.00     0.049 A 
ATOM     51  C   UNL     1       1.377 -14.031  16.686  1.00  0.00     0.074 A 
ATOM     52  C   UNL     1      -3.867 -17.567  16.059  1.00  0.00     0.029 A 
ATOM     53  N   UNL     1      -2.172 -16.170  15.713  1.00  0.00    -0.354 N 
ATOM     54  N   UNL     1       0.278 -14.712  16.464  1.00  0.00    -0.248 NA
ATOM     55  C   UNL     1       1.879 -14.123  18.064  1.00  0.00     0.031 C 
ATOM     56  C   UNL     1      -3.161 -17.419  17.259  1.00  0.00     0.029 A 
ATOM     57  C   UNL     1      -2.093 -16.564  17.037  1.00  0.00     0.049 A 
ATOM     58  H   UNL     1      -1.545 -15.554  15.269  1.00  0.00     0.167 HD
ATOM     59  C   UNL     1      -0.036 -15.326  17.671  1.00  0.00     0.074 A 
ATOM     60  C   UNL     1       0.990 -14.936  18.618  1.00  0.00     0.031 C 
ATOM     61  C   UNL     1      -1.074 -16.146  17.967  1.00  0.00     0.034 A 
BRANCH  48  62
ATOM     62  C   UNL     1      -4.893 -17.240  13.213  1.00  0.00     0.023 A 
ATOM     63  C   UNL     1      -4.820 -18.252  12.241  1.00  0.00     0.031 A 
ATOM     64  C   UNL     1      -6.162 -16.844  13.667  1.00  0.00     0.131 A 
ATOM     65  C   UNL     1      -5.998 -18.788  11.704  1.00  0.00     0.055 A 
ATOM     66  C   UNL     1      -7.330 -17.431  13.178  1.00  0.00     0.041 A 
ATOM     67  F   UNL     1      -6.287 -15.868  14.580  1.00  0.00    -0.206 F 
ATOM     68  C   UNL     1      -7.253 -18.401  12.181  1.00  0.00     0.022 A 
BRANCH  65  69
ATOM     69  S   UNL     1      -5.871 -19.923  10.296  1.00  0.00     0.124 S 
ATOM     70  O   UNL     1      -5.358 -19.038   9.253  1.00  0.00    -0.237 OA
ATOM     71  O   UNL     1      -4.944 -20.936  10.786  1.00  0.00    -0.237 OA
ATOM     72  O   UNL     1      -7.246 -20.379  10.099  1.00  0.00    -0.744 OA
ENDBRANCH  65  69
ENDBRANCH  48  62
BRANCH  49  73
ATOM     73  C   UNL     1       3.407 -12.489  16.170  1.00  0.00     0.023 A 
ATOM     74  C   UNL     1       4.586 -13.211  16.408  1.00  0.00     0.031 A 
ATOM     75  C   UNL     1       3.429 -11.097  16.356  1.00  0.00     0.131 A 
ATOM     76  C   UNL     1       5.739 -12.539  16.841  1.00  0.00     0.055 A 
ATOM     77  C   UNL     1       4.585 -10.429  16.761  1.00  0.00     0.041 A 
ATOM     78  F   UNL     1       2.327 -10.365  16.126  1.00  0.00    -0.206 F 
ATOM     79  C   UNL     1       5.749 -11.152  17.011  1.00  0.00     0.022 A 
BRANCH  76  80
ATOM     80  S   UNL     1       7.233 -13.506  17.191  1.00  0.00     0.124 S 
ATOM     81  O   UNL     1       6.810 -14.299  18.340  1.00  0.00    -0.237 OA
ATOM     82  O   UNL     1       7.424 -14.236  15.941  1.00  0.00    -0.237 OA
ATOM     83  O   UNL     1       8.240 -12.486  17.471  1.00  0.00    -0.744 OA
ENDBRANCH  76  80
ENDBRANCH  49  73
BRANCH  61  84
ATOM     84  C   UNL     1      -1.140 -16.689  19.365  1.00  0.00     0.023 A 
ATOM     85  C   UNL     1      -1.589 -15.896  20.433  1.00  0.00     0.031 A 
ATOM     86  C   UNL     1      -0.793 -18.027  19.620  1.00  0.00     0.131 A 
ATOM     87  C   UNL     1      -1.659 -16.445  21.722  1.00  0.00     0.055 A 
ATOM     88  C   UNL     1      -0.898 -18.577  20.896  1.00  0.00     0.041 A 
ATOM     89  F   UNL     1      -0.363 -18.820  18.626  1.00  0.00    -0.206 F 
ATOM     90  C   UNL     1      -1.331 -17.785  21.956  1.00  0.00     0.022 A 
BRANCH  87  91
ATOM     91  S   UNL     1      -2.188 -15.389  23.097  1.00  0.00     0.124 S 
ATOM     92  O   UNL     1      -1.042 -14.498  23.248  1.00  0.00    -0.237 OA
ATOM     93  O   UNL     1      -3.407 -14.776  22.580  1.00  0.00    -0.237 OA
ATOM     94  O   UNL     1      -2.390 -16.332  24.195  1.00  0.00    -0.744 OA
ENDBRANCH  87  91
ENDBRANCH  61  84
ENDBRANCH  35  36
ENDBRANCH  27  30
ENDBRANCH  25  26
ENDBRANCH   1  25
TORSDOF 15
