REMARK SMILES CC(=O)OCC1=C(C(=O)NCCCCNC(=O)c2ccc(-c3c4nc(c(-c5cc(S(=O)(=O)[O-])ccc5F)c5ccc([nH]5)c(-c5cc(S(=O)(=O)[O-])ccc5F)c5nc(c(-c6cc(S(=O)(=O)[O-])ccc6F)c6ccc3[nH]6)C=C5)C=C4)cc2)N2C(=O)[C@H](NC(=O)C3CCCCC3)[C@@H]2SC1
REMARK SMILES IDX 12 1 11 2 10 3 8 4 9 5 7 7 6 8 96 9 81 10 95 11 82 12 94 13
REMARK SMILES IDX 83 14 84 15 5 16 4 17 2 18 1 19 3 20 85 21 86 22 87 24 88 25
REMARK SMILES IDX 89 26 93 27 90 28 92 29 91 30 13 31 14 32 15 33 16 34 17 36
REMARK SMILES IDX 18 37 19 38 80 39 20 40 79 41 21 42 22 43 23 44 73 45 24 46
REMARK SMILES IDX 78 47 72 48 74 49 25 50 77 51 71 52 70 53 26 55 58 56 38 57
REMARK SMILES IDX 57 58 39 59 42 60 56 61 75 62 40 63 41 64 55 66 76 67 43 68
REMARK SMILES IDX 27 69 28 70 36 71 29 72 35 73 37 74 34 75 30 76 31 77 32 78
REMARK SMILES IDX 33 79 59 80 60 81 68 82 61 83 67 84 69 85 66 86 62 87 63 88
REMARK SMILES IDX 64 89 65 90 44 91 45 92 53 93 46 94 52 95 54 96 51 97 47 98
REMARK SMILES IDX 48 99 49 100 50 101
REMARK H PARENT 10 6 85 23 15 35 74 54 42 65
REMARK Flexibility Score: inf
ROOT
ATOM      1  C   UNL     1      -2.702  -2.801   2.102  1.00  0.00     0.023 C 
ENDROOT
BRANCH   1   2
ATOM      2  C   UNL     1      -1.367  -2.164   2.482  1.00  0.00     0.116 C 
BRANCH   2   3
ATOM      3  N   UNL     1      -1.334  -0.715   2.425  1.00  0.00    -0.351 N 
ATOM      4  C   UNL     1      -0.496   0.209   3.004  1.00  0.00     0.268 C 
ATOM      5  O   UNL     1      -0.624   1.369   2.622  1.00  0.00    -0.268 OA
ATOM      6  H   UNL     1      -2.042  -0.319   1.867  1.00  0.00     0.163 HD
BRANCH   4   7
ATOM      7  C   UNL     1       0.442  -0.165   4.148  1.00  0.00     0.114 C 
ATOM      8  C   UNL     1       1.284  -1.230   4.105  1.00  0.00     0.007 C 
ATOM      9  C   UNL     1       1.972  -1.755   5.344  1.00  0.00     0.108 C 
ATOM     10  N   UNL     1       0.513   0.706   5.223  1.00  0.00    -0.290 N 
ATOM     11  S   UNL     1       2.739  -0.437   6.287  1.00  0.00    -0.129 SA
ATOM     12  C   UNL     1       0.581   2.068   5.293  1.00  0.00     0.253 C 
ATOM     13  C   UNL     1       1.176   0.460   6.495  1.00  0.00     0.181 C 
ATOM     14  O   UNL     1       0.340   2.983   4.543  1.00  0.00    -0.272 OA
ATOM     15  C   UNL     1       1.321   2.004   6.665  1.00  0.00     0.205 C 
BRANCH   8  16
ATOM     16  C   UNL     1       1.763  -1.964   2.867  1.00  0.00     0.267 C 
BRANCH  16  17
ATOM     17  O   UNL     1       1.433  -1.320   1.635  1.00  0.00    -0.461 OA
BRANCH  17  18
ATOM     18  C   UNL     1       2.306  -0.376   1.191  1.00  0.00     0.302 C 
ATOM     19  C   UNL     1       1.837   0.173  -0.123  1.00  0.00     0.139 C 
ATOM     20  O   UNL     1       3.311  -0.012   1.783  1.00  0.00    -0.253 OA
ENDBRANCH  17  18
ENDBRANCH  16  17
ENDBRANCH   8  16
BRANCH  15  21
ATOM     21  N   UNL     1       2.710   2.555   6.647  1.00  0.00    -0.342 N 
ATOM     22  C   UNL     1       3.369   3.345   7.544  1.00  0.00     0.223 C 
ATOM     23  H   UNL     1       3.238   2.308   5.854  1.00  0.00     0.164 HD
ATOM     24  O   UNL     1       4.544   3.638   7.319  1.00  0.00    -0.275 OA
BRANCH  22  25
ATOM     25  C   UNL     1       2.657   3.792   8.812  1.00  0.00     0.078 C 
ATOM     26  C   UNL     1       2.787   2.707   9.889  1.00  0.00     0.013 C 
ATOM     27  C   UNL     1       3.241   5.118   9.324  1.00  0.00     0.013 C 
ATOM     28  C   UNL     1       2.137   3.137  11.204  1.00  0.00     0.001 C 
ATOM     29  C   UNL     1       2.564   5.559  10.618  1.00  0.00     0.001 C 
ATOM     30  C   UNL     1       2.667   4.483  11.694  1.00  0.00     0.000 C 
ENDBRANCH  22  25
ENDBRANCH  15  21
ENDBRANCH   4   7
ENDBRANCH   2   3
ENDBRANCH   1   2
BRANCH   1  31
ATOM     31  C   UNL     1      -3.209  -2.558   0.675  1.00  0.00     0.023 C 
BRANCH  31  32
ATOM     32  C   UNL     1      -2.223  -2.759  -0.478  1.00  0.00     0.116 C 
BRANCH  32  33
ATOM     33  N   UNL     1      -1.597  -4.073  -0.514  1.00  0.00    -0.352 N 
ATOM     34  C   UNL     1      -1.534  -5.002  -1.530  1.00  0.00     0.251 C 
ATOM     35  H   UNL     1      -1.147  -4.340   0.320  1.00  0.00     0.163 HD
ATOM     36  O   UNL     1      -0.972  -6.076  -1.330  1.00  0.00    -0.269 OA
BRANCH  34  37
ATOM     37  C   UNL     1      -2.187  -4.737  -2.833  1.00  0.00     0.039 A 
ATOM     38  C   UNL     1      -3.063  -5.697  -3.349  1.00  0.00     0.014 A 
ATOM     39  C   UNL     1      -1.976  -3.541  -3.521  1.00  0.00     0.014 A 
ATOM     40  C   UNL     1      -3.822  -5.404  -4.487  1.00  0.00     0.010 A 
ATOM     41  C   UNL     1      -2.778  -3.226  -4.618  1.00  0.00     0.010 A 
ATOM     42  C   UNL     1      -3.734  -4.140  -5.090  1.00  0.00    -0.014 A 
BRANCH  42  43
ATOM     43  C   UNL     1      -4.678  -3.725  -6.163  1.00  0.00     0.031 A 
ATOM     44  C   UNL     1      -4.174  -3.390  -7.539  1.00  0.00     0.074 A 
ATOM     45  C   UNL     1      -5.981  -3.546  -5.863  1.00  0.00     0.049 A 
ATOM     46  N   UNL     1      -4.820  -2.883  -8.557  1.00  0.00    -0.248 NA
ATOM     47  C   UNL     1      -2.746  -3.629  -7.788  1.00  0.00     0.031 C 
ATOM     48  C   UNL     1      -6.588  -3.788  -4.551  1.00  0.00     0.029 A 
ATOM     49  N   UNL     1      -7.028  -3.099  -6.631  1.00  0.00    -0.354 N 
ATOM     50  C   UNL     1      -3.876  -2.721  -9.565  1.00  0.00     0.074 A 
ATOM     51  C   UNL     1      -2.603  -3.143  -9.012  1.00  0.00     0.031 C 
ATOM     52  C   UNL     1      -7.897  -3.496  -4.610  1.00  0.00     0.029 A 
ATOM     53  C   UNL     1      -8.217  -3.005  -5.946  1.00  0.00     0.049 A 
ATOM     54  H   UNL     1      -6.936  -2.866  -7.583  1.00  0.00     0.167 HD
ATOM     55  C   UNL     1      -4.055  -2.279 -10.835  1.00  0.00     0.034 A 
ATOM     56  C   UNL     1      -9.425  -2.556  -6.339  1.00  0.00     0.034 A 
ATOM     57  C   UNL     1      -5.330  -1.879 -11.378  1.00  0.00     0.049 A 
ATOM     58  C   UNL     1      -9.599  -2.059  -7.750  1.00  0.00     0.074 A 
ATOM     59  C   UNL     1      -5.633  -1.484 -12.670  1.00  0.00     0.029 A 
ATOM     60  N   UNL     1      -6.516  -1.813 -10.658  1.00  0.00    -0.354 N 
ATOM     61  N   UNL     1      -8.704  -1.959  -8.704  1.00  0.00    -0.248 NA
ATOM     62  C   UNL     1     -10.946  -1.620  -8.136  1.00  0.00     0.031 C 
ATOM     63  C   UNL     1      -6.987  -1.130 -12.717  1.00  0.00     0.029 A 
ATOM     64  C   UNL     1      -7.545  -1.359 -11.470  1.00  0.00     0.049 A 
ATOM     65  H   UNL     1      -6.613  -2.054  -9.708  1.00  0.00     0.167 HD
ATOM     66  C   UNL     1      -9.386  -1.466  -9.812  1.00  0.00     0.074 A 
ATOM     67  C   UNL     1     -10.768  -1.299  -9.410  1.00  0.00     0.031 C 
ATOM     68  C   UNL     1      -8.914  -1.182 -11.051  1.00  0.00     0.034 A 
BRANCH  55  69
ATOM     69  C   UNL     1      -2.829  -2.183 -11.710  1.00  0.00     0.023 A 
ATOM     70  C   UNL     1      -2.095  -3.326 -12.074  1.00  0.00     0.031 A 
ATOM     71  C   UNL     1      -2.367  -0.933 -12.157  1.00  0.00     0.131 A 
ATOM     72  C   UNL     1      -0.895  -3.189 -12.787  1.00  0.00     0.055 A 
ATOM     73  C   UNL     1      -1.214  -0.811 -12.936  1.00  0.00     0.041 A 
ATOM     74  F   UNL     1      -3.018   0.194 -11.828  1.00  0.00    -0.206 F 
ATOM     75  C   UNL     1      -0.461  -1.941 -13.241  1.00  0.00     0.022 A 
BRANCH  72  76
ATOM     76  S   UNL     1       0.162  -4.649 -12.985  1.00  0.00     0.124 S 
ATOM     77  O   UNL     1       0.431  -5.008 -11.595  1.00  0.00    -0.237 OA
ATOM     78  O   UNL     1      -0.699  -5.564 -13.726  1.00  0.00    -0.237 OA
ATOM     79  O   UNL     1       1.315  -4.139 -13.724  1.00  0.00    -0.744 OA
ENDBRANCH  72  76
ENDBRANCH  55  69
BRANCH  56  80
ATOM     80  C   UNL     1     -10.567  -2.531  -5.383  1.00  0.00     0.023 A 
ATOM     81  C   UNL     1     -11.672  -3.377  -5.558  1.00  0.00     0.031 A 
ATOM     82  C   UNL     1     -10.584  -1.635  -4.300  1.00  0.00     0.131 A 
ATOM     83  C   UNL     1     -12.768  -3.284  -4.687  1.00  0.00     0.055 A 
ATOM     84  C   UNL     1     -11.658  -1.575  -3.411  1.00  0.00     0.041 A 
ATOM     85  F   UNL     1      -9.545  -0.812  -4.084  1.00  0.00    -0.206 F 
ATOM     86  C   UNL     1     -12.764  -2.395  -3.609  1.00  0.00     0.022 A 
BRANCH  83  87
ATOM     87  S   UNL     1     -14.232  -4.302  -5.021  1.00  0.00     0.124 S 
ATOM     88  O   UNL     1     -14.601  -3.861  -6.362  1.00  0.00    -0.237 OA
ATOM     89  O   UNL     1     -13.690  -5.653  -4.916  1.00  0.00    -0.237 OA
ATOM     90  O   UNL     1     -15.161  -3.921  -3.960  1.00  0.00    -0.744 OA
ENDBRANCH  83  87
ENDBRANCH  56  80
BRANCH  68  91
ATOM     91  C   UNL     1      -9.917  -0.700 -12.067  1.00  0.00     0.023 A 
ATOM     92  C   UNL     1     -10.501   0.576 -11.978  1.00  0.00     0.031 A 
ATOM     93  C   UNL     1     -10.301  -1.535 -13.130  1.00  0.00     0.131 A 
ATOM     94  C   UNL     1     -11.473   0.964 -12.913  1.00  0.00     0.055 A 
ATOM     95  C   UNL     1     -11.233  -1.125 -14.084  1.00  0.00     0.041 A 
ATOM     96  F   UNL     1      -9.775  -2.763 -13.258  1.00  0.00    -0.206 F 
ATOM     97  C   UNL     1     -11.832   0.127 -13.973  1.00  0.00     0.022 A 
BRANCH  94  98
ATOM     98  S   UNL     1     -12.313   2.556 -12.689  1.00  0.00     0.124 S 
ATOM     99  O   UNL     1     -12.964   2.376 -11.395  1.00  0.00    -0.237 OA
ATOM    100  O   UNL     1     -11.203   3.503 -12.718  1.00  0.00    -0.237 OA
ATOM    101  O   UNL     1     -13.219   2.630 -13.834  1.00  0.00    -0.744 OA
ENDBRANCH  94  98
ENDBRANCH  68  91
ENDBRANCH  42  43
ENDBRANCH  34  37
ENDBRANCH  32  33
ENDBRANCH  31  32
ENDBRANCH   1  31
TORSDOF 19
