REMARK SMILES CCc1cc(OC(F)(F)F)cc2c1O[C@H](C(F)(F)F)C(C(=O)NCCCCNC(=O)c1ccc(-c3c4nc(c(-c5cc(S(=O)(=O)[O-])ccc5F)c5ccc([nH]5)c(-c5cc(S(=O)(=O)[O-])ccc5F)c5nc(c(-c6cc(S(=O)(=O)[O-])ccc6F)c6ccc3[nH]6)C=C5)C=C4)cc1)=C2
REMARK SMILES IDX 26 1 25 2 24 3 23 4 21 5 22 6 20 8 3 9 4 10 13 11 5 12 12 13
REMARK SMILES IDX 14 14 11 15 94 16 15 17 2 18 1 19 6 20 7 21 8 22 9 23 10 24
REMARK SMILES IDX 16 25 17 26 18 27 19 28 27 29 28 30 29 31 30 33 31 34 32 35
REMARK SMILES IDX 93 36 33 37 92 38 34 39 35 40 36 41 86 42 37 43 91 44 85 45
REMARK SMILES IDX 87 46 38 47 90 48 84 49 83 50 39 52 71 53 51 54 70 55 52 56
REMARK SMILES IDX 55 57 69 58 88 59 53 60 54 61 68 63 89 64 56 65 40 66 41 67
REMARK SMILES IDX 49 68 42 69 48 70 50 71 47 72 43 73 44 74 45 75 46 76 72 77
REMARK SMILES IDX 73 78 81 79 74 80 80 81 82 82 79 83 75 84 76 85 77 86 78 87
REMARK SMILES IDX 57 88 58 89 66 90 59 91 65 92 67 93 64 94 60 95 61 96 62 97
REMARK SMILES IDX 63 98
REMARK H PARENT 23 7 28 32 87 51 55 62
REMARK Flexibility Score: inf
ROOT
ATOM      1  C   UNL     1       0.048  10.790  -2.111  1.00  0.00     0.023 C 
ENDROOT
BRANCH   1   2
ATOM      2  C   UNL     1       0.509   9.339  -1.944  1.00  0.00     0.023 C 
BRANCH   2   3
ATOM      3  C   UNL     1       1.118   9.031  -0.575  1.00  0.00     0.116 C 
BRANCH   3   4
ATOM      4  N   UNL     1       0.081   8.751   0.397  1.00  0.00    -0.352 N 
ATOM      5  C   UNL     1      -0.539   7.607   0.776  1.00  0.00     0.251 C 
ATOM      6  O   UNL     1      -1.369   7.687   1.684  1.00  0.00    -0.270 OA
ATOM      7  H   UNL     1      -0.236   9.550   0.877  1.00  0.00     0.163 HD
BRANCH   5   8
ATOM      8  C   UNL     1      -0.203   6.256   0.229  1.00  0.00     0.067 C 
ATOM      9  C   UNL     1       0.973   2.273  -0.478  1.00  0.00    -0.002 A 
ATOM     10  C   UNL     1       1.624   1.973  -1.690  1.00  0.00     0.054 A 
ATOM     11  C   UNL     1       0.582   3.603  -0.238  1.00  0.00     0.131 A 
ATOM     12  C   UNL     1       1.871   2.966  -2.642  1.00  0.00     0.130 A 
ATOM     13  C   UNL     1       0.805   4.597  -1.194  1.00  0.00     0.021 A 
ATOM     14  O   UNL     1       0.040   3.892   0.989  1.00  0.00    -0.475 OA
ATOM     15  C   UNL     1       1.449   4.273  -2.390  1.00  0.00     0.058 A 
ATOM     16  C   UNL     1       0.453   5.981  -0.906  1.00  0.00     0.025 C 
ATOM     17  C   UNL     1      -0.730   5.122   1.092  1.00  0.00     0.314 C 
BRANCH   9  18
ATOM     18  C   UNL     1       0.667   1.223   0.572  1.00  0.00     0.036 C 
ATOM     19  C   UNL     1       1.052  -0.216   0.251  1.00  0.00     0.009 C 
ENDBRANCH   9  18
BRANCH  12  20
ATOM     20  O   UNL     1       2.512   2.809  -3.838  1.00  0.00    -0.406 OA
BRANCH  20  21
ATOM     21  C   UNL     1       2.979   1.517  -4.181  1.00  0.00     0.573 C 
ATOM     22  F   UNL     1       3.881   1.067  -3.283  1.00  0.00    -0.132 F 
ATOM     23  F   UNL     1       1.957   0.639  -4.271  1.00  0.00    -0.132 F 
ATOM     24  F   UNL     1       3.585   1.580  -5.387  1.00  0.00    -0.132 F 
ENDBRANCH  20  21
ENDBRANCH  12  20
BRANCH  17  25
ATOM     25  C   UNL     1      -2.225   4.822   0.844  1.00  0.00     0.429 C 
ATOM     26  F   UNL     1      -2.400   3.949  -0.181  1.00  0.00    -0.167 F 
ATOM     27  F   UNL     1      -2.789   4.253   1.940  1.00  0.00    -0.167 F 
ATOM     28  F   UNL     1      -2.960   5.913   0.540  1.00  0.00    -0.167 F 
ENDBRANCH  17  25
ENDBRANCH   5   8
ENDBRANCH   3   4
ENDBRANCH   2   3
ENDBRANCH   1   2
BRANCH   1  29
ATOM     29  C   UNL     1       1.164  11.828  -2.034  1.00  0.00     0.116 C 
BRANCH  29  30
ATOM     30  N   UNL     1       2.226  11.599  -3.000  1.00  0.00    -0.352 N 
ATOM     31  C   UNL     1       3.063  12.517  -3.590  1.00  0.00     0.251 C 
ATOM     32  H   UNL     1       2.364  10.662  -3.267  1.00  0.00     0.163 HD
ATOM     33  O   UNL     1       3.829  12.161  -4.473  1.00  0.00    -0.269 OA
BRANCH  31  34
ATOM     34  C   UNL     1       2.987  13.937  -3.179  1.00  0.00     0.039 A 
ATOM     35  C   UNL     1       2.921  14.915  -4.173  1.00  0.00     0.014 A 
ATOM     36  C   UNL     1       2.956  14.299  -1.830  1.00  0.00     0.014 A 
ATOM     37  C   UNL     1       2.760  16.253  -3.812  1.00  0.00     0.010 A 
ATOM     38  C   UNL     1       2.724  15.624  -1.474  1.00  0.00     0.010 A 
ATOM     39  C   UNL     1       2.625  16.615  -2.462  1.00  0.00    -0.014 A 
BRANCH  39  40
ATOM     40  C   UNL     1       2.377  18.028  -2.075  1.00  0.00     0.031 A 
ATOM     41  C   UNL     1       3.400  18.785  -1.272  1.00  0.00     0.074 A 
ATOM     42  C   UNL     1       1.210  18.611  -2.413  1.00  0.00     0.049 A 
ATOM     43  N   UNL     1       3.358  20.015  -0.830  1.00  0.00    -0.248 NA
ATOM     44  C   UNL     1       4.615  18.050  -0.891  1.00  0.00     0.031 C 
ATOM     45  C   UNL     1       0.120  17.957  -3.141  1.00  0.00     0.029 A 
ATOM     46  N   UNL     1       0.743  19.881  -2.191  1.00  0.00    -0.354 N 
ATOM     47  C   UNL     1       4.535  20.201  -0.114  1.00  0.00     0.074 A 
ATOM     48  C   UNL     1       5.235  18.934  -0.124  1.00  0.00     0.031 C 
ATOM     49  C   UNL     1      -0.873  18.840  -3.334  1.00  0.00     0.029 A 
ATOM     50  C   UNL     1      -0.509  20.110  -2.714  1.00  0.00     0.049 A 
ATOM     51  H   UNL     1       1.256  20.566  -1.703  1.00  0.00     0.167 HD
ATOM     52  C   UNL     1       5.002  21.332   0.473  1.00  0.00     0.034 A 
ATOM     53  C   UNL     1      -1.276  21.217  -2.696  1.00  0.00     0.034 A 
ATOM     54  C   UNL     1       4.293  22.589   0.465  1.00  0.00     0.049 A 
ATOM     55  C   UNL     1      -0.738  22.461  -2.036  1.00  0.00     0.074 A 
ATOM     56  C   UNL     1       4.694  23.809   0.981  1.00  0.00     0.029 A 
ATOM     57  N   UNL     1       3.031  22.787  -0.083  1.00  0.00    -0.354 N 
ATOM     58  N   UNL     1       0.407  22.639  -1.418  1.00  0.00    -0.248 NA
ATOM     59  C   UNL     1      -1.587  23.657  -2.088  1.00  0.00     0.031 C 
ATOM     60  C   UNL     1       3.651  24.725   0.804  1.00  0.00     0.029 A 
ATOM     61  C   UNL     1       2.628  24.100   0.107  1.00  0.00     0.049 A 
ATOM     62  H   UNL     1       2.500  22.095  -0.540  1.00  0.00     0.167 HD
ATOM     63  C   UNL     1       0.427  23.978  -1.037  1.00  0.00     0.074 A 
ATOM     64  C   UNL     1      -0.811  24.562  -1.510  1.00  0.00     0.031 C 
ATOM     65  C   UNL     1       1.384  24.665  -0.361  1.00  0.00     0.034 A 
BRANCH  52  66
ATOM     66  C   UNL     1       6.330  21.244   1.189  1.00  0.00     0.023 A 
ATOM     67  C   UNL     1       7.517  20.921   0.506  1.00  0.00     0.031 A 
ATOM     68  C   UNL     1       6.410  21.455   2.577  1.00  0.00     0.131 A 
ATOM     69  C   UNL     1       8.711  20.738   1.220  1.00  0.00     0.055 A 
ATOM     70  C   UNL     1       7.619  21.356   3.269  1.00  0.00     0.041 A 
ATOM     71  F   UNL     1       5.310  21.746   3.288  1.00  0.00    -0.206 F 
ATOM     72  C   UNL     1       8.776  20.979   2.594  1.00  0.00     0.022 A 
BRANCH  69  73
ATOM     73  S   UNL     1      10.139  20.034   0.352  1.00  0.00     0.124 S 
ATOM     74  O   UNL     1       9.603  18.755  -0.108  1.00  0.00    -0.237 OA
ATOM     75  O   UNL     1      10.400  21.027  -0.683  1.00  0.00    -0.237 OA
ATOM     76  O   UNL     1      11.159  19.934   1.394  1.00  0.00    -0.744 OA
ENDBRANCH  69  73
ENDBRANCH  52  66
BRANCH  53  77
ATOM     77  C   UNL     1      -2.628  21.211  -3.325  1.00  0.00     0.023 A 
ATOM     78  C   UNL     1      -2.911  22.015  -4.440  1.00  0.00     0.031 A 
ATOM     79  C   UNL     1      -3.669  20.427  -2.796  1.00  0.00     0.131 A 
ATOM     80  C   UNL     1      -4.214  22.055  -4.962  1.00  0.00     0.055 A 
ATOM     81  C   UNL     1      -4.950  20.431  -3.350  1.00  0.00     0.041 A 
ATOM     82  F   UNL     1      -3.450  19.634  -1.735  1.00  0.00    -0.206 F 
ATOM     83  C   UNL     1      -5.232  21.259  -4.432  1.00  0.00     0.022 A 
BRANCH  80  84
ATOM     84  S   UNL     1      -4.579  23.230  -6.295  1.00  0.00     0.124 S 
ATOM     85  O   UNL     1      -4.207  24.500  -5.682  1.00  0.00    -0.237 OA
ATOM     86  O   UNL     1      -3.709  22.753  -7.364  1.00  0.00    -0.237 OA
ATOM     87  O   UNL     1      -6.010  23.044  -6.528  1.00  0.00    -0.744 OA
ENDBRANCH  80  84
ENDBRANCH  53  77
BRANCH  65  88
ATOM     88  C   UNL     1       1.139  26.138  -0.139  1.00  0.00     0.023 A 
ATOM     89  C   UNL     1       0.095  26.600   0.683  1.00  0.00     0.031 A 
ATOM     90  C   UNL     1       1.949  27.093  -0.778  1.00  0.00     0.131 A 
ATOM     91  C   UNL     1      -0.150  27.977   0.793  1.00  0.00     0.055 A 
ATOM     92  C   UNL     1       1.740  28.463  -0.615  1.00  0.00     0.041 A 
ATOM     93  F   UNL     1       2.958  26.709  -1.576  1.00  0.00    -0.206 F 
ATOM     94  C   UNL     1       0.675  28.911   0.162  1.00  0.00     0.022 A 
BRANCH  91  95
ATOM     95  S   UNL     1      -1.629  28.529   1.687  1.00  0.00     0.124 S 
ATOM     96  O   UNL     1      -2.695  27.845   0.962  1.00  0.00    -0.237 OA
ATOM     97  O   UNL     1      -1.370  28.051   3.041  1.00  0.00    -0.237 OA
ATOM     98  O   UNL     1      -1.604  29.981   1.528  1.00  0.00    -0.744 OA
ENDBRANCH  91  95
ENDBRANCH  65  88
ENDBRANCH  39  40
ENDBRANCH  31  34
ENDBRANCH  29  30
ENDBRANCH   1  29
TORSDOF 18
