REMARK SMILES Cc1ccc(Nc2c(F)cccc2Cl)c(CC(=O)NCCCCNC(=O)c2ccc(-c3c4nc(c(-c5cc(S(=O)(=O)[O-])ccc5F)c5ccc([nH]5)c(-c5cc(S(=O)(=O)[O-])ccc5F)c5nc(c(-c6cc(S(=O)(=O)[O-])ccc6F)c6ccc3[nH]6)C=C5)C=C4)cc2)c1
REMARK SMILES IDX 21 1 20 2 19 3 17 4 18 5 16 7 15 8 1 9 2 10 3 11 90 12 4 13
REMARK SMILES IDX 5 14 6 15 7 17 8 18 13 19 9 20 10 21 12 22 14 23 11 24 22 25
REMARK SMILES IDX 23 26 24 27 25 28 26 30 27 31 28 32 89 33 29 34 88 35 30 36
REMARK SMILES IDX 31 37 32 38 82 39 33 40 87 41 81 42 83 43 34 44 86 45 80 46
REMARK SMILES IDX 79 47 35 49 67 50 47 51 66 52 48 53 51 54 65 55 84 56 49 57
REMARK SMILES IDX 50 58 64 60 85 61 52 62 36 63 37 64 45 65 38 66 44 67 46 68
REMARK SMILES IDX 43 69 39 70 40 71 41 72 42 73 68 74 69 75 77 76 70 77 76 78
REMARK SMILES IDX 78 79 75 80 71 81 72 82 73 83 74 84 53 85 54 86 62 87 55 88
REMARK SMILES IDX 61 89 63 90 60 91 56 92 57 93 58 94 59 95
REMARK H PARENT 19 6 6 16 24 29 83 48 51 59
REMARK Flexibility Score: inf
ROOT
ATOM      1  C   UNL     1      -0.070   1.119  -3.150  1.00  0.00     0.023 C 
ENDROOT
BRANCH   1   2
ATOM      2  C   UNL     1      -0.493   2.543  -2.752  1.00  0.00     0.116 C 
BRANCH   2   3
ATOM      3  N   UNL     1      -1.915   2.642  -2.435  1.00  0.00    -0.356 N 
ATOM      4  C   UNL     1      -2.543   2.534  -1.231  1.00  0.00     0.224 C 
ATOM      5  O   UNL     1      -3.779   2.517  -1.203  1.00  0.00    -0.275 OA
ATOM      6  H   UNL     1      -2.506   2.812  -3.203  1.00  0.00     0.163 HD
BRANCH   4   7
ATOM      7  C   UNL     1      -1.756   2.404   0.059  1.00  0.00     0.137 C 
BRANCH   7   8
ATOM      8  C   UNL     1      -1.058   1.071   0.209  1.00  0.00    -0.015 A 
ATOM      9  C   UNL     1       2.600  -0.025   0.206  1.00  0.00     0.044 C 
ATOM     10  C   UNL     1       1.103  -0.078   0.287  1.00  0.00    -0.051 A 
ATOM     11  C   UNL     1       0.435  -1.298   0.246  1.00  0.00     0.005 A 
ATOM     12  C   UNL     1       0.350   1.096   0.310  1.00  0.00     0.009 A 
ATOM     13  C   UNL     1      -0.963  -1.338   0.202  1.00  0.00     0.026 A 
ATOM     14  C   UNL     1      -1.739  -0.168   0.156  1.00  0.00     0.042 A 
BRANCH  14  15
ATOM     15  N   UNL     1      -3.149  -0.228   0.055  1.00  0.00    -0.352 N 
ATOM     16  H   UNL     1      -3.600   0.642  -0.038  1.00  0.00     0.167 HD
BRANCH  15  17
ATOM     17  C   UNL     1      -4.008  -1.353   0.068  1.00  0.00     0.094 A 
ATOM     18  C   UNL     1      -3.954  -2.326   1.077  1.00  0.00     0.148 A 
ATOM     19  C   UNL     1      -4.892  -1.591  -1.002  1.00  0.00     0.067 A 
ATOM     20  F   UNL     1      -3.154  -2.159   2.142  1.00  0.00    -0.205 F 
ATOM     21  C   UNL     1      -4.729  -3.486   1.030  1.00  0.00     0.041 A 
ATOM     22  C   UNL     1      -5.672  -2.755  -1.058  1.00  0.00     0.023 A 
ATOM     23  Cl  UNL     1      -5.026  -0.480  -2.321  1.00  0.00    -0.082 Cl
ATOM     24  C   UNL     1      -5.587  -3.706  -0.043  1.00  0.00     0.005 A 
ENDBRANCH  15  17
ENDBRANCH  14  15
ENDBRANCH   7   8
ENDBRANCH   4   7
ENDBRANCH   2   3
ENDBRANCH   1   2
BRANCH   1  25
ATOM     25  C   UNL     1      -0.788   0.529  -4.363  1.00  0.00     0.023 C 
BRANCH  25  26
ATOM     26  C   UNL     1      -0.463   1.236  -5.670  1.00  0.00     0.116 C 
BRANCH  26  27
ATOM     27  N   UNL     1       0.514   0.554  -6.509  1.00  0.00    -0.352 N 
ATOM     28  C   UNL     1       0.995   0.949  -7.749  1.00  0.00     0.251 C 
ATOM     29  H   UNL     1       0.876  -0.289  -6.154  1.00  0.00     0.163 HD
ATOM     30  O   UNL     1       1.747   0.249  -8.407  1.00  0.00    -0.269 OA
BRANCH  28  31
ATOM     31  C   UNL     1       0.680   2.326  -8.205  1.00  0.00     0.039 A 
ATOM     32  C   UNL     1       1.766   3.185  -8.406  1.00  0.00     0.014 A 
ATOM     33  C   UNL     1      -0.619   2.824  -8.144  1.00  0.00     0.014 A 
ATOM     34  C   UNL     1       1.575   4.558  -8.292  1.00  0.00     0.010 A 
ATOM     35  C   UNL     1      -0.796   4.182  -7.942  1.00  0.00     0.010 A 
ATOM     36  C   UNL     1       0.314   5.036  -7.936  1.00  0.00    -0.014 A 
BRANCH  36  37
ATOM     37  C   UNL     1       0.107   6.370  -7.381  1.00  0.00     0.031 A 
ATOM     38  C   UNL     1      -0.571   7.422  -8.162  1.00  0.00     0.074 A 
ATOM     39  C   UNL     1       0.528   6.652  -6.126  1.00  0.00     0.049 A 
ATOM     40  N   UNL     1      -0.512   8.678  -7.874  1.00  0.00    -0.248 NA
ATOM     41  C   UNL     1      -1.298   7.154  -9.400  1.00  0.00     0.031 C 
ATOM     42  C   UNL     1       0.201   7.822  -5.315  1.00  0.00     0.029 A 
ATOM     43  N   UNL     1       1.607   6.064  -5.465  1.00  0.00    -0.354 N 
ATOM     44  C   UNL     1      -1.426   9.328  -8.661  1.00  0.00     0.074 A 
ATOM     45  C   UNL     1      -1.761   8.376  -9.688  1.00  0.00     0.031 C 
ATOM     46  C   UNL     1       1.204   8.043  -4.453  1.00  0.00     0.029 A 
ATOM     47  C   UNL     1       2.261   7.102  -4.767  1.00  0.00     0.049 A 
ATOM     48  H   UNL     1       1.861   5.113  -5.481  1.00  0.00     0.167 HD
ATOM     49  C   UNL     1      -1.893  10.541  -8.254  1.00  0.00     0.034 A 
ATOM     50  C   UNL     1       3.561   7.416  -5.040  1.00  0.00     0.034 A 
ATOM     51  C   UNL     1      -1.009  11.149  -7.248  1.00  0.00     0.049 A 
ATOM     52  C   UNL     1       3.768   8.837  -5.534  1.00  0.00     0.074 A 
ATOM     53  C   UNL     1      -1.108  11.496  -5.912  1.00  0.00     0.029 A 
ATOM     54  N   UNL     1       0.332  11.312  -7.576  1.00  0.00    -0.354 N 
ATOM     55  N   UNL     1       2.814   9.717  -5.687  1.00  0.00    -0.248 NA
ATOM     56  C   UNL     1       5.063   9.347  -5.983  1.00  0.00     0.031 C 
ATOM     57  C   UNL     1       0.204  11.825  -5.439  1.00  0.00     0.029 A 
ATOM     58  C   UNL     1       1.090  11.715  -6.495  1.00  0.00     0.049 A 
ATOM     59  H   UNL     1       0.699  11.158  -8.476  1.00  0.00     0.167 HD
ATOM     60  C   UNL     1       3.315  10.837  -6.303  1.00  0.00     0.074 A 
ATOM     61  C   UNL     1       4.731  10.556  -6.464  1.00  0.00     0.031 C 
ATOM     62  C   UNL     1       2.526  11.887  -6.686  1.00  0.00     0.034 A 
BRANCH  49  63
ATOM     63  C   UNL     1      -3.237  11.126  -8.659  1.00  0.00     0.023 A 
ATOM     64  C   UNL     1      -3.634  12.372  -8.123  1.00  0.00     0.031 A 
ATOM     65  C   UNL     1      -4.226  10.473  -9.434  1.00  0.00     0.131 A 
ATOM     66  C   UNL     1      -4.924  12.896  -8.354  1.00  0.00     0.055 A 
ATOM     67  C   UNL     1      -5.481  11.027  -9.717  1.00  0.00     0.041 A 
ATOM     68  F   UNL     1      -4.079   9.232  -9.907  1.00  0.00    -0.206 F 
ATOM     69  C   UNL     1      -5.841  12.241  -9.170  1.00  0.00     0.022 A 
BRANCH  66  70
ATOM     70  S   UNL     1      -5.442  14.408  -7.495  1.00  0.00     0.124 S 
ATOM     71  O   UNL     1      -5.323  14.020  -6.094  1.00  0.00    -0.237 OA
ATOM     72  O   UNL     1      -4.479  15.388  -7.983  1.00  0.00    -0.237 OA
ATOM     73  O   UNL     1      -6.815  14.609  -7.960  1.00  0.00    -0.744 OA
ENDBRANCH  66  70
ENDBRANCH  49  63
BRANCH  50  74
ATOM     74  C   UNL     1       4.369   6.214  -5.409  1.00  0.00     0.023 A 
ATOM     75  C   UNL     1       4.345   5.136  -4.495  1.00  0.00     0.031 A 
ATOM     76  C   UNL     1       4.781   5.947  -6.720  1.00  0.00     0.131 A 
ATOM     77  C   UNL     1       4.513   3.821  -4.946  1.00  0.00     0.055 A 
ATOM     78  C   UNL     1       5.057   4.639  -7.142  1.00  0.00     0.041 A 
ATOM     79  F   UNL     1       4.794   6.915  -7.648  1.00  0.00    -0.206 F 
ATOM     80  C   UNL     1       4.870   3.564  -6.270  1.00  0.00     0.022 A 
BRANCH  77  81
ATOM     81  S   UNL     1       3.931   2.464  -3.880  1.00  0.00     0.124 S 
ATOM     82  O   UNL     1       5.133   2.122  -3.131  1.00  0.00    -0.237 OA
ATOM     83  O   UNL     1       2.857   3.091  -3.110  1.00  0.00    -0.237 OA
ATOM     84  O   UNL     1       3.469   1.457  -4.833  1.00  0.00    -0.744 OA
ENDBRANCH  77  81
ENDBRANCH  50  74
BRANCH  62  85
ATOM     85  C   UNL     1       3.060  13.143  -7.346  1.00  0.00     0.023 A 
ATOM     86  C   UNL     1       4.329  13.671  -7.051  1.00  0.00     0.031 A 
ATOM     87  C   UNL     1       2.279  13.894  -8.255  1.00  0.00     0.131 A 
ATOM     88  C   UNL     1       4.810  14.818  -7.712  1.00  0.00     0.055 A 
ATOM     89  C   UNL     1       2.729  15.077  -8.851  1.00  0.00     0.041 A 
ATOM     90  F   UNL     1       1.056  13.498  -8.634  1.00  0.00    -0.206 F 
ATOM     91  C   UNL     1       4.010  15.537  -8.596  1.00  0.00     0.022 A 
BRANCH  88  92
ATOM     92  S   UNL     1       6.534  15.312  -7.447  1.00  0.00     0.124 S 
ATOM     93  O   UNL     1       6.610  15.436  -5.995  1.00  0.00    -0.237 OA
ATOM     94  O   UNL     1       7.258  14.183  -8.025  1.00  0.00    -0.237 OA
ATOM     95  O   UNL     1       6.652  16.567  -8.185  1.00  0.00    -0.744 OA
ENDBRANCH  88  92
ENDBRANCH  62  85
ENDBRANCH  36  37
ENDBRANCH  28  31
ENDBRANCH  26  27
ENDBRANCH  25  26
ENDBRANCH   1  25
TORSDOF 17
