REMARK SMILES N#Cc1ccccc1Cn1cccc1C(=O)NCCCCNC(=O)c1ccc(-c2c3nc(c(-c4cc(S(=O)(=O)[O-])ccc4F)c4ccc([nH]4)c(-c4cc(S(=O)(=O)[O-])ccc4F)c4nc(c(-c5cc(S(=O)(=O)[O-])ccc5F)c5ccc2[nH]5)C=C4)C=C3)cc1
REMARK SMILES IDX 19 1 18 2 17 3 15 4 16 5 14 7 10 8 11 9 12 10 13 11 9 12
REMARK SMILES IDX 8 13 3 14 4 15 5 16 7 17 6 18 2 19 1 20 20 21 21 22 22 23
REMARK SMILES IDX 23 24 24 26 25 27 26 28 87 29 27 30 86 31 28 32 29 33 30 34
REMARK SMILES IDX 80 35 31 36 85 37 79 38 81 39 32 40 84 41 78 42 77 43 33 45
REMARK SMILES IDX 65 46 45 47 64 48 46 49 49 50 63 51 82 52 47 53 48 54 62 56
REMARK SMILES IDX 83 57 50 58 34 59 35 60 43 61 36 62 42 63 44 64 41 65 37 66
REMARK SMILES IDX 38 67 39 68 40 69 66 70 67 71 75 72 68 73 74 74 76 75 73 76
REMARK SMILES IDX 69 77 70 78 71 79 72 80 51 81 52 82 60 83 53 84 59 85 61 86
REMARK SMILES IDX 58 87 54 88 55 89 56 90 57 91
REMARK H PARENT 17 6 22 25 81 44 49 55
REMARK Flexibility Score: inf
ROOT
ATOM      1  C   UNL     1      -3.096  -1.304   0.259  1.00  0.00     0.023 C 
ENDROOT
BRANCH   1   2
ATOM      2  C   UNL     1      -3.132  -2.791  -0.107  1.00  0.00     0.116 C 
BRANCH   2   3
ATOM      3  N   UNL     1      -3.191  -2.932  -1.551  1.00  0.00    -0.351 N 
ATOM      4  C   UNL     1      -2.282  -3.068  -2.569  1.00  0.00     0.267 C 
ATOM      5  O   UNL     1      -2.802  -3.057  -3.692  1.00  0.00    -0.268 OA
ATOM      6  H   UNL     1      -4.117  -2.929  -1.883  1.00  0.00     0.163 HD
BRANCH   4   7
ATOM      7  C   UNL     1      -0.845  -3.324  -2.434  1.00  0.00     0.107 A 
ATOM      8  N   UNL     1       0.158  -2.888  -1.565  1.00  0.00    -0.339 N 
ATOM      9  C   UNL     1       1.316  -3.592  -1.818  1.00  0.00     0.086 A 
ATOM     10  C   UNL     1       1.167  -4.275  -2.996  1.00  0.00     0.020 A 
ATOM     11  C   UNL     1      -0.168  -4.088  -3.392  1.00  0.00     0.033 A 
BRANCH   8  12
ATOM     12  C   UNL     1       0.029  -1.938  -0.462  1.00  0.00     0.159 C 
BRANCH  12  13
ATOM     13  C   UNL     1       0.945  -0.727  -0.403  1.00  0.00    -0.010 A 
ATOM     14  C   UNL     1       0.479   0.606  -0.533  1.00  0.00     0.057 A 
ATOM     15  C   UNL     1       1.320   1.691  -0.234  1.00  0.00     0.020 A 
ATOM     16  C   UNL     1       2.639   1.485   0.141  1.00  0.00     0.001 A 
ATOM     17  C   UNL     1       2.287  -0.903  -0.018  1.00  0.00     0.007 A 
ATOM     18  C   UNL     1       3.127   0.188   0.228  1.00  0.00     0.000 A 
BRANCH  14  19
ATOM     19  C   UNL     1      -0.849   0.988  -0.947  1.00  0.00     0.099 C 
ATOM     20  N   UNL     1      -1.875   1.401  -1.261  1.00  0.00    -0.192 NA
ENDBRANCH  14  19
ENDBRANCH  12  13
ENDBRANCH   8  12
ENDBRANCH   4   7
ENDBRANCH   2   3
ENDBRANCH   1   2
BRANCH   1  21
ATOM     21  C   UNL     1      -4.395  -0.522   0.403  1.00  0.00     0.023 C 
BRANCH  21  22
ATOM     22  C   UNL     1      -5.176  -0.858   1.652  1.00  0.00     0.116 C 
BRANCH  22  23
ATOM     23  N   UNL     1      -4.443  -0.526   2.866  1.00  0.00    -0.352 N 
ATOM     24  C   UNL     1      -4.866  -0.744   4.157  1.00  0.00     0.251 C 
ATOM     25  H   UNL     1      -3.560  -0.106   2.752  1.00  0.00     0.163 HD
ATOM     26  O   UNL     1      -4.427  -0.061   5.077  1.00  0.00    -0.269 OA
BRANCH  24  27
ATOM     27  C   UNL     1      -5.854  -1.812   4.413  1.00  0.00     0.039 A 
ATOM     28  C   UNL     1      -6.926  -1.571   5.271  1.00  0.00     0.014 A 
ATOM     29  C   UNL     1      -5.702  -3.058   3.788  1.00  0.00     0.014 A 
ATOM     30  C   UNL     1      -7.876  -2.574   5.455  1.00  0.00     0.010 A 
ATOM     31  C   UNL     1      -6.680  -4.030   3.916  1.00  0.00     0.010 A 
ATOM     32  C   UNL     1      -7.763  -3.797   4.759  1.00  0.00    -0.014 A 
BRANCH  32  33
ATOM     33  C   UNL     1      -8.943  -4.701   4.723  1.00  0.00     0.031 A 
ATOM     34  C   UNL     1     -10.059  -3.938   3.928  1.00  0.00     0.074 A 
ATOM     35  C   UNL     1      -8.855  -5.894   5.419  1.00  0.00     0.049 A 
ATOM     36  N   UNL     1     -11.273  -3.637   4.262  1.00  0.00    -0.248 NA
ATOM     37  C   UNL     1      -9.697  -3.209   2.665  1.00  0.00     0.031 C 
ATOM     38  C   UNL     1      -7.594  -6.504   5.927  1.00  0.00     0.029 A 
ATOM     39  N   UNL     1      -9.746  -6.877   5.824  1.00  0.00    -0.354 N 
ATOM     40  C   UNL     1     -11.893  -3.023   3.142  1.00  0.00     0.074 A 
ATOM     41  C   UNL     1     -10.825  -2.581   2.305  1.00  0.00     0.031 C 
ATOM     42  C   UNL     1      -7.820  -7.628   6.657  1.00  0.00     0.029 A 
ATOM     43  C   UNL     1      -9.244  -7.885   6.737  1.00  0.00     0.049 A 
ATOM     44  H   UNL     1     -10.678  -6.888   5.507  1.00  0.00     0.167 HD
ATOM     45  C   UNL     1     -13.232  -3.167   2.879  1.00  0.00     0.034 A 
ATOM     46  C   UNL     1      -9.951  -8.785   7.527  1.00  0.00     0.034 A 
ATOM     47  C   UNL     1     -13.786  -4.002   3.896  1.00  0.00     0.049 A 
ATOM     48  C   UNL     1     -11.329  -8.537   7.080  1.00  0.00     0.074 A 
ATOM     49  C   UNL     1     -13.952  -3.835   5.245  1.00  0.00     0.029 A 
ATOM     50  N   UNL     1     -13.817  -5.347   3.593  1.00  0.00    -0.354 N 
ATOM     51  N   UNL     1     -11.823  -8.925   5.945  1.00  0.00    -0.248 NA
ATOM     52  C   UNL     1     -12.162  -7.643   7.895  1.00  0.00     0.031 C 
ATOM     53  C   UNL     1     -13.449  -5.055   5.738  1.00  0.00     0.029 A 
ATOM     54  C   UNL     1     -13.430  -6.015   4.718  1.00  0.00     0.049 A 
ATOM     55  H   UNL     1     -14.069  -5.749   2.730  1.00  0.00     0.167 HD
ATOM     56  C   UNL     1     -12.863  -8.050   5.770  1.00  0.00     0.074 A 
ATOM     57  C   UNL     1     -13.209  -7.540   7.085  1.00  0.00     0.031 C 
ATOM     58  C   UNL     1     -12.991  -7.381   4.595  1.00  0.00     0.034 A 
BRANCH  45  59
ATOM     59  C   UNL     1     -14.105  -3.005   1.650  1.00  0.00     0.023 A 
ATOM     60  C   UNL     1     -15.479  -3.318   1.844  1.00  0.00     0.031 A 
ATOM     61  C   UNL     1     -13.666  -2.965   0.324  1.00  0.00     0.131 A 
ATOM     62  C   UNL     1     -16.277  -3.801   0.803  1.00  0.00     0.055 A 
ATOM     63  C   UNL     1     -14.505  -3.351  -0.738  1.00  0.00     0.041 A 
ATOM     64  F   UNL     1     -12.405  -2.642   0.010  1.00  0.00    -0.206 F 
ATOM     65  C   UNL     1     -15.796  -3.823  -0.498  1.00  0.00     0.022 A 
BRANCH  62  66
ATOM     66  S   UNL     1     -17.848  -4.602   1.246  1.00  0.00     0.124 S 
ATOM     67  O   UNL     1     -17.393  -5.700   2.091  1.00  0.00    -0.237 OA
ATOM     68  O   UNL     1     -18.559  -3.525   1.930  1.00  0.00    -0.237 OA
ATOM     69  O   UNL     1     -18.406  -4.989  -0.047  1.00  0.00    -0.744 OA
ENDBRANCH  62  66
ENDBRANCH  45  59
BRANCH  46  70
ATOM     70  C   UNL     1      -9.855  -9.786   8.724  1.00  0.00     0.023 A 
ATOM     71  C   UNL     1      -8.726 -10.422   9.286  1.00  0.00     0.031 A 
ATOM     72  C   UNL     1     -11.074 -10.108   9.429  1.00  0.00     0.131 A 
ATOM     73  C   UNL     1      -8.844 -11.184  10.509  1.00  0.00     0.055 A 
ATOM     74  C   UNL     1     -11.163 -10.742  10.671  1.00  0.00     0.041 A 
ATOM     75  F   UNL     1     -12.286  -9.844   8.926  1.00  0.00    -0.206 F 
ATOM     76  C   UNL     1     -10.034 -11.266  11.237  1.00  0.00     0.022 A 
BRANCH  73  77
ATOM     77  S   UNL     1      -7.453 -12.139  11.218  1.00  0.00     0.124 S 
ATOM     78  O   UNL     1      -7.521 -13.385  10.463  1.00  0.00    -0.237 OA
ATOM     79  O   UNL     1      -6.303 -11.282  10.951  1.00  0.00    -0.237 OA
ATOM     80  O   UNL     1      -7.807 -12.262  12.634  1.00  0.00    -0.744 OA
ENDBRANCH  73  77
ENDBRANCH  46  70
BRANCH  58  81
ATOM     81  C   UNL     1     -12.355  -8.037   3.374  1.00  0.00     0.023 A 
ATOM     82  C   UNL     1     -12.766  -9.330   2.998  1.00  0.00     0.031 A 
ATOM     83  C   UNL     1     -11.303  -7.479   2.620  1.00  0.00     0.131 A 
ATOM     84  C   UNL     1     -12.146 -10.013   1.932  1.00  0.00     0.055 A 
ATOM     85  C   UNL     1     -10.687  -8.155   1.552  1.00  0.00     0.041 A 
ATOM     86  F   UNL     1     -10.822  -6.265   2.904  1.00  0.00    -0.206 F 
ATOM     87  C   UNL     1     -11.111  -9.430   1.201  1.00  0.00     0.022 A 
BRANCH  84  88
ATOM     88  S   UNL     1     -12.718 -11.680   1.500  1.00  0.00     0.124 S 
ATOM     89  O   UNL     1     -12.274 -12.474   2.640  1.00  0.00    -0.237 OA
ATOM     90  O   UNL     1     -14.159 -11.498   1.369  1.00  0.00    -0.237 OA
ATOM     91  O   UNL     1     -12.021 -11.966   0.244  1.00  0.00    -0.744 OA
ENDBRANCH  84  88
ENDBRANCH  58  81
ENDBRANCH  32  33
ENDBRANCH  24  27
ENDBRANCH  22  23
ENDBRANCH  21  22
ENDBRANCH   1  21
TORSDOF 17
