REMARK SMILES CC(C)n1c2c(c3ccccc31)[C@@H](c1ccccc1)N(CC(=O)NCCCCNC(=O)c1ccc(-c3c4nc(c(-c5cc(S(=O)(=O)[O-])ccc5F)c5ccc([nH]5)c(-c5cc(S(=O)(=O)[O-])ccc5F)c5nc(c(-c6cc(S(=O)(=O)[O-])ccc6F)c6ccc3[nH]6)C=C5)C=C4)cc1)C2=O
REMARK SMILES IDX 27 1 26 2 25 3 24 4 22 5 23 6 21 8 20 9 4 10 5 11 12 12 6 13
REMARK SMILES IDX 95 14 7 15 11 16 13 17 96 18 8 19 10 20 9 21 2 22 1 23 3 24
REMARK SMILES IDX 14 25 15 26 19 27 16 28 18 29 17 30 28 31 29 32 30 33 31 35
REMARK SMILES IDX 32 36 33 37 94 38 34 39 93 40 35 41 36 42 37 43 87 44 38 45
REMARK SMILES IDX 92 46 86 47 88 48 39 49 91 50 85 51 84 52 40 54 72 55 52 56
REMARK SMILES IDX 71 57 53 58 56 59 70 60 89 61 54 62 55 63 69 65 90 66 57 67
REMARK SMILES IDX 41 68 42 69 50 70 43 71 49 72 51 73 48 74 44 75 45 76 46 77
REMARK SMILES IDX 47 78 73 79 74 80 82 81 75 82 81 83 83 84 80 85 76 86 77 87
REMARK SMILES IDX 78 88 79 89 58 90 59 91 67 92 60 93 66 94 68 95 65 96 61 97
REMARK SMILES IDX 62 98 63 99 64 100
REMARK H PARENT 24 7 29 34 88 53 56 64
REMARK Flexibility Score: inf
ROOT
ATOM      1  C   UNL     1      -2.703  -0.329   3.797  1.00  0.00     0.023 C 
ENDROOT
BRANCH   1   2
ATOM      2  C   UNL     1      -2.391  -0.814   2.377  1.00  0.00     0.023 C 
BRANCH   2   3
ATOM      3  C   UNL     1      -2.597  -2.311   2.150  1.00  0.00     0.116 C 
BRANCH   3   4
ATOM      4  N   UNL     1      -4.000  -2.652   2.046  1.00  0.00    -0.355 N 
ATOM      5  C   UNL     1      -4.678  -3.088   0.944  1.00  0.00     0.239 C 
ATOM      6  O   UNL     1      -5.886  -3.317   1.043  1.00  0.00    -0.273 OA
ATOM      7  H   UNL     1      -4.530  -2.558   2.871  1.00  0.00     0.163 HD
BRANCH   5   8
ATOM      8  C   UNL     1      -3.943  -3.270  -0.391  1.00  0.00     0.220 C 
BRANCH   8   9
ATOM      9  N   UNL     1      -3.534  -1.995  -0.956  1.00  0.00    -0.317 N 
ATOM     10  N   UNL     1      -1.410   0.881  -1.106  1.00  0.00    -0.334 N 
ATOM     11  C   UNL     1      -2.248  -0.191  -1.161  1.00  0.00     0.114 A 
ATOM     12  C   UNL     1      -2.203   2.036  -1.063  1.00  0.00     0.049 A 
ATOM     13  C   UNL     1      -3.548   0.243  -1.172  1.00  0.00     0.018 A 
ATOM     14  C   UNL     1      -2.197  -1.614  -1.097  1.00  0.00     0.272 C 
ATOM     15  C   UNL     1      -3.555   1.640  -1.076  1.00  0.00     0.006 A 
ATOM     16  C   UNL     1      -1.857   3.397  -0.996  1.00  0.00     0.027 A 
ATOM     17  C   UNL     1      -4.501  -0.893  -1.197  1.00  0.00     0.150 C 
ATOM     18  O   UNL     1      -1.219  -2.346  -1.058  1.00  0.00    -0.267 OA
ATOM     19  C   UNL     1      -4.570   2.611  -1.003  1.00  0.00     0.011 A 
ATOM     20  C   UNL     1      -2.885   4.344  -0.932  1.00  0.00     0.002 A 
ATOM     21  C   UNL     1      -4.221   3.960  -0.931  1.00  0.00     0.001 A 
BRANCH  10  22
ATOM     22  C   UNL     1       0.052   0.865  -1.098  1.00  0.00     0.082 C 
ATOM     23  C   UNL     1       0.665   0.096   0.072  1.00  0.00     0.031 C 
ATOM     24  C   UNL     1       0.616   0.403  -2.440  1.00  0.00     0.031 C 
ENDBRANCH  10  22
BRANCH  17  25
ATOM     25  C   UNL     1      -5.133  -1.016  -2.578  1.00  0.00    -0.021 A 
ATOM     26  C   UNL     1      -6.102  -2.019  -2.777  1.00  0.00     0.006 A 
ATOM     27  C   UNL     1      -4.777  -0.236  -3.696  1.00  0.00     0.006 A 
ATOM     28  C   UNL     1      -6.647  -2.265  -4.041  1.00  0.00     0.000 A 
ATOM     29  C   UNL     1      -5.340  -0.465  -4.954  1.00  0.00     0.000 A 
ATOM     30  C   UNL     1      -6.263  -1.489  -5.130  1.00  0.00     0.000 A 
ENDBRANCH  17  25
ENDBRANCH   8   9
ENDBRANCH   5   8
ENDBRANCH   3   4
ENDBRANCH   2   3
ENDBRANCH   1   2
BRANCH   1  31
ATOM     31  C   UNL     1      -2.073  -1.187   4.892  1.00  0.00     0.116 C 
BRANCH  31  32
ATOM     32  N   UNL     1      -0.642  -1.349   4.739  1.00  0.00    -0.352 N 
ATOM     33  C   UNL     1       0.460  -0.738   5.262  1.00  0.00     0.251 C 
ATOM     34  H   UNL     1      -0.410  -2.070   4.109  1.00  0.00     0.163 HD
ATOM     35  O   UNL     1       1.543  -1.260   4.984  1.00  0.00    -0.269 OA
BRANCH  33  36
ATOM     36  C   UNL     1       0.440   0.532   6.027  1.00  0.00     0.039 A 
ATOM     37  C   UNL     1      -0.709   1.221   6.421  1.00  0.00     0.014 A 
ATOM     38  C   UNL     1       1.697   1.123   6.246  1.00  0.00     0.014 A 
ATOM     39  C   UNL     1      -0.624   2.540   6.828  1.00  0.00     0.010 A 
ATOM     40  C   UNL     1       1.791   2.425   6.697  1.00  0.00     0.010 A 
ATOM     41  C   UNL     1       0.623   3.155   6.883  1.00  0.00    -0.014 A 
BRANCH  41  42
ATOM     42  C   UNL     1       0.673   4.574   7.196  1.00  0.00     0.031 A 
ATOM     43  C   UNL     1       0.166   4.909   8.559  1.00  0.00     0.074 A 
ATOM     44  C   UNL     1       1.258   5.439   6.341  1.00  0.00     0.049 A 
ATOM     45  N   UNL     1      -0.799   5.702   8.898  1.00  0.00    -0.248 NA
ATOM     46  C   UNL     1       0.700   4.114   9.681  1.00  0.00     0.031 C 
ATOM     47  C   UNL     1       2.005   5.130   5.114  1.00  0.00     0.029 A 
ATOM     48  N   UNL     1       1.425   6.781   6.452  1.00  0.00    -0.354 N 
ATOM     49  C   UNL     1      -0.840   5.673  10.294  1.00  0.00     0.074 A 
ATOM     50  C   UNL     1      -0.037   4.550  10.699  1.00  0.00     0.031 C 
ATOM     51  C   UNL     1       2.760   6.196   4.766  1.00  0.00     0.029 A 
ATOM     52  C   UNL     1       2.427   7.303   5.640  1.00  0.00     0.049 A 
ATOM     53  H   UNL     1       0.882   7.338   7.055  1.00  0.00     0.167 HD
ATOM     54  C   UNL     1      -1.333   6.712  11.027  1.00  0.00     0.034 A 
ATOM     55  C   UNL     1       3.010   8.522   5.779  1.00  0.00     0.034 A 
ATOM     56  C   UNL     1      -2.174   7.560  10.230  1.00  0.00     0.049 A 
ATOM     57  C   UNL     1       2.119   9.341   6.641  1.00  0.00     0.074 A 
ATOM     58  C   UNL     1      -3.383   7.394   9.588  1.00  0.00     0.029 A 
ATOM     59  N   UNL     1      -1.608   8.685   9.684  1.00  0.00    -0.354 N 
ATOM     60  N   UNL     1       0.930   9.737   6.277  1.00  0.00    -0.248 NA
ATOM     61  C   UNL     1       2.352   9.275   8.078  1.00  0.00     0.031 C 
ATOM     62  C   UNL     1      -3.252   8.119   8.371  1.00  0.00     0.029 A 
ATOM     63  C   UNL     1      -2.007   8.751   8.373  1.00  0.00     0.049 A 
ATOM     64  H   UNL     1      -1.023   9.327  10.148  1.00  0.00     0.167 HD
ATOM     65  C   UNL     1       0.141   9.549   7.403  1.00  0.00     0.074 A 
ATOM     66  C   UNL     1       1.084   9.306   8.496  1.00  0.00     0.031 C 
ATOM     67  C   UNL     1      -1.198   9.307   7.307  1.00  0.00     0.034 A 
BRANCH  54  68
ATOM     68  C   UNL     1      -0.755   7.140  12.357  1.00  0.00     0.023 A 
ATOM     69  C   UNL     1       0.467   6.645  12.855  1.00  0.00     0.031 A 
ATOM     70  C   UNL     1      -1.294   8.242  13.050  1.00  0.00     0.131 A 
ATOM     71  C   UNL     1       1.097   7.212  13.969  1.00  0.00     0.055 A 
ATOM     72  C   UNL     1      -0.631   8.854  14.124  1.00  0.00     0.041 A 
ATOM     73  F   UNL     1      -2.453   8.800  12.668  1.00  0.00    -0.206 F 
ATOM     74  C   UNL     1       0.574   8.340  14.587  1.00  0.00     0.022 A 
BRANCH  71  75
ATOM     75  S   UNL     1       2.627   6.488  14.622  1.00  0.00     0.124 S 
ATOM     76  O   UNL     1       3.575   7.583  14.450  1.00  0.00    -0.237 OA
ATOM     77  O   UNL     1       2.247   6.189  16.001  1.00  0.00    -0.237 OA
ATOM     78  O   UNL     1       2.840   5.318  13.775  1.00  0.00    -0.744 OA
ENDBRANCH  71  75
ENDBRANCH  54  68
BRANCH  55  79
ATOM     79  C   UNL     1       4.476   8.765   5.739  1.00  0.00     0.023 A 
ATOM     80  C   UNL     1       5.357   7.743   6.143  1.00  0.00     0.031 A 
ATOM     81  C   UNL     1       5.004  10.062   5.625  1.00  0.00     0.131 A 
ATOM     82  C   UNL     1       6.690   8.031   6.462  1.00  0.00     0.055 A 
ATOM     83  C   UNL     1       6.345  10.345   5.922  1.00  0.00     0.041 A 
ATOM     84  F   UNL     1       4.210  11.091   5.290  1.00  0.00    -0.206 F 
ATOM     85  C   UNL     1       7.191   9.328   6.358  1.00  0.00     0.022 A 
BRANCH  82  86
ATOM     86  S   UNL     1       7.771   6.733   7.124  1.00  0.00     0.124 S 
ATOM     87  O   UNL     1       8.960   6.867   6.286  1.00  0.00    -0.237 OA
ATOM     88  O   UNL     1       7.927   7.157   8.510  1.00  0.00    -0.237 OA
ATOM     89  O   UNL     1       7.003   5.509   6.913  1.00  0.00    -0.744 OA
ENDBRANCH  82  86
ENDBRANCH  55  79
BRANCH  67  90
ATOM     90  C   UNL     1      -1.866   9.395   5.952  1.00  0.00     0.023 A 
ATOM     91  C   UNL     1      -3.037  10.163   5.870  1.00  0.00     0.031 A 
ATOM     92  C   UNL     1      -1.556   8.566   4.855  1.00  0.00     0.131 A 
ATOM     93  C   UNL     1      -3.884  10.047   4.763  1.00  0.00     0.055 A 
ATOM     94  C   UNL     1      -2.368   8.508   3.715  1.00  0.00     0.041 A 
ATOM     95  F   UNL     1      -0.519   7.721   4.888  1.00  0.00    -0.206 F 
ATOM     96  C   UNL     1      -3.551   9.236   3.675  1.00  0.00     0.022 A 
BRANCH  93  97
ATOM     97  S   UNL     1      -5.524  10.812   4.797  1.00  0.00     0.124 S 
ATOM     98  O   UNL     1      -5.443  11.761   3.690  1.00  0.00    -0.237 OA
ATOM     99  O   UNL     1      -6.403   9.665   4.577  1.00  0.00    -0.237 OA
ATOM    100  O   UNL     1      -5.608  11.408   6.127  1.00  0.00    -0.744 OA
ENDBRANCH  93  97
ENDBRANCH  67  90
ENDBRANCH  41  42
ENDBRANCH  33  36
ENDBRANCH  31  32
ENDBRANCH   1  31
TORSDOF 17
