REMARK SMILES CCOC(=O)c1c(NC(=O)[C@@H]2[C@@H](C(=O)NCCCCNC(=O)c3ccc(-c4c5nc(c(-c6cc(S(=O)(=O)[O-])ccc6F)c6ccc([nH]6)c(-c6cc(S(=O)(=O)[O-])ccc6F)c6nc(c(-c7cc(S(=O)(=O)[O-])ccc7F)c7ccc4[nH]7)C=C6)C=C5)cc3)[C@@H]3C=C[C@H]2CC3)sc2c1CCC2
REMARK SMILES IDX 16 1 15 2 13 3 14 4 12 6 11 7 89 8 86 9 88 10 90 11 87 12
REMARK SMILES IDX 91 13 9 14 8 15 10 17 7 18 6 19 94 20 92 21 93 22 95 23
REMARK SMILES IDX 97 24 96 25 4 26 5 27 3 28 2 29 1 30 17 31 18 32 19 33 20 34
REMARK SMILES IDX 21 35 22 37 23 38 24 39 85 40 25 41 84 42 26 43 27 44 28 45
REMARK SMILES IDX 78 46 29 47 83 48 77 49 79 50 30 51 82 52 76 53 75 54 31 56
REMARK SMILES IDX 63 57 43 58 62 59 44 60 47 61 61 62 80 63 45 64 46 65 60 67
REMARK SMILES IDX 81 68 48 69 32 70 33 71 41 72 34 73 40 74 42 75 39 76 35 77
REMARK SMILES IDX 36 78 37 79 38 80 64 81 65 82 73 83 66 84 72 85 74 86 71 87
REMARK SMILES IDX 67 88 68 89 69 90 70 91 49 92 50 93 58 94 51 95 57 96 59 97
REMARK SMILES IDX 56 98 52 99 53 100 54 101 55 102
REMARK H PARENT 15 5 8 16 20 36 79 55 47 66
REMARK Flexibility Score: inf
ROOT
ATOM      1  C   UNL     1       8.930  -1.326   5.638  1.00  0.00     0.116 C 
ENDROOT
BRANCH   1   2
ATOM      2  N   UNL     1       9.110  -2.712   5.251  1.00  0.00    -0.356 N 
ATOM      3  C   UNL     1       8.313  -3.705   4.810  1.00  0.00     0.224 C 
ATOM      4  O   UNL     1       8.926  -4.734   4.481  1.00  0.00    -0.275 OA
ATOM      5  H   UNL     1      10.048  -2.998   5.329  1.00  0.00     0.163 HD
BRANCH   3   6
ATOM      6  C   UNL     1       6.776  -3.741   4.726  1.00  0.00     0.098 C 
ATOM      7  C   UNL     1       5.889  -2.515   5.008  1.00  0.00     0.099 C 
ATOM      8  C   UNL     1       4.802  -2.837   6.083  1.00  0.00     0.025 C 
ATOM      9  C   UNL     1       6.309  -4.912   5.667  1.00  0.00     0.025 C 
ATOM     10  C   UNL     1       4.039  -4.079   5.723  1.00  0.00    -0.027 C 
ATOM     11  C   UNL     1       5.496  -3.282   7.413  1.00  0.00     0.009 C 
ATOM     12  C   UNL     1       4.819  -5.160   5.543  1.00  0.00    -0.027 C 
ATOM     13  C   UNL     1       6.471  -4.464   7.135  1.00  0.00     0.009 C 
BRANCH   7  14
ATOM     14  C   UNL     1       5.462  -1.695   3.761  1.00  0.00     0.229 C 
ATOM     15  N   UNL     1       4.589  -1.977   2.756  1.00  0.00    -0.317 N 
ATOM     16  H   UNL     1       4.547  -1.268   2.074  1.00  0.00     0.170 HD
ATOM     17  O   UNL     1       5.947  -0.549   3.682  1.00  0.00    -0.274 OA
BRANCH  15  18
ATOM     18  C   UNL     1       3.752  -3.034   2.483  1.00  0.00     0.110 A 
ATOM     19  C   UNL     1       2.505  -3.031   1.843  1.00  0.00     0.098 A 
ATOM     20  C   UNL     1       1.822  -4.214   2.260  1.00  0.00    -0.017 A 
ATOM     21  S   UNL     1       4.282  -4.652   2.598  1.00  0.00    -0.122 S 
ATOM     22  C   UNL     1       2.693  -5.116   2.808  1.00  0.00     0.011 A 
ATOM     23  C   UNL     1       0.452  -4.785   2.250  1.00  0.00     0.038 C 
ATOM     24  C   UNL     1       2.078  -6.326   3.385  1.00  0.00     0.047 C 
ATOM     25  C   UNL     1       0.571  -5.942   3.301  1.00  0.00     0.010 C 
BRANCH  19  26
ATOM     26  C   UNL     1       2.044  -1.942   1.001  1.00  0.00     0.341 C 
ATOM     27  O   UNL     1       2.832  -1.163   0.469  1.00  0.00    -0.246 OA
BRANCH  26  28
ATOM     28  O   UNL     1       0.698  -1.935   0.796  1.00  0.00    -0.462 OA
BRANCH  28  29
ATOM     29  C   UNL     1       0.224  -1.138  -0.304  1.00  0.00     0.230 C 
ATOM     30  C   UNL     1       0.445   0.359  -0.150  1.00  0.00     0.049 C 
ENDBRANCH  28  29
ENDBRANCH  26  28
ENDBRANCH  19  26
ENDBRANCH  15  18
ENDBRANCH   7  14
ENDBRANCH   3   6
ENDBRANCH   1   2
BRANCH   1  31
ATOM     31  C   UNL     1       8.521  -1.152   7.099  1.00  0.00     0.023 C 
BRANCH  31  32
ATOM     32  C   UNL     1       9.570  -1.464   8.170  1.00  0.00     0.023 C 
BRANCH  32  33
ATOM     33  C   UNL     1      10.717  -0.467   8.259  1.00  0.00     0.116 C 
BRANCH  33  34
ATOM     34  N   UNL     1      10.262   0.894   8.533  1.00  0.00    -0.352 N 
ATOM     35  C   UNL     1      10.920   2.078   8.261  1.00  0.00     0.251 C 
ATOM     36  H   UNL     1       9.380   0.978   8.962  1.00  0.00     0.163 HD
ATOM     37  O   UNL     1      10.649   3.099   8.883  1.00  0.00    -0.269 OA
BRANCH  35  38
ATOM     38  C   UNL     1      11.945   2.082   7.202  1.00  0.00     0.039 A 
ATOM     39  C   UNL     1      13.189   2.678   7.394  1.00  0.00     0.014 A 
ATOM     40  C   UNL     1      11.647   1.417   6.013  1.00  0.00     0.014 A 
ATOM     41  C   UNL     1      14.167   2.507   6.415  1.00  0.00     0.010 A 
ATOM     42  C   UNL     1      12.644   1.147   5.104  1.00  0.00     0.010 A 
ATOM     43  C   UNL     1      13.901   1.710   5.286  1.00  0.00    -0.014 A 
BRANCH  43  44
ATOM     44  C   UNL     1      14.982   1.338   4.375  1.00  0.00     0.031 A 
ATOM     45  C   UNL     1      16.148   0.702   5.045  1.00  0.00     0.074 A 
ATOM     46  C   UNL     1      14.898   1.367   3.027  1.00  0.00     0.049 A 
ATOM     47  N   UNL     1      17.290   1.244   5.303  1.00  0.00    -0.248 NA
ATOM     48  C   UNL     1      15.974  -0.624   5.657  1.00  0.00     0.031 C 
ATOM     49  C   UNL     1      13.732   1.668   2.192  1.00  0.00     0.029 A 
ATOM     50  N   UNL     1      15.848   1.041   2.106  1.00  0.00    -0.354 N 
ATOM     51  C   UNL     1      18.073   0.245   5.875  1.00  0.00     0.074 A 
ATOM     52  C   UNL     1      17.151  -0.786   6.267  1.00  0.00     0.031 C 
ATOM     53  C   UNL     1      13.983   1.308   0.912  1.00  0.00     0.029 A 
ATOM     54  C   UNL     1      15.377   0.916   0.801  1.00  0.00     0.049 A 
ATOM     55  H   UNL     1      16.793   0.905   2.344  1.00  0.00     0.167 HD
ATOM     56  C   UNL     1      19.431   0.262   5.743  1.00  0.00     0.034 A 
ATOM     57  C   UNL     1      16.078   0.520  -0.296  1.00  0.00     0.034 A 
ATOM     58  C   UNL     1      19.877   1.557   5.266  1.00  0.00     0.049 A 
ATOM     59  C   UNL     1      17.507   0.790  -0.001  1.00  0.00     0.074 A 
ATOM     60  C   UNL     1      19.758   2.854   5.729  1.00  0.00     0.029 A 
ATOM     61  N   UNL     1      20.201   1.674   3.931  1.00  0.00    -0.354 N 
ATOM     62  N   UNL     1      17.984   1.993   0.172  1.00  0.00    -0.248 NA
ATOM     63  C   UNL     1      18.299  -0.278   0.589  1.00  0.00     0.031 C 
ATOM     64  C   UNL     1      19.498   3.635   4.562  1.00  0.00     0.029 A 
ATOM     65  C   UNL     1      19.573   2.796   3.448  1.00  0.00     0.049 A 
ATOM     66  H   UNL     1      20.779   1.064   3.417  1.00  0.00     0.167 HD
ATOM     67  C   UNL     1      18.854   1.882   1.246  1.00  0.00     0.074 A 
ATOM     68  C   UNL     1      19.085   0.445   1.393  1.00  0.00     0.031 C 
ATOM     69  C   UNL     1      19.082   2.935   2.087  1.00  0.00     0.034 A 
BRANCH  56  70
ATOM     70  C   UNL     1      20.326  -0.960   5.662  1.00  0.00     0.023 A 
ATOM     71  C   UNL     1      21.698  -0.729   5.436  1.00  0.00     0.031 A 
ATOM     72  C   UNL     1      19.903  -2.299   5.506  1.00  0.00     0.131 A 
ATOM     73  C   UNL     1      22.537  -1.744   4.946  1.00  0.00     0.055 A 
ATOM     74  C   UNL     1      20.758  -3.323   5.083  1.00  0.00     0.041 A 
ATOM     75  F   UNL     1      18.635  -2.687   5.668  1.00  0.00    -0.206 F 
ATOM     76  C   UNL     1      22.074  -3.042   4.762  1.00  0.00     0.022 A 
BRANCH  73  77
ATOM     77  S   UNL     1      24.192  -1.284   4.373  1.00  0.00     0.124 S 
ATOM     78  O   UNL     1      23.881  -0.243   3.399  1.00  0.00    -0.237 OA
ATOM     79  O   UNL     1      24.825  -0.842   5.611  1.00  0.00    -0.237 OA
ATOM     80  O   UNL     1      24.715  -2.528   3.815  1.00  0.00    -0.744 OA
ENDBRANCH  73  77
ENDBRANCH  56  70
BRANCH  57  81
ATOM     81  C   UNL     1      15.616  -0.355  -1.411  1.00  0.00     0.023 A 
ATOM     82  C   UNL     1      16.283  -0.444  -2.654  1.00  0.00     0.031 A 
ATOM     83  C   UNL     1      14.626  -1.331  -1.157  1.00  0.00     0.131 A 
ATOM     84  C   UNL     1      15.957  -1.475  -3.570  1.00  0.00     0.055 A 
ATOM     85  C   UNL     1      14.310  -2.347  -2.062  1.00  0.00     0.041 A 
ATOM     86  F   UNL     1      13.991  -1.383   0.025  1.00  0.00    -0.206 F 
ATOM     87  C   UNL     1      14.983  -2.430  -3.269  1.00  0.00     0.022 A 
BRANCH  84  88
ATOM     88  S   UNL     1      16.865  -1.650  -5.144  1.00  0.00     0.124 S 
ATOM     89  O   UNL     1      16.427  -0.475  -5.888  1.00  0.00    -0.237 OA
ATOM     90  O   UNL     1      18.256  -1.661  -4.706  1.00  0.00    -0.237 OA
ATOM     91  O   UNL     1      16.384  -2.926  -5.677  1.00  0.00    -0.744 OA
ENDBRANCH  84  88
ENDBRANCH  57  81
BRANCH  69  92
ATOM     92  C   UNL     1      18.624   4.319   1.662  1.00  0.00     0.023 A 
ATOM     93  C   UNL     1      17.296   4.681   1.335  1.00  0.00     0.031 A 
ATOM     94  C   UNL     1      19.584   5.347   1.708  1.00  0.00     0.131 A 
ATOM     95  C   UNL     1      16.979   6.029   1.064  1.00  0.00     0.055 A 
ATOM     96  C   UNL     1      19.261   6.680   1.464  1.00  0.00     0.041 A 
ATOM     97  F   UNL     1      20.859   5.074   2.031  1.00  0.00    -0.206 F 
ATOM     98  C   UNL     1      17.957   7.026   1.135  1.00  0.00     0.022 A 
BRANCH  95  99
ATOM     99  S   UNL     1      15.287   6.518   0.589  1.00  0.00     0.124 S 
ATOM    100  O   UNL     1      14.923   5.546  -0.435  1.00  0.00    -0.237 OA
ATOM    101  O   UNL     1      14.562   6.418   1.853  1.00  0.00    -0.237 OA
ATOM    102  O   UNL     1      15.455   7.886   0.095  1.00  0.00    -0.744 OA
ENDBRANCH  95  99
ENDBRANCH  69  92
ENDBRANCH  43  44
ENDBRANCH  35  38
ENDBRANCH  33  34
ENDBRANCH  32  33
ENDBRANCH  31  32
ENDBRANCH   1  31
TORSDOF 19
