REMARK SMILES COc1cc(OC)nc(Oc2ccccc2C(=O)NCC(=O)NCCCCNC(=O)c2ccc(-c3c4nc(c(-c5cc(S(=O)(=O)[O-])ccc5F)c5ccc([nH]5)c(-c5cc(S(=O)(=O)[O-])ccc5F)c5nc(c(-c6cc(S(=O)(=O)[O-])ccc6F)c6ccc3[nH]6)C=C5)C=C4)cc2)n1
REMARK SMILES IDX 24 1 23 2 21 3 22 4 20 6 19 7 17 8 18 9 16 11 11 12 12 13
REMARK SMILES IDX 13 14 15 15 14 16 10 17 9 18 3 19 4 20 94 21 5 22 8 23 2 24
REMARK SMILES IDX 1 25 6 26 7 27 25 28 26 29 27 30 28 31 29 32 30 34 31 35
REMARK SMILES IDX 32 36 93 37 33 38 92 39 34 40 35 41 36 42 86 43 37 44 91 45
REMARK SMILES IDX 85 46 87 47 38 48 90 49 84 50 83 51 39 53 71 54 51 55 70 56
REMARK SMILES IDX 52 57 55 58 69 59 88 60 53 61 54 62 68 64 89 65 56 66 40 67
REMARK SMILES IDX 41 68 49 69 42 70 48 71 50 72 47 73 43 74 44 75 45 76 46 77
REMARK SMILES IDX 72 78 73 79 81 80 74 81 80 82 82 83 79 84 75 85 76 86 77 87
REMARK SMILES IDX 78 88 57 89 58 90 66 91 59 92 65 93 67 94 64 95 60 96 61 97
REMARK SMILES IDX 62 98 63 99
REMARK H PARENT 23 5 19 10 28 33 87 52 55 63
REMARK Flexibility Score: inf
ROOT
ATOM      1  C   UNL     1      -1.790  -4.781   5.182  1.00  0.00     0.116 C 
ENDROOT
BRANCH   1   2
ATOM      2  N   UNL     1      -1.963  -3.420   4.737  1.00  0.00    -0.355 N 
ATOM      3  C   UNL     1      -1.015  -2.635   4.155  1.00  0.00     0.239 C 
ATOM      4  O   UNL     1      -1.226  -1.425   4.054  1.00  0.00    -0.273 OA
ATOM      5  H   UNL     1      -2.853  -3.020   4.866  1.00  0.00     0.163 HD
BRANCH   3   6
ATOM      6  C   UNL     1       0.132  -3.309   3.414  1.00  0.00     0.216 C 
BRANCH   6   7
ATOM      7  N   UNL     1       1.062  -4.247   4.013  1.00  0.00    -0.343 N 
ATOM      8  C   UNL     1       1.457  -5.521   3.684  1.00  0.00     0.255 C 
ATOM      9  O   UNL     1       2.522  -5.886   4.197  1.00  0.00    -0.269 OA
ATOM     10  H   UNL     1       1.500  -3.898   4.823  1.00  0.00     0.164 HD
BRANCH   8  11
ATOM     11  C   UNL     1       0.645  -6.554   2.952  1.00  0.00     0.082 A 
ATOM     12  C   UNL     1      -0.174  -6.476   1.813  1.00  0.00     0.143 A 
ATOM     13  C   UNL     1      -0.945  -7.600   1.431  1.00  0.00     0.048 A 
ATOM     14  C   UNL     1      -0.862  -8.818   2.099  1.00  0.00     0.004 A 
ATOM     15  C   UNL     1       0.732  -7.822   3.591  1.00  0.00     0.018 A 
ATOM     16  C   UNL     1      -0.001  -8.937   3.173  1.00  0.00     0.001 A 
BRANCH  12  17
ATOM     17  O   UNL     1      -0.454  -5.421   0.982  1.00  0.00    -0.423 OA
BRANCH  17  18
ATOM     18  C   UNL     1       0.534  -4.564   0.546  1.00  0.00     0.328 A 
ATOM     19  C   UNL     1       0.970  -2.352   0.263  1.00  0.00     0.223 A 
ATOM     20  C   UNL     1       2.319  -2.579   0.392  1.00  0.00     0.137 A 
ATOM     21  N   UNL     1       0.069  -3.334   0.294  1.00  0.00    -0.159 NA
ATOM     22  C   UNL     1       2.698  -3.900   0.537  1.00  0.00     0.223 A 
ATOM     23  N   UNL     1       1.818  -4.907   0.632  1.00  0.00    -0.159 NA
BRANCH  19  24
ATOM     24  O   UNL     1       0.404  -1.114   0.377  1.00  0.00    -0.481 OA
ATOM     25  C   UNL     1       0.962  -0.110  -0.452  1.00  0.00     0.280 C 
ENDBRANCH  19  24
BRANCH  22  26
ATOM     26  O   UNL     1       3.983  -4.332   0.690  1.00  0.00    -0.481 OA
ATOM     27  C   UNL     1       5.013  -3.385   0.463  1.00  0.00     0.280 C 
ENDBRANCH  22  26
ENDBRANCH  17  18
ENDBRANCH  12  17
ENDBRANCH   8  11
ENDBRANCH   6   7
ENDBRANCH   3   6
ENDBRANCH   1   2
BRANCH   1  28
ATOM     28  C   UNL     1      -1.129  -4.784   6.556  1.00  0.00     0.023 C 
BRANCH  28  29
ATOM     29  C   UNL     1      -1.966  -4.056   7.612  1.00  0.00     0.023 C 
BRANCH  29  30
ATOM     30  C   UNL     1      -3.400  -4.556   7.715  1.00  0.00     0.116 C 
BRANCH  30  31
ATOM     31  N   UNL     1      -3.457  -5.981   7.995  1.00  0.00    -0.352 N 
ATOM     32  C   UNL     1      -4.270  -6.642   8.884  1.00  0.00     0.251 C 
ATOM     33  H   UNL     1      -2.834  -6.544   7.482  1.00  0.00     0.163 HD
ATOM     34  O   UNL     1      -4.069  -7.815   9.148  1.00  0.00    -0.269 OA
BRANCH  32  35
ATOM     35  C   UNL     1      -5.362  -5.887   9.532  1.00  0.00     0.039 A 
ATOM     36  C   UNL     1      -5.490  -5.954  10.918  1.00  0.00     0.014 A 
ATOM     37  C   UNL     1      -6.214  -5.079   8.773  1.00  0.00     0.014 A 
ATOM     38  C   UNL     1      -6.446  -5.163  11.553  1.00  0.00     0.010 A 
ATOM     39  C   UNL     1      -7.112  -4.233   9.415  1.00  0.00     0.010 A 
ATOM     40  C   UNL     1      -7.239  -4.269  10.811  1.00  0.00    -0.014 A 
BRANCH  40  41
ATOM     41  C   UNL     1      -8.196  -3.363  11.495  1.00  0.00     0.031 A 
ATOM     42  C   UNL     1      -9.673  -3.490  11.242  1.00  0.00     0.074 A 
ATOM     43  C   UNL     1      -7.723  -2.405  12.317  1.00  0.00     0.049 A 
ATOM     44  N   UNL     1     -10.658  -2.789  11.740  1.00  0.00    -0.248 NA
ATOM     45  C   UNL     1     -10.096  -4.520  10.281  1.00  0.00     0.031 C 
ATOM     46  C   UNL     1      -6.305  -2.155  12.594  1.00  0.00     0.029 A 
ATOM     47  N   UNL     1      -8.376  -1.465  13.073  1.00  0.00    -0.354 N 
ATOM     48  C   UNL     1     -11.815  -3.288  11.152  1.00  0.00     0.074 A 
ATOM     49  C   UNL     1     -11.401  -4.306  10.211  1.00  0.00     0.031 C 
ATOM     50  C   UNL     1      -6.200  -1.155  13.483  1.00  0.00     0.029 A 
ATOM     51  C   UNL     1      -7.534  -0.660  13.805  1.00  0.00     0.049 A 
ATOM     52  H   UNL     1      -9.357  -1.375  13.090  1.00  0.00     0.167 HD
ATOM     53  C   UNL     1     -13.104  -2.943  11.393  1.00  0.00     0.034 A 
ATOM     54  C   UNL     1      -7.805   0.367  14.635  1.00  0.00     0.034 A 
ATOM     55  C   UNL     1     -13.495  -1.929  12.342  1.00  0.00     0.049 A 
ATOM     56  C   UNL     1      -9.247   0.738  14.875  1.00  0.00     0.074 A 
ATOM     57  C   UNL     1     -14.772  -1.544  12.713  1.00  0.00     0.029 A 
ATOM     58  N   UNL     1     -12.617  -1.128  13.062  1.00  0.00    -0.354 N 
ATOM     59  N   UNL     1     -10.334   0.204  14.366  1.00  0.00    -0.248 NA
ATOM     60  C   UNL     1      -9.498   1.839  15.812  1.00  0.00     0.031 C 
ATOM     61  C   UNL     1     -14.667  -0.461  13.592  1.00  0.00     0.029 A 
ATOM     62  C   UNL     1     -13.324  -0.226  13.843  1.00  0.00     0.049 A 
ATOM     63  H   UNL     1     -11.635  -1.192  13.024  1.00  0.00     0.167 HD
ATOM     64  C   UNL     1     -11.399   0.891  14.944  1.00  0.00     0.074 A 
ATOM     65  C   UNL     1     -10.821   1.853  15.860  1.00  0.00     0.031 C 
ATOM     66  C   UNL     1     -12.733   0.744  14.736  1.00  0.00     0.034 A 
BRANCH  53  67
ATOM     67  C   UNL     1     -14.178  -3.648  10.598  1.00  0.00     0.023 A 
ATOM     68  C   UNL     1     -14.388  -5.035  10.700  1.00  0.00     0.031 A 
ATOM     69  C   UNL     1     -15.002  -2.922   9.719  1.00  0.00     0.131 A 
ATOM     70  C   UNL     1     -15.350  -5.660   9.891  1.00  0.00     0.055 A 
ATOM     71  C   UNL     1     -16.011  -3.538   8.976  1.00  0.00     0.041 A 
ATOM     72  F   UNL     1     -14.834  -1.600   9.559  1.00  0.00    -0.206 F 
ATOM     73  C   UNL     1     -16.181  -4.917   9.050  1.00  0.00     0.022 A 
BRANCH  70  74
ATOM     74  S   UNL     1     -15.408  -7.472   9.854  1.00  0.00     0.124 S 
ATOM     75  O   UNL     1     -14.056  -7.802   9.408  1.00  0.00    -0.237 OA
ATOM     76  O   UNL     1     -15.723  -7.806  11.238  1.00  0.00    -0.237 OA
ATOM     77  O   UNL     1     -16.463  -7.762   8.885  1.00  0.00    -0.744 OA
ENDBRANCH  70  74
ENDBRANCH  53  67
BRANCH  54  78
ATOM     78  C   UNL     1      -6.701   1.128  15.289  1.00  0.00     0.023 A 
ATOM     79  C   UNL     1      -6.567   1.161  16.686  1.00  0.00     0.031 A 
ATOM     80  C   UNL     1      -5.793   1.883  14.524  1.00  0.00     0.131 A 
ATOM     81  C   UNL     1      -5.588   1.976  17.277  1.00  0.00     0.055 A 
ATOM     82  C   UNL     1      -4.781   2.642  15.114  1.00  0.00     0.041 A 
ATOM     83  F   UNL     1      -5.872   1.887  13.184  1.00  0.00    -0.206 F 
ATOM     84  C   UNL     1      -4.685   2.705  16.500  1.00  0.00     0.022 A 
BRANCH  81  85
ATOM     85  S   UNL     1      -5.581   2.155  19.083  1.00  0.00     0.124 S 
ATOM     86  O   UNL     1      -6.934   2.634  19.339  1.00  0.00    -0.237 OA
ATOM     87  O   UNL     1      -5.288   0.794  19.520  1.00  0.00    -0.237 OA
ATOM     88  O   UNL     1      -4.517   3.127  19.324  1.00  0.00    -0.744 OA
ENDBRANCH  81  85
ENDBRANCH  54  78
BRANCH  66  89
ATOM     89  C   UNL     1     -13.651   1.629  15.547  1.00  0.00     0.023 A 
ATOM     90  C   UNL     1     -13.647   3.028  15.400  1.00  0.00     0.031 A 
ATOM     91  C   UNL     1     -14.515   1.069  16.504  1.00  0.00     0.131 A 
ATOM     92  C   UNL     1     -14.431   3.822  16.249  1.00  0.00     0.055 A 
ATOM     93  C   UNL     1     -15.350   1.861  17.294  1.00  0.00     0.041 A 
ATOM     94  F   UNL     1     -14.560  -0.259  16.692  1.00  0.00    -0.206 F 
ATOM     95  C   UNL     1     -15.297   3.248  17.182  1.00  0.00     0.022 A 
BRANCH  92  96
ATOM     96  S   UNL     1     -14.207   5.622  16.205  1.00  0.00     0.124 S 
ATOM     97  O   UNL     1     -12.780   5.756  16.481  1.00  0.00    -0.237 OA
ATOM     98  O   UNL     1     -14.628   5.956  14.849  1.00  0.00    -0.237 OA
ATOM     99  O   UNL     1     -15.092   6.103  17.265  1.00  0.00    -0.744 OA
ENDBRANCH  92  96
ENDBRANCH  66  89
ENDBRANCH  40  41
ENDBRANCH  32  35
ENDBRANCH  30  31
ENDBRANCH  29  30
ENDBRANCH  28  29
ENDBRANCH   1  28
TORSDOF 20
