REMARK SMILES O=C(/C=C/c1ccc(NC(=O)CCc2nc(-c3cc(Br)cs3)no2)cc1)NCCCCNC(=O)c1ccc(-c2c3nc(c(-c4cc(S(=O)(=O)[O-])ccc4F)c4ccc([nH]4)c(-c4cc(S(=O)(=O)[O-])ccc4F)c4nc(c(-c5cc(S(=O)(=O)[O-])ccc5F)c5ccc2[nH]5)C=C4)C=C3)cc1
REMARK SMILES IDX 28 1 27 2 1 3 2 4 3 6 4 7 5 8 6 9 26 10 7 11 25 12 8 13 9 14
REMARK SMILES IDX 10 15 11 17 12 18 13 19 14 20 15 21 24 22 16 23 23 24 17 25
REMARK SMILES IDX 18 26 22 27 19 28 21 29 20 30 29 31 30 32 31 33 32 34 33 35
REMARK SMILES IDX 34 37 35 38 36 39 97 40 37 41 96 42 38 43 39 44 40 45 90 46
REMARK SMILES IDX 41 47 95 48 89 49 91 50 42 51 94 52 88 53 87 54 43 56 75 57
REMARK SMILES IDX 55 58 74 59 56 60 59 61 73 62 92 63 57 64 58 65 72 67 93 68
REMARK SMILES IDX 60 69 44 70 45 71 53 72 46 73 52 74 54 75 51 76 47 77 48 78
REMARK SMILES IDX 49 79 50 80 76 81 77 82 85 83 78 84 84 85 86 86 83 87 79 88
REMARK SMILES IDX 80 89 81 90 82 91 61 92 62 93 70 94 63 95 69 96 71 97 68 98
REMARK SMILES IDX 64 99 65 100 66 101 67 102
REMARK H PARENT 27 5 9 16 32 36 91 55 59 66
REMARK Flexibility Score: inf
ROOT
ATOM      1  C   UNL     1       2.506  -1.238  -1.638  1.00  0.00     0.116 C 
ENDROOT
BRANCH   1   2
ATOM      2  N   UNL     1       3.119  -0.136  -0.923  1.00  0.00    -0.353 N 
ATOM      3  O   UNL     1       1.279   1.236  -1.030  1.00  0.00    -0.270 OA
ATOM      4  C   UNL     1       2.434   1.029  -0.676  1.00  0.00     0.243 C 
ATOM      5  H   UNL     1       4.047  -0.224  -0.608  1.00  0.00     0.163 HD
BRANCH   4   6
ATOM      6  C   UNL     1       3.128   2.036   0.166  1.00  0.00     0.072 C 
ATOM      7  C   UNL     1       4.456   2.151   0.300  1.00  0.00     0.014 C 
BRANCH   7   8
ATOM      8  C   UNL     1       5.126   3.036   1.264  1.00  0.00    -0.025 A 
ATOM      9  C   UNL     1       6.433   3.447   0.992  1.00  0.00     0.010 A 
ATOM     10  C   UNL     1       4.590   3.296   2.533  1.00  0.00     0.010 A 
ATOM     11  C   UNL     1       7.237   3.959   2.010  1.00  0.00     0.027 A 
ATOM     12  C   UNL     1       5.402   3.800   3.554  1.00  0.00     0.027 A 
ATOM     13  C   UNL     1       6.759   4.009   3.316  1.00  0.00     0.041 A 
BRANCH  13  14
ATOM     14  N   UNL     1       7.589   4.167   4.433  1.00  0.00    -0.326 N 
ATOM     15  C   UNL     1       8.812   3.617   4.697  1.00  0.00     0.224 C 
ATOM     16  H   UNL     1       7.238   4.763   5.133  1.00  0.00     0.169 HD
ATOM     17  O   UNL     1       9.321   3.852   5.799  1.00  0.00    -0.275 OA
BRANCH  15  18
ATOM     18  C   UNL     1       9.500   2.650   3.747  1.00  0.00     0.110 C 
BRANCH  18  19
ATOM     19  C   UNL     1       9.189   1.186   4.044  1.00  0.00     0.110 C 
BRANCH  19  20
ATOM     20  C   UNL     1       7.796   0.771   3.739  1.00  0.00     0.227 A 
ATOM     21  N   UNL     1       6.742   0.724   4.523  1.00  0.00    -0.190 NA
ATOM     22  O   UNL     1       7.551   0.303   2.480  1.00  0.00    -0.339 OA
ATOM     23  C   UNL     1       5.771   0.223   3.683  1.00  0.00     0.212 A 
ATOM     24  N   UNL     1       6.206  -0.068   2.447  1.00  0.00    -0.056 NA
BRANCH  23  25
ATOM     25  C   UNL     1       4.337   0.103   4.102  1.00  0.00     0.076 A 
ATOM     26  C   UNL     1       3.883   0.392   5.374  1.00  0.00     0.039 A 
ATOM     27  S   UNL     1       3.059  -0.354   3.059  1.00  0.00    -0.139 S 
ATOM     28  C   UNL     1       2.469   0.307   5.450  1.00  0.00     0.029 A 
ATOM     29  C   UNL     1       1.880  -0.051   4.264  1.00  0.00     0.081 A 
ATOM     30  Br  UNL     1       1.529   0.686   7.040  1.00  0.00    -0.050 Br
ENDBRANCH  23  25
ENDBRANCH  19  20
ENDBRANCH  18  19
ENDBRANCH  15  18
ENDBRANCH  13  14
ENDBRANCH   7   8
ENDBRANCH   4   6
ENDBRANCH   1   2
BRANCH   1  31
ATOM     31  C   UNL     1       2.577  -1.072  -3.156  1.00  0.00     0.023 C 
BRANCH  31  32
ATOM     32  C   UNL     1       3.991  -1.146  -3.738  1.00  0.00     0.023 C 
BRANCH  32  33
ATOM     33  C   UNL     1       4.677  -2.505  -3.613  1.00  0.00     0.116 C 
BRANCH  33  34
ATOM     34  N   UNL     1       4.036  -3.538  -4.413  1.00  0.00    -0.352 N 
ATOM     35  C   UNL     1       4.613  -4.491  -5.222  1.00  0.00     0.251 C 
ATOM     36  H   UNL     1       3.053  -3.559  -4.369  1.00  0.00     0.163 HD
ATOM     37  O   UNL     1       3.902  -5.196  -5.933  1.00  0.00    -0.269 OA
BRANCH  35  38
ATOM     38  C   UNL     1       6.086  -4.638  -5.262  1.00  0.00     0.039 A 
ATOM     39  C   UNL     1       6.722  -4.737  -6.504  1.00  0.00     0.014 A 
ATOM     40  C   UNL     1       6.841  -4.673  -4.087  1.00  0.00     0.014 A 
ATOM     41  C   UNL     1       8.117  -4.795  -6.569  1.00  0.00     0.010 A 
ATOM     42  C   UNL     1       8.234  -4.671  -4.155  1.00  0.00     0.010 A 
ATOM     43  C   UNL     1       8.887  -4.725  -5.396  1.00  0.00    -0.014 A 
BRANCH  43  44
ATOM     44  C   UNL     1      10.374  -4.696  -5.447  1.00  0.00     0.031 A 
ATOM     45  C   UNL     1      11.174  -5.825  -4.856  1.00  0.00     0.074 A 
ATOM     46  C   UNL     1      11.004  -3.620  -5.959  1.00  0.00     0.049 A 
ATOM     47  N   UNL     1      12.470  -5.941  -4.720  1.00  0.00    -0.248 NA
ATOM     48  C   UNL     1      10.408  -6.961  -4.321  1.00  0.00     0.031 C 
ATOM     49  C   UNL     1      10.342  -2.443  -6.527  1.00  0.00     0.029 A 
ATOM     50  N   UNL     1      12.342  -3.333  -6.073  1.00  0.00    -0.354 N 
ATOM     51  C   UNL     1      12.677  -7.152  -4.067  1.00  0.00     0.074 A 
ATOM     52  C   UNL     1      11.367  -7.705  -3.790  1.00  0.00     0.031 C 
ATOM     53  C   UNL     1      11.275  -1.573  -6.945  1.00  0.00     0.029 A 
ATOM     54  C   UNL     1      12.599  -2.105  -6.638  1.00  0.00     0.049 A 
ATOM     55  H   UNL     1      13.052  -3.948  -5.778  1.00  0.00     0.167 HD
ATOM     56  C   UNL     1      13.850  -7.754  -3.746  1.00  0.00     0.034 A 
ATOM     57  C   UNL     1      13.767  -1.474  -6.872  1.00  0.00     0.034 A 
ATOM     58  C   UNL     1      15.148  -7.201  -4.046  1.00  0.00     0.049 A 
ATOM     59  C   UNL     1      15.056  -2.158  -6.496  1.00  0.00     0.074 A 
ATOM     60  C   UNL     1      16.396  -7.758  -3.824  1.00  0.00     0.029 A 
ATOM     61  N   UNL     1      15.369  -5.958  -4.627  1.00  0.00    -0.354 N 
ATOM     62  N   UNL     1      15.236  -3.325  -5.923  1.00  0.00    -0.248 NA
ATOM     63  C   UNL     1      16.300  -1.442  -6.809  1.00  0.00     0.031 C 
ATOM     64  C   UNL     1      17.369  -6.830  -4.214  1.00  0.00     0.029 A 
ATOM     65  C   UNL     1      16.730  -5.720  -4.743  1.00  0.00     0.049 A 
ATOM     66  H   UNL     1      14.661  -5.337  -4.915  1.00  0.00     0.167 HD
ATOM     67  C   UNL     1      16.614  -3.495  -5.834  1.00  0.00     0.074 A 
ATOM     68  C   UNL     1      17.217  -2.316  -6.423  1.00  0.00     0.031 C 
ATOM     69  C   UNL     1      17.319  -4.535  -5.320  1.00  0.00     0.034 A 
BRANCH  56  70
ATOM     70  C   UNL     1      13.773  -9.069  -3.007  1.00  0.00     0.023 A 
ATOM     71  C   UNL     1      13.191 -10.210  -3.587  1.00  0.00     0.031 A 
ATOM     72  C   UNL     1      14.261  -9.177  -1.693  1.00  0.00     0.131 A 
ATOM     73  C   UNL     1      13.039 -11.381  -2.830  1.00  0.00     0.055 A 
ATOM     74  C   UNL     1      14.181 -10.370  -0.972  1.00  0.00     0.041 A 
ATOM     75  F   UNL     1      14.811  -8.117  -1.079  1.00  0.00    -0.206 F 
ATOM     76  C   UNL     1      13.552 -11.477  -1.535  1.00  0.00     0.022 A 
BRANCH  73  77
ATOM     77  S   UNL     1      12.032 -12.727  -3.511  1.00  0.00     0.124 S 
ATOM     78  O   UNL     1      10.746 -12.061  -3.708  1.00  0.00    -0.237 OA
ATOM     79  O   UNL     1      12.760 -13.083  -4.723  1.00  0.00    -0.237 OA
ATOM     80  O   UNL     1      12.047 -13.736  -2.453  1.00  0.00    -0.744 OA
ENDBRANCH  73  77
ENDBRANCH  56  70
BRANCH  57  81
ATOM     81  C   UNL     1      13.781  -0.116  -7.486  1.00  0.00     0.023 A 
ATOM     82  C   UNL     1      14.322   0.091  -8.764  1.00  0.00     0.031 A 
ATOM     83  C   UNL     1      13.291   1.001  -6.786  1.00  0.00     0.131 A 
ATOM     84  C   UNL     1      14.403   1.391  -9.287  1.00  0.00     0.055 A 
ATOM     85  C   UNL     1      13.330   2.286  -7.331  1.00  0.00     0.041 A 
ATOM     86  F   UNL     1      12.758   0.856  -5.563  1.00  0.00    -0.206 F 
ATOM     87  C   UNL     1      13.900   2.488  -8.584  1.00  0.00     0.022 A 
BRANCH  84  88
ATOM     88  S   UNL     1      15.248   1.637 -10.873  1.00  0.00     0.124 S 
ATOM     89  O   UNL     1      16.576   1.106 -10.588  1.00  0.00    -0.237 OA
ATOM     90  O   UNL     1      14.422   0.849 -11.781  1.00  0.00    -0.237 OA
ATOM     91  O   UNL     1      15.183   3.084 -11.071  1.00  0.00    -0.744 OA
ENDBRANCH  84  88
ENDBRANCH  57  81
BRANCH  69  92
ATOM     92  C   UNL     1      18.822  -4.455  -5.415  1.00  0.00     0.023 A 
ATOM     93  C   UNL     1      19.561  -3.517  -4.673  1.00  0.00     0.031 A 
ATOM     94  C   UNL     1      19.521  -5.320  -6.275  1.00  0.00     0.131 A 
ATOM     95  C   UNL     1      20.951  -3.431  -4.844  1.00  0.00     0.055 A 
ATOM     96  C   UNL     1      20.910  -5.266  -6.400  1.00  0.00     0.041 A 
ATOM     97  F   UNL     1      18.864  -6.233  -7.008  1.00  0.00    -0.206 F 
ATOM     98  C   UNL     1      21.632  -4.310  -5.691  1.00  0.00     0.022 A 
BRANCH  95  99
ATOM     99  S   UNL     1      21.852  -2.099  -4.005  1.00  0.00     0.124 S 
ATOM    100  O   UNL     1      21.201  -0.908  -4.541  1.00  0.00    -0.237 OA
ATOM    101  O   UNL     1      21.595  -2.386  -2.598  1.00  0.00    -0.237 OA
ATOM    102  O   UNL     1      23.235  -2.296  -4.434  1.00  0.00    -0.744 OA
ENDBRANCH  95  99
ENDBRANCH  69  92
ENDBRANCH  43  44
ENDBRANCH  35  38
ENDBRANCH  33  34
ENDBRANCH  32  33
ENDBRANCH  31  32
ENDBRANCH   1  31
TORSDOF 20
