REMARK SMILES CC[NH2+][C@@]1(C(=O)NCCCCNC(=O)c2ccc(-c3c4nc(c(-c5cc(S(=O)(=O)[O-])ccc5F)c5ccc([nH]5)c(-c5cc(S(=O)(=O)[O-])ccc5F)c5nc(c(-c6cc(S(=O)(=O)[O-])ccc6F)c6ccc3[nH]6)C=C5)C=C4)cc2)CC[C@@H]([N@@H+](C)Cc2nccn2C)C1
REMARK SMILES IDX 9 1 8 2 7 3 5 4 6 5 4 7 78 8 90 9 79 10 80 11 3 12 2 15 1 16
REMARK SMILES IDX 81 17 82 18 83 20 84 21 85 22 88 23 86 24 87 25 89 26 10 27
REMARK SMILES IDX 11 28 12 29 13 30 14 32 15 33 16 34 77 35 17 36 76 37 18 38
REMARK SMILES IDX 19 39 20 40 70 41 21 42 75 43 69 44 71 45 22 46 74 47 68 48
REMARK SMILES IDX 67 49 23 51 55 52 35 53 54 54 36 55 39 56 53 57 72 58 37 59
REMARK SMILES IDX 38 60 52 62 73 63 40 64 24 65 25 66 33 67 26 68 32 69 34 70
REMARK SMILES IDX 31 71 27 72 28 73 29 74 30 75 56 76 57 77 65 78 58 79 64 80
REMARK SMILES IDX 66 81 63 82 59 83 60 84 61 85 62 86 41 87 42 88 50 89 43 90
REMARK SMILES IDX 49 91 51 92 48 93 44 94 45 95 46 96 47 97
REMARK H PARENT 7 6 3 13 3 14 81 19 12 31 71 50 39 61
REMARK Flexibility Score: inf
ROOT
ATOM      1  C   UNL     1      -2.199  -2.402  -6.571  1.00  0.00     0.023 C 
ENDROOT
BRANCH   1   2
ATOM      2  C   UNL     1      -1.966  -1.186  -5.680  1.00  0.00     0.116 C 
BRANCH   2   3
ATOM      3  N   UNL     1      -1.941  -1.527  -4.282  1.00  0.00    -0.351 N 
ATOM      4  C   UNL     1      -0.971  -1.467  -3.331  1.00  0.00     0.281 C 
ATOM      5  O   UNL     1      -1.329  -1.917  -2.233  1.00  0.00    -0.268 OA
ATOM      6  H   UNL     1      -2.799  -1.874  -3.947  1.00  0.00     0.163 HD
BRANCH   4   7
ATOM      7  C   UNL     1       0.502  -0.919  -3.577  1.00  0.00     0.181 C 
ATOM      8  C   UNL     1       0.613   0.420  -4.329  1.00  0.00     0.085 C 
ATOM      9  C   UNL     1       1.326  -1.931  -4.403  1.00  0.00     0.144 C 
ATOM     10  C   UNL     1       1.168   0.155  -5.728  1.00  0.00     0.072 C 
ATOM     11  C   UNL     1       1.561  -1.325  -5.795  1.00  0.00     0.191 C 
BRANCH   7  12
ATOM     12  N   UNL     1       1.189  -0.822  -2.247  1.00  0.00    -0.334 N 
ATOM     13  H   UNL     1       1.114  -1.730  -1.787  1.00  0.00     0.347 HD
ATOM     14  H   UNL     1       2.150  -0.543  -2.447  1.00  0.00     0.347 HD
BRANCH  12  15
ATOM     15  C   UNL     1       0.655   0.191  -1.337  1.00  0.00     0.257 C 
ATOM     16  C   UNL     1       1.192  -0.074   0.063  1.00  0.00     0.071 C 
ENDBRANCH  12  15
ENDBRANCH   7  12
BRANCH  11  17
ATOM     17  N   UNL     1       2.841  -1.672  -6.437  1.00  0.00    -0.328 N 
ATOM     18  C   UNL     1       2.837  -1.361  -7.863  1.00  0.00     0.333 C 
ATOM     19  H   UNL     1       2.882  -2.685  -6.329  1.00  0.00     0.348 HD
BRANCH  17  20
ATOM     20  C   UNL     1       4.087  -1.269  -5.750  1.00  0.00     0.338 C 
BRANCH  20  21
ATOM     21  C   UNL     1       4.393   0.203  -5.689  1.00  0.00     0.164 A 
ATOM     22  N   UNL     1       4.006   1.019  -4.720  1.00  0.00    -0.236 NA
ATOM     23  N   UNL     1       5.109   0.909  -6.631  1.00  0.00    -0.333 N 
ATOM     24  C   UNL     1       4.327   2.284  -5.134  1.00  0.00     0.131 A 
ATOM     25  C   UNL     1       5.002   2.241  -6.327  1.00  0.00     0.107 A 
ATOM     26  C   UNL     1       5.872   0.408  -7.746  1.00  0.00     0.151 C 
ENDBRANCH  20  21
ENDBRANCH  17  20
ENDBRANCH  11  17
ENDBRANCH   4   7
ENDBRANCH   2   3
ENDBRANCH   1   2
BRANCH   1  27
ATOM     27  C   UNL     1      -3.645  -2.561  -7.030  1.00  0.00     0.023 C 
BRANCH  27  28
ATOM     28  C   UNL     1      -4.214  -1.376  -7.805  1.00  0.00     0.116 C 
BRANCH  28  29
ATOM     29  N   UNL     1      -3.434  -0.995  -8.976  1.00  0.00    -0.352 N 
ATOM     30  C   UNL     1      -3.910  -0.476 -10.161  1.00  0.00     0.251 C 
ATOM     31  H   UNL     1      -2.460  -1.122  -8.914  1.00  0.00     0.163 HD
ATOM     32  O   UNL     1      -3.154  -0.252 -11.101  1.00  0.00    -0.269 OA
BRANCH  30  33
ATOM     33  C   UNL     1      -5.364  -0.252 -10.280  1.00  0.00     0.039 A 
ATOM     34  C   UNL     1      -6.079  -0.945 -11.257  1.00  0.00     0.014 A 
ATOM     35  C   UNL     1      -6.024   0.520  -9.319  1.00  0.00     0.014 A 
ATOM     36  C   UNL     1      -7.474  -0.938 -11.215  1.00  0.00     0.010 A 
ATOM     37  C   UNL     1      -7.410   0.459  -9.234  1.00  0.00     0.010 A 
ATOM     38  C   UNL     1      -8.148  -0.281 -10.172  1.00  0.00    -0.014 A 
BRANCH  38  39
ATOM     39  C   UNL     1      -9.626  -0.358 -10.034  1.00  0.00     0.031 A 
ATOM     40  C   UNL     1     -10.448   0.898 -10.125  1.00  0.00     0.074 A 
ATOM     41  C   UNL     1     -10.214  -1.536  -9.742  1.00  0.00     0.049 A 
ATOM     42  N   UNL     1     -11.729   1.067  -9.925  1.00  0.00    -0.248 NA
ATOM     43  C   UNL     1      -9.718   2.135 -10.441  1.00  0.00     0.031 C 
ATOM     44  C   UNL     1      -9.516  -2.813  -9.569  1.00  0.00     0.029 A 
ATOM     45  N   UNL     1     -11.532  -1.850  -9.524  1.00  0.00    -0.354 N 
ATOM     46  C   UNL     1     -11.956   2.431 -10.070  1.00  0.00     0.074 A 
ATOM     47  C   UNL     1     -10.667   3.047 -10.306  1.00  0.00     0.031 C 
ATOM     48  C   UNL     1     -10.415  -3.773  -9.296  1.00  0.00     0.029 A 
ATOM     49  C   UNL     1     -11.746  -3.178  -9.233  1.00  0.00     0.049 A 
ATOM     50  H   UNL     1     -12.258  -1.186  -9.572  1.00  0.00     0.167 HD
ATOM     51  C   UNL     1     -13.133   3.104 -10.039  1.00  0.00     0.034 A 
ATOM     52  C   UNL     1     -12.884  -3.838  -8.941  1.00  0.00     0.034 A 
ATOM     53  C   UNL     1     -14.410   2.471  -9.826  1.00  0.00     0.049 A 
ATOM     54  C   UNL     1     -14.183  -3.072  -8.922  1.00  0.00     0.074 A 
ATOM     55  C   UNL     1     -15.670   3.043  -9.832  1.00  0.00     0.029 A 
ATOM     56  N   UNL     1     -14.591   1.117  -9.569  1.00  0.00    -0.354 N 
ATOM     57  N   UNL     1     -14.388  -1.789  -9.114  1.00  0.00    -0.248 NA
ATOM     58  C   UNL     1     -15.404  -3.845  -8.660  1.00  0.00     0.031 C 
ATOM     59  C   UNL     1     -16.606   2.048  -9.527  1.00  0.00     0.029 A 
ATOM     60  C   UNL     1     -15.938   0.841  -9.395  1.00  0.00     0.049 A 
ATOM     61  H   UNL     1     -13.868   0.452  -9.518  1.00  0.00     0.167 HD
ATOM     62  C   UNL     1     -15.765  -1.609  -9.023  1.00  0.00     0.074 A 
ATOM     63  C   UNL     1     -16.340  -2.915  -8.774  1.00  0.00     0.031 C 
ATOM     64  C   UNL     1     -16.491  -0.468  -9.140  1.00  0.00     0.034 A 
BRANCH  51  65
ATOM     65  C   UNL     1     -13.073   4.602 -10.222  1.00  0.00     0.023 A 
ATOM     66  C   UNL     1     -12.590   5.178 -11.411  1.00  0.00     0.031 A 
ATOM     67  C   UNL     1     -13.455   5.466  -9.181  1.00  0.00     0.131 A 
ATOM     68  C   UNL     1     -12.413   6.566 -11.496  1.00  0.00     0.055 A 
ATOM     69  C   UNL     1     -13.359   6.854  -9.306  1.00  0.00     0.041 A 
ATOM     70  F   UNL     1     -13.906   4.976  -8.016  1.00  0.00    -0.206 F 
ATOM     71  C   UNL     1     -12.818   7.411 -10.461  1.00  0.00     0.022 A 
BRANCH  68  72
ATOM     72  S   UNL     1     -11.499   7.234 -12.913  1.00  0.00     0.124 S 
ATOM     73  O   UNL     1     -10.207   6.567 -12.770  1.00  0.00    -0.237 OA
ATOM     74  O   UNL     1     -12.315   6.809 -14.044  1.00  0.00    -0.237 OA
ATOM     75  O   UNL     1     -11.480   8.673 -12.662  1.00  0.00    -0.744 OA
ENDBRANCH  68  72
ENDBRANCH  51  65
BRANCH  52  76
ATOM     76  C   UNL     1     -12.859  -5.298  -8.641  1.00  0.00     0.023 A 
ATOM     77  C   UNL     1     -13.472  -6.222  -9.502  1.00  0.00     0.031 A 
ATOM     78  C   UNL     1     -12.256  -5.786  -7.469  1.00  0.00     0.131 A 
ATOM     79  C   UNL     1     -13.510  -7.582  -9.155  1.00  0.00     0.055 A 
ATOM     80  C   UNL     1     -12.256  -7.146  -7.151  1.00  0.00     0.041 A 
ATOM     81  F   UNL     1     -11.648  -4.945  -6.617  1.00  0.00    -0.206 F 
ATOM     82  C   UNL     1     -12.898  -8.051  -7.991  1.00  0.00     0.022 A 
BRANCH  79  83
ATOM     83  S   UNL     1     -14.442  -8.722 -10.215  1.00  0.00     0.124 S 
ATOM     84  O   UNL     1     -15.775  -8.131 -10.189  1.00  0.00    -0.237 OA
ATOM     85  O   UNL     1     -13.719  -8.618 -11.479  1.00  0.00    -0.237 OA
ATOM     86  O   UNL     1     -14.314 -10.006  -9.530  1.00  0.00    -0.744 OA
ENDBRANCH  79  83
ENDBRANCH  52  76
BRANCH  64  87
ATOM     87  C   UNL     1     -17.990  -0.600  -9.046  1.00  0.00     0.023 A 
ATOM     88  C   UNL     1     -18.628  -0.939  -7.840  1.00  0.00     0.031 A 
ATOM     89  C   UNL     1     -18.788  -0.392 -10.184  1.00  0.00     0.131 A 
ATOM     90  C   UNL     1     -20.020  -1.110  -7.812  1.00  0.00     0.055 A 
ATOM     91  C   UNL     1     -20.178  -0.511 -10.138  1.00  0.00     0.041 A 
ATOM     92  F   UNL     1     -18.229  -0.068 -11.361  1.00  0.00    -0.206 F 
ATOM     93  C   UNL     1     -20.800  -0.883  -8.949  1.00  0.00     0.022 A 
BRANCH  90  94
ATOM     94  S   UNL     1     -20.794  -1.711  -6.285  1.00  0.00     0.124 S 
ATOM     95  O   UNL     1     -20.124  -2.993  -6.090  1.00  0.00    -0.237 OA
ATOM     96  O   UNL     1     -20.454  -0.662  -5.329  1.00  0.00    -0.237 OA
ATOM     97  O   UNL     1     -22.211  -1.798  -6.631  1.00  0.00    -0.744 OA
ENDBRANCH  90  94
ENDBRANCH  64  87
ENDBRANCH  38  39
ENDBRANCH  30  33
ENDBRANCH  28  29
ENDBRANCH  27  28
ENDBRANCH   1  27
TORSDOF 19
