REMARK SMILES COc1ccc(-c2cc(C(F)(F)F)n3nc(C(=O)NCCCCNC(=O)c4ccc(-c5c6nc(c(-c7cc(S(=O)(=O)[O-])ccc7F)c7ccc([nH]7)c(-c7cc(S(=O)(=O)[O-])ccc7F)c7nc(c(-c8cc(S(=O)(=O)[O-])ccc8F)c8ccc5[nH]8)C=C7)C=C6)cc4)cc3n2)cc1OC
REMARK SMILES IDX 22 1 21 2 20 3 19 4 17 5 18 6 16 8 7 9 8 10 92 11 9 12 91 13
REMARK SMILES IDX 14 14 90 15 15 16 6 17 3 18 4 19 94 20 5 21 93 22 2 23 1 24
REMARK SMILES IDX 95 25 96 26 10 27 11 28 12 29 13 30 23 31 24 32 25 33 26 35
REMARK SMILES IDX 27 36 28 37 89 38 29 39 88 40 30 41 31 42 32 43 82 44 33 45
REMARK SMILES IDX 87 46 81 47 83 48 34 49 86 50 80 51 79 52 35 54 67 55 47 56
REMARK SMILES IDX 66 57 48 58 51 59 65 60 84 61 49 62 50 63 64 65 85 66 52 67
REMARK SMILES IDX 36 68 37 69 45 70 38 71 44 72 46 73 43 74 39 75 40 76 41 77
REMARK SMILES IDX 42 78 68 79 69 80 77 81 70 82 76 83 78 84 75 85 71 86 72 87
REMARK SMILES IDX 73 88 74 89 53 90 54 91 62 92 55 93 61 94 63 95 60 96 56 97
REMARK SMILES IDX 57 98 58 99 59 100
REMARK H PARENT 19 7 24 34 83 53 51 64
REMARK Flexibility Score: inf
ROOT
ATOM      1  C   UNL     1      -0.231  12.896   2.680  1.00  0.00     0.023 C 
ENDROOT
BRANCH   1   2
ATOM      2  C   UNL     1      -0.058  11.634   1.826  1.00  0.00     0.023 C 
BRANCH   2   3
ATOM      3  C   UNL     1      -0.440  11.823   0.357  1.00  0.00     0.116 C 
BRANCH   3   4
ATOM      4  N   UNL     1       0.639  12.437  -0.385  1.00  0.00    -0.351 N 
ATOM      5  C   UNL     1       1.648  11.904  -1.154  1.00  0.00     0.271 C 
ATOM      6  O   UNL     1       2.403  12.718  -1.693  1.00  0.00    -0.267 OA
ATOM      7  H   UNL     1       0.655  13.420  -0.330  1.00  0.00     0.163 HD
BRANCH   5   8
ATOM      8  C   UNL     1       1.805  10.443  -1.347  1.00  0.00     0.152 A 
ATOM      9  C   UNL     1       1.968   6.045  -1.856  1.00  0.00     0.075 A 
ATOM     10  C   UNL     1       2.986   6.397  -2.894  1.00  0.00     0.062 A 
ATOM     11  N   UNL     1       1.335   6.904  -1.113  1.00  0.00    -0.228 NA
ATOM     12  C   UNL     1       3.224   7.713  -3.068  1.00  0.00     0.150 A 
ATOM     13  C   UNL     1       1.650   8.216  -1.309  1.00  0.00     0.157 A 
ATOM     14  N   UNL     1       2.541   8.642  -2.291  1.00  0.00    -0.209 N 
ATOM     15  C   UNL     1       1.253   9.348  -0.641  1.00  0.00     0.085 A 
ATOM     16  N   UNL     1       2.606   9.988  -2.333  1.00  0.00    -0.161 NA
BRANCH   9  17
ATOM     17  C   UNL     1       1.680   4.604  -1.693  1.00  0.00     0.004 A 
ATOM     18  C   UNL     1       1.130   1.895  -1.310  1.00  0.00     0.160 A 
ATOM     19  C   UNL     1       0.091   2.792  -1.600  1.00  0.00     0.051 A 
ATOM     20  C   UNL     1       2.453   2.351  -1.223  1.00  0.00     0.161 A 
ATOM     21  C   UNL     1       0.362   4.151  -1.772  1.00  0.00     0.014 A 
ATOM     22  C   UNL     1       2.719   3.710  -1.422  1.00  0.00     0.060 A 
BRANCH  18  23
ATOM     23  O   UNL     1       0.840   0.560  -1.213  1.00  0.00    -0.493 OA
ATOM     24  C   UNL     1       0.028   0.268  -0.074  1.00  0.00     0.278 C 
ENDBRANCH  18  23
BRANCH  20  25
ATOM     25  O   UNL     1       3.583   1.618  -0.979  1.00  0.00    -0.493 OA
ATOM     26  C   UNL     1       3.429   0.386  -0.290  1.00  0.00     0.278 C 
ENDBRANCH  20  25
ENDBRANCH   9  17
BRANCH  12  27
ATOM     27  C   UNL     1       4.205   8.253  -4.037  1.00  0.00     0.433 C 
ATOM     28  F   UNL     1       3.639   9.029  -4.993  1.00  0.00    -0.165 F 
ATOM     29  F   UNL     1       5.195   8.966  -3.446  1.00  0.00    -0.165 F 
ATOM     30  F   UNL     1       4.835   7.244  -4.708  1.00  0.00    -0.165 F 
ENDBRANCH  12  27
ENDBRANCH   5   8
ENDBRANCH   3   4
ENDBRANCH   2   3
ENDBRANCH   1   2
BRANCH   1  31
ATOM     31  C   UNL     1      -1.659  13.433   2.763  1.00  0.00     0.116 C 
BRANCH  31  32
ATOM     32  N   UNL     1      -2.617  12.451   3.246  1.00  0.00    -0.352 N 
ATOM     33  C   UNL     1      -3.767  12.661   3.969  1.00  0.00     0.251 C 
ATOM     34  H   UNL     1      -2.415  11.512   3.027  1.00  0.00     0.163 HD
ATOM     35  O   UNL     1      -4.404  11.702   4.396  1.00  0.00    -0.269 OA
BRANCH  33  36
ATOM     36  C   UNL     1      -4.196  14.043   4.268  1.00  0.00     0.039 A 
ATOM     37  C   UNL     1      -4.529  14.373   5.583  1.00  0.00     0.014 A 
ATOM     38  C   UNL     1      -4.234  15.017   3.265  1.00  0.00     0.014 A 
ATOM     39  C   UNL     1      -4.830  15.698   5.906  1.00  0.00     0.010 A 
ATOM     40  C   UNL     1      -4.466  16.348   3.602  1.00  0.00     0.010 A 
ATOM     41  C   UNL     1      -4.760  16.703   4.927  1.00  0.00    -0.014 A 
BRANCH  41  42
ATOM     42  C   UNL     1      -4.971  18.131   5.283  1.00  0.00     0.031 A 
ATOM     43  C   UNL     1      -6.133  18.895   4.709  1.00  0.00     0.074 A 
ATOM     44  C   UNL     1      -4.080  18.751   6.082  1.00  0.00     0.049 A 
ATOM     45  N   UNL     1      -6.460  20.151   4.875  1.00  0.00    -0.248 NA
ATOM     46  C   UNL     1      -7.027  18.155   3.807  1.00  0.00     0.031 C 
ATOM     47  C   UNL     1      -2.883  18.128   6.655  1.00  0.00     0.029 A 
ATOM     48  N   UNL     1      -4.036  20.040   6.550  1.00  0.00    -0.354 N 
ATOM     49  C   UNL     1      -7.592  20.355   4.093  1.00  0.00     0.074 A 
ATOM     50  C   UNL     1      -7.852  19.109   3.403  1.00  0.00     0.031 C 
ATOM     51  C   UNL     1      -2.243  19.026   7.420  1.00  0.00     0.029 A 
ATOM     52  C   UNL     1      -2.955  20.298   7.361  1.00  0.00     0.049 A 
ATOM     53  H   UNL     1      -4.714  20.717   6.325  1.00  0.00     0.167 HD
ATOM     54  C   UNL     1      -8.357  21.470   3.981  1.00  0.00     0.034 A 
ATOM     55  C   UNL     1      -2.577  21.433   7.984  1.00  0.00     0.034 A 
ATOM     56  C   UNL     1      -8.084  22.702   4.682  1.00  0.00     0.049 A 
ATOM     57  C   UNL     1      -3.438  22.662   7.836  1.00  0.00     0.074 A 
ATOM     58  C   UNL     1      -8.819  23.875   4.683  1.00  0.00     0.029 A 
ATOM     59  N   UNL     1      -6.983  22.927   5.500  1.00  0.00    -0.354 N 
ATOM     60  N   UNL     1      -4.541  22.821   7.141  1.00  0.00    -0.248 NA
ATOM     61  C   UNL     1      -3.010  23.858   8.571  1.00  0.00     0.031 C 
ATOM     62  C   UNL     1      -8.131  24.826   5.444  1.00  0.00     0.029 A 
ATOM     63  C   UNL     1      -7.005  24.226   5.986  1.00  0.00     0.049 A 
ATOM     64  H   UNL     1      -6.288  22.261   5.705  1.00  0.00     0.167 HD
ATOM     65  C   UNL     1      -4.954  24.128   7.382  1.00  0.00     0.074 A 
ATOM     66  C   UNL     1      -3.993  24.703   8.301  1.00  0.00     0.031 C 
ATOM     67  C   UNL     1      -6.032  24.793   6.891  1.00  0.00     0.034 A 
BRANCH  54  68
ATOM     68  C   UNL     1      -9.544  21.406   3.049  1.00  0.00     0.023 A 
ATOM     69  C   UNL     1     -10.607  20.510   3.266  1.00  0.00     0.031 A 
ATOM     70  C   UNL     1      -9.605  22.231   1.912  1.00  0.00     0.131 A 
ATOM     71  C   UNL     1     -11.640  20.403   2.323  1.00  0.00     0.055 A 
ATOM     72  C   UNL     1     -10.680  22.180   1.021  1.00  0.00     0.041 A 
ATOM     73  F   UNL     1      -8.613  23.092   1.638  1.00  0.00    -0.206 F 
ATOM     74  C   UNL     1     -11.697  21.250   1.215  1.00  0.00     0.022 A 
BRANCH  71  75
ATOM     75  S   UNL     1     -12.824  19.039   2.487  1.00  0.00     0.124 S 
ATOM     76  O   UNL     1     -11.943  17.875   2.438  1.00  0.00    -0.237 OA
ATOM     77  O   UNL     1     -13.447  19.315   3.776  1.00  0.00    -0.237 OA
ATOM     78  O   UNL     1     -13.696  19.200   1.325  1.00  0.00    -0.744 OA
ENDBRANCH  71  75
ENDBRANCH  54  68
BRANCH  55  79
ATOM     79  C   UNL     1      -1.332  21.467   8.803  1.00  0.00     0.023 A 
ATOM     80  C   UNL     1      -1.383  21.693  10.188  1.00  0.00     0.031 A 
ATOM     81  C   UNL     1      -0.068  21.316   8.206  1.00  0.00     0.131 A 
ATOM     82  C   UNL     1      -0.192  21.812  10.922  1.00  0.00     0.055 A 
ATOM     83  C   UNL     1       1.112  21.381   8.950  1.00  0.00     0.041 A 
ATOM     84  F   UNL     1       0.038  21.091   6.887  1.00  0.00    -0.206 F 
ATOM     85  C   UNL     1       1.054  21.644  10.315  1.00  0.00     0.022 A 
BRANCH  82  86
ATOM     86  S   UNL     1      -0.295  22.275  12.673  1.00  0.00     0.124 S 
ATOM     87  O   UNL     1      -1.008  23.545  12.604  1.00  0.00    -0.237 OA
ATOM     88  O   UNL     1      -1.036  21.152  13.239  1.00  0.00    -0.237 OA
ATOM     89  O   UNL     1       1.105  22.365  13.083  1.00  0.00    -0.744 OA
ENDBRANCH  82  86
ENDBRANCH  55  79
BRANCH  67  90
ATOM     90  C   UNL     1      -6.242  26.207   7.380  1.00  0.00     0.023 A 
ATOM     91  C   UNL     1      -5.333  27.237   7.081  1.00  0.00     0.031 A 
ATOM     92  C   UNL     1      -7.352  26.518   8.185  1.00  0.00     0.131 A 
ATOM     93  C   UNL     1      -5.513  28.512   7.639  1.00  0.00     0.055 A 
ATOM     94  C   UNL     1      -7.562  27.805   8.682  1.00  0.00     0.041 A 
ATOM     95  F   UNL     1      -8.251  25.574   8.505  1.00  0.00    -0.206 F 
ATOM     96  C   UNL     1      -6.630  28.807   8.424  1.00  0.00     0.022 A 
BRANCH  93  97
ATOM     97  S   UNL     1      -4.204  29.749   7.421  1.00  0.00     0.124 S 
ATOM     98  O   UNL     1      -3.042  29.063   7.975  1.00  0.00    -0.237 OA
ATOM     99  O   UNL     1      -4.199  29.946   5.975  1.00  0.00    -0.237 OA
ATOM    100  O   UNL     1      -4.679  30.892   8.200  1.00  0.00    -0.744 OA
ENDBRANCH  93  97
ENDBRANCH  67  90
ENDBRANCH  41  42
ENDBRANCH  33  36
ENDBRANCH  31  32
ENDBRANCH   1  31
TORSDOF 18
