REMARK SMILES [NH3+][C@H]1CCCCC[C@@H]1C(=O)N[C@@H](CCO)C(=O)NCCCCNC(=O)c1ccc(-c2c3nc(c(-c4cc(S(=O)(=O)[O-])ccc4F)c4ccc([nH]4)c(-c4cc(S(=O)(=O)[O-])ccc4F)c4nc(c(-c5cc(S(=O)(=O)[O-])ccc5F)c5ccc2[nH]5)C=C4)C=C3)cc1
REMARK SMILES IDX 19 1 18 2 16 3 17 4 12 6 11 7 9 8 10 9 8 11 2 12 1 13 3 17
REMARK SMILES IDX 7 19 6 20 5 21 4 22 13 24 14 25 15 26 20 28 21 29 22 30
REMARK SMILES IDX 23 31 24 32 25 34 26 35 27 36 88 37 28 38 87 39 29 40 30 41
REMARK SMILES IDX 31 42 81 43 32 44 86 45 80 46 82 47 33 48 85 49 79 50 78 51
REMARK SMILES IDX 34 53 66 54 46 55 65 56 47 57 50 58 64 59 83 60 48 61 49 62
REMARK SMILES IDX 63 64 84 65 51 66 35 67 36 68 44 69 37 70 43 71 45 72 42 73
REMARK SMILES IDX 38 74 39 75 40 76 41 77 67 78 68 79 76 80 69 81 75 82 77 83
REMARK SMILES IDX 74 84 70 85 71 86 72 87 73 88 52 89 53 90 61 91 54 92 60 93
REMARK SMILES IDX 62 94 59 95 55 96 56 97 57 98 58 99
REMARK H PARENT 18 5 11 10 1 14 1 15 1 16 15 27 23 33 82 52 50 63
REMARK Flexibility Score: 90.00
ROOT
ATOM      1  C   UNL     1      -5.894  -0.325  -0.630  1.00  0.00     0.116 C 
ENDROOT
BRANCH   1   2
ATOM      2  N   UNL     1      -5.761  -0.228   0.813  1.00  0.00    -0.354 N 
ATOM      3  C   UNL     1      -4.834   0.359   1.619  1.00  0.00     0.242 C 
ATOM      4  O   UNL     1      -5.148   0.474   2.810  1.00  0.00    -0.273 OA
ATOM      5  H   UNL     1      -6.485  -0.676   1.306  1.00  0.00     0.163 HD
BRANCH   3   6
ATOM      6  C   UNL     1      -3.543   1.038   1.108  1.00  0.00     0.173 C 
BRANCH   6   7
ATOM      7  N   UNL     1      -2.799   0.274   0.109  1.00  0.00    -0.344 N 
ATOM      8  C   UNL     1      -1.651  -0.447   0.223  1.00  0.00     0.229 C 
ATOM      9  O   UNL     1      -1.313  -1.094  -0.771  1.00  0.00    -0.275 OA
ATOM     10  H   UNL     1      -3.193   0.283  -0.794  1.00  0.00     0.164 HD
BRANCH   8  11
ATOM     11  C   UNL     1      -0.797  -0.389   1.497  1.00  0.00     0.136 C 
BRANCH  11  12
ATOM     12  C   UNL     1       0.669  -0.760   1.159  1.00  0.00     0.193 C 
BRANCH  12  13
ATOM     13  N   UNL     1       1.588  -0.168   2.152  1.00  0.00    -0.354 N 
ATOM     14  H   UNL     1       2.548  -0.419   1.919  1.00  0.00     0.344 HD
ATOM     15  H   UNL     1       1.359  -0.524   3.081  1.00  0.00     0.344 HD
ATOM     16  H   UNL     1       1.490   0.847   2.144  1.00  0.00     0.344 HD
ENDBRANCH  12  13
BRANCH  12  17
ATOM     17  C   UNL     1       0.966  -2.267   1.014  1.00  0.00     0.066 CG0
ATOM     18  G   UNL     1       0.880  -3.085   2.301  1.00  0.00     0.000 G0
ENDBRANCH  12  17
ENDBRANCH  11  12
BRANCH  11  19
ATOM     19  C   UNL     1      -1.395  -1.162   2.686  1.00  0.00     0.020 C 
BRANCH  19  20
ATOM     20  C   UNL     1      -1.682  -2.636   2.420  1.00  0.00     0.001 C 
BRANCH  20  21
ATOM     21  C   UNL     1      -0.513  -3.585   2.661  1.00  0.00     0.000 C 
BRANCH  21  22
ATOM     22  C   UNL     1       0.880  -3.085   2.301  1.00  0.00     0.006 CG0
ATOM     23  G   UNL     1       0.966  -2.267   1.014  1.00  0.00     0.000 G0
ENDBRANCH  21  22
ENDBRANCH  20  21
ENDBRANCH  19  20
ENDBRANCH  11  19
ENDBRANCH   8  11
ENDBRANCH   6   7
BRANCH   6  24
ATOM     24  C   UNL     1      -3.725   2.514   0.716  1.00  0.00     0.063 C 
BRANCH  24  25
ATOM     25  C   UNL     1      -4.726   2.825  -0.387  1.00  0.00     0.158 C 
BRANCH  25  26
ATOM     26  O   UNL     1      -6.055   2.913   0.102  1.00  0.00    -0.396 OA
ATOM     27  H   UNL     1      -6.315   2.062   0.488  1.00  0.00     0.210 HD
ENDBRANCH  25  26
ENDBRANCH  24  25
ENDBRANCH   6  24
ENDBRANCH   3   6
ENDBRANCH   1   2
BRANCH   1  28
ATOM     28  C   UNL     1      -6.291  -1.718  -1.107  1.00  0.00     0.023 C 
BRANCH  28  29
ATOM     29  C   UNL     1      -7.692  -2.174  -0.701  1.00  0.00     0.023 C 
BRANCH  29  30
ATOM     30  C   UNL     1      -8.824  -1.191  -0.989  1.00  0.00     0.116 C 
BRANCH  30  31
ATOM     31  N   UNL     1      -8.892  -0.781  -2.384  1.00  0.00    -0.352 N 
ATOM     32  C   UNL     1      -9.971  -0.770  -3.239  1.00  0.00     0.251 C 
ATOM     33  H   UNL     1      -8.044  -0.466  -2.772  1.00  0.00     0.163 HD
ATOM     34  O   UNL     1      -9.809  -0.489  -4.420  1.00  0.00    -0.269 OA
BRANCH  32  35
ATOM     35  C   UNL     1     -11.310  -1.142  -2.732  1.00  0.00     0.039 A 
ATOM     36  C   UNL     1     -12.060  -2.084  -3.440  1.00  0.00     0.014 A 
ATOM     37  C   UNL     1     -11.804  -0.597  -1.544  1.00  0.00     0.014 A 
ATOM     38  C   UNL     1     -13.268  -2.545  -2.910  1.00  0.00     0.010 A 
ATOM     39  C   UNL     1     -12.969  -1.111  -0.982  1.00  0.00     0.010 A 
ATOM     40  C   UNL     1     -13.709  -2.097  -1.654  1.00  0.00    -0.014 A 
BRANCH  40  41
ATOM     41  C   UNL     1     -14.933  -2.656  -1.021  1.00  0.00     0.031 A 
ATOM     42  C   UNL     1     -16.112  -1.764  -0.743  1.00  0.00     0.074 A 
ATOM     43  C   UNL     1     -14.953  -3.946  -0.631  1.00  0.00     0.049 A 
ATOM     44  N   UNL     1     -17.230  -2.037  -0.121  1.00  0.00    -0.248 NA
ATOM     45  C   UNL     1     -16.001  -0.369  -1.196  1.00  0.00     0.031 C 
ATOM     46  C   UNL     1     -13.853  -4.899  -0.801  1.00  0.00     0.029 A 
ATOM     47  N   UNL     1     -15.928  -4.678   0.001  1.00  0.00    -0.354 N 
ATOM     48  C   UNL     1     -17.949  -0.847  -0.093  1.00  0.00     0.074 A 
ATOM     49  C   UNL     1     -17.110   0.162  -0.706  1.00  0.00     0.031 C 
ATOM     50  C   UNL     1     -14.224  -6.092  -0.308  1.00  0.00     0.029 A 
ATOM     51  C   UNL     1     -15.566  -5.982   0.252  1.00  0.00     0.049 A 
ATOM     52  H   UNL     1     -16.804  -4.305   0.250  1.00  0.00     0.167 HD
ATOM     53  C   UNL     1     -19.201  -0.622   0.378  1.00  0.00     0.034 A 
ATOM     54  C   UNL     1     -16.236  -6.973   0.874  1.00  0.00     0.034 A 
ATOM     55  C   UNL     1     -20.030  -1.643   0.972  1.00  0.00     0.049 A 
ATOM     56  C   UNL     1     -17.624  -6.698   1.395  1.00  0.00     0.074 A 
ATOM     57  C   UNL     1     -21.332  -1.539   1.430  1.00  0.00     0.029 A 
ATOM     58  N   UNL     1     -19.636  -2.957   1.195  1.00  0.00    -0.354 N 
ATOM     59  N   UNL     1     -18.310  -5.579   1.368  1.00  0.00    -0.248 NA
ATOM     60  C   UNL     1     -18.330  -7.824   2.020  1.00  0.00     0.031 C 
ATOM     61  C   UNL     1     -21.703  -2.770   1.984  1.00  0.00     0.029 A 
ATOM     62  C   UNL     1     -20.660  -3.664   1.808  1.00  0.00     0.049 A 
ATOM     63  H   UNL     1     -18.758  -3.331   0.954  1.00  0.00     0.167 HD
ATOM     64  C   UNL     1     -19.541  -5.876   1.946  1.00  0.00     0.074 A 
ATOM     65  C   UNL     1     -19.506  -7.281   2.297  1.00  0.00     0.031 C 
ATOM     66  C   UNL     1     -20.607  -5.063   2.162  1.00  0.00     0.034 A 
BRANCH  53  67
ATOM     67  C   UNL     1     -19.730   0.790   0.287  1.00  0.00     0.023 A 
ATOM     68  C   UNL     1     -19.919   1.428  -0.952  1.00  0.00     0.031 A 
ATOM     69  C   UNL     1     -20.017   1.521   1.453  1.00  0.00     0.131 A 
ATOM     70  C   UNL     1     -20.299   2.778  -0.995  1.00  0.00     0.055 A 
ATOM     71  C   UNL     1     -20.476   2.839   1.401  1.00  0.00     0.041 A 
ATOM     72  F   UNL     1     -19.838   0.974   2.666  1.00  0.00    -0.206 F 
ATOM     73  C   UNL     1     -20.603   3.481   0.173  1.00  0.00     0.022 A 
BRANCH  70  74
ATOM     74  S   UNL     1     -20.242   3.641  -2.588  1.00  0.00     0.124 S 
ATOM     75  O   UNL     1     -18.837   3.485  -2.958  1.00  0.00    -0.237 OA
ATOM     76  O   UNL     1     -21.200   2.889  -3.389  1.00  0.00    -0.237 OA
ATOM     77  O   UNL     1     -20.642   5.006  -2.253  1.00  0.00    -0.744 OA
ENDBRANCH  70  74
ENDBRANCH  53  67
BRANCH  54  78
ATOM     78  C   UNL     1     -15.612  -8.315   1.045  1.00  0.00     0.023 A 
ATOM     79  C   UNL     1     -16.141  -9.446   0.402  1.00  0.00     0.031 A 
ATOM     80  C   UNL     1     -14.501  -8.495   1.889  1.00  0.00     0.131 A 
ATOM     81  C   UNL     1     -15.589 -10.713   0.648  1.00  0.00     0.055 A 
ATOM     82  C   UNL     1     -13.925  -9.751   2.091  1.00  0.00     0.041 A 
ATOM     83  F   UNL     1     -13.952  -7.446   2.521  1.00  0.00    -0.206 F 
ATOM     84  C   UNL     1     -14.478 -10.871   1.479  1.00  0.00     0.022 A 
BRANCH  81  85
ATOM     85  S   UNL     1     -16.398 -12.166  -0.075  1.00  0.00     0.124 S 
ATOM     86  O   UNL     1     -17.745 -12.061   0.475  1.00  0.00    -0.237 OA
ATOM     87  O   UNL     1     -16.266 -11.906  -1.504  1.00  0.00    -0.237 OA
ATOM     88  O   UNL     1     -15.603 -13.284   0.429  1.00  0.00    -0.744 OA
ENDBRANCH  81  85
ENDBRANCH  54  78
BRANCH  66  89
ATOM     89  C   UNL     1     -21.836  -5.695   2.768  1.00  0.00     0.023 A 
ATOM     90  C   UNL     1     -21.847  -6.176   4.088  1.00  0.00     0.031 A 
ATOM     91  C   UNL     1     -23.008  -5.832   2.002  1.00  0.00     0.131 A 
ATOM     92  C   UNL     1     -22.989  -6.822   4.586  1.00  0.00     0.055 A 
ATOM     93  C   UNL     1     -24.160  -6.423   2.522  1.00  0.00     0.041 A 
ATOM     94  F   UNL     1     -23.051  -5.391   0.735  1.00  0.00    -0.206 F 
ATOM     95  C   UNL     1     -24.150  -6.934   3.817  1.00  0.00     0.022 A 
BRANCH  92  96
ATOM     96  S   UNL     1     -22.907  -7.596   6.224  1.00  0.00     0.124 S 
ATOM     97  O   UNL     1     -21.806  -8.539   6.060  1.00  0.00    -0.237 OA
ATOM     98  O   UNL     1     -22.646  -6.456   7.096  1.00  0.00    -0.237 OA
ATOM     99  O   UNL     1     -24.227  -8.206   6.382  1.00  0.00    -0.744 OA
ENDBRANCH  92  96
ENDBRANCH  66  89
ENDBRANCH  40  41
ENDBRANCH  32  35
ENDBRANCH  30  31
ENDBRANCH  29  30
ENDBRANCH  28  29
ENDBRANCH   1  28
TORSDOF 20
