REMARK SMILES O=C(NCCCCNC(=O)c1ccc(-c2c3nc(c(-c4cc(S(=O)(=O)[O-])ccc4F)c4ccc([nH]4)c(-c4cc(S(=O)(=O)[O-])ccc4F)c4nc(c(-c5cc(S(=O)(=O)[O-])ccc5F)c5ccc2[nH]5)C=C4)C=C3)cc1)C1=Cc2cc(S(F)(F)(F)(F)F)ccc2O[C@@H]1C(F)(F)F
REMARK SMILES IDX 6 1 5 2 4 3 3 4 1 5 2 6 74 8 75 9 89 10 76 11 88 12 77 13
REMARK SMILES IDX 87 14 78 15 86 16 85 17 90 18 91 19 92 20 93 21 79 22 80 23
REMARK SMILES IDX 81 24 82 25 83 26 84 27 7 28 8 29 9 30 10 32 11 33 12 34
REMARK SMILES IDX 73 35 13 36 72 37 14 38 15 39 16 40 66 41 17 42 71 43 65 44
REMARK SMILES IDX 67 45 18 46 70 47 64 48 63 49 19 51 51 52 31 53 50 54 32 55
REMARK SMILES IDX 35 56 49 57 68 58 33 59 34 60 48 62 69 63 36 64 20 65 21 66
REMARK SMILES IDX 29 67 22 68 28 69 30 70 27 71 23 72 24 73 25 74 26 75 52 76
REMARK SMILES IDX 53 77 61 78 54 79 60 80 62 81 59 82 55 83 56 84 57 85 58 86
REMARK SMILES IDX 37 87 38 88 46 89 39 90 45 91 47 92 44 93 40 94 41 95 42 96
REMARK SMILES IDX 43 97
REMARK H PARENT 3 7 8 31 67 50 35 61
REMARK Flexibility Score: inf
ROOT
ATOM      1  C   UNL     1       4.413  -0.222   3.675  1.00  0.00     0.023 C 
ENDROOT
BRANCH   1   2
ATOM      2  C   UNL     1       4.920   0.371   2.370  1.00  0.00     0.023 C 
BRANCH   2   3
ATOM      3  C   UNL     1       4.413  -0.463   1.205  1.00  0.00     0.116 C 
BRANCH   3   4
ATOM      4  N   UNL     1       2.943  -0.463   1.205  1.00  0.00    -0.352 N 
ATOM      5  O   UNL     1       0.938   0.063   0.045  1.00  0.00    -0.270 OA
ATOM      6  C   UNL     1       2.208   0.063   0.045  1.00  0.00     0.251 C 
ATOM      7  H   UNL     1       2.451  -0.815   1.981  1.00  0.00     0.163 HD
BRANCH   6   8
ATOM      8  C   UNL     1       2.968   0.608  -1.153  1.00  0.00     0.067 C 
ATOM      9  C   UNL     1       4.329   0.608  -1.153  1.00  0.00     0.025 C 
ATOM     10  C   UNL     1       2.208   1.152  -2.352  1.00  0.00     0.314 C 
ATOM     11  C   UNL     1       5.089   0.063   0.045  1.00  0.00     0.019 A 
ATOM     12  O   UNL     1       3.475  -1.668   0.262  1.00  0.00    -0.475 OA
ATOM     13  C   UNL     1       6.220   0.742   0.469  1.00  0.00     0.036 A 
ATOM     14  C   UNL     1       4.722  -1.082   0.608  1.00  0.00     0.128 A 
ATOM     15  C   UNL     1       7.067  -0.023   1.306  1.00  0.00     0.107 A 
ATOM     16  C   UNL     1       5.537  -1.706   1.521  1.00  0.00     0.048 A 
ATOM     17  C   UNL     1       6.700  -1.121   1.940  1.00  0.00     0.028 A 
BRANCH  10  18
ATOM     18  C   UNL     1       2.576   0.351  -3.591  1.00  0.00     0.429 C 
ATOM     19  F   UNL     1       2.254  -0.926  -3.404  1.00  0.00    -0.167 F 
ATOM     20  F   UNL     1       1.911   0.827  -4.639  1.00  0.00    -0.167 F 
ATOM     21  F   UNL     1       3.883   0.452  -3.812  1.00  0.00    -0.167 F 
ENDBRANCH  10  18
BRANCH  15  22
ATOM     22  S   UNL     1       8.772   0.545   1.523  1.00  0.00     0.310 S 
ATOM     23  F   UNL     1       8.636   0.545   3.103  1.00  0.00    -0.094 F 
ATOM     24  F   UNL     1       8.242   2.028   1.545  1.00  0.00    -0.094 F 
ATOM     25  F   UNL     1      10.235   1.035   1.710  1.00  0.00    -0.094 F 
ATOM     26  F   UNL     1       9.267  -0.951   1.638  1.00  0.00    -0.094 F 
ATOM     27  F   UNL     1       7.279   0.030   1.446  1.00  0.00    -0.094 F 
ENDBRANCH  15  22
ENDBRANCH   6   8
ENDBRANCH   3   4
ENDBRANCH   2   3
ENDBRANCH   1   2
BRANCH   1  28
ATOM     28  C   UNL     1       4.920  -1.648   3.814  1.00  0.00     0.116 C 
BRANCH  28  29
ATOM     29  N   UNL     1       6.390  -1.648   3.814  1.00  0.00    -0.352 N 
ATOM     30  C   UNL     1       7.125  -2.174   4.974  1.00  0.00     0.251 C 
ATOM     31  H   UNL     1       6.882  -1.295   3.038  1.00  0.00     0.163 HD
ATOM     32  O   UNL     1       8.396  -2.174   4.974  1.00  0.00    -0.269 OA
BRANCH  30  33
ATOM     33  C   UNL     1       6.365  -2.718   6.172  1.00  0.00     0.039 A 
ATOM     34  C   UNL     1       6.798  -2.451   7.460  1.00  0.00     0.014 A 
ATOM     35  C   UNL     1       5.335  -3.525   5.946  1.00  0.00     0.014 A 
ATOM     36  C   UNL     1       6.256  -3.317   8.439  1.00  0.00     0.010 A 
ATOM     37  C   UNL     1       4.766  -4.239   6.973  1.00  0.00     0.010 A 
ATOM     38  C   UNL     1       5.184  -4.068   8.263  1.00  0.00    -0.014 A 
BRANCH  38  39
ATOM     39  C   UNL     1       4.455  -4.709   9.433  1.00  0.00     0.031 A 
ATOM     40  C   UNL     1       4.380  -6.103   9.418  1.00  0.00     0.074 A 
ATOM     41  C   UNL     1       4.010  -3.921  10.480  1.00  0.00     0.049 A 
ATOM     42  N   UNL     1       3.919  -6.902  10.381  1.00  0.00    -0.248 NA
ATOM     43  C   UNL     1       4.820  -6.940   8.293  1.00  0.00     0.031 C 
ATOM     44  C   UNL     1       4.090  -2.514  10.506  1.00  0.00     0.029 A 
ATOM     45  N   UNL     1       3.424  -4.331  11.657  1.00  0.00    -0.354 N 
ATOM     46  C   UNL     1       4.026  -8.180  10.010  1.00  0.00     0.074 A 
ATOM     47  C   UNL     1       4.602  -8.222   8.659  1.00  0.00     0.031 C 
ATOM     48  C   UNL     1       3.550  -2.083  11.676  1.00  0.00     0.029 A 
ATOM     49  C   UNL     1       3.124  -3.211  12.402  1.00  0.00     0.049 A 
ATOM     50  H   UNL     1       3.250  -5.263  11.921  1.00  0.00     0.167 HD
ATOM     51  C   UNL     1       3.669  -9.311  10.746  1.00  0.00     0.034 A 
ATOM     52  C   UNL     1       2.512  -3.157  13.644  1.00  0.00     0.034 A 
ATOM     53  C   UNL     1       3.096  -9.258  12.007  1.00  0.00     0.049 A 
ATOM     54  C   UNL     1       2.101  -4.287  14.355  1.00  0.00     0.074 A 
ATOM     55  C   UNL     1       2.737 -10.389  12.765  1.00  0.00     0.029 A 
ATOM     56  N   UNL     1       2.774  -8.138  12.740  1.00  0.00    -0.354 N 
ATOM     57  N   UNL     1       2.245  -5.565  14.001  1.00  0.00    -0.248 NA
ATOM     58  C   UNL     1       1.422  -4.240  15.657  1.00  0.00     0.031 C 
ATOM     59  C   UNL     1       2.197  -9.957  13.936  1.00  0.00     0.029 A 
ATOM     60  C   UNL     1       2.209  -8.549  13.927  1.00  0.00     0.049 A 
ATOM     61  H   UNL     1       2.921  -7.205  12.464  1.00  0.00     0.167 HD
ATOM     62  C   UNL     1       1.745  -6.363  14.947  1.00  0.00     0.074 A 
ATOM     63  C   UNL     1       1.202  -5.522  16.023  1.00  0.00     0.031 C 
ATOM     64  C   UNL     1       1.723  -7.758  14.957  1.00  0.00     0.034 A 
BRANCH  51  65
ATOM     65  C   UNL     1       3.922 -10.677  10.129  1.00  0.00     0.023 A 
ATOM     66  C   UNL     1       5.252 -10.984   9.894  1.00  0.00     0.031 A 
ATOM     67  C   UNL     1       2.958 -11.559   9.888  1.00  0.00     0.131 A 
ATOM     68  C   UNL     1       5.442 -12.156   9.125  1.00  0.00     0.055 A 
ATOM     69  C   UNL     1       3.238 -12.745   9.253  1.00  0.00     0.041 A 
ATOM     70  F   UNL     1       1.711 -11.291  10.263  1.00  0.00    -0.206 F 
ATOM     71  C   UNL     1       4.524 -13.087   8.938  1.00  0.00     0.022 A 
BRANCH  68  72
ATOM     72  S   UNL     1       7.057 -12.397   8.343  1.00  0.00     0.124 S 
ATOM     73  O   UNL     1       7.337 -11.238   7.384  1.00  0.00    -0.237 OA
ATOM     74  O   UNL     1       8.143 -12.443   9.420  1.00  0.00    -0.237 OA
ATOM     75  O   UNL     1       7.055 -13.869   7.473  1.00  0.00    -0.744 OA
ENDBRANCH  68  72
ENDBRANCH  51  65
BRANCH  52  76
ATOM     76  C   UNL     1       2.275  -1.791  14.267  1.00  0.00     0.023 A 
ATOM     77  C   UNL     1       2.750  -1.509  15.537  1.00  0.00     0.031 A 
ATOM     78  C   UNL     1       1.514  -0.925  13.608  1.00  0.00     0.131 A 
ATOM     79  C   UNL     1       2.124  -0.398  16.150  1.00  0.00     0.055 A 
ATOM     80  C   UNL     1       1.048   0.209  14.228  1.00  0.00     0.041 A 
ATOM     81  F   UNL     1       1.199  -1.159  12.337  1.00  0.00    -0.206 F 
ATOM     82  C   UNL     1       1.430   0.521  15.503  1.00  0.00     0.022 A 
BRANCH  79  83
ATOM     83  S   UNL     1       2.286  -0.223  17.944  1.00  0.00     0.124 S 
ATOM     84  O   UNL     1       1.686  -1.451  18.632  1.00  0.00    -0.237 OA
ATOM     85  O   UNL     1       3.767  -0.104  18.313  1.00  0.00    -0.237 OA
ATOM     86  O   UNL     1       1.456   1.181  18.457  1.00  0.00    -0.744 OA
ENDBRANCH  79  83
ENDBRANCH  52  76
BRANCH  64  87
ATOM     87  C   UNL     1       1.132  -8.454  16.173  1.00  0.00     0.023 A 
ATOM     88  C   UNL     1      -0.138  -8.133  16.624  1.00  0.00     0.031 A 
ATOM     89  C   UNL     1       1.922  -9.269  16.861  1.00  0.00     0.131 A 
ATOM     90  C   UNL     1      -0.377  -8.499  17.970  1.00  0.00     0.055 A 
ATOM     91  C   UNL     1       1.563  -9.697  18.116  1.00  0.00     0.041 A 
ATOM     92  F   UNL     1       3.072  -9.676  16.330  1.00  0.00    -0.206 F 
ATOM     93  C   UNL     1       0.347  -9.369  18.650  1.00  0.00     0.022 A 
BRANCH  90  94
ATOM     94  S   UNL     1      -1.773  -7.720  18.819  1.00  0.00     0.124 S 
ATOM     95  O   UNL     1      -1.572  -6.203  18.845  1.00  0.00    -0.237 OA
ATOM     96  O   UNL     1      -3.070  -8.050  18.077  1.00  0.00    -0.237 OA
ATOM     97  O   UNL     1      -1.867  -8.310  20.421  1.00  0.00    -0.744 OA
ENDBRANCH  90  94
ENDBRANCH  64  87
ENDBRANCH  38  39
ENDBRANCH  30  33
ENDBRANCH  28  29
ENDBRANCH   1  28
TORSDOF 16
