REMARK SMILES O=C(/C=C/c1cccs1)NCC(=O)NCCCCNC(=O)c1ccc(-c2c3nc(c(-c4cc(S(=O)(=O)[O-])ccc4F)c4ccc([nH]4)c(-c4cc(S(=O)(=O)[O-])ccc4F)c4nc(c(-c5cc(S(=O)(=O)[O-])ccc5F)c5ccc2[nH]5)C=C4)C=C3)cc1
REMARK SMILES IDX 16 1 15 2 14 3 12 4 13 5 11 7 10 8 1 9 2 10 3 12 4 13 5 14
REMARK SMILES IDX 6 15 9 16 7 17 8 18 17 19 18 20 19 21 20 22 21 24 22 25
REMARK SMILES IDX 23 26 84 27 24 28 83 29 25 30 26 31 27 32 77 33 28 34 82 35
REMARK SMILES IDX 76 36 78 37 29 38 81 39 75 40 74 41 30 43 62 44 42 45 61 46
REMARK SMILES IDX 43 47 46 48 60 49 79 50 44 51 45 52 59 54 80 55 47 56 31 57
REMARK SMILES IDX 32 58 40 59 33 60 39 61 41 62 38 63 34 64 35 65 36 66 37 67
REMARK SMILES IDX 63 68 64 69 72 70 65 71 71 72 73 73 70 74 66 75 67 76 68 77
REMARK SMILES IDX 69 78 48 79 49 80 57 81 50 82 56 83 58 84 55 85 51 86 52 87
REMARK SMILES IDX 53 88 54 89
REMARK H PARENT 14 6 10 11 19 23 78 42 46 53
REMARK Flexibility Score: inf
ROOT
ATOM      1  C   UNL     1       2.581   2.728  -1.900  1.00  0.00     0.023 C 
ENDROOT
BRANCH   1   2
ATOM      2  C   UNL     1       1.633   1.772  -2.626  1.00  0.00     0.116 C 
BRANCH   2   3
ATOM      3  N   UNL     1       2.337   0.946  -3.589  1.00  0.00    -0.355 N 
ATOM      4  C   UNL     1       2.728  -0.357  -3.465  1.00  0.00     0.239 C 
ATOM      5  O   UNL     1       3.345  -0.885  -4.391  1.00  0.00    -0.273 OA
ATOM      6  H   UNL     1       2.562   1.381  -4.443  1.00  0.00     0.163 HD
BRANCH   4   7
ATOM      7  C   UNL     1       2.382  -1.138  -2.198  1.00  0.00     0.216 C 
BRANCH   7   8
ATOM      8  N   UNL     1       3.097  -0.635  -1.036  1.00  0.00    -0.343 N 
ATOM      9  O   UNL     1       1.244  -0.496   0.295  1.00  0.00    -0.270 OA
ATOM     10  C   UNL     1       2.451  -0.347   0.131  1.00  0.00     0.244 C 
ATOM     11  H   UNL     1       4.071  -0.500  -1.093  1.00  0.00     0.164 HD
BRANCH  10  12
ATOM     12  C   UNL     1       3.266   0.159   1.263  1.00  0.00     0.072 C 
ATOM     13  C   UNL     1       4.550   0.544   1.231  1.00  0.00     0.024 C 
BRANCH  13  14
ATOM     14  C   UNL     1       5.212   1.030   2.400  1.00  0.00     0.027 A 
ATOM     15  C   UNL     1       4.874   0.933   3.742  1.00  0.00     0.020 A 
ATOM     16  S   UNL     1       6.699   1.889   2.227  1.00  0.00    -0.144 S 
ATOM     17  C   UNL     1       5.810   1.572   4.607  1.00  0.00     0.012 A 
ATOM     18  C   UNL     1       6.847   2.141   3.908  1.00  0.00     0.065 A 
ENDBRANCH  13  14
ENDBRANCH  10  12
ENDBRANCH   7   8
ENDBRANCH   4   7
ENDBRANCH   2   3
ENDBRANCH   1   2
BRANCH   1  19
ATOM     19  C   UNL     1       3.179   3.828  -2.783  1.00  0.00     0.023 C 
BRANCH  19  20
ATOM     20  C   UNL     1       2.166   4.758  -3.446  1.00  0.00     0.116 C 
BRANCH  20  21
ATOM     21  N   UNL     1       1.350   5.490  -2.492  1.00  0.00    -0.352 N 
ATOM     22  C   UNL     1       0.879   6.781  -2.591  1.00  0.00     0.251 C 
ATOM     23  H   UNL     1       1.102   5.003  -1.673  1.00  0.00     0.163 HD
ATOM     24  O   UNL     1       0.293   7.300  -1.646  1.00  0.00    -0.269 OA
BRANCH  22  25
ATOM     25  C   UNL     1       1.129   7.544  -3.833  1.00  0.00     0.039 A 
ATOM     26  C   UNL     1       1.729   8.803  -3.747  1.00  0.00     0.014 A 
ATOM     27  C   UNL     1       0.820   6.990  -5.078  1.00  0.00     0.014 A 
ATOM     28  C   UNL     1       2.098   9.474  -4.917  1.00  0.00     0.010 A 
ATOM     29  C   UNL     1       1.237   7.634  -6.239  1.00  0.00     0.010 A 
ATOM     30  C   UNL     1       1.894   8.874  -6.170  1.00  0.00    -0.014 A 
BRANCH  30  31
ATOM     31  C   UNL     1       2.365   9.505  -7.430  1.00  0.00     0.031 A 
ATOM     32  C   UNL     1       1.365   9.932  -8.467  1.00  0.00     0.074 A 
ATOM     33  C   UNL     1       3.685   9.590  -7.685  1.00  0.00     0.049 A 
ATOM     34  N   UNL     1       1.562  10.318  -9.700  1.00  0.00    -0.248 NA
ATOM     35  C   UNL     1      -0.049   9.884  -8.066  1.00  0.00     0.031 C 
ATOM     36  C   UNL     1       4.753   9.188  -6.767  1.00  0.00     0.029 A 
ATOM     37  N   UNL     1       4.356  10.016  -8.805  1.00  0.00    -0.354 N 
ATOM     38  C   UNL     1       0.296  10.532 -10.236  1.00  0.00     0.074 A 
ATOM     39  C   UNL     1      -0.658  10.192  -9.200  1.00  0.00     0.031 C 
ATOM     40  C   UNL     1       5.941   9.386  -7.361  1.00  0.00     0.029 A 
ATOM     41  C   UNL     1       5.722   9.880  -8.717  1.00  0.00     0.049 A 
ATOM     42  H   UNL     1       3.901  10.384  -9.597  1.00  0.00     0.167 HD
ATOM     43  C   UNL     1      -0.036  10.982 -11.471  1.00  0.00     0.034 A 
ATOM     44  C   UNL     1       6.686  10.098  -9.633  1.00  0.00     0.034 A 
ATOM     45  C   UNL     1       0.929  11.335 -12.483  1.00  0.00     0.049 A 
ATOM     46  C   UNL     1       6.294  10.577 -11.008  1.00  0.00     0.074 A 
ATOM     47  C   UNL     1       0.705  11.850 -13.748  1.00  0.00     0.029 A 
ATOM     48  N   UNL     1       2.306  11.205 -12.347  1.00  0.00    -0.354 N 
ATOM     49  N   UNL     1       5.094  10.796 -11.493  1.00  0.00    -0.248 NA
ATOM     50  C   UNL     1       7.384  10.839 -11.956  1.00  0.00     0.031 C 
ATOM     51  C   UNL     1       1.939  11.982 -14.395  1.00  0.00     0.029 A 
ATOM     52  C   UNL     1       2.940  11.609 -13.512  1.00  0.00     0.049 A 
ATOM     53  H   UNL     1       2.764  10.874 -11.541  1.00  0.00     0.167 HD
ATOM     54  C   UNL     1       5.289  11.253 -12.793  1.00  0.00     0.074 A 
ATOM     55  C   UNL     1       6.720  11.278 -13.016  1.00  0.00     0.031 C 
ATOM     56  C   UNL     1       4.368  11.626 -13.716  1.00  0.00     0.034 A 
BRANCH  43  57
ATOM     57  C   UNL     1      -1.506  11.082 -11.798  1.00  0.00     0.023 A 
ATOM     58  C   UNL     1      -2.355  11.963 -11.107  1.00  0.00     0.031 A 
ATOM     59  C   UNL     1      -2.073  10.258 -12.786  1.00  0.00     0.131 A 
ATOM     60  C   UNL     1      -3.736  11.942 -11.356  1.00  0.00     0.055 A 
ATOM     61  C   UNL     1      -3.436  10.300 -13.085  1.00  0.00     0.041 A 
ATOM     62  F   UNL     1      -1.314   9.383 -13.464  1.00  0.00    -0.206 F 
ATOM     63  C   UNL     1      -4.279  11.134 -12.357  1.00  0.00     0.022 A 
BRANCH  60  64
ATOM     64  S   UNL     1      -4.826  12.879 -10.251  1.00  0.00     0.124 S 
ATOM     65  O   UNL     1      -4.529  12.268  -8.957  1.00  0.00    -0.237 OA
ATOM     66  O   UNL     1      -4.359  14.249 -10.432  1.00  0.00    -0.237 OA
ATOM     67  O   UNL     1      -6.163  12.601 -10.771  1.00  0.00    -0.744 OA
ENDBRANCH  60  64
ENDBRANCH  43  57
BRANCH  44  68
ATOM     68  C   UNL     1       8.115   9.840  -9.300  1.00  0.00     0.023 A 
ATOM     69  C   UNL     1       9.038  10.894  -9.222  1.00  0.00     0.031 A 
ATOM     70  C   UNL     1       8.584   8.531  -9.089  1.00  0.00     0.131 A 
ATOM     71  C   UNL     1      10.393  10.619  -8.981  1.00  0.00     0.055 A 
ATOM     72  C   UNL     1       9.925   8.267  -8.804  1.00  0.00     0.041 A 
ATOM     73  F   UNL     1       7.739   7.490  -9.145  1.00  0.00    -0.206 F 
ATOM     74  C   UNL     1      10.841   9.314  -8.761  1.00  0.00     0.022 A 
BRANCH  71  75
ATOM     75  S   UNL     1      11.579  11.990  -9.029  1.00  0.00     0.124 S 
ATOM     76  O   UNL     1      11.386  12.502 -10.381  1.00  0.00    -0.237 OA
ATOM     77  O   UNL     1      11.100  12.842  -7.945  1.00  0.00    -0.237 OA
ATOM     78  O   UNL     1      12.864  11.338  -8.785  1.00  0.00    -0.744 OA
ENDBRANCH  71  75
ENDBRANCH  44  68
BRANCH  56  79
ATOM     79  C   UNL     1       4.888  12.151 -15.029  1.00  0.00     0.023 A 
ATOM     80  C   UNL     1       5.483  11.307 -15.981  1.00  0.00     0.031 A 
ATOM     81  C   UNL     1       4.772  13.520 -15.330  1.00  0.00     0.131 A 
ATOM     82  C   UNL     1       5.975  11.849 -17.179  1.00  0.00     0.055 A 
ATOM     83  C   UNL     1       5.222  14.045 -16.541  1.00  0.00     0.041 A 
ATOM     84  F   UNL     1       4.210  14.367 -14.452  1.00  0.00    -0.206 F 
ATOM     85  C   UNL     1       5.835  13.209 -17.471  1.00  0.00     0.022 A 
BRANCH  82  86
ATOM     86  S   UNL     1       6.848  10.759 -18.337  1.00  0.00     0.124 S 
ATOM     87  O   UNL     1       8.000  10.338 -17.547  1.00  0.00    -0.237 OA
ATOM     88  O   UNL     1       5.851   9.729 -18.612  1.00  0.00    -0.237 OA
ATOM     89  O   UNL     1       7.157  11.635 -19.466  1.00  0.00    -0.744 OA
ENDBRANCH  82  86
ENDBRANCH  56  79
ENDBRANCH  30  31
ENDBRANCH  22  25
ENDBRANCH  20  21
ENDBRANCH  19  20
ENDBRANCH   1  19
TORSDOF 17
