REMARK SMILES C[C@H]1N=c2ccc(OC(F)(F)F)cc2=C1CCN1C(=O)c2ccc(C(=O)NCCCCNC(=O)c3ccc(-c4c5nc(c(-c6cc(S(=O)(=O)[O-])ccc6F)c6ccc([nH]6)c(-c6cc(S(=O)(=O)[O-])ccc6F)c6nc(c(-c7cc(S(=O)(=O)[O-])ccc7F)c7ccc4[nH]7)C=C6)C=C5)cc3)cc2C1=O
REMARK SMILES IDX 28 1 27 2 25 3 26 4 24 6 18 7 19 8 100 9 20 10 21 11 99 12
REMARK SMILES IDX 101 13 22 14 98 15 23 16 17 17 16 18 15 19 1 20 2 21 3 22
REMARK SMILES IDX 4 23 14 24 5 25 13 26 6 27 7 28 8 29 9 30 10 31 11 32 12 33
REMARK SMILES IDX 29 34 30 35 31 36 32 37 33 38 34 40 35 41 36 42 97 43 37 44
REMARK SMILES IDX 96 45 38 46 39 47 40 48 90 49 41 50 95 51 89 52 91 53 42 54
REMARK SMILES IDX 94 55 88 56 87 57 43 59 75 60 55 61 74 62 56 63 59 64 73 65
REMARK SMILES IDX 92 66 57 67 58 68 72 70 93 71 60 72 44 73 45 74 53 75 46 76
REMARK SMILES IDX 52 77 54 78 51 79 47 80 48 81 49 82 50 83 76 84 77 85 85 86
REMARK SMILES IDX 78 87 84 88 86 89 83 90 79 91 80 92 81 93 82 94 61 95 62 96
REMARK SMILES IDX 70 97 63 98 69 99 71 100 68 101 64 102 65 103 66 104 67 105
REMARK H PARENT 27 5 32 39 91 58 59 69
REMARK Flexibility Score: inf
ROOT
ATOM      1  C   UNL     1       3.648  -5.087  -0.794  1.00  0.00     0.116 C 
ENDROOT
BRANCH   1   2
ATOM      2  N   UNL     1       4.839  -5.028   0.039  1.00  0.00    -0.352 N 
ATOM      3  C   UNL     1       5.253  -4.103   0.959  1.00  0.00     0.251 C 
ATOM      4  O   UNL     1       6.192  -4.362   1.707  1.00  0.00    -0.269 OA
ATOM      5  H   UNL     1       5.455  -5.786  -0.080  1.00  0.00     0.163 HD
BRANCH   3   6
ATOM      6  C   UNL     1       4.574  -2.802   1.120  1.00  0.00     0.040 A 
ATOM      7  N   UNL     1       2.571   1.206   0.182  1.00  0.00    -0.274 N 
ATOM      8  C   UNL     1       2.595   0.864   1.511  1.00  0.00     0.261 C 
ATOM      9  C   UNL     1       3.375   0.381  -0.558  1.00  0.00     0.261 C 
ATOM     10  O   UNL     1       2.093   1.430   2.459  1.00  0.00    -0.269 OA
ATOM     11  C   UNL     1       3.350  -0.385   1.604  1.00  0.00     0.053 A 
ATOM     12  C   UNL     1       3.807  -0.700   0.334  1.00  0.00     0.054 A 
ATOM     13  O   UNL     1       3.675   0.449  -1.736  1.00  0.00    -0.269 OA
ATOM     14  C   UNL     1       3.526  -1.229   2.681  1.00  0.00     0.015 A 
ATOM     15  C   UNL     1       4.424  -1.908   0.051  1.00  0.00     0.028 A 
ATOM     16  C   UNL     1       4.158  -2.450   2.429  1.00  0.00     0.015 A 
BRANCH   7  17
ATOM     17  C   UNL     1       1.847   2.364  -0.312  1.00  0.00     0.134 C 
BRANCH  17  18
ATOM     18  C   UNL     1       1.075   2.187  -1.633  1.00  0.00     0.056 C 
BRANCH  18  19
ATOM     19  C   UNL     1      -0.080   1.217  -1.706  1.00  0.00    -0.035 C 
ATOM     20  C   UNL     1       0.259  -0.966  -0.395  1.00  0.00     0.038 C 
ATOM     21  C   UNL     1       0.119  -0.287  -1.758  1.00  0.00     0.129 C 
ATOM     22  N   UNL     1      -1.151  -0.829  -2.300  1.00  0.00    -0.277 NA
ATOM     23  C   UNL     1      -1.938   0.196  -2.287  1.00  0.00     0.066 A 
ATOM     24  C   UNL     1      -1.364   1.508  -1.956  1.00  0.00     0.005 A 
ATOM     25  C   UNL     1      -3.372   0.146  -2.604  1.00  0.00     0.032 A 
ATOM     26  C   UNL     1      -2.156   2.697  -2.086  1.00  0.00     0.057 A 
ATOM     27  C   UNL     1      -4.075   1.289  -2.623  1.00  0.00     0.049 A 
ATOM     28  C   UNL     1      -3.464   2.599  -2.405  1.00  0.00     0.130 A 
BRANCH  28  29
ATOM     29  O   UNL     1      -4.204   3.759  -2.522  1.00  0.00    -0.406 OA
BRANCH  29  30
ATOM     30  C   UNL     1      -5.542   3.702  -2.991  1.00  0.00     0.573 C 
ATOM     31  F   UNL     1      -5.620   3.077  -4.186  1.00  0.00    -0.132 F 
ATOM     32  F   UNL     1      -6.335   3.069  -2.100  1.00  0.00    -0.132 F 
ATOM     33  F   UNL     1      -6.006   4.961  -3.146  1.00  0.00    -0.132 F 
ENDBRANCH  29  30
ENDBRANCH  28  29
ENDBRANCH  18  19
ENDBRANCH  17  18
ENDBRANCH   7  17
ENDBRANCH   3   6
ENDBRANCH   1   2
BRANCH   1  34
ATOM     34  C   UNL     1       3.978  -5.365  -2.263  1.00  0.00     0.023 C 
BRANCH  34  35
ATOM     35  C   UNL     1       4.760  -6.656  -2.538  1.00  0.00     0.023 C 
BRANCH  35  36
ATOM     36  C   UNL     1       4.059  -7.959  -2.157  1.00  0.00     0.116 C 
BRANCH  36  37
ATOM     37  N   UNL     1       2.913  -8.266  -3.000  1.00  0.00    -0.352 N 
ATOM     38  C   UNL     1       2.630  -9.398  -3.737  1.00  0.00     0.251 C 
ATOM     39  H   UNL     1       2.234  -7.555  -3.053  1.00  0.00     0.163 HD
ATOM     40  O   UNL     1       1.651  -9.402  -4.479  1.00  0.00    -0.269 OA
BRANCH  38  41
ATOM     41  C   UNL     1       3.519 -10.585  -3.676  1.00  0.00     0.039 A 
ATOM     42  C   UNL     1       4.031 -11.046  -2.463  1.00  0.00     0.014 A 
ATOM     43  C   UNL     1       3.859 -11.242  -4.863  1.00  0.00     0.014 A 
ATOM     44  C   UNL     1       5.025 -12.023  -2.456  1.00  0.00     0.010 A 
ATOM     45  C   UNL     1       4.795 -12.285  -4.845  1.00  0.00     0.010 A 
ATOM     46  C   UNL     1       5.437 -12.642  -3.649  1.00  0.00    -0.014 A 
BRANCH  46  47
ATOM     47  C   UNL     1       6.548 -13.635  -3.620  1.00  0.00     0.031 A 
ATOM     48  C   UNL     1       7.847 -13.363  -4.338  1.00  0.00     0.074 A 
ATOM     49  C   UNL     1       6.412 -14.767  -2.900  1.00  0.00     0.049 A 
ATOM     50  N   UNL     1       8.932 -14.094  -4.378  1.00  0.00    -0.248 NA
ATOM     51  C   UNL     1       7.944 -12.115  -5.112  1.00  0.00     0.031 C 
ATOM     52  C   UNL     1       5.203 -15.150  -2.171  1.00  0.00     0.029 A 
ATOM     53  N   UNL     1       7.291 -15.793  -2.649  1.00  0.00    -0.354 N 
ATOM     54  C   UNL     1       9.829 -13.409  -5.192  1.00  0.00     0.074 A 
ATOM     55  C   UNL     1       9.152 -12.217  -5.652  1.00  0.00     0.031 C 
ATOM     56  C   UNL     1       5.428 -16.301  -1.523  1.00  0.00     0.029 A 
ATOM     57  C   UNL     1       6.773 -16.779  -1.840  1.00  0.00     0.049 A 
ATOM     58  H   UNL     1       8.205 -15.821  -3.013  1.00  0.00     0.167 HD
ATOM     59  C   UNL     1      11.104 -13.736  -5.511  1.00  0.00     0.034 A 
ATOM     60  C   UNL     1       7.304 -17.943  -1.409  1.00  0.00     0.034 A 
ATOM     61  C   UNL     1      11.785 -14.906  -5.017  1.00  0.00     0.049 A 
ATOM     62  C   UNL     1       8.724 -18.284  -1.782  1.00  0.00     0.074 A 
ATOM     63  C   UNL     1      13.098 -15.283  -5.242  1.00  0.00     0.029 A 
ATOM     64  N   UNL     1      11.224 -15.881  -4.207  1.00  0.00    -0.354 N 
ATOM     65  N   UNL     1       9.579 -17.583  -2.489  1.00  0.00    -0.248 NA
ATOM     66  C   UNL     1       9.261 -19.563  -1.296  1.00  0.00     0.031 C 
ATOM     67  C   UNL     1      13.310 -16.516  -4.629  1.00  0.00     0.029 A 
ATOM     68  C   UNL     1      12.156 -16.874  -3.952  1.00  0.00     0.049 A 
ATOM     69  H   UNL     1      10.301 -15.870  -3.865  1.00  0.00     0.167 HD
ATOM     70  C   UNL     1      10.756 -18.327  -2.517  1.00  0.00     0.074 A 
ATOM     71  C   UNL     1      10.515 -19.516  -1.729  1.00  0.00     0.031 C 
ATOM     72  C   UNL     1      11.925 -18.050  -3.148  1.00  0.00     0.034 A 
BRANCH  59  73
ATOM     73  C   UNL     1      11.892 -12.825  -6.421  1.00  0.00     0.023 A 
ATOM     74  C   UNL     1      12.353 -13.306  -7.662  1.00  0.00     0.031 A 
ATOM     75  C   UNL     1      12.336 -11.563  -5.990  1.00  0.00     0.131 A 
ATOM     76  C   UNL     1      13.273 -12.554  -8.402  1.00  0.00     0.055 A 
ATOM     77  C   UNL     1      13.219 -10.798  -6.753  1.00  0.00     0.041 A 
ATOM     78  F   UNL     1      11.926 -11.062  -4.813  1.00  0.00    -0.206 F 
ATOM     79  C   UNL     1      13.705 -11.300  -7.957  1.00  0.00     0.022 A 
BRANCH  76  80
ATOM     80  S   UNL     1      14.006 -13.206  -9.928  1.00  0.00     0.124 S 
ATOM     81  O   UNL     1      13.666 -12.164 -10.894  1.00  0.00    -0.237 OA
ATOM     82  O   UNL     1      15.420 -13.292  -9.575  1.00  0.00    -0.237 OA
ATOM     83  O   UNL     1      13.325 -14.481 -10.128  1.00  0.00    -0.744 OA
ENDBRANCH  76  80
ENDBRANCH  59  73
BRANCH  60  84
ATOM     84  C   UNL     1       6.476 -18.843  -0.551  1.00  0.00     0.023 A 
ATOM     85  C   UNL     1       5.258 -19.365  -1.026  1.00  0.00     0.031 A 
ATOM     86  C   UNL     1       6.831 -19.109   0.781  1.00  0.00     0.131 A 
ATOM     87  C   UNL     1       4.405 -20.055  -0.156  1.00  0.00     0.055 A 
ATOM     88  C   UNL     1       6.014 -19.867   1.623  1.00  0.00     0.041 A 
ATOM     89  F   UNL     1       7.976 -18.625   1.287  1.00  0.00    -0.206 F 
ATOM     90  C   UNL     1       4.785 -20.326   1.161  1.00  0.00     0.022 A 
BRANCH  87  91
ATOM     91  S   UNL     1       2.715 -20.480  -0.660  1.00  0.00     0.124 S 
ATOM     92  O   UNL     1       2.742 -21.938  -0.613  1.00  0.00    -0.237 OA
ATOM     93  O   UNL     1       1.920 -19.829   0.379  1.00  0.00    -0.237 OA
ATOM     94  O   UNL     1       2.594 -19.892  -1.990  1.00  0.00    -0.744 OA
ENDBRANCH  87  91
ENDBRANCH  60  84
BRANCH  72  95
ATOM     95  C   UNL     1      13.068 -19.030  -3.032  1.00  0.00     0.023 A 
ATOM     96  C   UNL     1      14.284 -18.627  -2.445  1.00  0.00     0.031 A 
ATOM     97  C   UNL     1      13.016 -20.291  -3.651  1.00  0.00     0.131 A 
ATOM     98  C   UNL     1      15.410 -19.455  -2.532  1.00  0.00     0.055 A 
ATOM     99  C   UNL     1      14.128 -21.134  -3.691  1.00  0.00     0.041 A 
ATOM    100  F   UNL     1      11.885 -20.717  -4.236  1.00  0.00    -0.206 F 
ATOM    101  C   UNL     1      15.336 -20.710  -3.145  1.00  0.00     0.022 A 
BRANCH  98 102
ATOM    102  S   UNL     1      17.033 -18.895  -1.945  1.00  0.00     0.124 S 
ATOM    103  O   UNL     1      17.340 -19.887  -0.917  1.00  0.00    -0.237 OA
ATOM    104  O   UNL     1      17.845 -18.980  -3.155  1.00  0.00    -0.237 OA
ATOM    105  O   UNL     1      16.783 -17.545  -1.450  1.00  0.00    -0.744 OA
ENDBRANCH  98 102
ENDBRANCH  72  95
ENDBRANCH  46  47
ENDBRANCH  38  41
ENDBRANCH  36  37
ENDBRANCH  35  36
ENDBRANCH  34  35
ENDBRANCH   1  34
TORSDOF 19
