REMARK SMILES CC1CC[NH+]([C@H](c2ccc(F)cc2)c2ccc([C@@H](C)C(=O)NCCCCNC(=O)c3ccc(-c4c5nc(c(-c6cc(S(=O)(=O)[O-])ccc6F)c6ccc([nH]6)c(-c6cc(S(=O)(=O)[O-])ccc6F)c6nc(c(-c7cc(S(=O)(=O)[O-])ccc7F)c7ccc4[nH]7)C=C6)C=C5)cc3)cc2-c2ccc(C(F)(F)F)cc2)CC1
REMARK SMILES IDX 24 1 23 2 22 3 20 4 21 5 18 7 19 8 17 9 14 10 15 11 94 12
REMARK SMILES IDX 16 13 93 14 6 15 5 16 1 17 2 18 3 19 106 20 4 21 105 22 7 24
REMARK SMILES IDX 8 25 13 26 9 27 12 28 10 29 11 30 95 31 96 32 104 33 97 34
REMARK SMILES IDX 103 35 98 36 99 37 100 38 101 39 102 40 25 41 26 42 27 43
REMARK SMILES IDX 28 44 29 46 30 47 31 48 92 49 32 50 91 51 33 52 34 53 35 54
REMARK SMILES IDX 85 55 36 56 90 57 84 58 86 59 37 60 89 61 83 62 82 63 38 65
REMARK SMILES IDX 70 66 50 67 69 68 51 69 54 70 68 71 87 72 52 73 53 74 67 76
REMARK SMILES IDX 88 77 55 78 39 79 40 80 48 81 41 82 47 83 49 84 46 85 42 86
REMARK SMILES IDX 43 87 44 88 45 89 71 90 72 91 80 92 73 93 79 94 81 95 78 96
REMARK SMILES IDX 74 97 75 98 76 99 77 100 56 101 57 102 65 103 58 104 64 105
REMARK SMILES IDX 66 106 63 107 59 108 60 109 61 110 62 111
REMARK H PARENT 22 6 5 23 27 45 86 64 54 75
REMARK Flexibility Score: inf
ROOT
ATOM      1  C   UNL     1       1.070   5.201  -3.768  1.00  0.00     0.023 C 
ENDROOT
BRANCH   1   2
ATOM      2  C   UNL     1       2.218   5.963  -4.439  1.00  0.00     0.116 C 
BRANCH   2   3
ATOM      3  N   UNL     1       3.281   6.288  -3.505  1.00  0.00    -0.356 N 
ATOM      4  C   UNL     1       4.447   5.666  -3.177  1.00  0.00     0.227 C 
ATOM      5  O   UNL     1       5.113   6.200  -2.279  1.00  0.00    -0.274 OA
ATOM      6  H   UNL     1       3.128   7.125  -3.010  1.00  0.00     0.163 HD
BRANCH   4   7
ATOM      7  C   UNL     1       4.977   4.381  -3.845  1.00  0.00     0.105 C 
ATOM      8  C   UNL     1       5.229   4.515  -5.345  1.00  0.00     0.023 C 
BRANCH   7   9
ATOM      9  C   UNL     1       4.228   3.131  -3.418  1.00  0.00    -0.035 A 
ATOM     10  C   UNL     1       2.613   1.046  -2.292  1.00  0.00     0.022 A 
ATOM     11  C   UNL     1       2.207   1.812  -3.397  1.00  0.00     0.011 A 
ATOM     12  C   UNL     1       3.960   1.224  -1.869  1.00  0.00    -0.009 A 
ATOM     13  C   UNL     1       3.027   2.764  -3.998  1.00  0.00     0.005 A 
ATOM     14  C   UNL     1       4.705   2.318  -2.382  1.00  0.00     0.013 A 
BRANCH  10  15
ATOM     15  C   UNL     1       1.645   0.021  -1.627  1.00  0.00     0.247 C 
BRANCH  15  16
ATOM     16  N   UNL     1       0.206   0.022  -2.054  1.00  0.00    -0.325 N 
ATOM     17  C   UNL     1      -3.321   1.331  -4.341  1.00  0.00     0.008 C 
ATOM     18  C   UNL     1      -1.938   1.115  -3.734  1.00  0.00    -0.003 C 
ATOM     19  C   UNL     1      -1.404  -0.288  -4.017  1.00  0.00     0.065 C 
ATOM     20  C   UNL     1      -1.973   1.286  -2.222  1.00  0.00     0.065 C 
ATOM     21  C   UNL     1      -0.024  -0.537  -3.389  1.00  0.00     0.263 C 
ATOM     22  C   UNL     1      -0.560   1.204  -1.653  1.00  0.00     0.263 C 
ATOM     23  H   UNL     1      -0.252  -0.680  -1.473  1.00  0.00     0.348 HD
ENDBRANCH  15  16
BRANCH  15  24
ATOM     24  C   UNL     1       1.724  -0.002  -0.084  1.00  0.00     0.014 A 
ATOM     25  C   UNL     1       1.644   1.177   0.686  1.00  0.00     0.013 A 
ATOM     26  C   UNL     1       1.876  -1.230   0.588  1.00  0.00     0.013 A 
ATOM     27  C   UNL     1       1.715   1.127   2.079  1.00  0.00     0.040 A 
ATOM     28  C   UNL     1       1.974  -1.274   1.980  1.00  0.00     0.040 A 
ATOM     29  C   UNL     1       1.888  -0.097   2.712  1.00  0.00     0.123 A 
ATOM     30  F   UNL     1       1.975  -0.143   4.048  1.00  0.00    -0.207 F 
ENDBRANCH  15  24
ENDBRANCH  10  15
BRANCH  12  31
ATOM     31  C   UNL     1       4.669   0.283  -0.979  1.00  0.00    -0.018 A 
ATOM     32  C   UNL     1       5.218   0.692   0.246  1.00  0.00     0.009 A 
ATOM     33  C   UNL     1       4.864  -1.050  -1.378  1.00  0.00     0.009 A 
ATOM     34  C   UNL     1       5.913  -0.211   1.058  1.00  0.00     0.014 A 
ATOM     35  C   UNL     1       5.552  -1.956  -0.567  1.00  0.00     0.014 A 
ATOM     36  C   UNL     1       6.079  -1.547   0.664  1.00  0.00     0.056 A 
BRANCH  36  37
ATOM     37  C   UNL     1       6.837  -2.511   1.540  1.00  0.00     0.416 C 
ATOM     38  F   UNL     1       8.180  -2.280   1.527  1.00  0.00    -0.166 F 
ATOM     39  F   UNL     1       6.461  -2.452   2.848  1.00  0.00    -0.166 F 
ATOM     40  F   UNL     1       6.684  -3.816   1.171  1.00  0.00    -0.166 F 
ENDBRANCH  36  37
ENDBRANCH  12  31
ENDBRANCH   7   9
ENDBRANCH   4   7
ENDBRANCH   2   3
ENDBRANCH   1   2
BRANCH   1  41
ATOM     41  C   UNL     1      -0.090   6.053  -3.262  1.00  0.00     0.023 C 
BRANCH  41  42
ATOM     42  C   UNL     1      -0.850   6.819  -4.336  1.00  0.00     0.116 C 
BRANCH  42  43
ATOM     43  N   UNL     1      -1.402   5.982  -5.390  1.00  0.00    -0.352 N 
ATOM     44  C   UNL     1      -2.541   6.194  -6.143  1.00  0.00     0.251 C 
ATOM     45  H   UNL     1      -0.901   5.159  -5.592  1.00  0.00     0.163 HD
ATOM     46  O   UNL     1      -2.909   5.353  -6.944  1.00  0.00    -0.269 OA
BRANCH  44  47
ATOM     47  C   UNL     1      -3.329   7.428  -5.916  1.00  0.00     0.039 A 
ATOM     48  C   UNL     1      -4.707   7.316  -5.714  1.00  0.00     0.014 A 
ATOM     49  C   UNL     1      -2.703   8.674  -5.830  1.00  0.00     0.014 A 
ATOM     50  C   UNL     1      -5.439   8.443  -5.334  1.00  0.00     0.010 A 
ATOM     51  C   UNL     1      -3.418   9.776  -5.371  1.00  0.00     0.010 A 
ATOM     52  C   UNL     1      -4.791   9.669  -5.109  1.00  0.00    -0.014 A 
BRANCH  52  53
ATOM     53  C   UNL     1      -5.531  10.842  -4.579  1.00  0.00     0.031 A 
ATOM     54  C   UNL     1      -5.662  12.092  -5.403  1.00  0.00     0.074 A 
ATOM     55  C   UNL     1      -6.035  10.800  -3.330  1.00  0.00     0.049 A 
ATOM     56  N   UNL     1      -6.229  13.229  -5.094  1.00  0.00    -0.248 NA
ATOM     57  C   UNL     1      -5.047  12.069  -6.739  1.00  0.00     0.031 C 
ATOM     58  C   UNL     1      -5.930   9.661  -2.415  1.00  0.00     0.029 A 
ATOM     59  N   UNL     1      -6.744  11.733  -2.617  1.00  0.00    -0.354 N 
ATOM     60  C   UNL     1      -6.033  14.060  -6.191  1.00  0.00     0.074 A 
ATOM     61  C   UNL     1      -5.238  13.316  -7.144  1.00  0.00     0.031 C 
ATOM     62  C   UNL     1      -6.594   9.944  -1.283  1.00  0.00     0.029 A 
ATOM     63  C   UNL     1      -7.138  11.296  -1.375  1.00  0.00     0.049 A 
ATOM     64  H   UNL     1      -6.950  12.632  -2.962  1.00  0.00     0.167 HD
ATOM     65  C   UNL     1      -6.499  15.316  -6.397  1.00  0.00     0.034 A 
ATOM     66  C   UNL     1      -7.862  11.909  -0.418  1.00  0.00     0.034 A 
ATOM     67  C   UNL     1      -7.307  16.038  -5.447  1.00  0.00     0.049 A 
ATOM     68  C   UNL     1      -8.360  13.306  -0.657  1.00  0.00     0.074 A 
ATOM     69  C   UNL     1      -7.870  17.296  -5.575  1.00  0.00     0.029 A 
ATOM     70  N   UNL     1      -7.666  15.568  -4.191  1.00  0.00    -0.354 N 
ATOM     71  N   UNL     1      -8.178  14.074  -1.705  1.00  0.00    -0.248 NA
ATOM     72  C   UNL     1      -9.160  13.920   0.411  1.00  0.00     0.031 C 
ATOM     73  C   UNL     1      -8.525  17.607  -4.379  1.00  0.00     0.029 A 
ATOM     74  C   UNL     1      -8.424  16.519  -3.526  1.00  0.00     0.049 A 
ATOM     75  H   UNL     1      -7.418  14.688  -3.825  1.00  0.00     0.167 HD
ATOM     76  C   UNL     1      -8.858  15.255  -1.433  1.00  0.00     0.074 A 
ATOM     77  C   UNL     1      -9.450  15.102  -0.118  1.00  0.00     0.031 C 
ATOM     78  C   UNL     1      -8.991  16.360  -2.209  1.00  0.00     0.034 A 
BRANCH  65  79
ATOM     79  C   UNL     1      -6.131  15.983  -7.698  1.00  0.00     0.023 A 
ATOM     80  C   UNL     1      -6.580  15.480  -8.931  1.00  0.00     0.031 A 
ATOM     81  C   UNL     1      -5.299  17.116  -7.710  1.00  0.00     0.131 A 
ATOM     82  C   UNL     1      -6.136  16.061 -10.127  1.00  0.00     0.055 A 
ATOM     83  C   UNL     1      -4.924  17.738  -8.903  1.00  0.00     0.041 A 
ATOM     84  F   UNL     1      -4.824  17.628  -6.564  1.00  0.00    -0.206 F 
ATOM     85  C   UNL     1      -5.332  17.203 -10.122  1.00  0.00     0.022 A 
BRANCH  82  86
ATOM     86  S   UNL     1      -6.523  15.227 -11.690  1.00  0.00     0.124 S 
ATOM     87  O   UNL     1      -5.828  13.953 -11.521  1.00  0.00    -0.237 OA
ATOM     88  O   UNL     1      -7.980  15.168 -11.666  1.00  0.00    -0.237 OA
ATOM     89  O   UNL     1      -5.951  16.113 -12.702  1.00  0.00    -0.744 OA
ENDBRANCH  82  86
ENDBRANCH  65  79
BRANCH  66  90
ATOM     90  C   UNL     1      -8.173  11.181   0.840  1.00  0.00     0.023 A 
ATOM     91  C   UNL     1      -9.454  10.655   1.065  1.00  0.00     0.031 A 
ATOM     92  C   UNL     1      -7.178  10.949   1.805  1.00  0.00     0.131 A 
ATOM     93  C   UNL     1      -9.711   9.925   2.235  1.00  0.00     0.055 A 
ATOM     94  C   UNL     1      -7.431  10.200   2.955  1.00  0.00     0.041 A 
ATOM     95  F   UNL     1      -5.933  11.416   1.619  1.00  0.00    -0.206 F 
ATOM     96  C   UNL     1      -8.705   9.684   3.175  1.00  0.00     0.022 A 
BRANCH  93  97
ATOM     97  S   UNL     1     -11.380   9.269   2.507  1.00  0.00     0.124 S 
ATOM     98  O   UNL     1     -12.144  10.490   2.734  1.00  0.00    -0.237 OA
ATOM     99  O   UNL     1     -11.644   8.568   1.254  1.00  0.00    -0.237 OA
ATOM    100  O   UNL     1     -11.218   8.405   3.675  1.00  0.00    -0.744 OA
ENDBRANCH  93  97
ENDBRANCH  66  90
BRANCH  78 101
ATOM    101  C   UNL     1      -9.834  17.485  -1.675  1.00  0.00     0.023 A 
ATOM    102  C   UNL     1      -9.366  18.340  -0.664  1.00  0.00     0.031 A 
ATOM    103  C   UNL     1     -11.098  17.740  -2.236  1.00  0.00     0.131 A 
ATOM    104  C   UNL     1     -10.169  19.404  -0.229  1.00  0.00     0.055 A 
ATOM    105  C   UNL     1     -11.875  18.823  -1.827  1.00  0.00     0.041 A 
ATOM    106  F   UNL     1     -11.583  16.952  -3.209  1.00  0.00    -0.206 F 
ATOM    107  C   UNL     1     -11.412  19.662  -0.817  1.00  0.00     0.022 A 
BRANCH 104 108
ATOM    108  S   UNL     1      -9.575  20.454   1.125  1.00  0.00     0.124 S 
ATOM    109  O   UNL     1      -9.608  19.532   2.256  1.00  0.00    -0.237 OA
ATOM    110  O   UNL     1      -8.249  20.849   0.663  1.00  0.00    -0.237 OA
ATOM    111  O   UNL     1     -10.558  21.535   1.177  1.00  0.00    -0.744 OA
ENDBRANCH 104 108
ENDBRANCH  78 101
ENDBRANCH  52  53
ENDBRANCH  44  47
ENDBRANCH  42  43
ENDBRANCH  41  42
ENDBRANCH   1  41
TORSDOF 20
