REMARK SMILES O=C(NCCCCNC(=O)[C@@H]1CCN(c2ncnc3c2CCCCC3)C1)c1ccc(-c2c3nc(c(-c4cc(S(=O)(=O)[O-])ccc4F)c4ccc([nH]4)c(-c4cc(S(=O)(=O)[O-])ccc4F)c4nc(c(-c5cc(S(=O)(=O)[O-])ccc5F)c5ccc2[nH]5)C=C4)C=C3)cc1
REMARK SMILES IDX 6 1 5 2 4 3 3 4 1 5 2 6 27 8 28 9 89 10 29 11 88 12 30 13
REMARK SMILES IDX 31 14 32 15 82 16 33 17 87 18 81 19 83 20 34 21 86 22 80 23
REMARK SMILES IDX 79 24 35 26 67 27 47 28 66 29 48 30 51 31 65 32 84 33 49 34
REMARK SMILES IDX 50 35 64 37 85 38 52 39 36 40 37 41 45 42 38 43 44 44 46 45
REMARK SMILES IDX 43 46 39 47 40 48 41 49 42 50 68 51 69 52 77 53 70 54 76 55
REMARK SMILES IDX 78 56 75 57 71 58 72 59 73 60 74 61 53 62 54 63 62 64 55 65
REMARK SMILES IDX 61 66 63 67 60 68 56 69 57 70 58 71 59 72 7 73 8 74 9 75
REMARK SMILES IDX 10 77 11 78 12 79 26 80 13 81 14 82 15 83 16 84 20 85 17 86
REMARK SMILES IDX 19 87 18 88 21 89 22 90 23 91 25 93 24 94
REMARK H PARENT 3 7 83 25 51 36 8 76
REMARK Flexibility Score: 90.00
ROOT
ATOM      1  C   UNL     1       4.552  -0.848   3.804  1.00  0.00     0.023 C 
ENDROOT
BRANCH   1   2
ATOM      2  C   UNL     1       4.980  -0.011   2.600  1.00  0.00     0.023 C 
BRANCH   2   3
ATOM      3  C   UNL     1       4.601  -0.567   1.231  1.00  0.00     0.116 C 
BRANCH   3   4
ATOM      4  N   UNL     1       3.164  -0.597   0.998  1.00  0.00    -0.352 N 
ATOM      5  O   UNL     1       1.191   0.026   0.094  1.00  0.00    -0.269 OA
ATOM      6  C   UNL     1       2.414   0.092   0.070  1.00  0.00     0.251 C 
ATOM      7  H   UNL     1       2.655  -1.197   1.590  1.00  0.00     0.163 HD
BRANCH   6   8
ATOM      8  C   UNL     1       3.095   0.944  -0.931  1.00  0.00     0.039 A 
ATOM      9  C   UNL     1       4.166   0.446  -1.675  1.00  0.00     0.014 A 
ATOM     10  C   UNL     1       2.686   2.271  -1.087  1.00  0.00     0.014 A 
ATOM     11  C   UNL     1       4.941   1.319  -2.430  1.00  0.00     0.010 A 
ATOM     12  C   UNL     1       3.420   3.129  -1.913  1.00  0.00     0.010 A 
ATOM     13  C   UNL     1       4.585   2.673  -2.551  1.00  0.00    -0.014 A 
BRANCH  13  14
ATOM     14  C   UNL     1       5.455   3.594  -3.328  1.00  0.00     0.031 A 
ATOM     15  C   UNL     1       6.195   4.713  -2.639  1.00  0.00     0.074 A 
ATOM     16  C   UNL     1       5.638   3.375  -4.645  1.00  0.00     0.049 A 
ATOM     17  N   UNL     1       6.970   5.631  -3.159  1.00  0.00    -0.248 NA
ATOM     18  C   UNL     1       6.049   4.814  -1.178  1.00  0.00     0.031 C 
ATOM     19  C   UNL     1       5.013   2.296  -5.414  1.00  0.00     0.029 A 
ATOM     20  N   UNL     1       6.424   4.023  -5.564  1.00  0.00    -0.354 N 
ATOM     21  C   UNL     1       7.394   6.423  -2.097  1.00  0.00     0.074 A 
ATOM     22  C   UNL     1       6.772   5.892  -0.903  1.00  0.00     0.031 C 
ATOM     23  C   UNL     1       5.485   2.320  -6.669  1.00  0.00     0.029 A 
ATOM     24  C   UNL     1       6.384   3.459  -6.818  1.00  0.00     0.049 A 
ATOM     25  H   UNL     1       6.965   4.816  -5.346  1.00  0.00     0.167 HD
ATOM     26  C   UNL     1       8.230   7.490  -2.116  1.00  0.00     0.034 A 
ATOM     27  C   UNL     1       6.985   3.829  -7.965  1.00  0.00     0.034 A 
ATOM     28  C   UNL     1       8.858   8.004  -3.308  1.00  0.00     0.049 A 
ATOM     29  C   UNL     1       7.849   5.059  -7.968  1.00  0.00     0.074 A 
ATOM     30  C   UNL     1       9.704   9.093  -3.435  1.00  0.00     0.029 A 
ATOM     31  N   UNL     1       8.719   7.461  -4.577  1.00  0.00    -0.354 N 
ATOM     32  N   UNL     1       8.171   5.843  -6.966  1.00  0.00    -0.248 NA
ATOM     33  C   UNL     1       8.413   5.467  -9.261  1.00  0.00     0.031 C 
ATOM     34  C   UNL     1      10.041   9.234  -4.786  1.00  0.00     0.029 A 
ATOM     35  C   UNL     1       9.448   8.201  -5.493  1.00  0.00     0.049 A 
ATOM     36  H   UNL     1       8.181   6.666  -4.794  1.00  0.00     0.167 HD
ATOM     37  C   UNL     1       8.976   6.838  -7.510  1.00  0.00     0.074 A 
ATOM     38  C   UNL     1       9.112   6.540  -8.922  1.00  0.00     0.031 C 
ATOM     39  C   UNL     1       9.546   7.906  -6.900  1.00  0.00     0.034 A 
BRANCH  26  40
ATOM     40  C   UNL     1       8.494   8.200  -0.815  1.00  0.00     0.023 A 
ATOM     41  C   UNL     1       9.308   7.636   0.180  1.00  0.00     0.031 A 
ATOM     42  C   UNL     1       7.957   9.480  -0.589  1.00  0.00     0.131 A 
ATOM     43  C   UNL     1       9.541   8.340   1.371  1.00  0.00     0.055 A 
ATOM     44  C   UNL     1       8.235  10.198   0.575  1.00  0.00     0.041 A 
ATOM     45  F   UNL     1       7.160  10.056  -1.503  1.00  0.00    -0.206 F 
ATOM     46  C   UNL     1       9.030   9.627   1.565  1.00  0.00     0.022 A 
BRANCH  43  47
ATOM     47  S   UNL     1      10.490   7.538   2.693  1.00  0.00     0.124 S 
ATOM     48  O   UNL     1       9.569   6.487   3.118  1.00  0.00    -0.237 OA
ATOM     49  O   UNL     1      11.692   7.091   1.999  1.00  0.00    -0.237 OA
ATOM     50  O   UNL     1      10.696   8.610   3.665  1.00  0.00    -0.744 OA
ENDBRANCH  43  47
ENDBRANCH  26  40
BRANCH  27  51
ATOM     51  C   UNL     1       6.751   3.061  -9.219  1.00  0.00     0.023 A 
ATOM     52  C   UNL     1       7.795   2.364  -9.844  1.00  0.00     0.031 A 
ATOM     53  C   UNL     1       5.482   3.041  -9.826  1.00  0.00     0.131 A 
ATOM     54  C   UNL     1       7.560   1.700 -11.058  1.00  0.00     0.055 A 
ATOM     55  C   UNL     1       5.243   2.341 -11.008  1.00  0.00     0.041 A 
ATOM     56  F   UNL     1       4.451   3.692  -9.264  1.00  0.00    -0.206 F 
ATOM     57  C   UNL     1       6.289   1.673 -11.636  1.00  0.00     0.022 A 
BRANCH  54  58
ATOM     58  S   UNL     1       8.959   0.916 -11.905  1.00  0.00     0.124 S 
ATOM     59  O   UNL     1       9.833   2.057 -12.153  1.00  0.00    -0.237 OA
ATOM     60  O   UNL     1       9.421  -0.042 -10.905  1.00  0.00    -0.237 OA
ATOM     61  O   UNL     1       8.349   0.326 -13.094  1.00  0.00    -0.744 OA
ENDBRANCH  54  58
ENDBRANCH  27  51
BRANCH  39  62
ATOM     62  C   UNL     1      10.369   8.819  -7.767  1.00  0.00     0.023 A 
ATOM     63  C   UNL     1       9.763   9.663  -8.713  1.00  0.00     0.031 A 
ATOM     64  C   UNL     1      11.769   8.838  -7.655  1.00  0.00     0.131 A 
ATOM     65  C   UNL     1      10.560  10.459  -9.546  1.00  0.00     0.055 A 
ATOM     66  C   UNL     1      12.555   9.667  -8.455  1.00  0.00     0.041 A 
ATOM     67  F   UNL     1      12.393   8.049  -6.765  1.00  0.00    -0.206 F 
ATOM     68  C   UNL     1      11.952  10.477  -9.414  1.00  0.00     0.022 A 
BRANCH  65  69
ATOM     69  S   UNL     1       9.757  11.431 -10.850  1.00  0.00     0.124 S 
ATOM     70  O   UNL     1       9.174  10.388 -11.689  1.00  0.00    -0.237 OA
ATOM     71  O   UNL     1       8.809  12.246 -10.096  1.00  0.00    -0.237 OA
ATOM     72  O   UNL     1      10.862  12.171 -11.457  1.00  0.00    -0.744 OA
ENDBRANCH  65  69
ENDBRANCH  39  62
ENDBRANCH  13  14
ENDBRANCH   6   8
ENDBRANCH   3   4
ENDBRANCH   2   3
ENDBRANCH   1   2
BRANCH   1  73
ATOM     73  C   UNL     1       4.864  -2.338   3.726  1.00  0.00     0.116 C 
BRANCH  73  74
ATOM     74  N   UNL     1       6.253  -2.650   3.444  1.00  0.00    -0.356 N 
ATOM     75  C   UNL     1       6.914  -3.834   3.619  1.00  0.00     0.224 C 
ATOM     76  H   UNL     1       6.791  -1.910   3.078  1.00  0.00     0.163 HD
ATOM     77  O   UNL     1       8.052  -3.935   3.161  1.00  0.00    -0.275 OA
BRANCH  75  78
ATOM     78  C   UNL     1       6.269  -4.939   4.441  1.00  0.00     0.099 C 
ATOM     79  C   UNL     1       7.116  -6.229   4.497  1.00  0.00     0.037 C 
ATOM     80  C   UNL     1       4.923  -5.387   3.866  1.00  0.00     0.131 C 
ATOM     81  C   UNL     1       6.373  -7.218   3.599  1.00  0.00     0.119 C 
ATOM     82  N   UNL     1       4.994  -6.840   3.853  1.00  0.00    -0.355 N 
BRANCH  82  83
ATOM     83  C   UNL     1       3.955  -7.519   3.250  1.00  0.00     0.135 A 
ATOM     84  N   UNL     1       3.383  -6.950   2.172  1.00  0.00    -0.219 NA
ATOM     85  C   UNL     1       3.441  -8.680   3.825  1.00  0.00     0.016 A 
ATOM     86  C   UNL     1       2.300  -7.547   1.668  1.00  0.00     0.224 A 
ATOM     87  C   UNL     1       2.283  -9.190   3.244  1.00  0.00     0.049 A 
ATOM     88  N   UNL     1       1.708  -8.641   2.154  1.00  0.00    -0.241 NA
BRANCH  85  89
ATOM     89  C   UNL     1       4.012  -9.289   5.077  1.00  0.00     0.041 C 
BRANCH  89  90
ATOM     90  C   UNL     1       3.111  -9.072   6.292  1.00  0.00     0.005 C 
BRANCH  90  91
ATOM     91  C   UNL     1       1.953 -10.065   6.378  1.00  0.00     0.001 CG0
ATOM     92  G   UNL     1       0.947  -9.990   5.229  1.00  0.00     0.000 G0
ENDBRANCH  90  91
ENDBRANCH  89  90
ENDBRANCH  85  89
BRANCH  87  93
ATOM     93  C   UNL     1       1.535 -10.344   3.860  1.00  0.00     0.057 C 
BRANCH  93  94
ATOM     94  C   UNL     1       0.947  -9.990   5.229  1.00  0.00     0.006 CG0
ATOM     95  G   UNL     1       1.953 -10.065   6.378  1.00  0.00     0.000 G0
ENDBRANCH  93  94
ENDBRANCH  87  93
ENDBRANCH  82  83
ENDBRANCH  75  78
ENDBRANCH  73  74
ENDBRANCH   1  73
TORSDOF 15
