REMARK SMILES C[C@H](C(=O)NCCCCNC(=O)c1ccc(-c2c3nc(c(-c4cc(S(=O)(=O)[O-])ccc4F)c4ccc([nH]4)c(-c4cc(S(=O)(=O)[O-])ccc4F)c4nc(c(-c5cc(S(=O)(=O)[O-])ccc5F)c5ccc2[nH]5)C=C4)C=C3)cc1)[C@@H](C)C(=O)[C@H]1CC[C@H](C)CC1
REMARK SMILES IDX 7 1 6 2 5 3 3 4 4 5 2 7 1 8 76 9 77 10 78 11 79 12 80 13
REMARK SMILES IDX 84 14 83 15 82 16 85 17 81 18 86 19 8 20 9 21 10 22 11 23
REMARK SMILES IDX 12 25 13 26 14 27 75 28 15 29 74 30 16 31 17 32 18 33 68 34
REMARK SMILES IDX 19 35 73 36 67 37 69 38 20 39 72 40 66 41 65 42 21 44 53 45
REMARK SMILES IDX 33 46 52 47 34 48 37 49 51 50 70 51 35 52 36 53 50 55 71 56
REMARK SMILES IDX 38 57 22 58 23 59 31 60 24 61 30 62 32 63 29 64 25 65 26 66
REMARK SMILES IDX 27 67 28 68 54 69 55 70 63 71 56 72 62 73 64 74 61 75 57 76
REMARK SMILES IDX 58 77 59 78 60 79 39 80 40 81 48 82 41 83 47 84 49 85 46 86
REMARK SMILES IDX 42 87 43 88 44 89 45 90
REMARK H PARENT 5 6 10 24 69 43 37 54
REMARK Flexibility Score: inf
ROOT
ATOM      1  C   UNL     1      -6.994  -0.673   3.566  1.00  0.00     0.023 C 
ENDROOT
BRANCH   1   2
ATOM      2  C   UNL     1      -5.944   0.347   3.155  1.00  0.00     0.116 C 
BRANCH   2   3
ATOM      3  N   UNL     1      -4.686   0.180   3.856  1.00  0.00    -0.356 N 
ATOM      4  C   UNL     1      -3.436   0.600   3.533  1.00  0.00     0.223 C 
ATOM      5  O   UNL     1      -2.566   0.529   4.406  1.00  0.00    -0.275 OA
ATOM      6  H   UNL     1      -4.748  -0.318   4.704  1.00  0.00     0.163 HD
BRANCH   4   7
ATOM      7  C   UNL     1      -3.071   1.111   2.148  1.00  0.00     0.085 C 
ATOM      8  C   UNL     1      -3.223  -0.048   1.149  1.00  0.00     0.019 C 
BRANCH   7   9
ATOM      9  C   UNL     1      -3.549   2.534   1.732  1.00  0.00     0.065 C 
ATOM     10  C   UNL     1      -3.614   2.685   0.201  1.00  0.00     0.017 C 
BRANCH   9  11
ATOM     11  C   UNL     1      -4.854   3.104   2.308  1.00  0.00     0.139 C 
ATOM     12  O   UNL     1      -5.915   2.942   1.690  1.00  0.00    -0.299 OA
BRANCH  11  13
ATOM     13  C   UNL     1      -4.865   3.967   3.585  1.00  0.00     0.056 C 
ATOM     14  C   UNL     1      -3.832   6.404   7.082  1.00  0.00     0.007 C 
ATOM     15  C   UNL     1      -3.709   5.559   5.816  1.00  0.00    -0.014 C 
ATOM     16  C   UNL     1      -4.381   6.234   4.612  1.00  0.00     0.004 C 
ATOM     17  C   UNL     1      -4.314   4.177   6.053  1.00  0.00     0.004 C 
ATOM     18  C   UNL     1      -4.292   5.368   3.348  1.00  0.00     0.012 C 
ATOM     19  C   UNL     1      -4.223   3.312   4.803  1.00  0.00     0.012 C 
ENDBRANCH  11  13
ENDBRANCH   9  11
ENDBRANCH   7   9
ENDBRANCH   4   7
ENDBRANCH   2   3
ENDBRANCH   1   2
BRANCH   1  20
ATOM     20  C   UNL     1      -7.549  -0.449   4.976  1.00  0.00     0.023 C 
BRANCH  20  21
ATOM     21  C   UNL     1      -8.163   0.928   5.230  1.00  0.00     0.116 C 
BRANCH  21  22
ATOM     22  N   UNL     1      -9.266   1.228   4.330  1.00  0.00    -0.352 N 
ATOM     23  C   UNL     1     -10.602   1.405   4.614  1.00  0.00     0.251 C 
ATOM     24  H   UNL     1      -9.022   1.318   3.381  1.00  0.00     0.163 HD
ATOM     25  O   UNL     1     -11.422   1.446   3.707  1.00  0.00    -0.269 OA
BRANCH  23  26
ATOM     26  C   UNL     1     -11.038   1.519   6.023  1.00  0.00     0.039 A 
ATOM     27  C   UNL     1     -12.130   0.768   6.460  1.00  0.00     0.014 A 
ATOM     28  C   UNL     1     -10.356   2.353   6.915  1.00  0.00     0.014 A 
ATOM     29  C   UNL     1     -12.488   0.792   7.810  1.00  0.00     0.010 A 
ATOM     30  C   UNL     1     -10.660   2.309   8.272  1.00  0.00     0.010 A 
ATOM     31  C   UNL     1     -11.728   1.526   8.737  1.00  0.00    -0.014 A 
BRANCH  31  32
ATOM     32  C   UNL     1     -12.031   1.479  10.193  1.00  0.00     0.031 A 
ATOM     33  C   UNL     1     -12.428   2.733  10.925  1.00  0.00     0.074 A 
ATOM     34  C   UNL     1     -11.890   0.320  10.868  1.00  0.00     0.049 A 
ATOM     35  N   UNL     1     -12.662   2.908  12.200  1.00  0.00    -0.248 NA
ATOM     36  C   UNL     1     -12.548   3.958  10.120  1.00  0.00     0.031 C 
ATOM     37  C   UNL     1     -11.471  -0.955  10.278  1.00  0.00     0.029 A 
ATOM     38  N   UNL     1     -12.075   0.022  12.196  1.00  0.00    -0.354 N 
ATOM     39  C   UNL     1     -12.944   4.262  12.353  1.00  0.00     0.074 A 
ATOM     40  C   UNL     1     -12.789   4.870  11.049  1.00  0.00     0.031 C 
ATOM     41  C   UNL     1     -11.459  -1.899  11.232  1.00  0.00     0.029 A 
ATOM     42  C   UNL     1     -11.815  -1.293  12.511  1.00  0.00     0.049 A 
ATOM     43  H   UNL     1     -12.367   0.687  12.860  1.00  0.00     0.167 HD
ATOM     44  C   UNL     1     -13.319   4.930  13.472  1.00  0.00     0.034 A 
ATOM     45  C   UNL     1     -11.842  -1.935  13.697  1.00  0.00     0.034 A 
ATOM     46  C   UNL     1     -13.479   4.304  14.763  1.00  0.00     0.049 A 
ATOM     47  C   UNL     1     -12.232  -1.164  14.933  1.00  0.00     0.074 A 
ATOM     48  C   UNL     1     -13.912   4.875  15.947  1.00  0.00     0.029 A 
ATOM     49  N   UNL     1     -13.200   2.972  15.045  1.00  0.00    -0.354 N 
ATOM     50  N   UNL     1     -12.550   0.105  15.050  1.00  0.00    -0.248 NA
ATOM     51  C   UNL     1     -12.279  -1.914  16.195  1.00  0.00     0.031 C 
ATOM     52  C   UNL     1     -13.816   3.914  16.959  1.00  0.00     0.029 A 
ATOM     53  C   UNL     1     -13.414   2.716  16.392  1.00  0.00     0.049 A 
ATOM     54  H   UNL     1     -12.896   2.308  14.386  1.00  0.00     0.167 HD
ATOM     55  C   UNL     1     -12.864   0.296  16.393  1.00  0.00     0.074 A 
ATOM     56  C   UNL     1     -12.713  -0.991  17.040  1.00  0.00     0.031 C 
ATOM     57  C   UNL     1     -13.248   1.431  17.032  1.00  0.00     0.034 A 
BRANCH  44  58
ATOM     58  C   UNL     1     -13.551   6.418  13.353  1.00  0.00     0.023 A 
ATOM     59  C   UNL     1     -14.554   6.950  12.524  1.00  0.00     0.031 A 
ATOM     60  C   UNL     1     -12.747   7.322  14.071  1.00  0.00     0.131 A 
ATOM     61  C   UNL     1     -14.679   8.340  12.375  1.00  0.00     0.055 A 
ATOM     62  C   UNL     1     -12.933   8.703  13.986  1.00  0.00     0.041 A 
ATOM     63  F   UNL     1     -11.758   6.878  14.862  1.00  0.00    -0.206 F 
ATOM     64  C   UNL     1     -13.894   9.220  13.123  1.00  0.00     0.022 A 
BRANCH  61  65
ATOM     65  S   UNL     1     -15.780   8.978  11.083  1.00  0.00     0.124 S 
ATOM     66  O   UNL     1     -15.218   8.358   9.885  1.00  0.00    -0.237 OA
ATOM     67  O   UNL     1     -17.084   8.483  11.507  1.00  0.00    -0.237 OA
ATOM     68  O   UNL     1     -15.603  10.426  11.167  1.00  0.00    -0.744 OA
ENDBRANCH  61  65
ENDBRANCH  44  58
BRANCH  45  69
ATOM     69  C   UNL     1     -11.473  -3.379  13.783  1.00  0.00     0.023 A 
ATOM     70  C   UNL     1     -12.406  -4.345  14.191  1.00  0.00     0.031 A 
ATOM     71  C   UNL     1     -10.164  -3.808  13.497  1.00  0.00     0.131 A 
ATOM     72  C   UNL     1     -12.007  -5.682  14.349  1.00  0.00     0.055 A 
ATOM     73  C   UNL     1      -9.787  -5.149  13.597  1.00  0.00     0.041 A 
ATOM     74  F   UNL     1      -9.232  -2.927  13.101  1.00  0.00    -0.206 F 
ATOM     75  C   UNL     1     -10.708  -6.093  14.039  1.00  0.00     0.022 A 
BRANCH  72  76
ATOM     76  S   UNL     1     -13.187  -6.865  15.055  1.00  0.00     0.124 S 
ATOM     77  O   UNL     1     -13.490  -6.248  16.342  1.00  0.00    -0.237 OA
ATOM     78  O   UNL     1     -14.259  -6.850  14.067  1.00  0.00    -0.237 OA
ATOM     79  O   UNL     1     -12.422  -8.108  15.123  1.00  0.00    -0.744 OA
ENDBRANCH  72  76
ENDBRANCH  45  69
BRANCH  57  80
ATOM     80  C   UNL     1     -13.580   1.317  18.501  1.00  0.00     0.023 A 
ATOM     81  C   UNL     1     -12.606   0.992  19.461  1.00  0.00     0.031 A 
ATOM     82  C   UNL     1     -14.897   1.534  18.945  1.00  0.00     0.131 A 
ATOM     83  C   UNL     1     -12.975   0.835  20.806  1.00  0.00     0.055 A 
ATOM     84  C   UNL     1     -15.244   1.445  20.294  1.00  0.00     0.041 A 
ATOM     85  F   UNL     1     -15.871   1.843  18.074  1.00  0.00    -0.206 F 
ATOM     86  C   UNL     1     -14.283   1.080  21.232  1.00  0.00     0.022 A 
BRANCH  83  87
ATOM     87  S   UNL     1     -11.743   0.205  21.980  1.00  0.00     0.124 S 
ATOM     88  O   UNL     1     -11.376  -1.072  21.377  1.00  0.00    -0.237 OA
ATOM     89  O   UNL     1     -10.719   1.244  21.945  1.00  0.00    -0.237 OA
ATOM     90  O   UNL     1     -12.484   0.108  23.236  1.00  0.00    -0.744 OA
ENDBRANCH  83  87
ENDBRANCH  57  80
ENDBRANCH  31  32
ENDBRANCH  23  26
ENDBRANCH  21  22
ENDBRANCH  20  21
ENDBRANCH   1  20
TORSDOF 17
