REMARK SMILES O=C(NCCCCNC(=O)[C@H]1Cc2c([nH]c3ccccc23)[C@H](c2c[nH]c3ccccc23)[NH2+]1)c1ccc(-c2c3nc(c(-c4cc(S(=O)(=O)[O-])ccc4F)c4ccc([nH]4)c(-c4cc(S(=O)(=O)[O-])ccc4F)c4nc(c(-c5cc(S(=O)(=O)[O-])ccc5F)c5ccc2[nH]5)C=C4)C=C3)cc1
REMARK SMILES IDX 4 1 3 2 1 3 2 4 33 6 34 7 95 8 35 9 94 10 36 11 37 12 38 13
REMARK SMILES IDX 88 14 39 15 93 16 87 17 89 18 40 19 92 20 86 21 85 22 41 24
REMARK SMILES IDX 73 25 53 26 72 27 54 28 57 29 71 30 90 31 55 32 56 33 70 35
REMARK SMILES IDX 91 36 58 37 42 38 43 39 51 40 44 41 50 42 52 43 49 44 45 45
REMARK SMILES IDX 46 46 47 47 48 48 74 49 75 50 83 51 76 52 82 53 84 54 81 55
REMARK SMILES IDX 77 56 78 57 79 58 80 59 59 60 60 61 68 62 61 63 67 64 69 65
REMARK SMILES IDX 66 66 62 67 63 68 64 69 65 70 5 71 6 72 7 73 8 74 9 75 10 77
REMARK SMILES IDX 11 78 12 79 32 80 13 81 22 82 14 85 21 86 15 87 16 88 20 89
REMARK SMILES IDX 17 91 19 92 18 93 23 94 24 95 31 96 25 97 26 98 30 99 27 101
REMARK SMILES IDX 29 102 28 103
REMARK H PARENT 3 5 89 23 57 34 8 76 32 83 32 84 15 90 25 100
REMARK Flexibility Score: inf
ROOT
ATOM      1  C   UNL     1       4.616   0.593   1.031  1.00  0.00     0.116 C 
ENDROOT
BRANCH   1   2
ATOM      2  N   UNL     1       3.188   0.306   1.009  1.00  0.00    -0.352 N 
ATOM      3  O   UNL     1       1.192  -0.184   0.075  1.00  0.00    -0.269 OA
ATOM      4  C   UNL     1       2.413  -0.124  -0.040  1.00  0.00     0.251 C 
ATOM      5  H   UNL     1       2.715   0.438   1.862  1.00  0.00     0.163 HD
BRANCH   4   6
ATOM      6  C   UNL     1       3.063  -0.490  -1.315  1.00  0.00     0.039 A 
ATOM      7  C   UNL     1       4.179  -1.330  -1.317  1.00  0.00     0.014 A 
ATOM      8  C   UNL     1       2.568   0.035  -2.511  1.00  0.00     0.014 A 
ATOM      9  C   UNL     1       4.883  -1.534  -2.497  1.00  0.00     0.010 A 
ATOM     10  C   UNL     1       3.230  -0.240  -3.710  1.00  0.00     0.010 A 
ATOM     11  C   UNL     1       4.408  -1.004  -3.708  1.00  0.00    -0.014 A 
BRANCH  11  12
ATOM     12  C   UNL     1       5.123  -1.321  -4.969  1.00  0.00     0.031 A 
ATOM     13  C   UNL     1       5.805  -0.246  -5.767  1.00  0.00     0.074 A 
ATOM     14  C   UNL     1       5.163  -2.605  -5.376  1.00  0.00     0.049 A 
ATOM     15  N   UNL     1       6.454  -0.347  -6.898  1.00  0.00    -0.248 NA
ATOM     16  C   UNL     1       5.741   1.122  -5.231  1.00  0.00     0.031 C 
ATOM     17  C   UNL     1       4.532  -3.727  -4.675  1.00  0.00     0.029 A 
ATOM     18  N   UNL     1       5.760  -3.188  -6.462  1.00  0.00    -0.354 N 
ATOM     19  C   UNL     1       6.863   0.943  -7.223  1.00  0.00     0.074 A 
ATOM     20  C   UNL     1       6.362   1.813  -6.178  1.00  0.00     0.031 C 
ATOM     21  C   UNL     1       4.806  -4.864  -5.328  1.00  0.00     0.029 A 
ATOM     22  C   UNL     1       5.567  -4.547  -6.530  1.00  0.00     0.049 A 
ATOM     23  H   UNL     1       6.278  -2.682  -7.130  1.00  0.00     0.167 HD
ATOM     24  C   UNL     1       7.590   1.355  -8.291  1.00  0.00     0.034 A 
ATOM     25  C   UNL     1       5.932  -5.438  -7.471  1.00  0.00     0.034 A 
ATOM     26  C   UNL     1       8.083   0.466  -9.318  1.00  0.00     0.049 A 
ATOM     27  C   UNL     1       6.700  -4.948  -8.666  1.00  0.00     0.074 A 
ATOM     28  C   UNL     1       8.867   0.768 -10.418  1.00  0.00     0.029 A 
ATOM     29  N   UNL     1       7.830  -0.900  -9.378  1.00  0.00    -0.354 N 
ATOM     30  N   UNL     1       7.093  -3.727  -8.948  1.00  0.00    -0.248 NA
ATOM     31  C   UNL     1       7.072  -5.952  -9.668  1.00  0.00     0.031 C 
ATOM     32  C   UNL     1       9.031  -0.398 -11.176  1.00  0.00     0.029 A 
ATOM     33  C   UNL     1       8.410  -1.445 -10.514  1.00  0.00     0.049 A 
ATOM     34  H   UNL     1       7.314  -1.407  -8.710  1.00  0.00     0.167 HD
ATOM     35  C   UNL     1       7.769  -3.820 -10.159  1.00  0.00     0.074 A 
ATOM     36  C   UNL     1       7.750  -5.218 -10.539  1.00  0.00     0.031 C 
ATOM     37  C   UNL     1       8.356  -2.838 -10.890  1.00  0.00     0.034 A 
BRANCH  24  38
ATOM     38  C   UNL     1       7.853   2.836  -8.429  1.00  0.00     0.023 A 
ATOM     39  C   UNL     1       8.644   3.541  -7.506  1.00  0.00     0.031 A 
ATOM     40  C   UNL     1       7.292   3.556  -9.500  1.00  0.00     0.131 A 
ATOM     41  C   UNL     1       8.803   4.931  -7.637  1.00  0.00     0.055 A 
ATOM     42  C   UNL     1       7.511   4.925  -9.664  1.00  0.00     0.041 A 
ATOM     43  F   UNL     1       6.511   2.940 -10.402  1.00  0.00    -0.206 F 
ATOM     44  C   UNL     1       8.261   5.623  -8.722  1.00  0.00     0.022 A 
BRANCH  41  45
ATOM     45  S   UNL     1       9.624   5.841  -6.300  1.00  0.00     0.124 S 
ATOM     46  O   UNL     1       8.787   5.501  -5.152  1.00  0.00    -0.237 OA
ATOM     47  O   UNL     1      10.965   5.268  -6.305  1.00  0.00    -0.237 OA
ATOM     48  O   UNL     1       9.540   7.235  -6.731  1.00  0.00    -0.744 OA
ENDBRANCH  41  45
ENDBRANCH  24  38
BRANCH  25  49
ATOM     49  C   UNL     1       5.534  -6.867  -7.338  1.00  0.00     0.023 A 
ATOM     50  C   UNL     1       6.493  -7.876  -7.169  1.00  0.00     0.031 A 
ATOM     51  C   UNL     1       4.179  -7.242  -7.391  1.00  0.00     0.131 A 
ATOM     52  C   UNL     1       6.086  -9.216  -7.088  1.00  0.00     0.055 A 
ATOM     53  C   UNL     1       3.776  -8.571  -7.259  1.00  0.00     0.041 A 
ATOM     54  F   UNL     1       3.222  -6.313  -7.545  1.00  0.00    -0.206 F 
ATOM     55  C   UNL     1       4.734  -9.569  -7.117  1.00  0.00     0.022 A 
BRANCH  52  56
ATOM     56  S   UNL     1       7.358 -10.506  -7.013  1.00  0.00     0.124 S 
ATOM     57  O   UNL     1       8.123 -10.242  -8.226  1.00  0.00    -0.237 OA
ATOM     58  O   UNL     1       8.026 -10.198  -5.753  1.00  0.00    -0.237 OA
ATOM     59  O   UNL     1       6.585 -11.747  -7.019  1.00  0.00    -0.744 OA
ENDBRANCH  52  56
ENDBRANCH  25  49
BRANCH  37  60
ATOM     60  C   UNL     1       9.041  -3.266 -12.162  1.00  0.00     0.023 A 
ATOM     61  C   UNL     1       8.311  -3.731 -13.269  1.00  0.00     0.031 A 
ATOM     62  C   UNL     1      10.444  -3.234 -12.255  1.00  0.00     0.131 A 
ATOM     63  C   UNL     1       8.989  -4.197 -14.405  1.00  0.00     0.055 A 
ATOM     64  C   UNL     1      11.110  -3.648 -13.409  1.00  0.00     0.041 A 
ATOM     65  F   UNL     1      11.187  -2.803 -11.224  1.00  0.00    -0.206 F 
ATOM     66  C   UNL     1      10.383  -4.145 -14.487  1.00  0.00     0.022 A 
BRANCH  63  67
ATOM     67  S   UNL     1       8.027  -4.952 -15.745  1.00  0.00     0.124 S 
ATOM     68  O   UNL     1       7.397  -6.080 -15.066  1.00  0.00    -0.237 OA
ATOM     69  O   UNL     1       7.136  -3.867 -16.140  1.00  0.00    -0.237 OA
ATOM     70  O   UNL     1       9.041  -5.311 -16.734  1.00  0.00    -0.744 OA
ENDBRANCH  63  67
ENDBRANCH  37  60
ENDBRANCH  11  12
ENDBRANCH   4   6
ENDBRANCH   1   2
BRANCH   1  71
ATOM     71  C   UNL     1       4.930   1.995   1.535  1.00  0.00     0.023 C 
BRANCH  71  72
ATOM     72  C   UNL     1       4.423   2.304   2.940  1.00  0.00     0.023 C 
BRANCH  72  73
ATOM     73  C   UNL     1       4.807   1.280   4.002  1.00  0.00     0.116 C 
BRANCH  73  74
ATOM     74  N   UNL     1       6.246   1.170   4.174  1.00  0.00    -0.351 N 
ATOM     75  C   UNL     1       6.970   1.178   5.334  1.00  0.00     0.278 C 
ATOM     76  H   UNL     1       6.769   1.078   3.345  1.00  0.00     0.163 HD
ATOM     77  O   UNL     1       8.183   0.959   5.272  1.00  0.00    -0.268 OA
BRANCH  75  78
ATOM     78  C   UNL     1       6.289   1.460   6.679  1.00  0.00     0.277 C 
ATOM     79  C   UNL     1       5.906   2.957   6.748  1.00  0.00     0.114 C 
ATOM     80  N   UNL     1       5.182   0.481   6.882  1.00  0.00    -0.324 N 
ATOM     81  C   UNL     1       4.924   3.173   7.839  1.00  0.00    -0.006 A 
ATOM     82  C   UNL     1       4.425   0.654   8.121  1.00  0.00     0.264 C 
ATOM     83  H   UNL     1       5.585  -0.456   6.886  1.00  0.00     0.347 HD
ATOM     84  H   UNL     1       4.522   0.633   6.120  1.00  0.00     0.347 HD
ATOM     85  C   UNL     1       4.264   2.115   8.433  1.00  0.00     0.083 A 
ATOM     86  C   UNL     1       4.470   4.375   8.440  1.00  0.00     0.003 A 
ATOM     87  N   UNL     1       3.383   2.642   9.339  1.00  0.00    -0.353 N 
ATOM     88  C   UNL     1       3.501   4.015   9.378  1.00  0.00     0.046 A 
ATOM     89  C   UNL     1       4.782   5.738   8.273  1.00  0.00     0.010 A 
ATOM     90  H   UNL     1       2.756   2.115   9.885  1.00  0.00     0.166 HD
ATOM     91  C   UNL     1       2.825   4.958  10.161  1.00  0.00     0.026 A 
ATOM     92  C   UNL     1       4.123   6.692   9.055  1.00  0.00     0.001 A 
ATOM     93  C   UNL     1       3.159   6.305   9.983  1.00  0.00     0.002 A 
BRANCH  82  94
ATOM     94  C   UNL     1       4.962  -0.164   9.284  1.00  0.00     0.041 A 
ATOM     95  C   UNL     1       4.220  -0.394  10.438  1.00  0.00     0.093 A 
ATOM     96  C   UNL     1       6.202  -0.897   9.470  1.00  0.00     0.009 A 
ATOM     97  N   UNL     1       4.961  -1.132  11.312  1.00  0.00    -0.361 N 
ATOM     98  C   UNL     1       6.169  -1.456  10.753  1.00  0.00     0.046 A 
ATOM     99  C   UNL     1       7.357  -1.164   8.696  1.00  0.00     0.011 A 
ATOM    100  H   UNL     1       4.670  -1.395  12.215  1.00  0.00     0.166 HD
ATOM    101  C   UNL     1       7.219  -2.210  11.297  1.00  0.00     0.026 A 
ATOM    102  C   UNL     1       8.416  -1.916   9.221  1.00  0.00     0.001 A 
ATOM    103  C   UNL     1       8.349  -2.426  10.509  1.00  0.00     0.002 A 
ENDBRANCH  82  94
ENDBRANCH  75  78
ENDBRANCH  73  74
ENDBRANCH  72  73
ENDBRANCH  71  72
ENDBRANCH   1  71
TORSDOF 15
