REMARK SMILES Cc1cc(C)c2c(C(=O)NCCCCNC(=O)c3ccc(-c4c5nc(c(-c6cc(S(=O)(=O)[O-])ccc6F)c6ccc([nH]6)c(-c6cc(S(=O)(=O)[O-])ccc6F)c6nc(c(-c7cc(S(=O)(=O)[O-])ccc7F)c7ccc4[nH]7)C=C6)C=C5)cc3)cc(-c3ccco3)nc2c1
REMARK SMILES IDX 13 1 12 2 11 3 10 4 8 5 9 6 7 8 1 9 2 10 3 11 90 12 4 13
REMARK SMILES IDX 89 14 5 15 6 16 88 17 82 18 81 19 83 20 84 21 87 22 85 23
REMARK SMILES IDX 86 24 14 25 15 26 16 27 17 29 18 30 19 31 80 32 20 33 79 34
REMARK SMILES IDX 21 35 22 36 23 37 73 38 24 39 78 40 72 41 74 42 25 43 77 44
REMARK SMILES IDX 71 45 70 46 26 48 58 49 38 50 57 51 39 52 42 53 56 54 75 55
REMARK SMILES IDX 40 56 41 57 55 59 76 60 43 61 27 62 28 63 36 64 29 65 35 66
REMARK SMILES IDX 37 67 34 68 30 69 31 70 32 71 33 72 59 73 60 74 68 75 61 76
REMARK SMILES IDX 67 77 69 78 66 79 62 80 63 81 64 82 65 83 44 84 45 85 53 86
REMARK SMILES IDX 46 87 52 88 54 89 51 90 47 91 48 92 49 93 50 94
REMARK H PARENT 10 7 15 28 74 47 42 58
REMARK Flexibility Score: inf
ROOT
ATOM      1  C   UNL     1       3.359   6.445  -1.597  1.00  0.00     0.023 C 
ENDROOT
BRANCH   1   2
ATOM      2  C   UNL     1       3.420   5.035  -2.196  1.00  0.00     0.023 C 
BRANCH   2   3
ATOM      3  C   UNL     1       2.082   4.378  -2.525  1.00  0.00     0.116 C 
BRANCH   3   4
ATOM      4  N   UNL     1       1.207   5.152  -3.391  1.00  0.00    -0.352 N 
ATOM      5  C   UNL     1       0.071   4.770  -4.074  1.00  0.00     0.252 C 
ATOM      6  O   UNL     1      -0.547   5.607  -4.729  1.00  0.00    -0.269 OA
ATOM      7  H   UNL     1       1.466   6.095  -3.509  1.00  0.00     0.163 HD
BRANCH   5   8
ATOM      8  C   UNL     1      -0.374   3.352  -4.133  1.00  0.00     0.051 A 
ATOM      9  C   UNL     1       0.653  -0.440  -0.048  1.00  0.00     0.044 C 
ATOM     10  C   UNL     1       0.116   0.544  -1.042  1.00  0.00    -0.049 A 
ATOM     11  C   UNL     1      -0.183   1.849  -0.666  1.00  0.00     0.007 A 
ATOM     12  C   UNL     1      -0.063   0.180  -2.380  1.00  0.00     0.032 A 
ATOM     13  C   UNL     1      -0.509   2.810  -1.635  1.00  0.00    -0.041 A 
ATOM     14  C   UNL     1      -0.386   1.106  -3.361  1.00  0.00     0.072 A 
ATOM     15  C   UNL     1      -1.077   4.118  -1.139  1.00  0.00     0.045 C 
ATOM     16  C   UNL     1      -0.428   2.471  -3.022  1.00  0.00     0.016 A 
ATOM     17  N   UNL     1      -0.625   0.645  -4.600  1.00  0.00    -0.244 NA
ATOM     18  C   UNL     1      -0.851   1.536  -5.588  1.00  0.00     0.107 A 
ATOM     19  C   UNL     1      -0.646   2.886  -5.423  1.00  0.00     0.046 A 
BRANCH  18  20
ATOM     20  C   UNL     1      -1.350   0.985  -6.834  1.00  0.00     0.152 A 
ATOM     21  C   UNL     1      -0.943   1.027  -8.153  1.00  0.00     0.052 A 
ATOM     22  O   UNL     1      -2.547   0.327  -6.746  1.00  0.00    -0.463 OA
ATOM     23  C   UNL     1      -1.942   0.359  -8.906  1.00  0.00     0.043 A 
ATOM     24  C   UNL     1      -2.900  -0.039  -8.005  1.00  0.00     0.196 A 
ENDBRANCH  18  20
ENDBRANCH   5   8
ENDBRANCH   3   4
ENDBRANCH   2   3
ENDBRANCH   1   2
BRANCH   1  25
ATOM     25  C   UNL     1       2.321   6.684  -0.501  1.00  0.00     0.116 C 
BRANCH  25  26
ATOM     26  N   UNL     1       2.561   5.915   0.711  1.00  0.00    -0.352 N 
ATOM     27  C   UNL     1       2.990   6.335   1.951  1.00  0.00     0.251 C 
ATOM     28  H   UNL     1       2.390   4.949   0.633  1.00  0.00     0.163 HD
ATOM     29  O   UNL     1       3.217   5.514   2.831  1.00  0.00    -0.269 OA
BRANCH  27  30
ATOM     30  C   UNL     1       3.213   7.775   2.206  1.00  0.00     0.039 A 
ATOM     31  C   UNL     1       4.458   8.187   2.691  1.00  0.00     0.014 A 
ATOM     32  C   UNL     1       2.211   8.714   1.953  1.00  0.00     0.014 A 
ATOM     33  C   UNL     1       4.728   9.551   2.833  1.00  0.00     0.010 A 
ATOM     34  C   UNL     1       2.501  10.075   2.039  1.00  0.00     0.010 A 
ATOM     35  C   UNL     1       3.766  10.506   2.469  1.00  0.00    -0.014 A 
BRANCH  35  36
ATOM     36  C   UNL     1       4.072  11.959   2.507  1.00  0.00     0.031 A 
ATOM     37  C   UNL     1       3.371  12.857   3.486  1.00  0.00     0.074 A 
ATOM     38  C   UNL     1       4.933  12.482   1.611  1.00  0.00     0.049 A 
ATOM     39  N   UNL     1       3.475  14.151   3.636  1.00  0.00    -0.248 NA
ATOM     40  C   UNL     1       2.413  12.219   4.403  1.00  0.00     0.031 C 
ATOM     41  C   UNL     1       5.637  11.721   0.578  1.00  0.00     0.029 A 
ATOM     42  N   UNL     1       5.351  13.776   1.413  1.00  0.00    -0.354 N 
ATOM     43  C   UNL     1       2.595  14.485   4.658  1.00  0.00     0.074 A 
ATOM     44  C   UNL     1       1.927  13.266   5.055  1.00  0.00     0.031 C 
ATOM     45  C   UNL     1       6.410  12.558  -0.134  1.00  0.00     0.029 A 
ATOM     46  C   UNL     1       6.235  13.919   0.369  1.00  0.00     0.049 A 
ATOM     47  H   UNL     1       5.047  14.530   1.968  1.00  0.00     0.167 HD
ATOM     48  C   UNL     1       2.384  15.694   5.230  1.00  0.00     0.034 A 
ATOM     49  C   UNL     1       6.837  15.018  -0.130  1.00  0.00     0.034 A 
ATOM     50  C   UNL     1       3.068  16.899   4.843  1.00  0.00     0.049 A 
ATOM     51  C   UNL     1       6.587  16.354   0.523  1.00  0.00     0.074 A 
ATOM     52  C   UNL     1       2.967  18.157   5.410  1.00  0.00     0.029 A 
ATOM     53  N   UNL     1       3.976  17.001   3.801  1.00  0.00    -0.354 N 
ATOM     54  N   UNL     1       5.827  16.635   1.556  1.00  0.00    -0.248 NA
ATOM     55  C   UNL     1       7.279  17.520  -0.044  1.00  0.00     0.031 C 
ATOM     56  C   UNL     1       3.782  19.029   4.684  1.00  0.00     0.029 A 
ATOM     57  C   UNL     1       4.428  18.305   3.694  1.00  0.00     0.049 A 
ATOM     58  H   UNL     1       4.258  16.256   3.222  1.00  0.00     0.167 HD
ATOM     59  C   UNL     1       5.968  18.002   1.774  1.00  0.00     0.074 A 
ATOM     60  C   UNL     1       6.900  18.489   0.779  1.00  0.00     0.031 C 
ATOM     61  C   UNL     1       5.373  18.781   2.713  1.00  0.00     0.034 A 
BRANCH  48  62
ATOM     62  C   UNL     1       1.399  15.780   6.365  1.00  0.00     0.023 A 
ATOM     63  C   UNL     1       0.213  16.521   6.221  1.00  0.00     0.031 A 
ATOM     64  C   UNL     1       1.687  15.214   7.620  1.00  0.00     0.131 A 
ATOM     65  C   UNL     1      -0.635  16.692   7.322  1.00  0.00     0.055 A 
ATOM     66  C   UNL     1       0.823  15.360   8.704  1.00  0.00     0.041 A 
ATOM     67  F   UNL     1       2.808  14.496   7.802  1.00  0.00    -0.206 F 
ATOM     68  C   UNL     1      -0.340  16.110   8.560  1.00  0.00     0.022 A 
BRANCH  65  69
ATOM     69  S   UNL     1      -2.139  17.698   7.201  1.00  0.00     0.124 S 
ATOM     70  O   UNL     1      -3.160  16.773   7.688  1.00  0.00    -0.237 OA
ATOM     71  O   UNL     1      -1.831  18.813   8.090  1.00  0.00    -0.237 OA
ATOM     72  O   UNL     1      -2.228  18.024   5.782  1.00  0.00    -0.744 OA
ENDBRANCH  65  69
ENDBRANCH  48  62
BRANCH  49  73
ATOM     73  C   UNL     1       7.787  14.875  -1.270  1.00  0.00     0.023 A 
ATOM     74  C   UNL     1       7.346  14.462  -2.539  1.00  0.00     0.031 A 
ATOM     75  C   UNL     1       9.166  15.064  -1.075  1.00  0.00     0.131 A 
ATOM     76  C   UNL     1       8.282  14.204  -3.550  1.00  0.00     0.055 A 
ATOM     77  C   UNL     1      10.089  14.862  -2.101  1.00  0.00     0.041 A 
ATOM     78  F   UNL     1       9.632  15.446   0.124  1.00  0.00    -0.206 F 
ATOM     79  C   UNL     1       9.649  14.418  -3.344  1.00  0.00     0.022 A 
BRANCH  76  80
ATOM     80  S   UNL     1       7.766  13.499  -5.140  1.00  0.00     0.124 S 
ATOM     81  O   UNL     1       8.345  14.438  -6.096  1.00  0.00    -0.237 OA
ATOM     82  O   UNL     1       8.393  12.180  -5.093  1.00  0.00    -0.237 OA
ATOM     83  O   UNL     1       6.310  13.499  -5.060  1.00  0.00    -0.744 OA
ENDBRANCH  76  80
ENDBRANCH  49  73
BRANCH  61  84
ATOM     84  C   UNL     1       5.696  20.253   2.740  1.00  0.00     0.023 A 
ATOM     85  C   UNL     1       6.364  20.807   3.848  1.00  0.00     0.031 A 
ATOM     86  C   UNL     1       5.204  21.123   1.752  1.00  0.00     0.131 A 
ATOM     87  C   UNL     1       6.485  22.198   3.962  1.00  0.00     0.055 A 
ATOM     88  C   UNL     1       5.364  22.506   1.851  1.00  0.00     0.041 A 
ATOM     89  F   UNL     1       4.553  20.640   0.682  1.00  0.00    -0.206 F 
ATOM     90  C   UNL     1       5.995  23.049   2.967  1.00  0.00     0.022 A 
BRANCH  87  91
ATOM     91  S   UNL     1       7.220  22.955   5.438  1.00  0.00     0.124 S 
ATOM     92  O   UNL     1       8.292  23.764   4.863  1.00  0.00    -0.237 OA
ATOM     93  O   UNL     1       6.096  23.708   5.987  1.00  0.00    -0.237 OA
ATOM     94  O   UNL     1       7.663  21.816   6.235  1.00  0.00    -0.744 OA
ENDBRANCH  87  91
ENDBRANCH  61  84
ENDBRANCH  35  36
ENDBRANCH  27  30
ENDBRANCH  25  26
ENDBRANCH   1  25
TORSDOF 15
