REMARK SMILES Cc1ccc(C(=O)N2C[C@@H](C(=O)NCCCCNC(=O)c3ccc(-c4c5nc(c(-c6cc(S(=O)(=O)[O-])ccc6F)c6ccc([nH]6)c(-c6cc(S(=O)(=O)[O-])ccc6F)c6nc(c(-c7cc(S(=O)(=O)[O-])ccc7F)c7ccc4[nH]7)C=C6)C=C5)cc3)C[C@H](C(=O)N3CCOCC3)C2)cc1F
REMARK SMILES IDX 16 1 15 2 14 3 13 4 11 5 12 6 10 8 8 9 9 10 94 11 85 12
REMARK SMILES IDX 84 13 6 14 7 15 5 16 1 17 2 18 3 19 96 20 4 21 95 22 97 23
REMARK SMILES IDX 86 24 87 25 88 26 89 27 93 28 90 29 92 30 91 31 17 32 18 33
REMARK SMILES IDX 19 34 20 36 21 37 22 38 83 39 23 40 82 41 24 42 25 43 26 44
REMARK SMILES IDX 76 45 27 46 81 47 75 48 77 49 28 50 80 51 74 52 73 53 29 55
REMARK SMILES IDX 61 56 41 57 60 58 42 59 45 60 59 61 78 62 43 63 44 64 58 66
REMARK SMILES IDX 79 67 46 68 30 69 31 70 39 71 32 72 38 73 40 74 37 75 33 76
REMARK SMILES IDX 34 77 35 78 36 79 62 80 63 81 71 82 64 83 70 84 72 85 69 86
REMARK SMILES IDX 65 87 66 88 67 89 68 90 47 91 48 92 56 93 49 94 55 95 57 96
REMARK SMILES IDX 54 97 50 98 51 99 52 100 53 101
REMARK H PARENT 13 7 18 35 77 54 45 65
REMARK Flexibility Score: inf
ROOT
ATOM      1  C   UNL     1     -10.473   1.207   1.413  1.00  0.00     0.023 C 
ENDROOT
BRANCH   1   2
ATOM      2  C   UNL     1      -9.179   1.020   0.617  1.00  0.00     0.023 C 
BRANCH   2   3
ATOM      3  C   UNL     1      -7.962   0.683   1.478  1.00  0.00     0.116 C 
BRANCH   3   4
ATOM      4  N   UNL     1      -8.165  -0.579   2.159  1.00  0.00    -0.356 N 
ATOM      5  C   UNL     1      -7.712  -1.812   1.830  1.00  0.00     0.224 C 
ATOM      6  O   UNL     1      -8.222  -2.799   2.362  1.00  0.00    -0.275 OA
ATOM      7  H   UNL     1      -8.709  -0.533   2.979  1.00  0.00     0.163 HD
BRANCH   5   8
ATOM      8  C   UNL     1      -6.582  -1.977   0.838  1.00  0.00     0.099 C 
ATOM      9  N   UNL     1      -4.261  -1.207   0.357  1.00  0.00    -0.337 N 
ATOM     10  C   UNL     1      -5.324  -1.293   1.346  1.00  0.00     0.133 C 
ATOM     11  C   UNL     1      -4.625  -0.746  -0.980  1.00  0.00     0.133 C 
ATOM     12  C   UNL     1      -5.817  -1.514  -1.582  1.00  0.00     0.099 C 
ATOM     13  C   UNL     1      -6.979  -1.690  -0.613  1.00  0.00     0.030 C 
BRANCH   9  14
ATOM     14  C   UNL     1      -2.965  -1.360   0.838  1.00  0.00     0.254 C 
ATOM     15  O   UNL     1      -2.698  -2.075   1.803  1.00  0.00    -0.269 OA
BRANCH  14  16
ATOM     16  C   UNL     1      -1.848  -0.574   0.272  1.00  0.00     0.042 A 
ATOM     17  C   UNL     1       1.702   1.798  -0.196  1.00  0.00     0.047 C 
ATOM     18  C   UNL     1       0.447   0.982  -0.133  1.00  0.00    -0.015 A 
ATOM     19  C   UNL     1      -0.814   1.590  -0.073  1.00  0.00     0.007 A 
ATOM     20  C   UNL     1       0.530  -0.411  -0.043  1.00  0.00     0.126 A 
ATOM     21  C   UNL     1      -1.960   0.816   0.134  1.00  0.00     0.014 A 
ATOM     22  C   UNL     1      -0.600  -1.191   0.165  1.00  0.00     0.053 A 
ATOM     23  F   UNL     1       1.729  -1.010  -0.092  1.00  0.00    -0.207 F 
ENDBRANCH  14  16
ENDBRANCH   9  14
BRANCH  12  24
ATOM     24  C   UNL     1      -5.311  -2.712  -2.394  1.00  0.00     0.227 C 
ATOM     25  O   UNL     1      -5.044  -2.524  -3.588  1.00  0.00    -0.275 OA
ATOM     26  N   UNL     1      -4.910  -3.870  -1.778  1.00  0.00    -0.338 N 
ATOM     27  C   UNL     1      -5.632  -4.697  -0.810  1.00  0.00     0.148 C 
ATOM     28  C   UNL     1      -3.651  -4.480  -2.191  1.00  0.00     0.148 C 
ATOM     29  C   UNL     1      -4.736  -4.986   0.405  1.00  0.00     0.181 C 
ATOM     30  C   UNL     1      -2.803  -4.734  -0.939  1.00  0.00     0.181 C 
ATOM     31  O   UNL     1      -3.500  -5.593  -0.019  1.00  0.00    -0.378 OA
ENDBRANCH  12  24
ENDBRANCH   5   8
ENDBRANCH   3   4
ENDBRANCH   2   3
ENDBRANCH   1   2
BRANCH   1  32
ATOM     32  C   UNL     1     -10.304   2.181   2.556  1.00  0.00     0.116 C 
BRANCH  32  33
ATOM     33  N   UNL     1      -9.830   3.471   2.065  1.00  0.00    -0.352 N 
ATOM     34  C   UNL     1      -9.761   4.642   2.773  1.00  0.00     0.251 C 
ATOM     35  H   UNL     1      -9.529   3.503   1.128  1.00  0.00     0.163 HD
ATOM     36  O   UNL     1      -9.521   5.707   2.208  1.00  0.00    -0.269 OA
BRANCH  34  37
ATOM     37  C   UNL     1      -9.837   4.509   4.221  1.00  0.00     0.039 A 
ATOM     38  C   UNL     1     -10.763   5.189   5.010  1.00  0.00     0.014 A 
ATOM     39  C   UNL     1      -8.941   3.584   4.753  1.00  0.00     0.014 A 
ATOM     40  C   UNL     1     -10.730   4.987   6.384  1.00  0.00     0.010 A 
ATOM     41  C   UNL     1      -9.061   3.231   6.055  1.00  0.00     0.010 A 
ATOM     42  C   UNL     1      -9.846   4.032   6.886  1.00  0.00    -0.014 A 
BRANCH  42  43
ATOM     43  C   UNL     1      -9.538   3.829   8.285  1.00  0.00     0.031 A 
ATOM     44  C   UNL     1     -10.585   3.352   9.191  1.00  0.00     0.074 A 
ATOM     45  C   UNL     1      -8.217   3.920   8.582  1.00  0.00     0.049 A 
ATOM     46  N   UNL     1     -10.576   3.531  10.461  1.00  0.00    -0.248 NA
ATOM     47  C   UNL     1     -11.775   2.642   8.717  1.00  0.00     0.031 C 
ATOM     48  C   UNL     1      -7.479   3.435   9.730  1.00  0.00     0.029 A 
ATOM     49  N   UNL     1      -7.226   4.580   7.832  1.00  0.00    -0.354 N 
ATOM     50  C   UNL     1     -11.492   2.640  10.982  1.00  0.00     0.074 A 
ATOM     51  C   UNL     1     -12.340   2.276   9.873  1.00  0.00     0.031 C 
ATOM     52  C   UNL     1      -6.292   4.075   9.777  1.00  0.00     0.029 A 
ATOM     53  C   UNL     1      -6.326   5.112   8.752  1.00  0.00     0.049 A 
ATOM     54  H   UNL     1      -7.178   4.651   6.851  1.00  0.00     0.167 HD
ATOM     55  C   UNL     1     -11.254   2.120  12.222  1.00  0.00     0.034 A 
ATOM     56  C   UNL     1      -6.245   6.463   8.969  1.00  0.00     0.034 A 
ATOM     57  C   UNL     1     -10.038   2.728  12.782  1.00  0.00     0.049 A 
ATOM     58  C   UNL     1      -6.646   6.784  10.391  1.00  0.00     0.074 A 
ATOM     59  C   UNL     1      -8.729   2.278  12.830  1.00  0.00     0.029 A 
ATOM     60  N   UNL     1      -9.990   4.099  13.022  1.00  0.00    -0.354 N 
ATOM     61  N   UNL     1      -7.474   6.052  11.085  1.00  0.00    -0.248 NA
ATOM     62  C   UNL     1      -6.116   7.908  11.155  1.00  0.00     0.031 C 
ATOM     63  C   UNL     1      -7.885   3.406  13.013  1.00  0.00     0.029 A 
ATOM     64  C   UNL     1      -8.677   4.540  13.089  1.00  0.00     0.049 A 
ATOM     65  H   UNL     1     -10.780   4.676  13.130  1.00  0.00     0.167 HD
ATOM     66  C   UNL     1      -7.575   6.545  12.355  1.00  0.00     0.074 A 
ATOM     67  C   UNL     1      -6.702   7.707  12.349  1.00  0.00     0.031 C 
ATOM     68  C   UNL     1      -8.358   5.953  13.307  1.00  0.00     0.034 A 
BRANCH  55  69
ATOM     69  C   UNL     1     -11.883   0.843  12.763  1.00  0.00     0.023 A 
ATOM     70  C   UNL     1     -13.042   0.227  12.238  1.00  0.00     0.031 A 
ATOM     71  C   UNL     1     -11.279   0.152  13.838  1.00  0.00     0.131 A 
ATOM     72  C   UNL     1     -13.504  -1.019  12.713  1.00  0.00     0.055 A 
ATOM     73  C   UNL     1     -11.752  -1.073  14.328  1.00  0.00     0.041 A 
ATOM     74  F   UNL     1     -10.180   0.618  14.447  1.00  0.00    -0.206 F 
ATOM     75  C   UNL     1     -12.862  -1.674  13.758  1.00  0.00     0.022 A 
BRANCH  72  76
ATOM     76  S   UNL     1     -14.929  -1.854  11.950  1.00  0.00     0.124 S 
ATOM     77  O   UNL     1     -14.377  -3.163  11.605  1.00  0.00    -0.237 OA
ATOM     78  O   UNL     1     -15.907  -1.859  13.035  1.00  0.00    -0.237 OA
ATOM     79  O   UNL     1     -15.262  -1.008  10.808  1.00  0.00    -0.744 OA
ENDBRANCH  72  76
ENDBRANCH  55  69
BRANCH  56  80
ATOM     80  C   UNL     1      -6.604   7.287   7.766  1.00  0.00     0.023 A 
ATOM     81  C   UNL     1      -7.879   7.860   7.617  1.00  0.00     0.031 A 
ATOM     82  C   UNL     1      -5.821   7.112   6.601  1.00  0.00     0.131 A 
ATOM     83  C   UNL     1      -8.387   8.096   6.322  1.00  0.00     0.055 A 
ATOM     84  C   UNL     1      -6.354   7.289   5.322  1.00  0.00     0.041 A 
ATOM     85  F   UNL     1      -4.575   6.617   6.694  1.00  0.00    -0.206 F 
ATOM     86  C   UNL     1      -7.660   7.741   5.179  1.00  0.00     0.022 A 
BRANCH  83  87
ATOM     87  S   UNL     1     -10.060   8.780   6.111  1.00  0.00     0.124 S 
ATOM     88  O   UNL     1      -9.792  10.213   6.144  1.00  0.00    -0.237 OA
ATOM     89  O   UNL     1     -10.482   8.261   4.812  1.00  0.00    -0.237 OA
ATOM     90  O   UNL     1     -10.786   8.235   7.252  1.00  0.00    -0.744 OA
ENDBRANCH  83  87
ENDBRANCH  56  80
BRANCH  68  91
ATOM     91  C   UNL     1      -8.812   6.601  14.595  1.00  0.00     0.023 A 
ATOM     92  C   UNL     1      -9.431   5.791  15.579  1.00  0.00     0.031 A 
ATOM     93  C   UNL     1      -8.821   7.983  14.845  1.00  0.00     0.131 A 
ATOM     94  C   UNL     1     -10.021   6.347  16.718  1.00  0.00     0.055 A 
ATOM     95  C   UNL     1      -9.318   8.527  16.034  1.00  0.00     0.041 A 
ATOM     96  F   UNL     1      -8.418   8.876  13.931  1.00  0.00    -0.206 F 
ATOM     97  C   UNL     1      -9.933   7.711  16.971  1.00  0.00     0.022 A 
BRANCH  94  98
ATOM     98  S   UNL     1     -11.057   5.337  17.812  1.00  0.00     0.124 S 
ATOM     99  O   UNL     1     -10.207   5.213  18.993  1.00  0.00    -0.237 OA
ATOM    100  O   UNL     1     -12.239   6.181  17.978  1.00  0.00    -0.237 OA
ATOM    101  O   UNL     1     -11.275   4.112  17.054  1.00  0.00    -0.744 OA
ENDBRANCH  94  98
ENDBRANCH  68  91
ENDBRANCH  42  43
ENDBRANCH  34  37
ENDBRANCH  32  33
ENDBRANCH   1  32
TORSDOF 17
