REMARK SMILES C[C@@](NC(=O)CCOC1CC[NH2+]CC1)(C(=O)NCCCCNC(=O)c1ccc(-c2c3nc(c(-c4cc(S(=O)(=O)[O-])ccc4F)c4ccc([nH]4)c(-c4cc(S(=O)(=O)[O-])ccc4F)c4nc(c(-c5cc(S(=O)(=O)[O-])ccc5F)c5ccc2[nH]5)C=C4)C=C3)cc1)C(F)(F)F
REMARK SMILES IDX 18 1 17 2 15 3 16 4 2 6 1 7 3 8 4 9 5 11 6 12 7 13 8 14 9 15
REMARK SMILES IDX 10 16 14 17 11 18 13 19 12 20 88 23 89 24 90 25 91 26 19 27
REMARK SMILES IDX 20 28 21 29 22 30 23 31 24 33 25 34 26 35 87 36 27 37 86 38
REMARK SMILES IDX 28 39 29 40 30 41 80 42 31 43 85 44 79 45 81 46 32 47 84 48
REMARK SMILES IDX 78 49 77 50 33 52 65 53 45 54 64 55 46 56 49 57 63 58 82 59
REMARK SMILES IDX 47 60 48 61 62 63 83 64 50 65 34 66 35 67 43 68 36 69 42 70
REMARK SMILES IDX 44 71 41 72 37 73 38 74 39 75 40 76 66 77 67 78 75 79 68 80
REMARK SMILES IDX 74 81 76 82 73 83 69 84 70 85 71 86 72 87 51 88 52 89 60 90
REMARK SMILES IDX 53 91 59 92 61 93 58 94 54 95 55 96 56 97 57 98
REMARK H PARENT 17 5 3 10 12 21 12 22 22 32 81 51 49 62
REMARK Flexibility Score: inf
ROOT
ATOM      1  C   UNL     1      -1.967   1.322   0.427  1.00  0.00     0.116 C 
ENDROOT
BRANCH   1   2
ATOM      2  N   UNL     1      -2.835   0.233   0.853  1.00  0.00    -0.354 N 
ATOM      3  C   UNL     1      -2.557  -0.962   1.475  1.00  0.00     0.254 C 
ATOM      4  O   UNL     1      -3.464  -1.382   2.202  1.00  0.00    -0.272 OA
ATOM      5  H   UNL     1      -3.790   0.378   0.663  1.00  0.00     0.163 HD
BRANCH   3   6
ATOM      6  C   UNL     1      -1.196  -1.707   1.383  1.00  0.00     0.212 C 
ATOM      7  C   UNL     1      -0.461  -1.474   0.061  1.00  0.00     0.056 C 
BRANCH   6   8
ATOM      8  N   UNL     1      -0.267  -1.628   2.571  1.00  0.00    -0.334 N 
ATOM      9  C   UNL     1       0.128  -0.692   3.460  1.00  0.00     0.223 C 
ATOM     10  H   UNL     1       0.170  -2.494   2.743  1.00  0.00     0.164 HD
ATOM     11  O   UNL     1       1.050  -0.990   4.226  1.00  0.00    -0.275 OA
BRANCH   9  12
ATOM     12  C   UNL     1      -0.506   0.662   3.534  1.00  0.00     0.128 C 
BRANCH  12  13
ATOM     13  C   UNL     1       0.473   1.663   2.946  1.00  0.00     0.170 C 
BRANCH  13  14
ATOM     14  O   UNL     1       0.821   1.256   1.618  1.00  0.00    -0.377 OA
BRANCH  14  15
ATOM     15  C   UNL     1       2.135   1.662   1.216  1.00  0.00     0.129 C 
ATOM     16  C   UNL     1       2.008   2.569  -0.002  1.00  0.00     0.093 C 
ATOM     17  C   UNL     1       3.002   0.422   0.959  1.00  0.00     0.093 C 
ATOM     18  C   UNL     1       1.778   1.787  -1.287  1.00  0.00     0.263 C 
ATOM     19  C   UNL     1       2.921  -0.161  -0.454  1.00  0.00     0.263 C 
ATOM     20  N   UNL     1       2.874   0.848  -1.508  1.00  0.00    -0.346 N 
ATOM     21  H   UNL     1       3.756   1.360  -1.518  1.00  0.00     0.346 HD
ATOM     22  H   UNL     1       2.723   0.377  -2.401  1.00  0.00     0.346 HD
ENDBRANCH  14  15
ENDBRANCH  13  14
ENDBRANCH  12  13
ENDBRANCH   9  12
ENDBRANCH   6   8
BRANCH   6  23
ATOM     23  C   UNL     1      -1.635  -3.209   1.315  1.00  0.00     0.420 C 
ATOM     24  F   UNL     1      -2.446  -3.480   0.272  1.00  0.00    -0.168 F 
ATOM     25  F   UNL     1      -0.523  -3.991   1.152  1.00  0.00    -0.168 F 
ATOM     26  F   UNL     1      -2.215  -3.657   2.449  1.00  0.00    -0.168 F 
ENDBRANCH   6  23
ENDBRANCH   3   6
ENDBRANCH   1   2
BRANCH   1  27
ATOM     27  C   UNL     1      -2.502   2.209  -0.693  1.00  0.00     0.023 C 
BRANCH  27  28
ATOM     28  C   UNL     1      -3.817   2.928  -0.417  1.00  0.00     0.023 C 
BRANCH  28  29
ATOM     29  C   UNL     1      -3.942   3.625   0.933  1.00  0.00     0.116 C 
BRANCH  29  30
ATOM     30  N   UNL     1      -3.092   4.797   1.089  1.00  0.00    -0.352 N 
ATOM     31  C   UNL     1      -3.457   6.084   1.438  1.00  0.00     0.251 C 
ATOM     32  H   UNL     1      -2.132   4.654   0.925  1.00  0.00     0.163 HD
ATOM     33  O   UNL     1      -2.614   6.976   1.475  1.00  0.00    -0.269 OA
BRANCH  31  34
ATOM     34  C   UNL     1      -4.883   6.383   1.701  1.00  0.00     0.039 A 
ATOM     35  C   UNL     1      -5.510   7.395   0.970  1.00  0.00     0.014 A 
ATOM     36  C   UNL     1      -5.622   5.584   2.575  1.00  0.00     0.014 A 
ATOM     37  C   UNL     1      -6.902   7.519   1.021  1.00  0.00     0.010 A 
ATOM     38  C   UNL     1      -7.012   5.646   2.547  1.00  0.00     0.010 A 
ATOM     39  C   UNL     1      -7.671   6.600   1.754  1.00  0.00    -0.014 A 
BRANCH  39  40
ATOM     40  C   UNL     1      -9.159   6.598   1.687  1.00  0.00     0.031 A 
ATOM     41  C   UNL     1      -9.971   6.794   2.939  1.00  0.00     0.074 A 
ATOM     42  C   UNL     1      -9.780   6.326   0.519  1.00  0.00     0.049 A 
ATOM     43  N   UNL     1     -11.267   6.719   3.109  1.00  0.00    -0.248 NA
ATOM     44  C   UNL     1      -9.219   7.071   4.171  1.00  0.00     0.031 C 
ATOM     45  C   UNL     1      -9.110   6.057  -0.756  1.00  0.00     0.029 A 
ATOM     46  N   UNL     1     -11.116   6.220   0.214  1.00  0.00    -0.354 N 
ATOM     47  C   UNL     1     -11.482   6.915   4.469  1.00  0.00     0.074 A 
ATOM     48  C   UNL     1     -10.177   7.041   5.084  1.00  0.00     0.031 C 
ATOM     49  C   UNL     1     -10.035   5.851  -1.708  1.00  0.00     0.029 A 
ATOM     50  C   UNL     1     -11.363   5.923  -1.108  1.00  0.00     0.049 A 
ATOM     51  H   UNL     1     -11.830   6.345   0.879  1.00  0.00     0.167 HD
ATOM     52  C   UNL     1     -12.657   7.008   5.140  1.00  0.00     0.034 A 
ATOM     53  C   UNL     1     -12.525   5.724  -1.762  1.00  0.00     0.034 A 
ATOM     54  C   UNL     1     -13.950   6.906   4.510  1.00  0.00     0.049 A 
ATOM     55  C   UNL     1     -13.820   5.832  -0.997  1.00  0.00     0.074 A 
ATOM     56  C   UNL     1     -15.202   7.056   5.081  1.00  0.00     0.029 A 
ATOM     57  N   UNL     1     -14.160   6.623   3.166  1.00  0.00    -0.354 N 
ATOM     58  N   UNL     1     -14.007   6.077   0.280  1.00  0.00    -0.248 NA
ATOM     59  C   UNL     1     -15.060   5.645  -1.762  1.00  0.00     0.031 C 
ATOM     60  C   UNL     1     -16.167   6.803   4.099  1.00  0.00     0.029 A 
ATOM     61  C   UNL     1     -15.519   6.567   2.897  1.00  0.00     0.049 A 
ATOM     62  H   UNL     1     -13.447   6.484   2.501  1.00  0.00     0.167 HD
ATOM     63  C   UNL     1     -15.388   6.106   0.461  1.00  0.00     0.074 A 
ATOM     64  C   UNL     1     -15.982   5.866  -0.837  1.00  0.00     0.031 C 
ATOM     65  C   UNL     1     -16.099   6.318   1.598  1.00  0.00     0.034 A 
BRANCH  52  66
ATOM     66  C   UNL     1     -12.585   7.212   6.636  1.00  0.00     0.023 A 
ATOM     67  C   UNL     1     -11.983   8.353   7.195  1.00  0.00     0.031 A 
ATOM     68  C   UNL     1     -13.083   6.235   7.515  1.00  0.00     0.131 A 
ATOM     69  C   UNL     1     -11.812   8.446   8.584  1.00  0.00     0.055 A 
ATOM     70  C   UNL     1     -12.990   6.376   8.902  1.00  0.00     0.041 A 
ATOM     71  F   UNL     1     -13.652   5.115   7.042  1.00  0.00    -0.206 F 
ATOM     72  C   UNL     1     -12.334   7.478   9.444  1.00  0.00     0.022 A 
BRANCH  69  73
ATOM     73  S   UNL     1     -10.754   9.768   9.236  1.00  0.00     0.124 S 
ATOM     74  O   UNL     1      -9.486   9.487   8.566  1.00  0.00    -0.237 OA
ATOM     75  O   UNL     1     -11.451  10.973   8.803  1.00  0.00    -0.237 OA
ATOM     76  O   UNL     1     -10.755   9.528  10.678  1.00  0.00    -0.744 OA
ENDBRANCH  69  73
ENDBRANCH  52  66
BRANCH  53  77
ATOM     77  C   UNL     1     -12.532   5.404  -3.220  1.00  0.00     0.023 A 
ATOM     78  C   UNL     1     -13.089   6.294  -4.151  1.00  0.00     0.031 A 
ATOM     79  C   UNL     1     -12.023   4.184  -3.698  1.00  0.00     0.131 A 
ATOM     80  C   UNL     1     -13.167   5.934  -5.506  1.00  0.00     0.055 A 
ATOM     81  C   UNL     1     -12.057   3.851  -5.054  1.00  0.00     0.041 A 
ATOM     82  F   UNL     1     -11.472   3.299  -2.852  1.00  0.00    -0.206 F 
ATOM     83  C   UNL     1     -12.644   4.724  -5.965  1.00  0.00     0.022 A 
BRANCH  80  84
ATOM     84  S   UNL     1     -14.035   7.042  -6.651  1.00  0.00     0.124 S 
ATOM     85  O   UNL     1     -15.364   7.103  -6.055  1.00  0.00    -0.237 OA
ATOM     86  O   UNL     1     -13.233   8.258  -6.562  1.00  0.00    -0.237 OA
ATOM     87  O   UNL     1     -13.955   6.338  -7.930  1.00  0.00    -0.744 OA
ENDBRANCH  80  84
ENDBRANCH  53  77
BRANCH  65  88
ATOM     88  C   UNL     1     -17.602   6.348   1.470  1.00  0.00     0.023 A 
ATOM     89  C   UNL     1     -18.342   5.198   1.144  1.00  0.00     0.031 A 
ATOM     90  C   UNL     1     -18.303   7.551   1.671  1.00  0.00     0.131 A 
ATOM     91  C   UNL     1     -19.732   5.286   0.976  1.00  0.00     0.055 A 
ATOM     92  C   UNL     1     -19.692   7.619   1.561  1.00  0.00     0.041 A 
ATOM     93  F   UNL     1     -17.646   8.680   1.982  1.00  0.00    -0.206 F 
ATOM     94  C   UNL     1     -20.413   6.485   1.199  1.00  0.00     0.022 A 
BRANCH  91  95
ATOM     95  S   UNL     1     -20.632   3.829   0.377  1.00  0.00     0.124 S 
ATOM     96  O   UNL     1     -19.976   3.572  -0.901  1.00  0.00    -0.237 OA
ATOM     97  O   UNL     1     -20.381   2.852   1.431  1.00  0.00    -0.237 OA
ATOM     98  O   UNL     1     -22.014   4.295   0.281  1.00  0.00    -0.744 OA
ENDBRANCH  91  95
ENDBRANCH  65  88
ENDBRANCH  39  40
ENDBRANCH  31  34
ENDBRANCH  29  30
ENDBRANCH  28  29
ENDBRANCH  27  28
ENDBRANCH   1  27
TORSDOF 20
