REMARK SMILES Cc1cc(C)c2c(=O)n(CCCC(=O)NCCCCNC(=O)c3ccc(-c4c5nc(c(-c6cc(S(=O)(=O)[O-])ccc6F)c6ccc([nH]6)c(-c6cc(S(=O)(=O)[O-])ccc6F)c6nc(c(-c7cc(S(=O)(=O)[O-])ccc7F)c7ccc4[nH]7)C=C6)C=C5)cc3)sc2n1
REMARK SMILES IDX 17 1 16 2 15 3 13 4 14 5 12 7 11 8 10 9 9 10 1 11 2 12 3 13
REMARK SMILES IDX 88 14 4 15 87 16 5 17 6 18 86 19 7 20 8 21 18 22 19 23 20 24
REMARK SMILES IDX 21 25 22 27 23 28 24 29 85 30 25 31 84 32 26 33 27 34 28 35
REMARK SMILES IDX 78 36 29 37 83 38 77 39 79 40 30 41 82 42 76 43 75 44 31 46
REMARK SMILES IDX 63 47 43 48 62 49 44 50 47 51 61 52 80 53 45 54 46 55 60 57
REMARK SMILES IDX 81 58 48 59 32 60 33 61 41 62 34 63 40 64 42 65 39 66 35 67
REMARK SMILES IDX 36 68 37 69 38 70 64 71 65 72 73 73 66 74 72 75 74 76 71 77
REMARK SMILES IDX 67 78 68 79 69 80 70 81 49 82 50 83 58 84 51 85 57 86 59 87
REMARK SMILES IDX 56 88 52 89 53 90 54 91 55 92
REMARK H PARENT 15 6 20 26 79 45 47 56
REMARK Flexibility Score: inf
ROOT
ATOM      1  C   UNL     1       0.580  -1.160  -7.854  1.00  0.00     0.023 C 
ENDROOT
BRANCH   1   2
ATOM      2  C   UNL     1       0.029   0.024  -7.045  1.00  0.00     0.116 C 
BRANCH   2   3
ATOM      3  N   UNL     1      -0.907   0.796  -7.836  1.00  0.00    -0.356 N 
ATOM      4  C   UNL     1      -2.264   0.844  -7.822  1.00  0.00     0.220 C 
ATOM      5  O   UNL     1      -2.819   1.509  -8.702  1.00  0.00    -0.275 OA
ATOM      6  H   UNL     1      -0.486   1.389  -8.499  1.00  0.00     0.163 HD
BRANCH   4   7
ATOM      7  C   UNL     1      -3.087   0.205  -6.719  1.00  0.00     0.102 C 
BRANCH   7   8
ATOM      8  C   UNL     1      -3.337  -1.307  -6.725  1.00  0.00     0.033 C 
BRANCH   8   9
ATOM      9  C   UNL     1      -2.312  -2.292  -6.143  1.00  0.00     0.139 C 
BRANCH   9  10
ATOM     10  N   UNL     1      -1.836  -2.180  -4.774  1.00  0.00    -0.262 N 
ATOM     11  C   UNL     1       1.148  -0.208   0.191  1.00  0.00     0.067 C 
ATOM     12  C   UNL     1       0.608  -1.075  -0.908  1.00  0.00     0.039 A 
ATOM     13  C   UNL     1       1.083  -2.383  -1.082  1.00  0.00     0.027 A 
ATOM     14  N   UNL     1      -0.371  -0.547  -1.678  1.00  0.00    -0.241 NA
ATOM     15  C   UNL     1       0.594  -3.176  -2.135  1.00  0.00    -0.033 A 
ATOM     16  C   UNL     1      -0.800  -1.321  -2.687  1.00  0.00     0.146 A 
ATOM     17  C   UNL     1       1.038  -4.596  -2.296  1.00  0.00     0.045 C 
ATOM     18  C   UNL     1      -0.325  -2.582  -2.990  1.00  0.00     0.081 A 
ATOM     19  S   UNL     1      -2.126  -0.843  -3.756  1.00  0.00    -0.035 S 
ATOM     20  C   UNL     1      -0.893  -3.083  -4.265  1.00  0.00     0.270 A 
ATOM     21  O   UNL     1      -0.517  -4.103  -4.807  1.00  0.00    -0.268 OA
ENDBRANCH   9  10
ENDBRANCH   8   9
ENDBRANCH   7   8
ENDBRANCH   4   7
ENDBRANCH   2   3
ENDBRANCH   1   2
BRANCH   1  22
ATOM     22  C   UNL     1       1.645  -0.816  -8.901  1.00  0.00     0.023 C 
BRANCH  22  23
ATOM     23  C   UNL     1       2.968  -0.346  -8.317  1.00  0.00     0.116 C 
BRANCH  23  24
ATOM     24  N   UNL     1       3.655  -1.376  -7.535  1.00  0.00    -0.352 N 
ATOM     25  C   UNL     1       4.831  -1.231  -6.816  1.00  0.00     0.251 C 
ATOM     26  H   UNL     1       3.236  -2.267  -7.518  1.00  0.00     0.163 HD
ATOM     27  O   UNL     1       5.535  -2.199  -6.561  1.00  0.00    -0.269 OA
BRANCH  25  28
ATOM     28  C   UNL     1       5.199   0.124  -6.364  1.00  0.00     0.039 A 
ATOM     29  C   UNL     1       6.502   0.616  -6.470  1.00  0.00     0.014 A 
ATOM     30  C   UNL     1       4.167   0.930  -5.890  1.00  0.00     0.014 A 
ATOM     31  C   UNL     1       6.728   1.961  -6.178  1.00  0.00     0.010 A 
ATOM     32  C   UNL     1       4.358   2.282  -5.774  1.00  0.00     0.010 A 
ATOM     33  C   UNL     1       5.643   2.798  -5.859  1.00  0.00    -0.014 A 
BRANCH  33  34
ATOM     34  C   UNL     1       5.803   4.246  -5.752  1.00  0.00     0.031 A 
ATOM     35  C   UNL     1       6.489   4.860  -6.917  1.00  0.00     0.074 A 
ATOM     36  C   UNL     1       5.223   5.002  -4.792  1.00  0.00     0.049 A 
ATOM     37  N   UNL     1       7.709   5.279  -6.963  1.00  0.00    -0.248 NA
ATOM     38  C   UNL     1       5.824   4.840  -8.230  1.00  0.00     0.031 C 
ATOM     39  C   UNL     1       4.304   4.585  -3.726  1.00  0.00     0.029 A 
ATOM     40  N   UNL     1       5.276   6.351  -4.616  1.00  0.00    -0.354 N 
ATOM     41  C   UNL     1       7.877   5.830  -8.226  1.00  0.00     0.074 A 
ATOM     42  C   UNL     1       6.787   5.327  -9.018  1.00  0.00     0.031 C 
ATOM     43  C   UNL     1       3.727   5.671  -3.163  1.00  0.00     0.029 A 
ATOM     44  C   UNL     1       4.358   6.864  -3.698  1.00  0.00     0.049 A 
ATOM     45  H   UNL     1       5.914   6.923  -5.101  1.00  0.00     0.167 HD
ATOM     46  C   UNL     1       8.745   6.862  -8.420  1.00  0.00     0.034 A 
ATOM     47  C   UNL     1       4.155   8.171  -3.373  1.00  0.00     0.034 A 
ATOM     48  C   UNL     1       9.647   6.992  -7.293  1.00  0.00     0.049 A 
ATOM     49  C   UNL     1       5.428   8.864  -3.689  1.00  0.00     0.074 A 
ATOM     50  C   UNL     1      10.554   6.150  -6.676  1.00  0.00     0.029 A 
ATOM     51  N   UNL     1       9.378   7.978  -6.369  1.00  0.00    -0.354 N 
ATOM     52  N   UNL     1       6.553   8.599  -3.079  1.00  0.00    -0.248 NA
ATOM     53  C   UNL     1       5.559   9.469  -5.004  1.00  0.00     0.031 C 
ATOM     54  C   UNL     1      10.372   6.377  -5.279  1.00  0.00     0.029 A 
ATOM     55  C   UNL     1       9.442   7.407  -5.121  1.00  0.00     0.049 A 
ATOM     56  H   UNL     1       9.177   8.921  -6.567  1.00  0.00     0.167 HD
ATOM     57  C   UNL     1       7.505   8.584  -4.086  1.00  0.00     0.074 A 
ATOM     58  C   UNL     1       6.850   9.212  -5.234  1.00  0.00     0.031 C 
ATOM     59  C   UNL     1       8.631   7.816  -3.989  1.00  0.00     0.034 A 
BRANCH  46  60
ATOM     60  C   UNL     1       8.540   7.989  -9.409  1.00  0.00     0.023 A 
ATOM     61  C   UNL     1       9.546   8.972  -9.481  1.00  0.00     0.031 A 
ATOM     62  C   UNL     1       7.324   8.309 -10.055  1.00  0.00     0.131 A 
ATOM     63  C   UNL     1       9.295  10.224 -10.069  1.00  0.00     0.055 A 
ATOM     64  C   UNL     1       7.099   9.533 -10.690  1.00  0.00     0.041 A 
ATOM     65  F   UNL     1       6.256   7.504 -10.034  1.00  0.00    -0.206 F 
ATOM     66  C   UNL     1       8.074  10.513 -10.672  1.00  0.00     0.022 A 
BRANCH  63  67
ATOM     67  S   UNL     1      10.544  11.523  -9.895  1.00  0.00     0.124 S 
ATOM     68  O   UNL     1      10.672  11.613  -8.444  1.00  0.00    -0.237 OA
ATOM     69  O   UNL     1      11.678  10.945 -10.607  1.00  0.00    -0.237 OA
ATOM     70  O   UNL     1       9.925  12.677 -10.542  1.00  0.00    -0.744 OA
ENDBRANCH  63  67
ENDBRANCH  46  60
BRANCH  47  71
ATOM     71  C   UNL     1       2.862   8.890  -3.154  1.00  0.00     0.023 A 
ATOM     72  C   UNL     1       2.803  10.219  -2.667  1.00  0.00     0.031 A 
ATOM     73  C   UNL     1       1.663   8.368  -3.689  1.00  0.00     0.131 A 
ATOM     74  C   UNL     1       1.599  10.963  -2.745  1.00  0.00     0.055 A 
ATOM     75  C   UNL     1       0.479   9.109  -3.768  1.00  0.00     0.041 A 
ATOM     76  F   UNL     1       1.621   7.145  -4.239  1.00  0.00    -0.206 F 
ATOM     77  C   UNL     1       0.445  10.416  -3.309  1.00  0.00     0.022 A 
BRANCH  74  78
ATOM     78  S   UNL     1       1.538  12.712  -2.220  1.00  0.00     0.124 S 
ATOM     79  O   UNL     1       1.491  12.593  -0.767  1.00  0.00    -0.237 OA
ATOM     80  O   UNL     1       2.766  13.258  -2.786  1.00  0.00    -0.237 OA
ATOM     81  O   UNL     1       0.307  13.210  -2.837  1.00  0.00    -0.744 OA
ENDBRANCH  74  78
ENDBRANCH  47  71
BRANCH  59  82
ATOM     82  C   UNL     1       8.980   7.197  -2.649  1.00  0.00     0.023 A 
ATOM     83  C   UNL     1       8.225   6.205  -1.979  1.00  0.00     0.031 A 
ATOM     84  C   UNL     1      10.238   7.530  -2.117  1.00  0.00     0.131 A 
ATOM     85  C   UNL     1       8.748   5.585  -0.822  1.00  0.00     0.055 A 
ATOM     86  C   UNL     1      10.759   6.901  -0.989  1.00  0.00     0.041 A 
ATOM     87  F   UNL     1      11.011   8.445  -2.726  1.00  0.00    -0.206 F 
ATOM     88  C   UNL     1      10.016   5.924  -0.337  1.00  0.00     0.022 A 
BRANCH  85  89
ATOM     89  S   UNL     1       7.805   4.293   0.060  1.00  0.00     0.124 S 
ATOM     90  O   UNL     1       6.575   4.977   0.442  1.00  0.00    -0.237 OA
ATOM     91  O   UNL     1       7.668   3.244  -0.947  1.00  0.00    -0.237 OA
ATOM     92  O   UNL     1       8.675   3.938   1.184  1.00  0.00    -0.744 OA
ENDBRANCH  85  89
ENDBRANCH  59  82
ENDBRANCH  33  34
ENDBRANCH  25  28
ENDBRANCH  23  24
ENDBRANCH  22  23
ENDBRANCH   1  22
TORSDOF 17
