REMARK SMILES CC(C)CCc1cc2c(cc1Cl)C=C(C(=O)NCCCCNC(=O)c1ccc(-c3c4nc(c(-c5cc(S(=O)(=O)[O-])ccc5F)c5ccc([nH]5)c(-c5cc(S(=O)(=O)[O-])ccc5F)c5nc(c(-c6cc(S(=O)(=O)[O-])ccc6F)c6ccc3[nH]6)C=C5)C=C4)cc1)[C@@H](C(F)(F)F)O2
REMARK SMILES IDX 19 1 18 2 17 3 15 4 16 5 14 7 6 8 7 9 11 10 8 11 10 12 12 13
REMARK SMILES IDX 9 14 93 15 13 16 88 17 5 18 4 19 2 20 1 21 3 22 89 23 90 24
REMARK SMILES IDX 91 25 92 26 20 27 21 28 22 29 23 30 24 32 25 33 26 34 87 35
REMARK SMILES IDX 27 36 86 37 28 38 29 39 30 40 80 41 31 42 85 43 79 44 81 45
REMARK SMILES IDX 32 46 84 47 78 48 77 49 33 51 65 52 45 53 64 54 46 55 49 56
REMARK SMILES IDX 63 57 82 58 47 59 48 60 62 62 83 63 50 64 34 65 35 66 43 67
REMARK SMILES IDX 36 68 42 69 44 70 41 71 37 72 38 73 39 74 40 75 66 76 67 77
REMARK SMILES IDX 75 78 68 79 74 80 76 81 73 82 69 83 70 84 71 85 72 86 51 87
REMARK SMILES IDX 52 88 60 89 53 90 59 91 61 92 58 93 54 94 55 95 56 96 57 97
REMARK H PARENT 17 6 22 31 81 50 49 61
REMARK Flexibility Score: inf
ROOT
ATOM      1  C   UNL     1      -1.967   8.003   7.127  1.00  0.00     0.023 C 
ENDROOT
BRANCH   1   2
ATOM      2  C   UNL     1      -0.503   7.639   6.889  1.00  0.00     0.116 C 
BRANCH   2   3
ATOM      3  N   UNL     1      -0.097   6.466   7.644  1.00  0.00    -0.352 N 
ATOM      4  C   UNL     1       0.029   5.138   7.409  1.00  0.00     0.251 C 
ATOM      5  O   UNL     1       0.431   4.466   8.364  1.00  0.00    -0.270 OA
ATOM      6  H   UNL     1       0.151   6.696   8.568  1.00  0.00     0.163 HD
BRANCH   4   7
ATOM      7  C   UNL     1      -0.282   4.459   6.116  1.00  0.00     0.067 C 
ATOM      8  C   UNL     1      -1.125   1.016   2.505  1.00  0.00    -0.026 A 
ATOM      9  C   UNL     1      -1.410   2.384   2.659  1.00  0.00     0.052 A 
ATOM     10  C   UNL     1      -0.552   0.337   3.595  1.00  0.00     0.045 A 
ATOM     11  C   UNL     1      -1.077   3.057   3.832  1.00  0.00     0.128 A 
ATOM     12  C   UNL     1      -0.245   1.015   4.784  1.00  0.00     0.032 A 
ATOM     13  Cl  UNL     1      -0.206  -1.357   3.550  1.00  0.00    -0.084 Cl
ATOM     14  C   UNL     1      -0.499   2.382   4.903  1.00  0.00     0.019 A 
ATOM     15  O   UNL     1      -1.379   4.388   3.881  1.00  0.00    -0.475 OA
ATOM     16  C   UNL     1      -0.221   3.113   6.133  1.00  0.00     0.025 C 
ATOM     17  C   UNL     1      -0.608   5.174   4.835  1.00  0.00     0.314 C 
BRANCH   8  18
ATOM     18  C   UNL     1      -1.473   0.347   1.191  1.00  0.00     0.037 C 
BRANCH  18  19
ATOM     19  C   UNL     1      -0.901   1.044  -0.058  1.00  0.00     0.008 C 
BRANCH  19  20
ATOM     20  C   UNL     1       0.635   1.164  -0.096  1.00  0.00    -0.017 C 
ATOM     21  C   UNL     1       1.318  -0.202  -0.176  1.00  0.00     0.007 C 
ATOM     22  C   UNL     1       1.059   2.026  -1.288  1.00  0.00     0.007 C 
ENDBRANCH  19  20
ENDBRANCH  18  19
ENDBRANCH   8  18
BRANCH  17  23
ATOM     23  C   UNL     1       0.646   5.738   4.138  1.00  0.00     0.429 C 
ATOM     24  F   UNL     1       0.292   6.619   3.168  1.00  0.00    -0.167 F 
ATOM     25  F   UNL     1       1.457   6.407   4.990  1.00  0.00    -0.167 F 
ATOM     26  F   UNL     1       1.397   4.776   3.555  1.00  0.00    -0.167 F 
ENDBRANCH  17  23
ENDBRANCH   4   7
ENDBRANCH   2   3
ENDBRANCH   1   2
BRANCH   1  27
ATOM     27  C   UNL     1      -2.206   8.914   8.334  1.00  0.00     0.023 C 
BRANCH  27  28
ATOM     28  C   UNL     1      -1.433  10.231   8.327  1.00  0.00     0.116 C 
BRANCH  28  29
ATOM     29  N   UNL     1      -1.605  11.025   7.117  1.00  0.00    -0.352 N 
ATOM     30  C   UNL     1      -1.386  12.379   6.966  1.00  0.00     0.251 C 
ATOM     31  H   UNL     1      -1.911  10.541   6.317  1.00  0.00     0.163 HD
ATOM     32  O   UNL     1      -1.653  12.938   5.907  1.00  0.00    -0.269 OA
BRANCH  30  33
ATOM     33  C   UNL     1      -0.888  13.147   8.126  1.00  0.00     0.039 A 
ATOM     34  C   UNL     1       0.230  12.699   8.829  1.00  0.00     0.014 A 
ATOM     35  C   UNL     1      -1.613  14.252   8.577  1.00  0.00     0.014 A 
ATOM     36  C   UNL     1       0.503  13.230  10.083  1.00  0.00     0.010 A 
ATOM     37  C   UNL     1      -1.279  14.844   9.800  1.00  0.00     0.010 A 
ATOM     38  C   UNL     1      -0.261  14.295  10.594  1.00  0.00    -0.014 A 
BRANCH  38  39
ATOM     39  C   UNL     1       0.027  14.790  11.966  1.00  0.00     0.031 A 
ATOM     40  C   UNL     1      -0.980  14.631  13.075  1.00  0.00     0.074 A 
ATOM     41  C   UNL     1       1.245  15.301  12.230  1.00  0.00     0.049 A 
ATOM     42  N   UNL     1      -0.847  14.902  14.348  1.00  0.00    -0.248 NA
ATOM     43  C   UNL     1      -2.306  14.105  12.713  1.00  0.00     0.031 C 
ATOM     44  C   UNL     1       2.294  15.504  11.230  1.00  0.00     0.029 A 
ATOM     45  N   UNL     1       1.824  15.700  13.408  1.00  0.00    -0.354 N 
ATOM     46  C   UNL     1      -2.070  14.597  14.936  1.00  0.00     0.074 A 
ATOM     47  C   UNL     1      -2.945  14.152  13.875  1.00  0.00     0.031 C 
ATOM     48  C   UNL     1       3.411  15.914  11.845  1.00  0.00     0.029 A 
ATOM     49  C   UNL     1       3.143  16.068  13.273  1.00  0.00     0.049 A 
ATOM     50  H   UNL     1       1.342  15.722  14.266  1.00  0.00     0.167 HD
ATOM     51  C   UNL     1      -2.423  14.666  16.242  1.00  0.00     0.034 A 
ATOM     52  C   UNL     1       4.042  16.476  14.192  1.00  0.00     0.034 A 
ATOM     53  C   UNL     1      -1.534  15.092  17.294  1.00  0.00     0.049 A 
ATOM     54  C   UNL     1       3.627  16.539  15.637  1.00  0.00     0.074 A 
ATOM     55  C   UNL     1      -1.796  15.184  18.650  1.00  0.00     0.029 A 
ATOM     56  N   UNL     1      -0.216  15.487  17.115  1.00  0.00    -0.354 N 
ATOM     57  N   UNL     1       2.477  16.208  16.178  1.00  0.00    -0.248 NA
ATOM     58  C   UNL     1       4.624  17.026  16.600  1.00  0.00     0.031 C 
ATOM     59  C   UNL     1      -0.654  15.677  19.284  1.00  0.00     0.029 A 
ATOM     60  C   UNL     1       0.343  15.837  18.334  1.00  0.00     0.049 A 
ATOM     61  H   UNL     1       0.254  15.513  16.250  1.00  0.00     0.167 HD
ATOM     62  C   UNL     1       2.617  16.436  17.544  1.00  0.00     0.074 A 
ATOM     63  C   UNL     1       3.973  16.900  17.750  1.00  0.00     0.031 C 
ATOM     64  C   UNL     1       1.700  16.288  18.533  1.00  0.00     0.034 A 
BRANCH  51  65
ATOM     65  C   UNL     1      -3.824  14.264  16.634  1.00  0.00     0.023 A 
ATOM     66  C   UNL     1      -4.706  15.216  17.180  1.00  0.00     0.031 A 
ATOM     67  C   UNL     1      -4.243  12.923  16.581  1.00  0.00     0.131 A 
ATOM     68  C   UNL     1      -5.950  14.808  17.678  1.00  0.00     0.055 A 
ATOM     69  C   UNL     1      -5.498  12.527  17.046  1.00  0.00     0.041 A 
ATOM     70  F   UNL     1      -3.440  11.978  16.066  1.00  0.00    -0.206 F 
ATOM     71  C   UNL     1      -6.353  13.470  17.609  1.00  0.00     0.022 A 
BRANCH  68  72
ATOM     72  S   UNL     1      -7.071  15.984  18.485  1.00  0.00     0.124 S 
ATOM     73  O   UNL     1      -8.258  15.895  17.637  1.00  0.00    -0.237 OA
ATOM     74  O   UNL     1      -7.213  15.405  19.819  1.00  0.00    -0.237 OA
ATOM     75  O   UNL     1      -6.355  17.253  18.421  1.00  0.00    -0.744 OA
ENDBRANCH  68  72
ENDBRANCH  51  65
BRANCH  52  76
ATOM     76  C   UNL     1       5.434  16.787  13.752  1.00  0.00     0.023 A 
ATOM     77  C   UNL     1       5.683  17.807  12.816  1.00  0.00     0.031 A 
ATOM     78  C   UNL     1       6.513  15.986  14.161  1.00  0.00     0.131 A 
ATOM     79  C   UNL     1       6.960  17.944  12.258  1.00  0.00     0.055 A 
ATOM     80  C   UNL     1       7.802  16.177  13.659  1.00  0.00     0.041 A 
ATOM     81  F   UNL     1       6.322  14.992  15.041  1.00  0.00    -0.206 F 
ATOM     82  C   UNL     1       8.025  17.146  12.686  1.00  0.00     0.022 A 
BRANCH  79  83
ATOM     83  S   UNL     1       7.240  19.051  10.847  1.00  0.00     0.124 S 
ATOM     84  O   UNL     1       8.185  20.015  11.400  1.00  0.00    -0.237 OA
ATOM     85  O   UNL     1       7.785  18.132   9.850  1.00  0.00    -0.237 OA
ATOM     86  O   UNL     1       5.910  19.569  10.547  1.00  0.00    -0.744 OA
ENDBRANCH  79  83
ENDBRANCH  52  76
BRANCH  64  87
ATOM     87  C   UNL     1       2.106  16.630  19.945  1.00  0.00     0.023 A 
ATOM     88  C   UNL     1       2.127  15.630  20.936  1.00  0.00     0.031 A 
ATOM     89  C   UNL     1       2.330  17.961  20.336  1.00  0.00     0.131 A 
ATOM     90  C   UNL     1       2.337  15.982  22.275  1.00  0.00     0.055 A 
ATOM     91  C   UNL     1       2.579  18.302  21.666  1.00  0.00     0.041 A 
ATOM     92  F   UNL     1       2.307  18.951  19.428  1.00  0.00    -0.206 F 
ATOM     93  C   UNL     1       2.570  17.312  22.644  1.00  0.00     0.022 A 
BRANCH  90  94
ATOM     94  S   UNL     1       2.230  14.745  23.597  1.00  0.00     0.124 S 
ATOM     95  O   UNL     1       3.590  14.757  24.131  1.00  0.00    -0.237 OA
ATOM     96  O   UNL     1       1.211  15.316  24.474  1.00  0.00    -0.237 OA
ATOM     97  O   UNL     1       1.845  13.520  22.904  1.00  0.00    -0.744 OA
ENDBRANCH  90  94
ENDBRANCH  64  87
ENDBRANCH  38  39
ENDBRANCH  30  33
ENDBRANCH  28  29
ENDBRANCH  27  28
ENDBRANCH   1  27
TORSDOF 18
