REMARK SMILES Cc1cc2[nH]c(=O)[nH]c2cc1S(=O)(=O)NCCC(=O)NCCCCNC(=O)c1ccc(-c2c3nc(c(-c4cc(S(=O)(=O)[O-])ccc4F)c4ccc([nH]4)c(-c4cc(S(=O)(=O)[O-])ccc4F)c4nc(c(-c5cc(S(=O)(=O)[O-])ccc5F)c5ccc2[nH]5)C=C4)C=C3)cc1
REMARK SMILES IDX 22 1 21 2 20 3 18 4 19 5 17 7 16 8 15 9 12 11 13 12 14 13
REMARK SMILES IDX 11 14 1 15 2 16 3 17 4 18 10 19 5 20 9 21 6 22 8 24 7 25
REMARK SMILES IDX 23 27 24 28 25 29 26 30 27 32 28 33 29 34 90 35 30 36 89 37
REMARK SMILES IDX 31 38 32 39 33 40 83 41 34 42 88 43 82 44 84 45 35 46 87 47
REMARK SMILES IDX 81 48 80 49 36 51 68 52 48 53 67 54 49 55 52 56 66 57 85 58
REMARK SMILES IDX 50 59 51 60 65 62 86 63 53 64 37 65 38 66 46 67 39 68 45 69
REMARK SMILES IDX 47 70 44 71 40 72 41 73 42 74 43 75 69 76 70 77 78 78 71 79
REMARK SMILES IDX 77 80 79 81 76 82 72 83 73 84 74 85 75 86 54 87 55 88 63 89
REMARK SMILES IDX 56 90 62 91 64 92 61 93 57 94 58 95 59 96 60 97
REMARK H PARENT 20 6 15 10 5 23 8 26 25 31 84 50 52 61
REMARK Flexibility Score: inf
ROOT
ATOM      1  C   UNL     1      -1.993   2.956  -3.135  1.00  0.00     0.023 C 
ENDROOT
BRANCH   1   2
ATOM      2  C   UNL     1      -0.968   2.539  -4.182  1.00  0.00     0.116 C 
BRANCH   2   3
ATOM      3  N   UNL     1       0.240   3.330  -4.090  1.00  0.00    -0.356 N 
ATOM      4  C   UNL     1       1.503   2.912  -3.803  1.00  0.00     0.221 C 
ATOM      5  O   UNL     1       2.420   3.734  -3.810  1.00  0.00    -0.275 OA
ATOM      6  H   UNL     1       0.135   4.295  -4.257  1.00  0.00     0.163 HD
BRANCH   4   7
ATOM      7  C   UNL     1       1.770   1.455  -3.496  1.00  0.00     0.116 C 
BRANCH   7   8
ATOM      8  C   UNL     1       1.585   1.103  -2.027  1.00  0.00     0.109 C 
BRANCH   8   9
ATOM      9  N   UNL     1       0.205   0.863  -1.604  1.00  0.00    -0.211 NA
ATOM     10  H   UNL     1       0.227   0.888  -0.585  1.00  0.00     0.141 HD
BRANCH   9  11
ATOM     11  S   UNL     1      -0.701  -0.478  -1.995  1.00  0.00     0.240 S 
ATOM     12  O   UNL     1      -0.421  -0.795  -3.386  1.00  0.00    -0.207 OA
ATOM     13  O   UNL     1      -2.039  -0.205  -1.548  1.00  0.00    -0.207 OA
BRANCH  11  14
ATOM     14  C   UNL     1      -0.134  -1.872  -1.052  1.00  0.00     0.087 A 
ATOM     15  C   UNL     1       0.791  -0.515   0.942  1.00  0.00     0.046 C 
ATOM     16  C   UNL     1       0.541  -1.797   0.198  1.00  0.00    -0.029 A 
ATOM     17  C   UNL     1       1.012  -2.991   0.791  1.00  0.00     0.033 A 
ATOM     18  C   UNL     1       0.737  -4.183   0.159  1.00  0.00     0.067 A 
ATOM     19  C   UNL     1      -0.423  -3.113  -1.661  1.00  0.00     0.050 A 
ATOM     20  N   UNL     1       1.061  -5.485   0.522  1.00  0.00    -0.306 N 
ATOM     21  C   UNL     1       0.020  -4.241  -1.028  1.00  0.00     0.068 A 
ATOM     22  C   UNL     1       0.533  -6.366  -0.435  1.00  0.00     0.323 A 
ATOM     23  H   UNL     1       1.575  -5.746   1.320  1.00  0.00     0.171 HD
ATOM     24  N   UNL     1      -0.117  -5.574  -1.392  1.00  0.00    -0.306 N 
ATOM     25  O   UNL     1       0.628  -7.580  -0.438  1.00  0.00    -0.248 OA
ATOM     26  H   UNL     1      -0.591  -5.907  -2.188  1.00  0.00     0.171 HD
ENDBRANCH  11  14
ENDBRANCH   9  11
ENDBRANCH   8   9
ENDBRANCH   7   8
ENDBRANCH   4   7
ENDBRANCH   2   3
ENDBRANCH   1   2
BRANCH   1  27
ATOM     27  C   UNL     1      -3.022   3.950  -3.664  1.00  0.00     0.023 C 
BRANCH  27  28
ATOM     28  C   UNL     1      -3.879   3.407  -4.818  1.00  0.00     0.116 C 
BRANCH  28  29
ATOM     29  N   UNL     1      -4.668   2.241  -4.477  1.00  0.00    -0.352 N 
ATOM     30  C   UNL     1      -5.960   2.081  -4.045  1.00  0.00     0.251 C 
ATOM     31  H   UNL     1      -4.179   1.392  -4.576  1.00  0.00     0.163 HD
ATOM     32  O   UNL     1      -6.431   0.944  -4.124  1.00  0.00    -0.269 OA
BRANCH  30  33
ATOM     33  C   UNL     1      -6.770   3.163  -3.421  1.00  0.00     0.039 A 
ATOM     34  C   UNL     1      -6.328   4.470  -3.235  1.00  0.00     0.014 A 
ATOM     35  C   UNL     1      -8.014   2.794  -2.875  1.00  0.00     0.014 A 
ATOM     36  C   UNL     1      -7.013   5.336  -2.406  1.00  0.00     0.010 A 
ATOM     37  C   UNL     1      -8.735   3.678  -2.075  1.00  0.00     0.010 A 
ATOM     38  C   UNL     1      -8.194   4.926  -1.791  1.00  0.00    -0.014 A 
BRANCH  38  39
ATOM     39  C   UNL     1      -8.799   5.899  -0.892  1.00  0.00     0.031 A 
ATOM     40  C   UNL     1      -9.142   7.209  -1.514  1.00  0.00     0.074 A 
ATOM     41  C   UNL     1      -9.037   5.656   0.408  1.00  0.00     0.049 A 
ATOM     42  N   UNL     1      -8.647   8.380  -1.269  1.00  0.00    -0.248 NA
ATOM     43  C   UNL     1     -10.062   7.169  -2.658  1.00  0.00     0.031 C 
ATOM     44  C   UNL     1      -9.039   4.368   1.103  1.00  0.00     0.029 A 
ATOM     45  N   UNL     1      -9.441   6.533   1.367  1.00  0.00    -0.354 N 
ATOM     46  C   UNL     1      -9.319   9.263  -2.115  1.00  0.00     0.074 A 
ATOM     47  C   UNL     1     -10.061   8.444  -3.041  1.00  0.00     0.031 C 
ATOM     48  C   UNL     1      -9.663   4.515   2.293  1.00  0.00     0.029 A 
ATOM     49  C   UNL     1      -9.953   5.925   2.498  1.00  0.00     0.049 A 
ATOM     50  H   UNL     1      -9.374   7.510   1.264  1.00  0.00     0.167 HD
ATOM     51  C   UNL     1      -9.362  10.609  -1.894  1.00  0.00     0.034 A 
ATOM     52  C   UNL     1     -10.667   6.528   3.476  1.00  0.00     0.034 A 
ATOM     53  C   UNL     1      -8.346  11.031  -0.973  1.00  0.00     0.049 A 
ATOM     54  C   UNL     1     -10.426   7.989   3.406  1.00  0.00     0.074 A 
ATOM     55  C   UNL     1      -6.968  11.082  -0.989  1.00  0.00     0.029 A 
ATOM     56  N   UNL     1      -8.716  11.233   0.333  1.00  0.00    -0.354 N 
ATOM     57  N   UNL     1      -9.303   8.572   3.720  1.00  0.00    -0.248 NA
ATOM     58  C   UNL     1     -11.342   8.793   2.610  1.00  0.00     0.031 C 
ATOM     59  C   UNL     1      -6.570  10.872   0.361  1.00  0.00     0.029 A 
ATOM     60  C   UNL     1      -7.727  10.724   1.131  1.00  0.00     0.049 A 
ATOM     61  H   UNL     1      -9.545  11.666   0.640  1.00  0.00     0.167 HD
ATOM     62  C   UNL     1      -9.184   9.616   2.815  1.00  0.00     0.074 A 
ATOM     63  C   UNL     1     -10.521   9.782   2.253  1.00  0.00     0.031 C 
ATOM     64  C   UNL     1      -7.961  10.066   2.402  1.00  0.00     0.034 A 
BRANCH  51  65
ATOM     65  C   UNL     1     -10.533  11.491  -2.271  1.00  0.00     0.023 A 
ATOM     66  C   UNL     1     -11.768  10.971  -2.698  1.00  0.00     0.031 A 
ATOM     67  C   UNL     1     -10.520  12.873  -1.988  1.00  0.00     0.131 A 
ATOM     68  C   UNL     1     -12.903  11.778  -2.841  1.00  0.00     0.055 A 
ATOM     69  C   UNL     1     -11.671  13.669  -2.064  1.00  0.00     0.041 A 
ATOM     70  F   UNL     1      -9.402  13.483  -1.565  1.00  0.00    -0.206 F 
ATOM     71  C   UNL     1     -12.873  13.122  -2.493  1.00  0.00     0.022 A 
BRANCH  68  72
ATOM     72  S   UNL     1     -14.447  11.068  -3.474  1.00  0.00     0.124 S 
ATOM     73  O   UNL     1     -15.339  11.226  -2.330  1.00  0.00    -0.237 OA
ATOM     74  O   UNL     1     -14.724  11.932  -4.619  1.00  0.00    -0.237 OA
ATOM     75  O   UNL     1     -14.079   9.696  -3.812  1.00  0.00    -0.744 OA
ENDBRANCH  68  72
ENDBRANCH  51  65
BRANCH  52  76
ATOM     76  C   UNL     1     -11.878   5.965   4.110  1.00  0.00     0.023 A 
ATOM     77  C   UNL     1     -12.712   5.099   3.376  1.00  0.00     0.031 A 
ATOM     78  C   UNL     1     -12.380   6.490   5.309  1.00  0.00     0.131 A 
ATOM     79  C   UNL     1     -14.009   4.816   3.818  1.00  0.00     0.055 A 
ATOM     80  C   UNL     1     -13.673   6.197   5.757  1.00  0.00     0.041 A 
ATOM     81  F   UNL     1     -11.648   7.348   6.036  1.00  0.00    -0.206 F 
ATOM     82  C   UNL     1     -14.499   5.365   5.003  1.00  0.00     0.022 A 
BRANCH  79  83
ATOM     83  S   UNL     1     -15.110   3.777   2.819  1.00  0.00     0.124 S 
ATOM     84  O   UNL     1     -15.670   2.870   3.818  1.00  0.00    -0.237 OA
ATOM     85  O   UNL     1     -16.036   4.765   2.276  1.00  0.00    -0.237 OA
ATOM     86  O   UNL     1     -14.209   3.151   1.856  1.00  0.00    -0.744 OA
ENDBRANCH  79  83
ENDBRANCH  52  76
BRANCH  64  87
ATOM     87  C   UNL     1      -6.725   9.620   3.151  1.00  0.00     0.023 A 
ATOM     88  C   UNL     1      -5.795  10.611   3.517  1.00  0.00     0.031 A 
ATOM     89  C   UNL     1      -6.337   8.276   3.304  1.00  0.00     0.131 A 
ATOM     90  C   UNL     1      -4.522  10.252   3.977  1.00  0.00     0.055 A 
ATOM     91  C   UNL     1      -5.092   7.923   3.835  1.00  0.00     0.041 A 
ATOM     92  F   UNL     1      -7.105   7.270   2.865  1.00  0.00    -0.206 F 
ATOM     93  C   UNL     1      -4.171   8.912   4.158  1.00  0.00     0.022 A 
BRANCH  90  94
ATOM     94  S   UNL     1      -3.234  11.510   4.188  1.00  0.00     0.124 S 
ATOM     95  O   UNL     1      -2.995  11.469   5.628  1.00  0.00    -0.237 OA
ATOM     96  O   UNL     1      -2.150  10.985   3.359  1.00  0.00    -0.237 OA
ATOM     97  O   UNL     1      -3.851  12.736   3.690  1.00  0.00    -0.744 OA
ENDBRANCH  90  94
ENDBRANCH  64  87
ENDBRANCH  38  39
ENDBRANCH  30  33
ENDBRANCH  28  29
ENDBRANCH  27  28
ENDBRANCH   1  27
TORSDOF 18
