REMARK SMILES Cc1c(Cl)ccc2c1C=C(C(=O)NCCCCNC(=O)c1ccc(-c3c4nc(c(-c5cc(S(=O)(=O)[O-])ccc5F)c5ccc([nH]5)c(-c5cc(S(=O)(=O)[O-])ccc5F)c5nc(c(-c6cc(S(=O)(=O)[O-])ccc6F)c6ccc3[nH]6)C=C5)C=C4)cc1)[C@@H](C(F)(F)F)O2
REMARK SMILES IDX 16 1 15 2 14 3 13 4 11 5 12 6 10 8 1 9 2 10 3 11 8 12 4 13
REMARK SMILES IDX 5 14 7 15 9 16 6 17 89 18 84 19 85 20 86 21 87 22 88 23
REMARK SMILES IDX 17 24 18 25 19 26 20 28 21 29 22 30 83 31 23 32 82 33 24 34
REMARK SMILES IDX 25 35 26 36 76 37 27 38 81 39 75 40 77 41 28 42 80 43 74 44
REMARK SMILES IDX 73 45 29 47 61 48 41 49 60 50 42 51 45 52 59 53 78 54 43 55
REMARK SMILES IDX 44 56 58 58 79 59 46 60 30 61 31 62 39 63 32 64 38 65 40 66
REMARK SMILES IDX 37 67 33 68 34 69 35 70 36 71 62 72 63 73 71 74 64 75 70 76
REMARK SMILES IDX 72 77 69 78 65 79 66 80 67 81 68 82 47 83 48 84 56 85 49 86
REMARK SMILES IDX 55 87 57 88 54 89 50 90 51 91 52 92 53 93
REMARK H PARENT 13 7 18 27 77 46 45 57
REMARK Flexibility Score: inf
ROOT
ATOM      1  C   UNL     1       2.030   8.413   3.625  1.00  0.00     0.023 C 
ENDROOT
BRANCH   1   2
ATOM      2  C   UNL     1       1.629   7.758   2.300  1.00  0.00     0.023 C 
BRANCH   2   3
ATOM      3  C   UNL     1       2.720   6.896   1.673  1.00  0.00     0.116 C 
BRANCH   3   4
ATOM      4  N   UNL     1       2.749   5.560   2.241  1.00  0.00    -0.352 N 
ATOM      5  C   UNL     1       2.368   4.317   1.867  1.00  0.00     0.251 C 
ATOM      6  O   UNL     1       2.595   3.426   2.692  1.00  0.00    -0.270 OA
ATOM      7  H   UNL     1       3.155   5.558   3.138  1.00  0.00     0.163 HD
BRANCH   5   8
ATOM      8  C   UNL     1       1.720   3.962   0.568  1.00  0.00     0.067 C 
ATOM      9  C   UNL     1       0.820  -0.199  -0.034  1.00  0.00     0.047 C 
ATOM     10  C   UNL     1       0.421   0.850  -1.042  1.00  0.00    -0.021 A 
ATOM     11  C   UNL     1      -0.219   0.512  -2.252  1.00  0.00     0.044 A 
ATOM     12  C   UNL     1       0.683   2.218  -0.781  1.00  0.00     0.022 A 
ATOM     13  Cl  UNL     1      -0.605  -1.120  -2.678  1.00  0.00    -0.084 Cl
ATOM     14  C   UNL     1      -0.584   1.498  -3.175  1.00  0.00     0.024 A 
ATOM     15  C   UNL     1       0.321   3.188  -1.726  1.00  0.00     0.128 A 
ATOM     16  C   UNL     1       1.290   2.690   0.467  1.00  0.00     0.026 C 
ATOM     17  C   UNL     1      -0.318   2.836  -2.910  1.00  0.00     0.048 A 
ATOM     18  O   UNL     1       0.523   4.526  -1.536  1.00  0.00    -0.475 OA
ATOM     19  C   UNL     1       1.568   4.895  -0.595  1.00  0.00     0.314 C 
BRANCH  19  20
ATOM     20  C   UNL     1       2.888   5.114  -1.359  1.00  0.00     0.429 C 
ATOM     21  F   UNL     1       2.773   6.166  -2.209  1.00  0.00    -0.167 F 
ATOM     22  F   UNL     1       3.926   5.394  -0.538  1.00  0.00    -0.167 F 
ATOM     23  F   UNL     1       3.246   4.038  -2.097  1.00  0.00    -0.167 F 
ENDBRANCH  19  20
ENDBRANCH   5   8
ENDBRANCH   3   4
ENDBRANCH   2   3
ENDBRANCH   1   2
BRANCH   1  24
ATOM     24  C   UNL     1       3.300   9.262   3.581  1.00  0.00     0.116 C 
BRANCH  24  25
ATOM     25  N   UNL     1       3.299  10.254   2.513  1.00  0.00    -0.352 N 
ATOM     26  C   UNL     1       3.877  11.500   2.528  1.00  0.00     0.251 C 
ATOM     27  H   UNL     1       2.830  10.002   1.685  1.00  0.00     0.163 HD
ATOM     28  O   UNL     1       3.750  12.268   1.581  1.00  0.00    -0.269 OA
BRANCH  26  29
ATOM     29  C   UNL     1       4.624  11.902   3.731  1.00  0.00     0.039 A 
ATOM     30  C   UNL     1       4.153  12.976   4.488  1.00  0.00     0.014 A 
ATOM     31  C   UNL     1       5.720  11.143   4.154  1.00  0.00     0.014 A 
ATOM     32  C   UNL     1       4.750  13.255   5.716  1.00  0.00     0.010 A 
ATOM     33  C   UNL     1       6.286  11.399   5.398  1.00  0.00     0.010 A 
ATOM     34  C   UNL     1       5.799  12.450   6.190  1.00  0.00    -0.014 A 
BRANCH  34  35
ATOM     35  C   UNL     1       6.394  12.691   7.524  1.00  0.00     0.031 A 
ATOM     36  C   UNL     1       7.781  13.250   7.631  1.00  0.00     0.074 A 
ATOM     37  C   UNL     1       5.705  12.348   8.629  1.00  0.00     0.049 A 
ATOM     38  N   UNL     1       8.477  13.518   8.704  1.00  0.00    -0.248 NA
ATOM     39  C   UNL     1       8.485  13.526   6.368  1.00  0.00     0.031 C 
ATOM     40  C   UNL     1       4.372  11.743   8.635  1.00  0.00     0.029 A 
ATOM     41  N   UNL     1       6.033  12.447   9.957  1.00  0.00    -0.354 N 
ATOM     42  C   UNL     1       9.700  13.992   8.248  1.00  0.00     0.074 A 
ATOM     43  C   UNL     1       9.671  13.926   6.804  1.00  0.00     0.031 C 
ATOM     44  C   UNL     1       3.991  11.536   9.906  1.00  0.00     0.029 A 
ATOM     45  C   UNL     1       5.057  11.976  10.803  1.00  0.00     0.049 A 
ATOM     46  H   UNL     1       6.886  12.821  10.274  1.00  0.00     0.167 HD
ATOM     47  C   UNL     1      10.742  14.463   8.971  1.00  0.00     0.034 A 
ATOM     48  C   UNL     1       5.023  11.913  12.150  1.00  0.00     0.034 A 
ATOM     49  C   UNL     1      10.752  14.537  10.407  1.00  0.00     0.049 A 
ATOM     50  C   UNL     1       6.185  12.469  12.934  1.00  0.00     0.074 A 
ATOM     51  C   UNL     1      11.741  15.042  11.231  1.00  0.00     0.029 A 
ATOM     52  N   UNL     1       9.726  14.100  11.231  1.00  0.00    -0.354 N 
ATOM     53  N   UNL     1       7.295  13.009  12.488  1.00  0.00    -0.248 NA
ATOM     54  C   UNL     1       6.087  12.427  14.400  1.00  0.00     0.031 C 
ATOM     55  C   UNL     1      11.324  14.887  12.555  1.00  0.00     0.029 A 
ATOM     56  C   UNL     1      10.060  14.318  12.556  1.00  0.00     0.049 A 
ATOM     57  H   UNL     1       8.884  13.695  10.919  1.00  0.00     0.167 HD
ATOM     58  C   UNL     1       8.012  13.397  13.614  1.00  0.00     0.074 A 
ATOM     59  C   UNL     1       7.205  13.043  14.764  1.00  0.00     0.031 C 
ATOM     60  C   UNL     1       9.230  13.989  13.689  1.00  0.00     0.034 A 
BRANCH  47  61
ATOM     61  C   UNL     1      11.946  14.969   8.226  1.00  0.00     0.023 A 
ATOM     62  C   UNL     1      13.172  14.287   8.309  1.00  0.00     0.031 A 
ATOM     63  C   UNL     1      11.893  16.172   7.500  1.00  0.00     0.131 A 
ATOM     64  C   UNL     1      14.304  14.824   7.685  1.00  0.00     0.055 A 
ATOM     65  C   UNL     1      13.018  16.688   6.857  1.00  0.00     0.041 A 
ATOM     66  F   UNL     1      10.740  16.851   7.389  1.00  0.00    -0.206 F 
ATOM     67  C   UNL     1      14.232  16.016   6.954  1.00  0.00     0.022 A 
BRANCH  64  68
ATOM     68  S   UNL     1      15.917  14.005   7.805  1.00  0.00     0.124 S 
ATOM     69  O   UNL     1      16.312  13.906   6.401  1.00  0.00    -0.237 OA
ATOM     70  O   UNL     1      16.683  14.956   8.604  1.00  0.00    -0.237 OA
ATOM     71  O   UNL     1      15.615  12.732   8.451  1.00  0.00    -0.744 OA
ENDBRANCH  64  68
ENDBRANCH  47  61
BRANCH  48  72
ATOM     72  C   UNL     1       3.808  11.379  12.826  1.00  0.00     0.023 A 
ATOM     73  C   UNL     1       3.445  10.026  12.711  1.00  0.00     0.031 A 
ATOM     74  C   UNL     1       2.946  12.241  13.525  1.00  0.00     0.131 A 
ATOM     75  C   UNL     1       2.230   9.584  13.253  1.00  0.00     0.055 A 
ATOM     76  C   UNL     1       1.763  11.786  14.108  1.00  0.00     0.041 A 
ATOM     77  F   UNL     1       3.247  13.544  13.645  1.00  0.00    -0.206 F 
ATOM     78  C   UNL     1       1.395  10.452  13.964  1.00  0.00     0.022 A 
BRANCH  75  79
ATOM     79  S   UNL     1       1.650   7.887  12.981  1.00  0.00     0.124 S 
ATOM     80  O   UNL     1       1.430   7.416  14.345  1.00  0.00    -0.237 OA
ATOM     81  O   UNL     1       0.443   8.111  12.189  1.00  0.00    -0.237 OA
ATOM     82  O   UNL     1       2.754   7.256  12.267  1.00  0.00    -0.744 OA
ENDBRANCH  75  79
ENDBRANCH  48  72
BRANCH  60  83
ATOM     83  C   UNL     1       9.783  14.325  15.048  1.00  0.00     0.023 A 
ATOM     84  C   UNL     1       9.955  15.672  15.421  1.00  0.00     0.031 A 
ATOM     85  C   UNL     1      10.281  13.325  15.899  1.00  0.00     0.131 A 
ATOM     86  C   UNL     1      10.641  15.982  16.601  1.00  0.00     0.055 A 
ATOM     87  C   UNL     1      10.933  13.639  17.091  1.00  0.00     0.041 A 
ATOM     88  F   UNL     1      10.147  12.028  15.576  1.00  0.00    -0.206 F 
ATOM     89  C   UNL     1      11.127  14.973  17.440  1.00  0.00     0.022 A 
BRANCH  86  90
ATOM     90  S   UNL     1      10.987  17.703  17.056  1.00  0.00     0.124 S 
ATOM     91  O   UNL     1      10.376  17.795  18.380  1.00  0.00    -0.237 OA
ATOM     92  O   UNL     1      12.447  17.736  17.040  1.00  0.00    -0.237 OA
ATOM     93  O   UNL     1      10.329  18.483  16.014  1.00  0.00    -0.744 OA
ENDBRANCH  86  90
ENDBRANCH  60  83
ENDBRANCH  34  35
ENDBRANCH  26  29
ENDBRANCH  24  25
ENDBRANCH   1  24
TORSDOF 15
