REMARK SMILES CC[C@](C)(C(=O)NCCCCNC(=O)c1ccc(-c2c3nc(c(-c4cc(S(=O)(=O)[O-])ccc4F)c4ccc([nH]4)c(-c4cc(S(=O)(=O)[O-])ccc4F)c4nc(c(-c5cc(S(=O)(=O)[O-])ccc5F)c5ccc2[nH]5)C=C4)C=C3)cc1)n1nnnc1-c1ccc(C)cc1C
REMARK SMILES IDX 10 1 9 2 8 3 7 4 5 5 6 6 3 8 4 9 2 10 1 11 78 12 79 13 82 14
REMARK SMILES IDX 80 15 81 16 83 17 84 18 89 19 85 20 88 21 90 22 86 23 87 24
REMARK SMILES IDX 11 25 12 26 13 27 14 29 15 30 16 31 77 32 17 33 76 34 18 35
REMARK SMILES IDX 19 36 20 37 70 38 21 39 75 40 69 41 71 42 22 43 74 44 68 45
REMARK SMILES IDX 67 46 23 48 55 49 35 50 54 51 36 52 39 53 53 54 72 55 37 56
REMARK SMILES IDX 38 57 52 59 73 60 40 61 24 62 25 63 33 64 26 65 32 66 34 67
REMARK SMILES IDX 31 68 27 69 28 70 29 71 30 72 56 73 57 74 65 75 58 76 64 77
REMARK SMILES IDX 66 78 63 79 59 80 60 81 61 82 62 83 41 84 42 85 50 86 43 87
REMARK SMILES IDX 49 88 51 89 48 90 44 91 45 92 46 93 47 94
REMARK H PARENT 7 7 12 28 71 47 39 58
REMARK Flexibility Score: inf
ROOT
ATOM      1  C   UNL     1      -3.601   3.978   1.408  1.00  0.00     0.023 C 
ENDROOT
BRANCH   1   2
ATOM      2  C   UNL     1      -2.733   2.795   0.996  1.00  0.00     0.023 C 
BRANCH   2   3
ATOM      3  C   UNL     1      -1.829   3.052  -0.206  1.00  0.00     0.116 C 
BRANCH   3   4
ATOM      4  N   UNL     1      -0.677   3.878   0.115  1.00  0.00    -0.354 N 
ATOM      5  C   UNL     1       0.674   3.612   0.021  1.00  0.00     0.247 C 
ATOM      6  O   UNL     1       1.409   4.465   0.519  1.00  0.00    -0.272 OA
ATOM      7  H   UNL     1      -0.897   4.775   0.456  1.00  0.00     0.163 HD
BRANCH   5   8
ATOM      8  C   UNL     1       1.177   2.264  -0.607  1.00  0.00     0.142 C 
ATOM      9  C   UNL     1       0.715   1.192   0.415  1.00  0.00     0.048 C 
BRANCH   8  10
ATOM     10  C   UNL     1       0.620   2.188  -2.076  1.00  0.00     0.037 C 
ATOM     11  C   UNL     1      -0.135   0.938  -2.515  1.00  0.00     0.007 C 
ENDBRANCH   8  10
BRANCH   8  12
ATOM     12  N   UNL     1       2.665   2.212  -0.728  1.00  0.00    -0.210 N 
ATOM     13  N   UNL     1       3.380   3.335  -0.967  1.00  0.00    -0.044 NA
ATOM     14  C   UNL     1       3.514   1.122  -0.915  1.00  0.00     0.183 A 
ATOM     15  N   UNL     1       4.633   2.949  -1.130  1.00  0.00    -0.023 NA
ATOM     16  N   UNL     1       4.732   1.589  -1.113  1.00  0.00    -0.108 NA
BRANCH  14  17
ATOM     17  C   UNL     1       3.163  -0.295  -0.907  1.00  0.00     0.024 A 
ATOM     18  C   UNL     1       3.222  -0.986   0.313  1.00  0.00     0.012 A 
ATOM     19  C   UNL     1       2.795  -0.994  -2.072  1.00  0.00    -0.040 A 
ATOM     20  C   UNL     1       2.798  -2.312   0.410  1.00  0.00     0.004 A 
ATOM     21  C   UNL     1       2.359  -2.329  -1.957  1.00  0.00     0.007 A 
ATOM     22  C   UNL     1       2.880  -0.406  -3.456  1.00  0.00     0.045 C 
ATOM     23  C   UNL     1       2.317  -2.978  -0.717  1.00  0.00    -0.051 A 
ATOM     24  C   UNL     1       1.829  -4.392  -0.609  1.00  0.00     0.044 C 
ENDBRANCH  14  17
ENDBRANCH   8  12
ENDBRANCH   5   8
ENDBRANCH   3   4
ENDBRANCH   2   3
ENDBRANCH   1   2
BRANCH   1  25
ATOM     25  C   UNL     1      -4.506   4.532   0.312  1.00  0.00     0.116 C 
BRANCH  25  26
ATOM     26  N   UNL     1      -5.412   3.536  -0.243  1.00  0.00    -0.352 N 
ATOM     27  C   UNL     1      -6.763   3.635  -0.479  1.00  0.00     0.251 C 
ATOM     28  H   UNL     1      -5.000   2.675  -0.483  1.00  0.00     0.163 HD
ATOM     29  O   UNL     1      -7.393   2.643  -0.837  1.00  0.00    -0.269 OA
BRANCH  27  30
ATOM     30  C   UNL     1      -7.452   4.924  -0.256  1.00  0.00     0.039 A 
ATOM     31  C   UNL     1      -8.633   4.939   0.489  1.00  0.00     0.014 A 
ATOM     32  C   UNL     1      -6.909   6.118  -0.738  1.00  0.00     0.014 A 
ATOM     33  C   UNL     1      -9.222   6.160   0.821  1.00  0.00     0.010 A 
ATOM     34  C   UNL     1      -7.453   7.336  -0.339  1.00  0.00     0.010 A 
ATOM     35  C   UNL     1      -8.611   7.371   0.452  1.00  0.00    -0.014 A 
BRANCH  35  36
ATOM     36  C   UNL     1      -9.162   8.676   0.905  1.00  0.00     0.031 A 
ATOM     37  C   UNL     1      -9.670   9.675  -0.099  1.00  0.00     0.074 A 
ATOM     38  C   UNL     1      -9.153   8.980   2.219  1.00  0.00     0.049 A 
ATOM     39  N   UNL     1     -10.141  10.880   0.099  1.00  0.00    -0.248 NA
ATOM     40  C   UNL     1      -9.615   9.278  -1.514  1.00  0.00     0.031 C 
ATOM     41  C   UNL     1      -8.639   8.114   3.284  1.00  0.00     0.029 A 
ATOM     42  N   UNL     1      -9.584  10.099   2.887  1.00  0.00    -0.354 N 
ATOM     43  C   UNL     1     -10.437  11.385  -1.162  1.00  0.00     0.074 A 
ATOM     44  C   UNL     1     -10.028  10.381  -2.121  1.00  0.00     0.031 C 
ATOM     45  C   UNL     1      -8.812   8.721   4.469  1.00  0.00     0.029 A 
ATOM     46  C   UNL     1      -9.406  10.035   4.251  1.00  0.00     0.049 A 
ATOM     47  H   UNL     1      -9.984  10.876   2.433  1.00  0.00     0.167 HD
ATOM     48  C   UNL     1     -11.019  12.565  -1.489  1.00  0.00     0.034 A 
ATOM     49  C   UNL     1      -9.682  10.936   5.215  1.00  0.00     0.034 A 
ATOM     50  C   UNL     1     -11.429  13.554  -0.521  1.00  0.00     0.049 A 
ATOM     51  C   UNL     1     -10.311  12.250   4.821  1.00  0.00     0.074 A 
ATOM     52  C   UNL     1     -12.069  14.762  -0.742  1.00  0.00     0.029 A 
ATOM     53  N   UNL     1     -11.236  13.454   0.851  1.00  0.00    -0.354 N 
ATOM     54  N   UNL     1     -10.636  12.686   3.626  1.00  0.00    -0.248 NA
ATOM     55  C   UNL     1     -10.623  13.185   5.909  1.00  0.00     0.031 C 
ATOM     56  C   UNL     1     -12.203  15.419   0.486  1.00  0.00     0.029 A 
ATOM     57  C   UNL     1     -11.718  14.590   1.484  1.00  0.00     0.049 A 
ATOM     58  H   UNL     1     -10.817  12.689   1.307  1.00  0.00     0.167 HD
ATOM     59  C   UNL     1     -11.219  13.935   3.825  1.00  0.00     0.074 A 
ATOM     60  C   UNL     1     -11.224  14.167   5.254  1.00  0.00     0.031 C 
ATOM     61  C   UNL     1     -11.705  14.813   2.910  1.00  0.00     0.034 A 
BRANCH  48  62
ATOM     62  C   UNL     1     -11.234  12.854  -2.956  1.00  0.00     0.023 A 
ATOM     63  C   UNL     1     -12.091  12.065  -3.743  1.00  0.00     0.031 A 
ATOM     64  C   UNL     1     -10.569  13.925  -3.578  1.00  0.00     0.131 A 
ATOM     65  C   UNL     1     -12.213  12.320  -5.117  1.00  0.00     0.055 A 
ATOM     66  C   UNL     1     -10.755  14.222  -4.930  1.00  0.00     0.041 A 
ATOM     67  F   UNL     1      -9.722  14.700  -2.883  1.00  0.00    -0.206 F 
ATOM     68  C   UNL     1     -11.572  13.409  -5.711  1.00  0.00     0.022 A 
BRANCH  65  69
ATOM     69  S   UNL     1     -13.125  11.133  -6.141  1.00  0.00     0.124 S 
ATOM     70  O   UNL     1     -12.351   9.910  -5.934  1.00  0.00    -0.237 OA
ATOM     71  O   UNL     1     -14.455  11.155  -5.544  1.00  0.00    -0.237 OA
ATOM     72  O   UNL     1     -13.034  11.698  -7.486  1.00  0.00    -0.744 OA
ENDBRANCH  65  69
ENDBRANCH  48  62
BRANCH  49  73
ATOM     73  C   UNL     1      -9.361  10.648   6.644  1.00  0.00     0.023 A 
ATOM     74  C   UNL     1     -10.375  10.580   7.613  1.00  0.00     0.031 A 
ATOM     75  C   UNL     1      -8.030  10.506   7.074  1.00  0.00     0.131 A 
ATOM     76  C   UNL     1     -10.041  10.440   8.969  1.00  0.00     0.055 A 
ATOM     77  C   UNL     1      -7.706  10.305   8.418  1.00  0.00     0.041 A 
ATOM     78  F   UNL     1      -7.021  10.558   6.191  1.00  0.00    -0.206 F 
ATOM     79  C   UNL     1      -8.714  10.289   9.377  1.00  0.00     0.022 A 
BRANCH  76  80
ATOM     80  S   UNL     1     -11.361  10.572  10.206  1.00  0.00     0.124 S 
ATOM     81  O   UNL     1     -11.937  11.874   9.889  1.00  0.00    -0.237 OA
ATOM     82  O   UNL     1     -12.186   9.411   9.891  1.00  0.00    -0.237 OA
ATOM     83  O   UNL     1     -10.644  10.498  11.477  1.00  0.00    -0.744 OA
ENDBRANCH  76  80
ENDBRANCH  49  73
BRANCH  61  84
ATOM     84  C   UNL     1     -12.317  16.085   3.446  1.00  0.00     0.023 A 
ATOM     85  C   UNL     1     -11.547  17.047   4.124  1.00  0.00     0.031 A 
ATOM     86  C   UNL     1     -13.696  16.323   3.305  1.00  0.00     0.131 A 
ATOM     87  C   UNL     1     -12.171  18.165   4.697  1.00  0.00     0.055 A 
ATOM     88  C   UNL     1     -14.300  17.471   3.819  1.00  0.00     0.041 A 
ATOM     89  F   UNL     1     -14.481  15.438   2.669  1.00  0.00    -0.206 F 
ATOM     90  C   UNL     1     -13.540  18.391   4.535  1.00  0.00     0.022 A 
BRANCH  87  91
ATOM     91  S   UNL     1     -11.187  19.261   5.756  1.00  0.00     0.124 S 
ATOM     92  O   UNL     1     -10.689  18.336   6.770  1.00  0.00    -0.237 OA
ATOM     93  O   UNL     1     -10.192  19.782   4.826  1.00  0.00    -0.237 OA
ATOM     94  O   UNL     1     -12.161  20.240   6.235  1.00  0.00    -0.744 OA
ENDBRANCH  87  91
ENDBRANCH  61  84
ENDBRANCH  35  36
ENDBRANCH  27  30
ENDBRANCH  25  26
ENDBRANCH   1  25
TORSDOF 17
