REMARK SMILES O=C(NCCCCNC(=O)c1ccccc1/C=N/n1cnnc1SCc1ccccc1)c1ccc(-c2c3nc(c(-c4cc(S(=O)(=O)[O-])ccc4F)c4ccc([nH]4)c(-c4cc(S(=O)(=O)[O-])ccc4F)c4nc(c(-c5cc(S(=O)(=O)[O-])ccc5F)c5ccc2[nH]5)C=C4)C=C3)cc1
REMARK SMILES IDX 6 1 5 2 4 3 3 4 1 5 2 6 32 8 33 9 94 10 34 11 93 12 35 13
REMARK SMILES IDX 36 14 37 15 87 16 38 17 92 18 86 19 88 20 39 21 91 22 85 23
REMARK SMILES IDX 84 24 40 26 72 27 52 28 71 29 53 30 56 31 70 32 89 33 54 34
REMARK SMILES IDX 55 35 69 37 90 38 57 39 41 40 42 41 50 42 43 43 49 44 51 45
REMARK SMILES IDX 48 46 44 47 45 48 46 49 47 50 73 51 74 52 82 53 75 54 81 55
REMARK SMILES IDX 83 56 80 57 76 58 77 59 78 60 79 61 58 62 59 63 67 64 60 65
REMARK SMILES IDX 66 66 68 67 65 68 61 69 62 70 63 71 64 72 7 73 8 74 9 75
REMARK SMILES IDX 10 77 11 78 12 79 16 80 13 81 15 82 14 83 17 84 18 85 19 86
REMARK SMILES IDX 20 87 23 88 21 89 22 90 24 91 25 92 26 93 27 94 31 95 28 96
REMARK SMILES IDX 30 97 29 98
REMARK H PARENT 3 7 88 25 56 36 8 76
REMARK Flexibility Score: inf
ROOT
ATOM      1  C   UNL     1       4.461  -1.872   3.040  1.00  0.00     0.023 C 
ENDROOT
BRANCH   1   2
ATOM      2  C   UNL     1       4.899  -0.700   2.160  1.00  0.00     0.023 C 
BRANCH   2   3
ATOM      3  C   UNL     1       4.608  -0.824   0.663  1.00  0.00     0.116 C 
BRANCH   3   4
ATOM      4  N   UNL     1       3.217  -0.964   0.289  1.00  0.00    -0.352 N 
ATOM      5  O   UNL     1       1.182  -0.496  -0.445  1.00  0.00    -0.269 OA
ATOM      6  C   UNL     1       2.184  -0.077   0.141  1.00  0.00     0.251 C 
ATOM      7  H   UNL     1       2.958  -1.896   0.101  1.00  0.00     0.163 HD
BRANCH   6   8
ATOM      8  C   UNL     1       2.155   1.298   0.706  1.00  0.00     0.039 A 
ATOM      9  C   UNL     1       3.266   2.054   1.081  1.00  0.00     0.014 A 
ATOM     10  C   UNL     1       0.873   1.851   0.888  1.00  0.00     0.014 A 
ATOM     11  C   UNL     1       3.097   3.275   1.734  1.00  0.00     0.010 A 
ATOM     12  C   UNL     1       0.699   3.075   1.522  1.00  0.00     0.010 A 
ATOM     13  C   UNL     1       1.812   3.772   1.982  1.00  0.00    -0.014 A 
BRANCH  13  14
ATOM     14  C   UNL     1       1.668   5.139   2.487  1.00  0.00     0.031 A 
ATOM     15  C   UNL     1       2.150   6.164   1.518  1.00  0.00     0.074 A 
ATOM     16  C   UNL     1       1.022   5.485   3.621  1.00  0.00     0.049 A 
ATOM     17  N   UNL     1       3.162   6.957   1.643  1.00  0.00    -0.248 NA
ATOM     18  C   UNL     1       1.539   6.192   0.177  1.00  0.00     0.031 C 
ATOM     19  C   UNL     1       0.285   4.608   4.532  1.00  0.00     0.029 A 
ATOM     20  N   UNL     1       0.801   6.725   4.157  1.00  0.00    -0.354 N 
ATOM     21  C   UNL     1       3.157   7.761   0.505  1.00  0.00     0.074 A 
ATOM     22  C   UNL     1       2.292   7.106  -0.436  1.00  0.00     0.031 C 
ATOM     23  C   UNL     1      -0.477   5.358   5.363  1.00  0.00     0.029 A 
ATOM     24  C   UNL     1      -0.199   6.768   5.132  1.00  0.00     0.049 A 
ATOM     25  H   UNL     1       1.306   7.523   3.877  1.00  0.00     0.167 HD
ATOM     26  C   UNL     1       3.654   9.029   0.541  1.00  0.00     0.034 A 
ATOM     27  C   UNL     1      -0.791   7.872   5.678  1.00  0.00     0.034 A 
ATOM     28  C   UNL     1       4.520   9.211   1.686  1.00  0.00     0.049 A 
ATOM     29  C   UNL     1       0.144   9.005   5.476  1.00  0.00     0.074 A 
ATOM     30  C   UNL     1       5.662   8.582   2.147  1.00  0.00     0.029 A 
ATOM     31  N   UNL     1       4.037   9.924   2.761  1.00  0.00    -0.354 N 
ATOM     32  N   UNL     1       1.308   9.083   6.060  1.00  0.00    -0.248 NA
ATOM     33  C   UNL     1       0.005   9.795   4.262  1.00  0.00     0.031 C 
ATOM     34  C   UNL     1       5.501   8.527   3.564  1.00  0.00     0.029 A 
ATOM     35  C   UNL     1       4.327   9.205   3.893  1.00  0.00     0.049 A 
ATOM     36  H   UNL     1       3.569  10.789   2.723  1.00  0.00     0.167 HD
ATOM     37  C   UNL     1       2.168   9.536   5.073  1.00  0.00     0.074 A 
ATOM     38  C   UNL     1       1.294  10.047   4.016  1.00  0.00     0.031 C 
ATOM     39  C   UNL     1       3.491   9.197   5.078  1.00  0.00     0.034 A 
BRANCH  26  40
ATOM     40  C   UNL     1       3.042  10.209  -0.194  1.00  0.00     0.023 A 
ATOM     41  C   UNL     1       3.626  11.470   0.037  1.00  0.00     0.031 A 
ATOM     42  C   UNL     1       1.775  10.231  -0.821  1.00  0.00     0.131 A 
ATOM     43  C   UNL     1       2.907  12.654  -0.198  1.00  0.00     0.055 A 
ATOM     44  C   UNL     1       1.094  11.415  -1.120  1.00  0.00     0.041 A 
ATOM     45  F   UNL     1       1.078   9.125  -1.103  1.00  0.00    -0.206 F 
ATOM     46  C   UNL     1       1.640  12.636  -0.770  1.00  0.00     0.022 A 
BRANCH  43  47
ATOM     47  S   UNL     1       3.581  14.201   0.459  1.00  0.00     0.124 S 
ATOM     48  O   UNL     1       3.745  13.866   1.869  1.00  0.00    -0.237 OA
ATOM     49  O   UNL     1       4.808  14.345  -0.317  1.00  0.00    -0.237 OA
ATOM     50  O   UNL     1       2.536  15.177   0.162  1.00  0.00    -0.744 OA
ENDBRANCH  43  47
ENDBRANCH  26  40
BRANCH  27  51
ATOM     51  C   UNL     1      -2.226   8.065   6.064  1.00  0.00     0.023 A 
ATOM     52  C   UNL     1      -2.684   9.122   6.892  1.00  0.00     0.031 A 
ATOM     53  C   UNL     1      -3.223   7.330   5.385  1.00  0.00     0.131 A 
ATOM     54  C   UNL     1      -4.073   9.395   7.008  1.00  0.00     0.055 A 
ATOM     55  C   UNL     1      -4.588   7.606   5.501  1.00  0.00     0.041 A 
ATOM     56  F   UNL     1      -2.899   6.367   4.508  1.00  0.00    -0.206 F 
ATOM     57  C   UNL     1      -5.019   8.646   6.306  1.00  0.00     0.022 A 
BRANCH  54  58
ATOM     58  S   UNL     1      -4.686  10.793   8.016  1.00  0.00     0.124 S 
ATOM     59  O   UNL     1      -4.380  10.358   9.374  1.00  0.00    -0.237 OA
ATOM     60  O   UNL     1      -3.913  11.918   7.503  1.00  0.00    -0.237 OA
ATOM     61  O   UNL     1      -6.115  10.843   7.699  1.00  0.00    -0.744 OA
ENDBRANCH  54  58
ENDBRANCH  27  51
BRANCH  39  62
ATOM     62  C   UNL     1       4.084   8.593   6.335  1.00  0.00     0.023 A 
ATOM     63  C   UNL     1       3.621   7.423   6.980  1.00  0.00     0.031 A 
ATOM     64  C   UNL     1       5.257   9.191   6.832  1.00  0.00     0.131 A 
ATOM     65  C   UNL     1       4.324   6.906   8.088  1.00  0.00     0.055 A 
ATOM     66  C   UNL     1       5.961   8.663   7.911  1.00  0.00     0.041 A 
ATOM     67  F   UNL     1       5.761  10.291   6.248  1.00  0.00    -0.206 F 
ATOM     68  C   UNL     1       5.493   7.521   8.548  1.00  0.00     0.022 A 
BRANCH  65  69
ATOM     69  S   UNL     1       3.724   5.429   8.972  1.00  0.00     0.124 S 
ATOM     70  O   UNL     1       2.304   5.696   9.164  1.00  0.00    -0.237 OA
ATOM     71  O   UNL     1       4.053   4.349   8.044  1.00  0.00    -0.237 OA
ATOM     72  O   UNL     1       4.515   5.426  10.205  1.00  0.00    -0.744 OA
ENDBRANCH  65  69
ENDBRANCH  39  62
ENDBRANCH  13  14
ENDBRANCH   6   8
ENDBRANCH   3   4
ENDBRANCH   2   3
ENDBRANCH   1   2
BRANCH   1  73
ATOM     73  C   UNL     1       4.925  -3.244   2.582  1.00  0.00     0.116 C 
BRANCH  73  74
ATOM     74  N   UNL     1       6.371  -3.387   2.488  1.00  0.00    -0.352 N 
ATOM     75  C   UNL     1       7.165  -4.475   2.769  1.00  0.00     0.251 C 
ATOM     76  H   UNL     1       6.853  -2.586   2.177  1.00  0.00     0.163 HD
ATOM     77  O   UNL     1       8.376  -4.418   2.631  1.00  0.00    -0.269 OA
BRANCH  75  78
ATOM     78  C   UNL     1       6.564  -5.734   3.252  1.00  0.00     0.048 A 
ATOM     79  C   UNL     1       7.012  -6.237   4.483  1.00  0.00     0.014 A 
ATOM     80  C   UNL     1       5.595  -6.432   2.534  1.00  0.00     0.007 A 
ATOM     81  C   UNL     1       6.450  -7.401   5.013  1.00  0.00     0.001 A 
ATOM     82  C   UNL     1       5.043  -7.595   3.068  1.00  0.00     0.010 A 
ATOM     83  C   UNL     1       5.457  -8.076   4.309  1.00  0.00     0.001 A 
BRANCH  80  84
ATOM     84  C   UNL     1       5.112  -5.956   1.224  1.00  0.00     0.143 C 
ATOM     85  N   UNL     1       3.842  -5.918   0.986  1.00  0.00    -0.172 NA
BRANCH  85  86
ATOM     86  N   UNL     1       3.414  -5.391  -0.207  1.00  0.00    -0.195 N 
ATOM     87  C   UNL     1       4.147  -4.944  -1.285  1.00  0.00     0.251 A 
ATOM     88  C   UNL     1       2.100  -5.175  -0.601  1.00  0.00     0.212 A 
ATOM     89  N   UNL     1       3.366  -4.484  -2.233  1.00  0.00    -0.136 NA
ATOM     90  N   UNL     1       2.077  -4.629  -1.800  1.00  0.00    -0.122 NA
BRANCH  88  91
ATOM     91  S   UNL     1       0.637  -5.541   0.257  1.00  0.00    -0.080 SA
BRANCH  91  92
ATOM     92  C   UNL     1       1.016  -6.749   1.531  1.00  0.00     0.113 C 
BRANCH  92  93
ATOM     93  C   UNL     1       1.619  -8.088   1.156  1.00  0.00    -0.038 A 
ATOM     94  C   UNL     1       1.893  -8.988   2.204  1.00  0.00     0.004 A 
ATOM     95  C   UNL     1       2.021  -8.448  -0.137  1.00  0.00     0.004 A 
ATOM     96  C   UNL     1       2.651 -10.141   1.984  1.00  0.00     0.000 A 
ATOM     97  C   UNL     1       2.802  -9.585  -0.353  1.00  0.00     0.000 A 
ATOM     98  C   UNL     1       3.139 -10.417   0.710  1.00  0.00     0.000 A 
ENDBRANCH  92  93
ENDBRANCH  91  92
ENDBRANCH  88  91
ENDBRANCH  85  86
ENDBRANCH  80  84
ENDBRANCH  75  78
ENDBRANCH  73  74
ENDBRANCH   1  73
TORSDOF 19
