REMARK SMILES Nc1oc2ccc(F)cc2c(=O)c1[C@@H]1[NH2+][C@H](C(=O)NCCCCNC(=O)c2ccc(-c3c4nc(c(-c5cc(S(=O)(=O)[O-])ccc5F)c5ccc([nH]5)c(-c5cc(S(=O)(=O)[O-])ccc5F)c5nc(c(-c6cc(S(=O)(=O)[O-])ccc6F)c6ccc3[nH]6)C=C5)C=C4)cc2)CS1
REMARK SMILES IDX 22 1 21 2 20 3 19 4 17 5 18 6 16 8 14 9 15 10 91 11 90 14
REMARK SMILES IDX 13 15 2 16 3 17 4 18 11 19 5 20 10 21 12 22 6 23 9 24 7 25
REMARK SMILES IDX 8 26 1 27 23 30 24 31 25 32 26 34 27 35 28 36 89 37 29 38
REMARK SMILES IDX 88 39 30 40 31 41 32 42 82 43 33 44 87 45 81 46 83 47 34 48
REMARK SMILES IDX 86 49 80 50 79 51 35 53 67 54 47 55 66 56 48 57 51 58 65 59
REMARK SMILES IDX 84 60 49 61 50 62 64 64 85 65 52 66 36 67 37 68 45 69 38 70
REMARK SMILES IDX 44 71 46 72 43 73 39 74 40 75 41 76 42 77 68 78 69 79 77 80
REMARK SMILES IDX 70 81 76 82 78 83 75 84 71 85 72 86 73 87 74 88 53 89 54 90
REMARK SMILES IDX 62 91 55 92 61 93 63 94 60 95 56 96 57 97 58 98 59 99
REMARK H PARENT 19 7 15 12 15 13 1 28 1 29 24 33 83 52 51 63
REMARK Flexibility Score: inf
ROOT
ATOM      1  C   UNL     1      -2.190   1.728  -0.463  1.00  0.00     0.023 C 
ENDROOT
BRANCH   1   2
ATOM      2  C   UNL     1      -0.961   1.657   0.440  1.00  0.00     0.023 C 
BRANCH   2   3
ATOM      3  C   UNL     1       0.331   1.313  -0.301  1.00  0.00     0.116 C 
BRANCH   3   4
ATOM      4  N   UNL     1       1.137   2.479  -0.602  1.00  0.00    -0.351 N 
ATOM      5  C   UNL     1       2.308   2.895  -0.032  1.00  0.00     0.279 C 
ATOM      6  O   UNL     1       2.877   3.865  -0.542  1.00  0.00    -0.268 OA
ATOM      7  H   UNL     1       0.791   3.055  -1.322  1.00  0.00     0.163 HD
BRANCH   5   8
ATOM      8  C   UNL     1       2.979   2.140   1.134  1.00  0.00     0.283 C 
ATOM      9  C   UNL     1       2.448   0.423   2.777  1.00  0.00     0.283 C 
ATOM     10  N   UNL     1       2.001   1.666   2.133  1.00  0.00    -0.320 N 
ATOM     11  S   UNL     1       3.982  -0.133   1.977  1.00  0.00    -0.087 SA
ATOM     12  H   UNL     1       1.882   2.385   2.847  1.00  0.00     0.348 HD
ATOM     13  H   UNL     1       1.120   1.479   1.655  1.00  0.00     0.348 HD
ATOM     14  C   UNL     1       3.801   0.989   0.578  1.00  0.00     0.151 C 
BRANCH   9  15
ATOM     15  C   UNL     1       1.315  -0.588   2.771  1.00  0.00     0.128 A 
ATOM     16  C   UNL     1       1.007  -1.539   1.856  1.00  0.00     0.205 A 
ATOM     17  O   UNL     1      -0.134  -2.321   1.907  1.00  0.00    -0.440 OA
ATOM     18  C   UNL     1      -1.010  -2.181   2.940  1.00  0.00     0.140 A 
ATOM     19  C   UNL     1       0.398  -0.445   3.943  1.00  0.00     0.205 A 
ATOM     20  C   UNL     1      -2.150  -2.986   2.920  1.00  0.00     0.051 A 
ATOM     21  C   UNL     1      -0.798  -1.293   3.982  1.00  0.00     0.068 A 
ATOM     22  O   UNL     1       0.618   0.349   4.853  1.00  0.00    -0.288 OA
ATOM     23  C   UNL     1      -3.070  -2.910   3.964  1.00  0.00     0.043 A 
ATOM     24  C   UNL     1      -1.712  -1.215   5.037  1.00  0.00     0.055 A 
ATOM     25  C   UNL     1      -2.837  -2.031   5.017  1.00  0.00     0.124 A 
ATOM     26  F   UNL     1      -3.711  -1.973   6.030  1.00  0.00    -0.207 F 
BRANCH  16  27
ATOM     27  N   UNL     1       1.734  -1.827   0.740  1.00  0.00    -0.369 N 
ATOM     28  H   UNL     1       1.435  -2.537   0.127  1.00  0.00     0.159 HD
ATOM     29  H   UNL     1       2.559  -1.325   0.546  1.00  0.00     0.159 HD
ENDBRANCH  16  27
ENDBRANCH   9  15
ENDBRANCH   5   8
ENDBRANCH   3   4
ENDBRANCH   2   3
ENDBRANCH   1   2
BRANCH   1  30
ATOM     30  C   UNL     1      -2.491   0.466  -1.264  1.00  0.00     0.116 C 
BRANCH  30  31
ATOM     31  N   UNL     1      -2.677  -0.740  -0.466  1.00  0.00    -0.352 N 
ATOM     32  C   UNL     1      -3.578  -1.768  -0.695  1.00  0.00     0.251 C 
ATOM     33  H   UNL     1      -2.097  -0.835   0.324  1.00  0.00     0.163 HD
ATOM     34  O   UNL     1      -3.666  -2.721   0.053  1.00  0.00    -0.269 OA
BRANCH  32  35
ATOM     35  C   UNL     1      -4.473  -1.634  -1.864  1.00  0.00     0.039 A 
ATOM     36  C   UNL     1      -3.919  -1.404  -3.124  1.00  0.00     0.014 A 
ATOM     37  C   UNL     1      -5.850  -1.547  -1.655  1.00  0.00     0.014 A 
ATOM     38  C   UNL     1      -4.723  -0.876  -4.123  1.00  0.00     0.010 A 
ATOM     39  C   UNL     1      -6.671  -1.110  -2.696  1.00  0.00     0.010 A 
ATOM     40  C   UNL     1      -6.104  -0.704  -3.914  1.00  0.00    -0.014 A 
BRANCH  40  41
ATOM     41  C   UNL     1      -6.929  -0.084  -4.982  1.00  0.00     0.031 A 
ATOM     42  C   UNL     1      -7.609   1.241  -4.765  1.00  0.00     0.074 A 
ATOM     43  C   UNL     1      -7.001  -0.697  -6.178  1.00  0.00     0.049 A 
ATOM     44  N   UNL     1      -8.358   1.925  -5.591  1.00  0.00    -0.248 NA
ATOM     45  C   UNL     1      -7.426   1.884  -3.454  1.00  0.00     0.031 C 
ATOM     46  C   UNL     1      -6.352  -1.969  -6.495  1.00  0.00     0.029 A 
ATOM     47  N   UNL     1      -7.613  -0.331  -7.348  1.00  0.00    -0.354 N 
ATOM     48  C   UNL     1      -8.746   3.069  -4.901  1.00  0.00     0.074 A 
ATOM     49  C   UNL     1      -8.180   2.969  -3.573  1.00  0.00     0.031 C 
ATOM     50  C   UNL     1      -6.544  -2.246  -7.790  1.00  0.00     0.029 A 
ATOM     51  C   UNL     1      -7.408  -1.223  -8.373  1.00  0.00     0.049 A 
ATOM     52  H   UNL     1      -8.148   0.490  -7.445  1.00  0.00     0.167 HD
ATOM     53  C   UNL     1      -9.492   4.111  -5.343  1.00  0.00     0.034 A 
ATOM     54  C   UNL     1      -7.877  -1.236  -9.637  1.00  0.00     0.034 A 
ATOM     55  C   UNL     1     -10.043   4.188  -6.673  1.00  0.00     0.049 A 
ATOM     56  C   UNL     1      -8.753  -0.102 -10.089  1.00  0.00     0.074 A 
ATOM     57  C   UNL     1     -10.821   5.192  -7.221  1.00  0.00     0.029 A 
ATOM     58  N   UNL     1      -9.869   3.232  -7.666  1.00  0.00    -0.354 N 
ATOM     59  N   UNL     1      -9.118   0.968  -9.421  1.00  0.00    -0.248 NA
ATOM     60  C   UNL     1      -9.291  -0.173 -11.452  1.00  0.00     0.031 C 
ATOM     61  C   UNL     1     -11.162   4.818  -8.523  1.00  0.00     0.029 A 
ATOM     62  C   UNL     1     -10.545   3.611  -8.814  1.00  0.00     0.049 A 
ATOM     63  H   UNL     1      -9.343   2.405  -7.567  1.00  0.00     0.167 HD
ATOM     64  C   UNL     1      -9.932   1.697 -10.280  1.00  0.00     0.074 A 
ATOM     65  C   UNL     1      -9.977   0.962 -11.529  1.00  0.00     0.031 C 
ATOM     66  C   UNL     1     -10.589   2.862 -10.050  1.00  0.00     0.034 A 
BRANCH  53  67
ATOM     67  C   UNL     1      -9.757   5.259  -4.397  1.00  0.00     0.023 A 
ATOM     68  C   UNL     1     -11.072   5.556  -3.988  1.00  0.00     0.031 A 
ATOM     69  C   UNL     1      -8.724   6.117  -3.978  1.00  0.00     0.131 A 
ATOM     70  C   UNL     1     -11.319   6.690  -3.201  1.00  0.00     0.055 A 
ATOM     71  C   UNL     1      -8.971   7.226  -3.166  1.00  0.00     0.041 A 
ATOM     72  F   UNL     1      -7.452   5.879  -4.339  1.00  0.00    -0.206 F 
ATOM     73  C   UNL     1     -10.275   7.522  -2.783  1.00  0.00     0.022 A 
BRANCH  70  74
ATOM     74  S   UNL     1     -13.007   7.164  -2.736  1.00  0.00     0.124 S 
ATOM     75  O   UNL     1     -12.956   7.054  -1.280  1.00  0.00    -0.237 OA
ATOM     76  O   UNL     1     -13.098   8.526  -3.255  1.00  0.00    -0.237 OA
ATOM     77  O   UNL     1     -13.847   6.177  -3.406  1.00  0.00    -0.744 OA
ENDBRANCH  70  74
ENDBRANCH  53  67
BRANCH  54  78
ATOM     78  C   UNL     1      -7.473  -2.360 -10.531  1.00  0.00     0.023 A 
ATOM     79  C   UNL     1      -7.790  -3.690 -10.194  1.00  0.00     0.031 A 
ATOM     80  C   UNL     1      -6.610  -2.138 -11.615  1.00  0.00     0.131 A 
ATOM     81  C   UNL     1      -7.153  -4.746 -10.858  1.00  0.00     0.055 A 
ATOM     82  C   UNL     1      -6.045  -3.196 -12.330  1.00  0.00     0.041 A 
ATOM     83  F   UNL     1      -6.272  -0.888 -11.965  1.00  0.00    -0.206 F 
ATOM     84  C   UNL     1      -6.294  -4.508 -11.935  1.00  0.00     0.022 A 
BRANCH  81  85
ATOM     85  S   UNL     1      -7.275  -6.443 -10.226  1.00  0.00     0.124 S 
ATOM     86  O   UNL     1      -7.799  -7.163 -11.383  1.00  0.00    -0.237 OA
ATOM     87  O   UNL     1      -5.885  -6.730  -9.880  1.00  0.00    -0.237 OA
ATOM     88  O   UNL     1      -8.184  -6.325  -9.091  1.00  0.00    -0.744 OA
ENDBRANCH  81  85
ENDBRANCH  54  78
BRANCH  66  89
ATOM     89  C   UNL     1     -11.448   3.425 -11.153  1.00  0.00     0.023 A 
ATOM     90  C   UNL     1     -11.122   4.661 -11.743  1.00  0.00     0.031 A 
ATOM     91  C   UNL     1     -12.667   2.819 -11.504  1.00  0.00     0.131 A 
ATOM     92  C   UNL     1     -12.027   5.273 -12.618  1.00  0.00     0.055 A 
ATOM     93  C   UNL     1     -13.545   3.412 -12.411  1.00  0.00     0.041 A 
ATOM     94  F   UNL     1     -13.023   1.643 -10.960  1.00  0.00    -0.206 F 
ATOM     95  C   UNL     1     -13.233   4.652 -12.961  1.00  0.00     0.022 A 
BRANCH  92  96
ATOM     96  S   UNL     1     -11.711   6.932 -13.280  1.00  0.00     0.124 S 
ATOM     97  O   UNL     1     -11.743   6.694 -14.722  1.00  0.00    -0.237 OA
ATOM     98  O   UNL     1     -12.838   7.693 -12.748  1.00  0.00    -0.237 OA
ATOM     99  O   UNL     1     -10.403   7.284 -12.739  1.00  0.00    -0.744 OA
ENDBRANCH  92  96
ENDBRANCH  66  89
ENDBRANCH  40  41
ENDBRANCH  32  35
ENDBRANCH  30  31
ENDBRANCH   1  30
TORSDOF 16
