REMARK SMILES CC(=O)Oc1ccc([C@H]2Nc3c(C(=O)NCCCCNC(=O)c4ccc(-c5c6nc(c(-c7cc(S(=O)(=O)[O-])ccc7F)c7ccc([nH]7)c(-c7cc(S(=O)(=O)[O-])ccc7F)c7nc(c(-c8cc(S(=O)(=O)[O-])ccc8F)c8ccc5[nH]8)C=C7)C=C6)cc4)ccc([N+](=O)[O-])c3[C@H]3C=CC[C@@H]32)cc1
REMARK SMILES IDX 17 1 16 2 15 3 13 4 14 5 12 7 9 8 10 9 97 10 11 11 93 13
REMARK SMILES IDX 96 14 92 15 94 16 95 17 86 18 88 19 87 20 8 21 5 22 6 23
REMARK SMILES IDX 99 24 7 25 98 26 4 27 2 28 1 29 3 30 89 31 90 32 91 33 18 34
REMARK SMILES IDX 19 35 20 36 21 37 22 39 23 40 24 41 85 42 25 43 84 44 26 45
REMARK SMILES IDX 27 46 28 47 78 48 29 49 83 50 77 51 79 52 30 53 82 54 76 55
REMARK SMILES IDX 75 56 31 58 63 59 43 60 62 61 44 62 47 63 61 64 80 65 45 66
REMARK SMILES IDX 46 67 60 69 81 70 48 71 32 72 33 73 41 74 34 75 40 76 42 77
REMARK SMILES IDX 39 78 35 79 36 80 37 81 38 82 64 83 65 84 73 85 66 86 72 87
REMARK SMILES IDX 74 88 71 89 67 90 68 91 69 92 70 93 49 94 50 95 58 96 51 97
REMARK SMILES IDX 57 98 59 99 56 100 52 101 53 102 54 103 55 104
REMARK H PARENT 15 6 10 12 20 38 79 57 47 68
REMARK Flexibility Score: inf
ROOT
ATOM      1  C   UNL     1       1.554  14.307   5.997  1.00  0.00     0.023 C 
ENDROOT
BRANCH   1   2
ATOM      2  C   UNL     1       0.605  13.859   4.886  1.00  0.00     0.116 C 
BRANCH   2   3
ATOM      3  N   UNL     1       1.147  12.845   3.972  1.00  0.00    -0.352 N 
ATOM      4  C   UNL     1       0.609  11.633   3.541  1.00  0.00     0.253 C 
ATOM      5  O   UNL     1       1.270  10.886   2.826  1.00  0.00    -0.269 OA
ATOM      6  H   UNL     1       2.035  13.056   3.603  1.00  0.00     0.163 HD
BRANCH   4   7
ATOM      7  C   UNL     1      -0.760  11.233   3.980  1.00  0.00     0.063 A 
ATOM      8  C   UNL     1      -0.874   7.408   4.405  1.00  0.00     0.114 C 
ATOM      9  N   UNL     1      -0.372   8.770   4.078  1.00  0.00    -0.377 N 
ATOM     10  C   UNL     1      -2.386   7.536   4.651  1.00  0.00     0.031 C 
ATOM     11  C   UNL     1      -1.070   9.940   4.470  1.00  0.00     0.058 A 
ATOM     12  H   UNL     1       0.469   8.861   3.574  1.00  0.00     0.161 HD
ATOM     13  C   UNL     1      -2.466   8.452   5.886  1.00  0.00     0.056 C 
ATOM     14  C   UNL     1      -3.292   6.342   4.938  1.00  0.00     0.034 C 
ATOM     15  C   UNL     1      -2.232   9.821   5.305  1.00  0.00     0.061 A 
ATOM     16  C   UNL     1      -3.731   8.011   6.534  1.00  0.00    -0.022 C 
ATOM     17  C   UNL     1      -4.171   6.853   6.032  1.00  0.00    -0.030 C 
ATOM     18  C   UNL     1      -1.741  12.241   3.987  1.00  0.00     0.023 A 
ATOM     19  C   UNL     1      -3.076  10.931   5.471  1.00  0.00     0.275 A 
ATOM     20  C   UNL     1      -2.889  12.108   4.753  1.00  0.00     0.087 A 
BRANCH   8  21
ATOM     21  C   UNL     1      -0.432   6.280   3.471  1.00  0.00    -0.025 A 
ATOM     22  C   UNL     1       0.276   3.819   2.255  1.00  0.00     0.130 A 
ATOM     23  C   UNL     1       1.191   4.487   3.067  1.00  0.00     0.047 A 
ATOM     24  C   UNL     1      -0.972   4.380   2.012  1.00  0.00     0.047 A 
ATOM     25  C   UNL     1       0.843   5.709   3.660  1.00  0.00     0.010 A 
ATOM     26  C   UNL     1      -1.306   5.618   2.589  1.00  0.00     0.010 A 
BRANCH  22  27
ATOM     27  O   UNL     1       0.675   2.541   1.797  1.00  0.00    -0.427 OA
BRANCH  27  28
ATOM     28  C   UNL     1       0.215   1.981   0.602  1.00  0.00     0.308 C 
ATOM     29  C   UNL     1       0.839   0.622   0.427  1.00  0.00     0.139 C 
ATOM     30  O   UNL     1      -0.565   2.478  -0.190  1.00  0.00    -0.252 OA
ENDBRANCH  27  28
ENDBRANCH  22  27
ENDBRANCH   8  21
BRANCH  19  31
ATOM     31  N   UNL     1      -4.189  10.918   6.392  1.00  0.00     0.063 N 
ATOM     32  O   UNL     1      -5.325  10.854   5.905  1.00  0.00    -0.258 OA
ATOM     33  O   UNL     1      -3.916  11.019   7.596  1.00  0.00    -0.258 OA
ENDBRANCH  19  31
ENDBRANCH   4   7
ENDBRANCH   2   3
ENDBRANCH   1   2
BRANCH   1  34
ATOM     34  C   UNL     1       2.724  15.191   5.570  1.00  0.00     0.023 C 
BRANCH  34  35
ATOM     35  C   UNL     1       2.362  16.561   4.994  1.00  0.00     0.116 C 
BRANCH  35  36
ATOM     36  N   UNL     1       1.709  17.446   5.948  1.00  0.00    -0.352 N 
ATOM     37  C   UNL     1       2.029  18.726   6.345  1.00  0.00     0.251 C 
ATOM     38  H   UNL     1       0.908  17.068   6.379  1.00  0.00     0.163 HD
ATOM     39  O   UNL     1       1.386  19.239   7.258  1.00  0.00    -0.269 OA
BRANCH  37  40
ATOM     40  C   UNL     1       3.151  19.473   5.723  1.00  0.00     0.039 A 
ATOM     41  C   UNL     1       3.980  20.246   6.543  1.00  0.00     0.014 A 
ATOM     42  C   UNL     1       3.387  19.443   4.346  1.00  0.00     0.014 A 
ATOM     43  C   UNL     1       5.083  20.914   5.999  1.00  0.00     0.010 A 
ATOM     44  C   UNL     1       4.533  20.041   3.817  1.00  0.00     0.010 A 
ATOM     45  C   UNL     1       5.399  20.782   4.637  1.00  0.00    -0.014 A 
BRANCH  45  46
ATOM     46  C   UNL     1       6.630  21.401   4.067  1.00  0.00     0.031 A 
ATOM     47  C   UNL     1       6.534  22.452   2.991  1.00  0.00     0.074 A 
ATOM     48  C   UNL     1       7.843  20.985   4.487  1.00  0.00     0.049 A 
ATOM     49  N   UNL     1       7.493  23.072   2.350  1.00  0.00    -0.248 NA
ATOM     50  C   UNL     1       5.181  22.836   2.562  1.00  0.00     0.031 C 
ATOM     51  C   UNL     1       8.076  19.945   5.492  1.00  0.00     0.029 A 
ATOM     52  N   UNL     1       9.108  21.378   4.122  1.00  0.00    -0.354 N 
ATOM     53  C   UNL     1       6.862  23.913   1.438  1.00  0.00     0.074 A 
ATOM     54  C   UNL     1       5.440  23.671   1.567  1.00  0.00     0.031 C 
ATOM     55  C   UNL     1       9.397  19.809   5.688  1.00  0.00     0.029 A 
ATOM     56  C   UNL     1      10.111  20.710   4.789  1.00  0.00     0.049 A 
ATOM     57  H   UNL     1       9.282  22.073   3.447  1.00  0.00     0.167 HD
ATOM     58  C   UNL     1       7.413  24.819   0.592  1.00  0.00     0.034 A 
ATOM     59  C   UNL     1      11.453  20.802   4.684  1.00  0.00     0.034 A 
ATOM     60  C   UNL     1       8.833  25.054   0.477  1.00  0.00     0.049 A 
ATOM     61  C   UNL     1      12.043  21.791   3.710  1.00  0.00     0.074 A 
ATOM     62  C   UNL     1       9.492  25.983  -0.312  1.00  0.00     0.029 A 
ATOM     63  N   UNL     1       9.817  24.349   1.159  1.00  0.00    -0.354 N 
ATOM     64  N   UNL     1      11.428  22.618   2.896  1.00  0.00    -0.248 NA
ATOM     65  C   UNL     1      13.508  21.869   3.652  1.00  0.00     0.031 C 
ATOM     66  C   UNL     1      10.869  25.787  -0.167  1.00  0.00     0.029 A 
ATOM     67  C   UNL     1      11.075  24.798   0.781  1.00  0.00     0.049 A 
ATOM     68  H   UNL     1       9.647  23.635   1.815  1.00  0.00     0.167 HD
ATOM     69  C   UNL     1      12.434  23.337   2.255  1.00  0.00     0.074 A 
ATOM     70  C   UNL     1      13.691  22.860   2.792  1.00  0.00     0.031 C 
ATOM     71  C   UNL     1      12.327  24.308   1.311  1.00  0.00     0.034 A 
BRANCH  58  72
ATOM     72  C   UNL     1       6.474  25.606  -0.296  1.00  0.00     0.023 A 
ATOM     73  C   UNL     1       5.498  26.466   0.238  1.00  0.00     0.031 A 
ATOM     74  C   UNL     1       6.543  25.483  -1.695  1.00  0.00     0.131 A 
ATOM     75  C   UNL     1       4.584  27.106  -0.613  1.00  0.00     0.055 A 
ATOM     76  C   UNL     1       5.687  26.191  -2.542  1.00  0.00     0.041 A 
ATOM     77  F   UNL     1       7.439  24.661  -2.266  1.00  0.00    -0.206 F 
ATOM     78  C   UNL     1       4.690  26.997  -2.001  1.00  0.00     0.022 A 
BRANCH  75  79
ATOM     79  S   UNL     1       3.164  27.959   0.125  1.00  0.00     0.124 S 
ATOM     80  O   UNL     1       2.534  26.880   0.883  1.00  0.00    -0.237 OA
ATOM     81  O   UNL     1       3.800  29.007   0.914  1.00  0.00    -0.237 OA
ATOM     82  O   UNL     1       2.402  28.423  -1.032  1.00  0.00    -0.744 OA
ENDBRANCH  75  79
ENDBRANCH  58  72
BRANCH  59  83
ATOM     83  C   UNL     1      12.340  19.930   5.510  1.00  0.00     0.023 A 
ATOM     84  C   UNL     1      13.226  20.479   6.450  1.00  0.00     0.031 A 
ATOM     85  C   UNL     1      12.351  18.534   5.333  1.00  0.00     0.131 A 
ATOM     86  C   UNL     1      14.122  19.646   7.139  1.00  0.00     0.055 A 
ATOM     87  C   UNL     1      13.202  17.704   6.065  1.00  0.00     0.041 A 
ATOM     88  F   UNL     1      11.525  17.954   4.448  1.00  0.00    -0.206 F 
ATOM     89  C   UNL     1      14.105  18.261   6.965  1.00  0.00     0.022 A 
BRANCH  86  90
ATOM     90  S   UNL     1      15.382  20.411   8.197  1.00  0.00     0.124 S 
ATOM     91  O   UNL     1      16.074  21.280   7.252  1.00  0.00    -0.237 OA
ATOM     92  O   UNL     1      14.566  21.080   9.204  1.00  0.00    -0.237 OA
ATOM     93  O   UNL     1      16.157  19.271   8.681  1.00  0.00    -0.744 OA
ENDBRANCH  86  90
ENDBRANCH  59  83
BRANCH  71  94
ATOM     94  C   UNL     1      13.610  24.951   0.836  1.00  0.00     0.023 A 
ATOM     95  C   UNL     1      14.593  24.224   0.141  1.00  0.00     0.031 A 
ATOM     96  C   UNL     1      13.862  26.308   1.105  1.00  0.00     0.131 A 
ATOM     97  C   UNL     1      15.807  24.840  -0.201  1.00  0.00     0.055 A 
ATOM     98  C   UNL     1      15.042  26.933   0.699  1.00  0.00     0.041 A 
ATOM     99  F   UNL     1      12.964  27.052   1.770  1.00  0.00    -0.206 F 
ATOM    100  C   UNL     1      16.030  26.194   0.056  1.00  0.00     0.022 A 
BRANCH  97 101
ATOM    101  S   UNL     1      17.140  23.816  -0.886  1.00  0.00     0.124 S 
ATOM    102  O   UNL     1      17.313  22.808   0.155  1.00  0.00    -0.237 OA
ATOM    103  O   UNL     1      16.559  23.344  -2.139  1.00  0.00    -0.237 OA
ATOM    104  O   UNL     1      18.252  24.753  -1.033  1.00  0.00    -0.744 OA
ENDBRANCH  97 101
ENDBRANCH  71  94
ENDBRANCH  45  46
ENDBRANCH  37  40
ENDBRANCH  35  36
ENDBRANCH  34  35
ENDBRANCH   1  34
TORSDOF 18
