REMARK SMILES Cc1ccc(-c2cc(C(=O)NCCCCNC(=O)c3ccc(-c4c5nc(c(-c6cc(S(=O)(=O)[O-])ccc6F)c6ccc([nH]6)c(-c6cc(S(=O)(=O)[O-])ccc6F)c6nc(c(-c7cc(S(=O)(=O)[O-])ccc7F)c7ccc4[nH]7)C=C6)C=C5)cc3)c3cc(C)ccc3n2)c(C)c1
REMARK SMILES IDX 14 1 13 2 12 3 11 4 9 5 10 6 8 8 6 9 7 10 89 11 88 12 82 13
REMARK SMILES IDX 87 14 83 15 86 16 84 17 85 18 5 19 1 20 2 21 3 22 92 23 4 24
REMARK SMILES IDX 90 25 91 26 15 27 16 28 17 29 18 31 19 32 20 33 81 34 21 35
REMARK SMILES IDX 80 36 22 37 23 38 24 39 74 40 25 41 79 42 73 43 75 44 26 45
REMARK SMILES IDX 78 46 72 47 71 48 27 50 59 51 39 52 58 53 40 54 43 55 57 56
REMARK SMILES IDX 76 57 41 58 42 59 56 61 77 62 44 63 28 64 29 65 37 66 30 67
REMARK SMILES IDX 36 68 38 69 35 70 31 71 32 72 33 73 34 74 60 75 61 76 69 77
REMARK SMILES IDX 62 78 68 79 70 80 67 81 63 82 64 83 65 84 66 85 45 86 46 87
REMARK SMILES IDX 54 88 47 89 53 90 55 91 52 92 48 93 49 94 50 95 51 96
REMARK H PARENT 11 7 16 30 75 49 43 60
REMARK Flexibility Score: inf
ROOT
ATOM      1  C   UNL     1      -7.030  -7.845   1.569  1.00  0.00     0.023 C 
ENDROOT
BRANCH   1   2
ATOM      2  C   UNL     1      -6.175  -7.175   0.495  1.00  0.00     0.023 C 
BRANCH   2   3
ATOM      3  C   UNL     1      -5.965  -5.674   0.620  1.00  0.00     0.116 C 
BRANCH   3   4
ATOM      4  N   UNL     1      -5.305  -5.197   1.824  1.00  0.00    -0.352 N 
ATOM      5  C   UNL     1      -4.610  -4.023   2.054  1.00  0.00     0.252 C 
ATOM      6  O   UNL     1      -4.189  -3.805   3.190  1.00  0.00    -0.269 OA
ATOM      7  H   UNL     1      -5.362  -5.804   2.597  1.00  0.00     0.163 HD
BRANCH   5   8
ATOM      8  C   UNL     1      -4.250  -3.060   0.968  1.00  0.00     0.051 A 
ATOM      9  C   UNL     1      -2.495  -1.788  -0.053  1.00  0.00     0.072 A 
ATOM     10  C   UNL     1      -2.937  -2.572   1.000  1.00  0.00     0.043 A 
ATOM     11  N   UNL     1      -3.243  -1.594  -1.164  1.00  0.00    -0.248 NA
ATOM     12  C   UNL     1      -4.510  -2.033  -1.181  1.00  0.00     0.072 A 
ATOM     13  C   UNL     1      -5.109  -2.660  -0.077  1.00  0.00     0.013 A 
ATOM     14  C   UNL     1      -5.256  -1.873  -2.340  1.00  0.00     0.029 A 
ATOM     15  C   UNL     1      -6.506  -2.862  -0.102  1.00  0.00     0.014 A 
ATOM     16  C   UNL     1      -6.589  -2.286  -2.423  1.00  0.00     0.005 A 
ATOM     17  C   UNL     1      -7.236  -2.760  -1.288  1.00  0.00    -0.050 A 
ATOM     18  C   UNL     1      -8.634  -3.301  -1.354  1.00  0.00     0.044 C 
BRANCH   9  19
ATOM     19  C   UNL     1      -1.217  -1.058  -0.019  1.00  0.00     0.003 A 
ATOM     20  C   UNL     1       2.579   1.046   0.015  1.00  0.00     0.044 C 
ATOM     21  C   UNL     1       1.275   0.304   0.011  1.00  0.00    -0.051 A 
ATOM     22  C   UNL     1       1.230  -1.091  -0.012  1.00  0.00     0.004 A 
ATOM     23  C   UNL     1       0.073   1.016   0.024  1.00  0.00     0.007 A 
ATOM     24  C   UNL     1       0.001  -1.762  -0.027  1.00  0.00     0.011 A 
ATOM     25  C   UNL     1      -1.171   0.356   0.022  1.00  0.00    -0.041 A 
ATOM     26  C   UNL     1      -2.410   1.215   0.026  1.00  0.00     0.045 C 
ENDBRANCH   9  19
ENDBRANCH   5   8
ENDBRANCH   3   4
ENDBRANCH   2   3
ENDBRANCH   1   2
BRANCH   1  27
ATOM     27  C   UNL     1      -8.298  -7.125   2.022  1.00  0.00     0.116 C 
BRANCH  27  28
ATOM     28  N   UNL     1      -9.266  -6.875   0.965  1.00  0.00    -0.352 N 
ATOM     29  C   UNL     1     -10.590  -7.241   0.856  1.00  0.00     0.251 C 
ATOM     30  H   UNL     1      -8.918  -6.359   0.203  1.00  0.00     0.163 HD
ATOM     31  O   UNL     1     -11.203  -6.944  -0.169  1.00  0.00    -0.269 OA
BRANCH  29  32
ATOM     32  C   UNL     1     -11.260  -8.027   1.920  1.00  0.00     0.039 A 
ATOM     33  C   UNL     1     -12.095  -9.087   1.551  1.00  0.00     0.014 A 
ATOM     34  C   UNL     1     -11.076  -7.739   3.273  1.00  0.00     0.014 A 
ATOM     35  C   UNL     1     -12.667  -9.903   2.533  1.00  0.00     0.010 A 
ATOM     36  C   UNL     1     -11.561  -8.613   4.246  1.00  0.00     0.010 A 
ATOM     37  C   UNL     1     -12.371  -9.701   3.890  1.00  0.00    -0.014 A 
BRANCH  37  38
ATOM     38  C   UNL     1     -12.926 -10.596   4.945  1.00  0.00     0.031 A 
ATOM     39  C   UNL     1     -13.832 -10.037   6.013  1.00  0.00     0.074 A 
ATOM     40  C   UNL     1     -12.587 -11.900   4.973  1.00  0.00     0.049 A 
ATOM     41  N   UNL     1     -14.392 -10.642   7.030  1.00  0.00    -0.248 NA
ATOM     42  C   UNL     1     -14.111  -8.595   5.947  1.00  0.00     0.031 C 
ATOM     43  C   UNL     1     -11.680 -12.560   4.031  1.00  0.00     0.029 A 
ATOM     44  N   UNL     1     -12.968 -12.910   5.823  1.00  0.00    -0.354 N 
ATOM     45  C   UNL     1     -15.082  -9.653   7.727  1.00  0.00     0.074 A 
ATOM     46  C   UNL     1     -14.787  -8.399   7.067  1.00  0.00     0.031 C 
ATOM     47  C   UNL     1     -11.616 -13.869   4.324  1.00  0.00     0.029 A 
ATOM     48  C   UNL     1     -12.443 -14.139   5.496  1.00  0.00     0.049 A 
ATOM     49  H   UNL     1     -13.563 -12.768   6.594  1.00  0.00     0.167 HD
ATOM     50  C   UNL     1     -15.915  -9.778   8.791  1.00  0.00     0.034 A 
ATOM     51  C   UNL     1     -12.615 -15.347   6.068  1.00  0.00     0.034 A 
ATOM     52  C   UNL     1     -16.205 -11.036   9.438  1.00  0.00     0.049 A 
ATOM     53  C   UNL     1     -13.528 -15.465   7.263  1.00  0.00     0.074 A 
ATOM     54  C   UNL     1     -17.049 -11.287  10.506  1.00  0.00     0.029 A 
ATOM     55  N   UNL     1     -15.653 -12.260   9.075  1.00  0.00    -0.354 N 
ATOM     56  N   UNL     1     -14.209 -14.528   7.882  1.00  0.00    -0.248 NA
ATOM     57  C   UNL     1     -13.710 -16.810   7.821  1.00  0.00     0.031 C 
ATOM     58  C   UNL     1     -16.961 -12.648  10.827  1.00  0.00     0.029 A 
ATOM     59  C   UNL     1     -16.125 -13.263   9.909  1.00  0.00     0.049 A 
ATOM     60  H   UNL     1     -15.020 -12.395   8.334  1.00  0.00     0.167 HD
ATOM     61  C   UNL     1     -14.936 -15.181   8.875  1.00  0.00     0.074 A 
ATOM     62  C   UNL     1     -14.616 -16.590   8.761  1.00  0.00     0.031 C 
ATOM     63  C   UNL     1     -15.796 -14.666   9.791  1.00  0.00     0.034 A 
BRANCH  50  64
ATOM     64  C   UNL     1     -16.549  -8.509   9.318  1.00  0.00     0.023 A 
ATOM     65  C   UNL     1     -17.368  -7.705   8.503  1.00  0.00     0.031 A 
ATOM     66  C   UNL     1     -16.279  -8.054  10.620  1.00  0.00     0.131 A 
ATOM     67  C   UNL     1     -17.790  -6.445   8.953  1.00  0.00     0.055 A 
ATOM     68  C   UNL     1     -16.788  -6.844  11.099  1.00  0.00     0.041 A 
ATOM     69  F   UNL     1     -15.490  -8.762  11.444  1.00  0.00    -0.206 F 
ATOM     70  C   UNL     1     -17.529  -6.020  10.256  1.00  0.00     0.022 A 
BRANCH  67  71
ATOM     71  S   UNL     1     -18.509  -5.296   7.747  1.00  0.00     0.124 S 
ATOM     72  O   UNL     1     -17.437  -5.200   6.758  1.00  0.00    -0.237 OA
ATOM     73  O   UNL     1     -19.712  -6.000   7.319  1.00  0.00    -0.237 OA
ATOM     74  O   UNL     1     -18.738  -4.081   8.525  1.00  0.00    -0.744 OA
ENDBRANCH  67  71
ENDBRANCH  50  64
BRANCH  51  75
ATOM     75  C   UNL     1     -11.944 -16.555   5.507  1.00  0.00     0.023 A 
ATOM     76  C   UNL     1     -12.698 -17.599   4.945  1.00  0.00     0.031 A 
ATOM     77  C   UNL     1     -10.548 -16.706   5.561  1.00  0.00     0.131 A 
ATOM     78  C   UNL     1     -12.058 -18.768   4.505  1.00  0.00     0.055 A 
ATOM     79  C   UNL     1      -9.911 -17.849   5.074  1.00  0.00     0.041 A 
ATOM     80  F   UNL     1      -9.780 -15.735   6.081  1.00  0.00    -0.206 F 
ATOM     81  C   UNL     1     -10.668 -18.895   4.554  1.00  0.00     0.022 A 
BRANCH  78  82
ATOM     82  S   UNL     1     -13.078 -20.156   3.936  1.00  0.00     0.124 S 
ATOM     83  O   UNL     1     -13.885 -20.435   5.118  1.00  0.00    -0.237 OA
ATOM     84  O   UNL     1     -13.782 -19.568   2.801  1.00  0.00    -0.237 OA
ATOM     85  O   UNL     1     -12.096 -21.182   3.593  1.00  0.00    -0.744 OA
ENDBRANCH  78  82
ENDBRANCH  51  75
BRANCH  63  86
ATOM     86  C   UNL     1     -16.501 -15.648  10.697  1.00  0.00     0.023 A 
ATOM     87  C   UNL     1     -15.803 -16.435  11.630  1.00  0.00     0.031 A 
ATOM     88  C   UNL     1     -17.893 -15.825  10.596  1.00  0.00     0.131 A 
ATOM     89  C   UNL     1     -16.486 -17.413  12.370  1.00  0.00     0.055 A 
ATOM     90  C   UNL     1     -18.577 -16.751  11.384  1.00  0.00     0.041 A 
ATOM     91  F   UNL     1     -18.612 -15.103   9.722  1.00  0.00    -0.206 F 
ATOM     92  C   UNL     1     -17.871 -17.565  12.265  1.00  0.00     0.022 A 
BRANCH  89  93
ATOM     93  S   UNL     1     -15.521 -18.572  13.380  1.00  0.00     0.124 S 
ATOM     94  O   UNL     1     -14.590 -19.126  12.402  1.00  0.00    -0.237 OA
ATOM     95  O   UNL     1     -14.938 -17.693  14.389  1.00  0.00    -0.237 OA
ATOM     96  O   UNL     1     -16.525 -19.509  13.880  1.00  0.00    -0.744 OA
ENDBRANCH  89  93
ENDBRANCH  63  86
ENDBRANCH  37  38
ENDBRANCH  29  32
ENDBRANCH  27  28
ENDBRANCH   1  27
TORSDOF 15
