REMARK SMILES CC1(C)[C@@](C)(C(=O)NCCCCNC(=O)c2ccc(-c3c4nc(c(-c5cc(S(=O)(=O)[O-])ccc5F)c5ccc([nH]5)c(-c5cc(S(=O)(=O)[O-])ccc5F)c5nc(c(-c6cc(S(=O)(=O)[O-])ccc6F)c6ccc3[nH]6)C=C5)C=C4)cc2)[C@@]12CC[C@@H]2C(=O)NCc1ccco1
REMARK SMILES IDX 10 1 9 2 8 3 6 4 7 5 4 7 1 8 2 9 3 10 79 11 5 12 80 13 82 14
REMARK SMILES IDX 81 15 83 16 84 17 85 18 86 20 87 21 88 22 91 23 89 24 90 25
REMARK SMILES IDX 11 26 12 27 13 28 14 29 15 31 16 32 17 33 78 34 18 35 77 36
REMARK SMILES IDX 19 37 20 38 21 39 71 40 22 41 76 42 70 43 72 44 23 45 75 46
REMARK SMILES IDX 69 47 68 48 24 50 56 51 36 52 55 53 37 54 40 55 54 56 73 57
REMARK SMILES IDX 38 58 39 59 53 61 74 62 41 63 25 64 26 65 34 66 27 67 33 68
REMARK SMILES IDX 35 69 32 70 28 71 29 72 30 73 31 74 57 75 58 76 66 77 59 78
REMARK SMILES IDX 65 79 67 80 64 81 60 82 61 83 62 84 63 85 42 86 43 87 51 88
REMARK SMILES IDX 44 89 50 90 52 91 49 92 45 93 46 94 47 95 48 96
REMARK H PARENT 8 6 85 19 13 30 72 49 40 60
REMARK Flexibility Score: inf
ROOT
ATOM      1  C   UNL     1      -0.431   3.764   2.300  1.00  0.00     0.023 C 
ENDROOT
BRANCH   1   2
ATOM      2  C   UNL     1      -0.688   2.357   2.847  1.00  0.00     0.116 C 
BRANCH   2   3
ATOM      3  N   UNL     1      -1.803   1.728   2.175  1.00  0.00    -0.356 N 
ATOM      4  C   UNL     1      -1.996   0.434   1.786  1.00  0.00     0.227 C 
ATOM      5  O   UNL     1      -3.086   0.126   1.329  1.00  0.00    -0.274 OA
ATOM      6  H   UNL     1      -2.549   2.334   1.963  1.00  0.00     0.163 HD
BRANCH   4   7
ATOM      7  C   UNL     1      -0.934  -0.615   2.016  1.00  0.00     0.059 C 
ATOM      8  C   UNL     1       0.698   0.406   0.223  1.00  0.00     0.013 C 
ATOM      9  C   UNL     1       0.361  -0.727   1.177  1.00  0.00    -0.013 C 
ATOM     10  C   UNL     1       1.620  -1.390   1.697  1.00  0.00     0.013 C 
ATOM     11  C   UNL     1      -0.818  -1.639   0.864  1.00  0.00     0.003 C 
ATOM     12  C   UNL     1      -0.864  -1.078   3.466  1.00  0.00     0.023 C 
ATOM     13  C   UNL     1      -1.366  -1.634  -0.530  1.00  0.00     0.010 C 
ATOM     14  C   UNL     1      -0.918  -3.137   0.979  1.00  0.00     0.086 C 
ATOM     15  C   UNL     1      -1.267  -3.158  -0.511  1.00  0.00     0.015 C 
BRANCH  14  16
ATOM     16  C   UNL     1      -1.857  -3.815   2.003  1.00  0.00     0.224 C 
ATOM     17  O   UNL     1      -1.405  -4.603   2.855  1.00  0.00    -0.275 OA
ATOM     18  N   UNL     1      -3.221  -3.657   2.038  1.00  0.00    -0.349 N 
ATOM     19  H   UNL     1      -3.679  -4.240   2.685  1.00  0.00     0.163 HD
BRANCH  18  20
ATOM     20  C   UNL     1      -4.104  -2.787   1.292  1.00  0.00     0.191 C 
BRANCH  20  21
ATOM     21  C   UNL     1      -4.961  -3.555   0.356  1.00  0.00     0.122 A 
ATOM     22  C   UNL     1      -5.048  -4.875  -0.038  1.00  0.00     0.047 A 
ATOM     23  O   UNL     1      -5.887  -2.815  -0.324  1.00  0.00    -0.467 OA
ATOM     24  C   UNL     1      -6.078  -4.940  -1.009  1.00  0.00     0.042 A 
ATOM     25  C   UNL     1      -6.557  -3.659  -1.146  1.00  0.00     0.195 A 
ENDBRANCH  20  21
ENDBRANCH  18  20
ENDBRANCH  14  16
ENDBRANCH   4   7
ENDBRANCH   2   3
ENDBRANCH   1   2
BRANCH   1  26
ATOM     26  C   UNL     1      -1.621   4.734   2.380  1.00  0.00     0.023 C 
BRANCH  26  27
ATOM     27  C   UNL     1      -2.117   5.057   3.789  1.00  0.00     0.116 C 
BRANCH  27  28
ATOM     28  N   UNL     1      -1.168   5.874   4.525  1.00  0.00    -0.352 N 
ATOM     29  C   UNL     1      -1.338   7.093   5.137  1.00  0.00     0.251 C 
ATOM     30  H   UNL     1      -0.262   5.495   4.596  1.00  0.00     0.163 HD
ATOM     31  O   UNL     1      -0.344   7.704   5.523  1.00  0.00    -0.269 OA
BRANCH  29  32
ATOM     32  C   UNL     1      -2.687   7.686   5.317  1.00  0.00     0.039 A 
ATOM     33  C   UNL     1      -2.842   9.065   5.133  1.00  0.00     0.014 A 
ATOM     34  C   UNL     1      -3.785   6.918   5.716  1.00  0.00     0.014 A 
ATOM     35  C   UNL     1      -4.099   9.660   5.290  1.00  0.00     0.010 A 
ATOM     36  C   UNL     1      -5.051   7.503   5.816  1.00  0.00     0.010 A 
ATOM     37  C   UNL     1      -5.223   8.880   5.604  1.00  0.00    -0.014 A 
BRANCH  37  38
ATOM     38  C   UNL     1      -6.578   9.489   5.707  1.00  0.00     0.031 A 
ATOM     39  C   UNL     1      -7.310   9.513   7.022  1.00  0.00     0.074 A 
ATOM     40  C   UNL     1      -7.180   9.966   4.599  1.00  0.00     0.049 A 
ATOM     41  N   UNL     1      -8.522   9.931   7.290  1.00  0.00    -0.248 NA
ATOM     42  C   UNL     1      -6.590   8.969   8.181  1.00  0.00     0.031 C 
ATOM     43  C   UNL     1      -6.600   9.960   3.255  1.00  0.00     0.029 A 
ATOM     44  N   UNL     1      -8.419  10.531   4.423  1.00  0.00    -0.354 N 
ATOM     45  C   UNL     1      -8.717   9.690   8.647  1.00  0.00     0.074 A 
ATOM     46  C   UNL     1      -7.515   9.037   9.127  1.00  0.00     0.031 C 
ATOM     47  C   UNL     1      -7.479  10.498   2.395  1.00  0.00     0.029 A 
ATOM     48  C   UNL     1      -8.697  10.855   3.116  1.00  0.00     0.049 A 
ATOM     49  H   UNL     1      -9.049  10.689   5.163  1.00  0.00     0.167 HD
ATOM     50  C   UNL     1      -9.787  10.000   9.423  1.00  0.00     0.034 A 
ATOM     51  C   UNL     1      -9.811  11.365   2.554  1.00  0.00     0.034 A 
ATOM     52  C   UNL     1     -10.978  10.654   8.933  1.00  0.00     0.049 A 
ATOM     53  C   UNL     1     -10.990  11.698   3.430  1.00  0.00     0.074 A 
ATOM     54  C   UNL     1     -12.094  11.063   9.644  1.00  0.00     0.029 A 
ATOM     55  N   UNL     1     -11.216  10.987   7.605  1.00  0.00    -0.354 N 
ATOM     56  N   UNL     1     -11.138  11.513   4.721  1.00  0.00    -0.248 NA
ATOM     57  C   UNL     1     -12.146  12.322   2.774  1.00  0.00     0.031 C 
ATOM     58  C   UNL     1     -13.028  11.585   8.740  1.00  0.00     0.029 A 
ATOM     59  C   UNL     1     -12.470  11.568   7.473  1.00  0.00     0.049 A 
ATOM     60  H   UNL     1     -10.586  10.832   6.864  1.00  0.00     0.167 HD
ATOM     61  C   UNL     1     -12.398  12.017   5.034  1.00  0.00     0.074 A 
ATOM     62  C   UNL     1     -12.957  12.531   3.800  1.00  0.00     0.031 C 
ATOM     63  C   UNL     1     -13.031  12.055   6.234  1.00  0.00     0.034 A 
BRANCH  50  64
ATOM     64  C   UNL     1      -9.719   9.603  10.880  1.00  0.00     0.023 A 
ATOM     65  C   UNL     1      -8.742  10.130  11.743  1.00  0.00     0.031 A 
ATOM     66  C   UNL     1     -10.614   8.653  11.405  1.00  0.00     0.131 A 
ATOM     67  C   UNL     1      -8.624   9.641  13.053  1.00  0.00     0.055 A 
ATOM     68  C   UNL     1     -10.545   8.234  12.736  1.00  0.00     0.041 A 
ATOM     69  F   UNL     1     -11.559   8.101  10.629  1.00  0.00    -0.206 F 
ATOM     70  C   UNL     1      -9.534   8.713  13.563  1.00  0.00     0.022 A 
BRANCH  67  71
ATOM     71  S   UNL     1      -7.165  10.113  14.023  1.00  0.00     0.124 S 
ATOM     72  O   UNL     1      -6.077   9.656  13.162  1.00  0.00    -0.237 OA
ATOM     73  O   UNL     1      -7.322  11.557  14.145  1.00  0.00    -0.237 OA
ATOM     74  O   UNL     1      -7.322   9.360  15.266  1.00  0.00    -0.744 OA
ENDBRANCH  67  71
ENDBRANCH  50  64
BRANCH  51  75
ATOM     75  C   UNL     1      -9.876  11.574   1.081  1.00  0.00     0.023 A 
ATOM     76  C   UNL     1      -9.929  12.864   0.532  1.00  0.00     0.031 A 
ATOM     77  C   UNL     1      -9.908  10.477   0.202  1.00  0.00     0.131 A 
ATOM     78  C   UNL     1     -10.051  13.027  -0.857  1.00  0.00     0.055 A 
ATOM     79  C   UNL     1      -9.985  10.645  -1.181  1.00  0.00     0.041 A 
ATOM     80  F   UNL     1      -9.850   9.224   0.679  1.00  0.00    -0.206 F 
ATOM     81  C   UNL     1     -10.068  11.926  -1.717  1.00  0.00     0.022 A 
BRANCH  78  82
ATOM     82  S   UNL     1     -10.248  14.702  -1.522  1.00  0.00     0.124 S 
ATOM     83  O   UNL     1     -11.470  15.144  -0.859  1.00  0.00    -0.237 OA
ATOM     84  O   UNL     1      -9.013  15.347  -1.087  1.00  0.00    -0.237 OA
ATOM     85  O   UNL     1     -10.361  14.486  -2.962  1.00  0.00    -0.744 OA
ENDBRANCH  78  82
ENDBRANCH  51  75
BRANCH  63  86
ATOM     86  C   UNL     1     -14.393  12.706   6.264  1.00  0.00     0.023 A 
ATOM     87  C   UNL     1     -15.501  12.135   5.613  1.00  0.00     0.031 A 
ATOM     88  C   UNL     1     -14.577  13.932   6.929  1.00  0.00     0.131 A 
ATOM     89  C   UNL     1     -16.727  12.816   5.590  1.00  0.00     0.055 A 
ATOM     90  C   UNL     1     -15.814  14.578   6.950  1.00  0.00     0.041 A 
ATOM     91  F   UNL     1     -13.554  14.525   7.565  1.00  0.00    -0.206 F 
ATOM     92  C   UNL     1     -16.894  14.027   6.266  1.00  0.00     0.022 A 
BRANCH  89  93
ATOM     93  S   UNL     1     -18.079  12.147   4.581  1.00  0.00     0.124 S 
ATOM     94  O   UNL     1     -17.471  12.094   3.255  1.00  0.00    -0.237 OA
ATOM     95  O   UNL     1     -18.335  10.859   5.218  1.00  0.00    -0.237 OA
ATOM     96  O   UNL     1     -19.144  13.136   4.735  1.00  0.00    -0.744 OA
ENDBRANCH  89  93
ENDBRANCH  63  86
ENDBRANCH  37  38
ENDBRANCH  29  32
ENDBRANCH  27  28
ENDBRANCH  26  27
ENDBRANCH   1  26
TORSDOF 17
