REMARK SMILES CS(=O)(=O)CC(=O)N1CCO[C@@H](CC(=O)NCCCCNC(=O)c2ccc(-c3c4nc(c(-c5cc(S(=O)(=O)[O-])ccc5F)c5ccc([nH]5)c(-c5cc(S(=O)(=O)[O-])ccc5F)c5nc(c(-c6cc(S(=O)(=O)[O-])ccc6F)c6ccc3[nH]6)C=C5)C=C4)cc2)C1
REMARK SMILES IDX 18 1 17 2 16 3 14 4 15 5 13 7 12 8 8 9 9 10 87 11 10 12
REMARK SMILES IDX 11 13 6 14 7 15 5 16 2 17 1 18 3 19 4 20 19 21 20 22 21 23
REMARK SMILES IDX 22 24 23 26 24 27 25 28 86 29 26 30 85 31 27 32 28 33 29 34
REMARK SMILES IDX 79 35 30 36 84 37 78 38 80 39 31 40 83 41 77 42 76 43 32 45
REMARK SMILES IDX 64 46 44 47 63 48 45 49 48 50 62 51 81 52 46 53 47 54 61 56
REMARK SMILES IDX 82 57 49 58 33 59 34 60 42 61 35 62 41 63 43 64 40 65 36 66
REMARK SMILES IDX 37 67 38 68 39 69 65 70 66 71 74 72 67 73 73 74 75 75 72 76
REMARK SMILES IDX 68 77 69 78 70 79 71 80 50 81 51 82 59 83 52 84 58 85 60 86
REMARK SMILES IDX 57 87 53 88 54 89 55 90 56 91
REMARK H PARENT 16 6 21 25 80 44 48 55
REMARK Flexibility Score: inf
ROOT
ATOM      1  C   UNL     1       0.177   1.206   6.006  1.00  0.00     0.023 C 
ENDROOT
BRANCH   1   2
ATOM      2  C   UNL     1      -1.114   1.383   6.810  1.00  0.00     0.116 C 
BRANCH   2   3
ATOM      3  N   UNL     1      -1.468   2.790   6.935  1.00  0.00    -0.356 N 
ATOM      4  C   UNL     1      -2.421   3.526   6.294  1.00  0.00     0.222 C 
ATOM      5  O   UNL     1      -2.451   4.743   6.482  1.00  0.00    -0.275 OA
ATOM      6  H   UNL     1      -0.931   3.292   7.590  1.00  0.00     0.163 HD
BRANCH   4   7
ATOM      7  C   UNL     1      -3.404   2.871   5.349  1.00  0.00     0.133 C 
BRANCH   7   8
ATOM      8  C   UNL     1      -3.023   3.040   3.875  1.00  0.00     0.147 C 
ATOM      9  N   UNL     1      -1.313   2.248   2.194  1.00  0.00    -0.337 N 
ATOM     10  C   UNL     1      -2.401   1.598   1.472  1.00  0.00     0.148 C 
ATOM     11  C   UNL     1      -1.636   2.446   3.597  1.00  0.00     0.152 C 
ATOM     12  C   UNL     1      -3.711   2.344   1.702  1.00  0.00     0.182 C 
ATOM     13  O   UNL     1      -4.037   2.360   3.100  1.00  0.00    -0.374 OA
BRANCH   9  14
ATOM     14  C   UNL     1      -0.025   1.783   1.944  1.00  0.00     0.237 C 
ATOM     15  O   UNL     1       0.445   0.804   2.519  1.00  0.00    -0.274 OA
BRANCH  14  16
ATOM     16  C   UNL     1       0.787   2.614   1.005  1.00  0.00     0.236 C 
BRANCH  16  17
ATOM     17  S   UNL     1       0.862   1.883  -0.602  1.00  0.00     0.156 S 
ATOM     18  C   UNL     1       1.206   0.155  -0.350  1.00  0.00     0.158 C 
ATOM     19  O   UNL     1       2.008   2.457  -1.283  1.00  0.00    -0.229 OA
ATOM     20  O   UNL     1      -0.453   1.986  -1.212  1.00  0.00    -0.229 OA
ENDBRANCH  16  17
ENDBRANCH  14  16
ENDBRANCH   9  14
ENDBRANCH   7   8
ENDBRANCH   4   7
ENDBRANCH   2   3
ENDBRANCH   1   2
BRANCH   1  21
ATOM     21  C   UNL     1       1.463   1.302   6.809  1.00  0.00     0.023 C 
BRANCH  21  22
ATOM     22  C   UNL     1       1.704   0.124   7.733  1.00  0.00     0.116 C 
BRANCH  22  23
ATOM     23  N   UNL     1       1.800  -1.152   7.036  1.00  0.00    -0.352 N 
ATOM     24  C   UNL     1       2.702  -2.174   7.232  1.00  0.00     0.251 C 
ATOM     25  H   UNL     1       1.130  -1.304   6.331  1.00  0.00     0.163 HD
ATOM     26  O   UNL     1       2.703  -3.148   6.491  1.00  0.00    -0.269 OA
BRANCH  24  27
ATOM     27  C   UNL     1       3.700  -2.043   8.315  1.00  0.00     0.039 A 
ATOM     28  C   UNL     1       5.043  -2.303   8.036  1.00  0.00     0.014 A 
ATOM     29  C   UNL     1       3.315  -1.575   9.572  1.00  0.00     0.014 A 
ATOM     30  C   UNL     1       6.011  -2.011   8.998  1.00  0.00     0.010 A 
ATOM     31  C   UNL     1       4.285  -1.173  10.477  1.00  0.00     0.010 A 
ATOM     32  C   UNL     1       5.643  -1.401  10.209  1.00  0.00    -0.014 A 
BRANCH  32  33
ATOM     33  C   UNL     1       6.651  -1.022  11.230  1.00  0.00     0.031 A 
ATOM     34  C   UNL     1       6.566  -1.619  12.610  1.00  0.00     0.074 A 
ATOM     35  C   UNL     1       7.570  -0.077  10.952  1.00  0.00     0.049 A 
ATOM     36  N   UNL     1       7.265  -1.344  13.680  1.00  0.00    -0.248 NA
ATOM     37  C   UNL     1       5.506  -2.616  12.826  1.00  0.00     0.031 C 
ATOM     38  C   UNL     1       7.694   0.637   9.678  1.00  0.00     0.029 A 
ATOM     39  N   UNL     1       8.564   0.459  11.729  1.00  0.00    -0.354 N 
ATOM     40  C   UNL     1       6.702  -2.102  14.701  1.00  0.00     0.074 A 
ATOM     41  C   UNL     1       5.555  -2.779  14.137  1.00  0.00     0.031 C 
ATOM     42  C   UNL     1       8.720   1.499   9.756  1.00  0.00     0.029 A 
ATOM     43  C   UNL     1       9.304   1.427  11.091  1.00  0.00     0.049 A 
ATOM     44  H   UNL     1       8.733   0.178  12.658  1.00  0.00     0.167 HD
ATOM     45  C   UNL     1       7.123  -2.247  15.983  1.00  0.00     0.034 A 
ATOM     46  C   UNL     1      10.333   2.174  11.536  1.00  0.00     0.034 A 
ATOM     47  C   UNL     1       8.298  -1.595  16.506  1.00  0.00     0.049 A 
ATOM     48  C   UNL     1      10.829   1.958  12.941  1.00  0.00     0.074 A 
ATOM     49  C   UNL     1       8.886  -1.740  17.750  1.00  0.00     0.029 A 
ATOM     50  N   UNL     1       9.066  -0.668  15.809  1.00  0.00    -0.354 N 
ATOM     51  N   UNL     1      10.343   1.172  13.875  1.00  0.00    -0.248 NA
ATOM     52  C   UNL     1      12.021   2.711  13.344  1.00  0.00     0.031 C 
ATOM     53  C   UNL     1       9.971  -0.859  17.826  1.00  0.00     0.029 A 
ATOM     54  C   UNL     1      10.105  -0.213  16.606  1.00  0.00     0.049 A 
ATOM     55  H   UNL     1       8.896  -0.378  14.884  1.00  0.00     0.167 HD
ATOM     56  C   UNL     1      11.184   1.323  14.973  1.00  0.00     0.074 A 
ATOM     57  C   UNL     1      12.216   2.261  14.576  1.00  0.00     0.031 C 
ATOM     58  C   UNL     1      11.113   0.737  16.197  1.00  0.00     0.034 A 
BRANCH  45  59
ATOM     59  C   UNL     1       6.289  -3.126  16.889  1.00  0.00     0.023 A 
ATOM     60  C   UNL     1       6.054  -4.481  16.593  1.00  0.00     0.031 A 
ATOM     61  C   UNL     1       5.654  -2.584  18.020  1.00  0.00     0.131 A 
ATOM     62  C   UNL     1       5.119  -5.211  17.342  1.00  0.00     0.055 A 
ATOM     63  C   UNL     1       4.803  -3.347  18.823  1.00  0.00     0.041 A 
ATOM     64  F   UNL     1       5.823  -1.294  18.348  1.00  0.00    -0.206 F 
ATOM     65  C   UNL     1       4.510  -4.662  18.471  1.00  0.00     0.022 A 
BRANCH  62  66
ATOM     66  S   UNL     1       4.562  -6.814  16.697  1.00  0.00     0.124 S 
ATOM     67  O   UNL     1       4.063  -6.441  15.375  1.00  0.00    -0.237 OA
ATOM     68  O   UNL     1       5.787  -7.604  16.718  1.00  0.00    -0.237 OA
ATOM     69  O   UNL     1       3.533  -7.228  17.648  1.00  0.00    -0.744 OA
ENDBRANCH  62  66
ENDBRANCH  45  59
BRANCH  46  70
ATOM     70  C   UNL     1      10.961   3.186  10.641  1.00  0.00     0.023 A 
ATOM     71  C   UNL     1      12.259   3.005  10.139  1.00  0.00     0.031 A 
ATOM     72  C   UNL     1      10.264   4.349  10.271  1.00  0.00     0.131 A 
ATOM     73  C   UNL     1      12.833   3.988   9.316  1.00  0.00     0.055 A 
ATOM     74  C   UNL     1      10.824   5.305   9.421  1.00  0.00     0.041 A 
ATOM     75  F   UNL     1       9.014   4.561  10.712  1.00  0.00    -0.206 F 
ATOM     76  C   UNL     1      12.120   5.130   8.945  1.00  0.00     0.022 A 
BRANCH  73  77
ATOM     77  S   UNL     1      14.548   3.769   8.765  1.00  0.00     0.124 S 
ATOM     78  O   UNL     1      15.267   3.744  10.033  1.00  0.00    -0.237 OA
ATOM     79  O   UNL     1      14.475   2.504   8.043  1.00  0.00    -0.237 OA
ATOM     80  O   UNL     1      14.790   4.945   7.932  1.00  0.00    -0.744 OA
ENDBRANCH  73  77
ENDBRANCH  46  70
BRANCH  58  81
ATOM     81  C   UNL     1      12.206   1.077  17.178  1.00  0.00     0.023 A 
ATOM     82  C   UNL     1      12.330   2.365  17.728  1.00  0.00     0.031 A 
ATOM     83  C   UNL     1      13.140   0.099  17.562  1.00  0.00     0.131 A 
ATOM     84  C   UNL     1      13.396   2.655  18.592  1.00  0.00     0.055 A 
ATOM     85  C   UNL     1      14.165   0.378  18.467  1.00  0.00     0.041 A 
ATOM     86  F   UNL     1      13.069  -1.146  17.065  1.00  0.00    -0.206 F 
ATOM     87  C   UNL     1      14.304   1.665  18.978  1.00  0.00     0.022 A 
BRANCH  84  88
ATOM     88  S   UNL     1      13.634   4.368  19.136  1.00  0.00     0.124 S 
ATOM     89  O   UNL     1      13.782   5.072  17.866  1.00  0.00    -0.237 OA
ATOM     90  O   UNL     1      12.403   4.635  19.874  1.00  0.00    -0.237 OA
ATOM     91  O   UNL     1      14.844   4.303  19.954  1.00  0.00    -0.744 OA
ENDBRANCH  84  88
ENDBRANCH  58  81
ENDBRANCH  32  33
ENDBRANCH  24  27
ENDBRANCH  22  23
ENDBRANCH  21  22
ENDBRANCH   1  21
TORSDOF 18
