REMARK SMILES C[C@@H]1CC[C@H]([N@@H+](CC(=O)NCCCCNC(=O)c2ccc(-c3c4nc(c(-c5cc(S(=O)(=O)[O-])ccc5F)c5ccc([nH]5)c(-c5cc(S(=O)(=O)[O-])ccc5F)c5nc(c(-c6cc(S(=O)(=O)[O-])ccc6F)c6ccc3[nH]6)C=C5)C=C4)cc2)CC(F)(F)F)C[C@@H]1C
REMARK SMILES IDX 12 1 11 2 10 3 8 4 9 5 7 7 6 8 5 10 1 11 2 12 3 13 87 14
REMARK SMILES IDX 4 15 86 16 88 17 81 18 82 19 83 20 84 21 85 22 13 23 14 24
REMARK SMILES IDX 15 25 16 26 17 28 18 29 19 30 80 31 20 32 79 33 21 34 22 35
REMARK SMILES IDX 23 36 73 37 24 38 78 39 72 40 74 41 25 42 77 43 71 44 70 45
REMARK SMILES IDX 26 47 58 48 38 49 57 50 39 51 42 52 56 53 75 54 40 55 41 56
REMARK SMILES IDX 55 58 76 59 43 60 27 61 28 62 36 63 29 64 35 65 37 66 34 67
REMARK SMILES IDX 30 68 31 69 32 70 33 71 59 72 60 73 68 74 61 75 67 76 69 77
REMARK SMILES IDX 66 78 62 79 63 80 64 81 65 82 44 83 45 84 53 85 46 86 52 87
REMARK SMILES IDX 54 88 51 89 47 90 48 91 49 92 50 93
REMARK H PARENT 10 6 6 9 15 27 74 46 42 57
REMARK Flexibility Score: inf
ROOT
ATOM      1  C   UNL     1       0.989  -2.318  -4.042  1.00  0.00     0.023 C 
ENDROOT
BRANCH   1   2
ATOM      2  C   UNL     1       2.358  -2.898  -4.438  1.00  0.00     0.116 C 
BRANCH   2   3
ATOM      3  N   UNL     1       3.519  -2.252  -3.837  1.00  0.00    -0.351 N 
ATOM      4  C   UNL     1       4.444  -2.678  -2.923  1.00  0.00     0.275 C 
ATOM      5  O   UNL     1       5.468  -1.999  -2.813  1.00  0.00    -0.269 OA
ATOM      6  H   UNL     1       3.665  -1.330  -4.149  1.00  0.00     0.163 HD
BRANCH   4   7
ATOM      7  C   UNL     1       4.207  -3.909  -2.028  1.00  0.00     0.364 C 
BRANCH   7   8
ATOM      8  N   UNL     1       3.740  -3.606  -0.644  1.00  0.00    -0.317 N 
ATOM      9  H   UNL     1       3.208  -4.427  -0.355  1.00  0.00     0.349 HD
BRANCH   8  10
ATOM     10  C   UNL     1       2.728  -2.555  -0.588  1.00  0.00     0.184 C 
ATOM     11  C   UNL     1       0.872   0.431   1.235  1.00  0.00     0.008 C 
ATOM     12  C   UNL     1       0.846  -0.314  -0.098  1.00  0.00    -0.011 C 
ATOM     13  C   UNL     1       0.435  -1.799   0.099  1.00  0.00     0.010 C 
ATOM     14  C   UNL     1       2.165  -0.171  -0.890  1.00  0.00    -0.006 C 
ATOM     15  C   UNL     1       1.584  -2.780   0.411  1.00  0.00     0.065 C 
ATOM     16  C   UNL     1       3.242  -1.126  -0.388  1.00  0.00     0.068 C 
ATOM     17  C   UNL     1       2.704   1.244  -1.074  1.00  0.00     0.008 C 
ENDBRANCH   8  10
BRANCH   8  18
ATOM     18  C   UNL     1       4.771  -3.646   0.416  1.00  0.00     0.379 C 
BRANCH  18  19
ATOM     19  C   UNL     1       5.984  -2.691   0.544  1.00  0.00     0.438 C 
ATOM     20  F   UNL     1       5.639  -1.441   0.907  1.00  0.00    -0.165 F 
ATOM     21  F   UNL     1       6.805  -3.156   1.526  1.00  0.00    -0.165 F 
ATOM     22  F   UNL     1       6.725  -2.634  -0.577  1.00  0.00    -0.165 F 
ENDBRANCH  18  19
ENDBRANCH   8  18
ENDBRANCH   7   8
ENDBRANCH   4   7
ENDBRANCH   2   3
ENDBRANCH   1   2
BRANCH   1  23
ATOM     23  C   UNL     1       0.866  -0.795  -4.126  1.00  0.00     0.023 C 
BRANCH  23  24
ATOM     24  C   UNL     1       0.576  -0.236  -5.506  1.00  0.00     0.116 C 
BRANCH  24  25
ATOM     25  N   UNL     1      -0.851  -0.089  -5.740  1.00  0.00    -0.352 N 
ATOM     26  C   UNL     1      -1.633   1.043  -5.797  1.00  0.00     0.251 C 
ATOM     27  H   UNL     1      -1.335  -0.935  -5.879  1.00  0.00     0.163 HD
ATOM     28  O   UNL     1      -2.854   0.912  -5.732  1.00  0.00    -0.269 OA
BRANCH  26  29
ATOM     29  C   UNL     1      -1.044   2.404  -5.933  1.00  0.00     0.039 A 
ATOM     30  C   UNL     1      -1.741   3.506  -5.416  1.00  0.00     0.014 A 
ATOM     31  C   UNL     1       0.135   2.628  -6.646  1.00  0.00     0.014 A 
ATOM     32  C   UNL     1      -1.256   4.808  -5.609  1.00  0.00     0.010 A 
ATOM     33  C   UNL     1       0.678   3.907  -6.735  1.00  0.00     0.010 A 
ATOM     34  C   UNL     1      -0.039   5.019  -6.272  1.00  0.00    -0.014 A 
BRANCH  34  35
ATOM     35  C   UNL     1       0.445   6.377  -6.648  1.00  0.00     0.031 A 
ATOM     36  C   UNL     1       0.608   6.702  -8.116  1.00  0.00     0.074 A 
ATOM     37  C   UNL     1       0.801   7.277  -5.711  1.00  0.00     0.049 A 
ATOM     38  N   UNL     1       1.193   7.724  -8.686  1.00  0.00    -0.248 NA
ATOM     39  C   UNL     1       0.085   5.709  -9.069  1.00  0.00     0.031 C 
ATOM     40  C   UNL     1       0.703   7.080  -4.265  1.00  0.00     0.029 A 
ATOM     41  N   UNL     1       1.336   8.536  -5.838  1.00  0.00    -0.354 N 
ATOM     42  C   UNL     1       1.156   7.466 -10.055  1.00  0.00     0.074 A 
ATOM     43  C   UNL     1       0.545   6.167 -10.222  1.00  0.00     0.031 C 
ATOM     44  C   UNL     1       1.145   8.185  -3.640  1.00  0.00     0.029 A 
ATOM     45  C   UNL     1       1.606   9.149  -4.636  1.00  0.00     0.049 A 
ATOM     46  H   UNL     1       1.510   8.960  -6.710  1.00  0.00     0.167 HD
ATOM     47  C   UNL     1       1.571   8.251 -11.079  1.00  0.00     0.034 A 
ATOM     48  C   UNL     1       2.176  10.343  -4.372  1.00  0.00     0.034 A 
ATOM     49  C   UNL     1       2.113   9.573 -10.894  1.00  0.00     0.049 A 
ATOM     50  C   UNL     1       2.611  11.211  -5.530  1.00  0.00     0.074 A 
ATOM     51  C   UNL     1       2.503  10.489 -11.855  1.00  0.00     0.029 A 
ATOM     52  N   UNL     1       2.328  10.174  -9.660  1.00  0.00    -0.354 N 
ATOM     53  N   UNL     1       2.551  10.962  -6.819  1.00  0.00    -0.248 NA
ATOM     54  C   UNL     1       3.177  12.526  -5.200  1.00  0.00     0.031 C 
ATOM     55  C   UNL     1       3.003  11.620 -11.203  1.00  0.00     0.029 A 
ATOM     56  C   UNL     1       2.856  11.441  -9.836  1.00  0.00     0.049 A 
ATOM     57  H   UNL     1       2.132   9.759  -8.789  1.00  0.00     0.167 HD
ATOM     58  C   UNL     1       3.028  12.109  -7.450  1.00  0.00     0.074 A 
ATOM     59  C   UNL     1       3.368  13.049  -6.402  1.00  0.00     0.031 C 
ATOM     60  C   UNL     1       3.166  12.367  -8.775  1.00  0.00     0.034 A 
BRANCH  47  61
ATOM     61  C   UNL     1       1.470   7.693 -12.480  1.00  0.00     0.023 A 
ATOM     62  C   UNL     1       0.234   7.352 -13.059  1.00  0.00     0.031 A 
ATOM     63  C   UNL     1       2.632   7.478 -13.243  1.00  0.00     0.131 A 
ATOM     64  C   UNL     1       0.196   6.741 -14.322  1.00  0.00     0.055 A 
ATOM     65  C   UNL     1       2.579   6.950 -14.535  1.00  0.00     0.041 A 
ATOM     66  F   UNL     1       3.843   7.764 -12.740  1.00  0.00    -0.206 F 
ATOM     67  C   UNL     1       1.357   6.564 -15.076  1.00  0.00     0.022 A 
BRANCH  64  68
ATOM     68  S   UNL     1      -1.379   6.054 -14.902  1.00  0.00     0.124 S 
ATOM     69  O   UNL     1      -1.658   5.052 -13.876  1.00  0.00    -0.237 OA
ATOM     70  O   UNL     1      -2.251   7.221 -14.910  1.00  0.00    -0.237 OA
ATOM     71  O   UNL     1      -1.051   5.511 -16.220  1.00  0.00    -0.744 OA
ENDBRANCH  64  68
ENDBRANCH  47  61
BRANCH  48  72
ATOM     72  C   UNL     1       2.374  10.800  -2.965  1.00  0.00     0.023 A 
ATOM     73  C   UNL     1       1.718  11.944  -2.481  1.00  0.00     0.031 A 
ATOM     74  C   UNL     1       3.262  10.137  -2.099  1.00  0.00     0.131 A 
ATOM     75  C   UNL     1       2.000  12.423  -1.192  1.00  0.00     0.055 A 
ATOM     76  C   UNL     1       3.496  10.585  -0.797  1.00  0.00     0.041 A 
ATOM     77  F   UNL     1       3.914   9.037  -2.507  1.00  0.00    -0.206 F 
ATOM     78  C   UNL     1       2.875  11.744  -0.342  1.00  0.00     0.022 A 
BRANCH  75  79
ATOM     79  S   UNL     1       1.283  14.009  -0.681  1.00  0.00     0.124 S 
ATOM     80  O   UNL     1       1.755  14.902  -1.734  1.00  0.00    -0.237 OA
ATOM     81  O   UNL     1      -0.145  13.710  -0.684  1.00  0.00    -0.237 OA
ATOM     82  O   UNL     1       1.868  14.237   0.639  1.00  0.00    -0.744 OA
ENDBRANCH  75  79
ENDBRANCH  48  72
BRANCH  60  83
ATOM     83  C   UNL     1       3.626  13.749  -9.166  1.00  0.00     0.023 A 
ATOM     84  C   UNL     1       4.934  14.196  -8.918  1.00  0.00     0.031 A 
ATOM     85  C   UNL     1       2.736  14.621  -9.818  1.00  0.00     0.131 A 
ATOM     86  C   UNL     1       5.303  15.500  -9.282  1.00  0.00     0.055 A 
ATOM     87  C   UNL     1       3.125  15.896 -10.227  1.00  0.00     0.041 A 
ATOM     88  F   UNL     1       1.475  14.240 -10.079  1.00  0.00    -0.206 F 
ATOM     89  C   UNL     1       4.412  16.346  -9.950  1.00  0.00     0.022 A 
BRANCH  86  90
ATOM     90  S   UNL     1       6.947  16.104  -8.812  1.00  0.00     0.124 S 
ATOM     91  O   UNL     1       6.906  15.993  -7.357  1.00  0.00    -0.237 OA
ATOM     92  O   UNL     1       7.832  15.168  -9.498  1.00  0.00    -0.237 OA
ATOM     93  O   UNL     1       6.972  17.471  -9.329  1.00  0.00    -0.744 OA
ENDBRANCH  86  90
ENDBRANCH  60  83
ENDBRANCH  34  35
ENDBRANCH  26  29
ENDBRANCH  24  25
ENDBRANCH  23  24
ENDBRANCH   1  23
TORSDOF 18
