REMARK SMILES O=C(NCCCCNC(=O)[C@@H](Cc1ccc(O)cc1)Nc1c2ccccc2nc2ccccc12)c1ccc(-c2c3nc(c(-c4cc(S(=O)(=O)[O-])ccc4F)c4ccc([nH]4)c(-c4cc(S(=O)(=O)[O-])ccc4F)c4nc(c(-c5cc(S(=O)(=O)[O-])ccc5F)c5ccc2[nH]5)C=C4)C=C3)cc1
REMARK SMILES IDX 5 1 4 2 3 3 1 4 2 5 35 7 36 8 97 9 37 10 96 11 38 12 39 13
REMARK SMILES IDX 40 14 90 15 41 16 95 17 89 18 91 19 42 20 94 21 88 22 87 23
REMARK SMILES IDX 43 25 75 26 55 27 74 28 56 29 59 30 73 31 92 32 57 33 58 34
REMARK SMILES IDX 72 36 93 37 60 38 44 39 45 40 53 41 46 42 52 43 54 44 51 45
REMARK SMILES IDX 47 46 48 47 49 48 50 49 76 50 77 51 85 52 78 53 84 54 86 55
REMARK SMILES IDX 83 56 79 57 80 58 81 59 82 60 61 61 62 62 70 63 63 64 69 65
REMARK SMILES IDX 71 66 68 67 64 68 65 69 66 70 67 71 6 72 7 73 8 74 9 75
REMARK SMILES IDX 10 77 11 78 12 79 13 80 14 81 19 82 15 83 18 84 16 85 17 86
REMARK SMILES IDX 20 88 21 90 22 91 34 92 23 93 27 94 29 95 33 96 24 97 26 98
REMARK SMILES IDX 28 99 30 100 32 101 25 102 31 103
REMARK H PARENT 3 6 91 24 59 35 8 76 17 87 20 89
REMARK Flexibility Score: inf
ROOT
ATOM      1  C   UNL     1       5.623  -2.160   0.674  1.00  0.00     0.023 C 
ENDROOT
BRANCH   1   2
ATOM      2  C   UNL     1       4.944  -0.883   0.195  1.00  0.00     0.116 C 
BRANCH   2   3
ATOM      3  N   UNL     1       3.511  -1.008  -0.059  1.00  0.00    -0.352 N 
ATOM      4  O   UNL     1       1.359  -0.300  -0.119  1.00  0.00    -0.269 OA
ATOM      5  C   UNL     1       2.538  -0.043   0.110  1.00  0.00     0.251 C 
ATOM      6  H   UNL     1       3.203  -1.883  -0.388  1.00  0.00     0.163 HD
BRANCH   5   7
ATOM      7  C   UNL     1       2.959   1.282   0.624  1.00  0.00     0.039 A 
ATOM      8  C   UNL     1       4.027   1.945   0.018  1.00  0.00     0.014 A 
ATOM      9  C   UNL     1       2.419   1.762   1.819  1.00  0.00     0.014 A 
ATOM     10  C   UNL     1       4.697   2.939   0.721  1.00  0.00     0.010 A 
ATOM     11  C   UNL     1       3.034   2.839   2.471  1.00  0.00     0.010 A 
ATOM     12  C   UNL     1       4.226   3.387   1.968  1.00  0.00    -0.014 A 
BRANCH  12  13
ATOM     13  C   UNL     1       5.032   4.388   2.729  1.00  0.00     0.031 A 
ATOM     14  C   UNL     1       5.613   4.058   4.085  1.00  0.00     0.074 A 
ATOM     15  C   UNL     1       5.317   5.574   2.156  1.00  0.00     0.049 A 
ATOM     16  N   UNL     1       6.368   4.794   4.863  1.00  0.00    -0.248 NA
ATOM     17  C   UNL     1       5.296   2.736   4.646  1.00  0.00     0.031 C 
ATOM     18  C   UNL     1       4.826   6.013   0.848  1.00  0.00     0.029 A 
ATOM     19  N   UNL     1       6.119   6.607   2.572  1.00  0.00    -0.354 N 
ATOM     20  C   UNL     1       6.580   4.047   6.020  1.00  0.00     0.074 A 
ATOM     21  C   UNL     1       5.855   2.806   5.846  1.00  0.00     0.031 C 
ATOM     22  C   UNL     1       5.398   7.184   0.534  1.00  0.00     0.029 A 
ATOM     23  C   UNL     1       6.232   7.620   1.648  1.00  0.00     0.049 A 
ATOM     24  H   UNL     1       6.569   6.622   3.447  1.00  0.00     0.167 HD
ATOM     25  C   UNL     1       7.310   4.364   7.120  1.00  0.00     0.034 A 
ATOM     26  C   UNL     1       6.919   8.778   1.690  1.00  0.00     0.034 A 
ATOM     27  C   UNL     1       8.062   5.590   7.268  1.00  0.00     0.049 A 
ATOM     28  C   UNL     1       7.726   9.103   2.915  1.00  0.00     0.074 A 
ATOM     29  C   UNL     1       8.859   5.992   8.327  1.00  0.00     0.029 A 
ATOM     30  N   UNL     1       8.113   6.612   6.328  1.00  0.00    -0.354 N 
ATOM     31  N   UNL     1       7.896   8.390   4.004  1.00  0.00    -0.248 NA
ATOM     32  C   UNL     1       8.430  10.390   2.917  1.00  0.00     0.031 C 
ATOM     33  C   UNL     1       9.344   7.277   8.053  1.00  0.00     0.029 A 
ATOM     34  C   UNL     1       8.907   7.651   6.793  1.00  0.00     0.049 A 
ATOM     35  H   UNL     1       7.653   6.600   5.458  1.00  0.00     0.167 HD
ATOM     36  C   UNL     1       8.738   9.142   4.818  1.00  0.00     0.074 A 
ATOM     37  C   UNL     1       9.059  10.348   4.082  1.00  0.00     0.031 C 
ATOM     38  C   UNL     1       9.203   8.859   6.061  1.00  0.00     0.034 A 
BRANCH  25  39
ATOM     39  C   UNL     1       7.286   3.390   8.278  1.00  0.00     0.023 A 
ATOM     40  C   UNL     1       7.821   2.094   8.179  1.00  0.00     0.031 A 
ATOM     41  C   UNL     1       6.690   3.762   9.498  1.00  0.00     0.131 A 
ATOM     42  C   UNL     1       7.685   1.196   9.250  1.00  0.00     0.055 A 
ATOM     43  C   UNL     1       6.628   2.889  10.587  1.00  0.00     0.041 A 
ATOM     44  F   UNL     1       6.146   4.980   9.649  1.00  0.00    -0.206 F 
ATOM     45  C   UNL     1       7.112   1.591  10.461  1.00  0.00     0.022 A 
BRANCH  42  46
ATOM     46  S   UNL     1       8.132  -0.543   8.986  1.00  0.00     0.124 S 
ATOM     47  O   UNL     1       7.311  -0.888   7.828  1.00  0.00    -0.237 OA
ATOM     48  O   UNL     1       9.569  -0.466   8.749  1.00  0.00    -0.237 OA
ATOM     49  O   UNL     1       7.738  -1.193  10.234  1.00  0.00    -0.744 OA
ENDBRANCH  42  46
ENDBRANCH  25  39
BRANCH  26  50
ATOM     50  C   UNL     1       6.851   9.725   0.543  1.00  0.00     0.023 A 
ATOM     51  C   UNL     1       7.985  10.002  -0.235  1.00  0.00     0.031 A 
ATOM     52  C   UNL     1       5.646  10.371   0.213  1.00  0.00     0.131 A 
ATOM     53  C   UNL     1       7.897  10.923  -1.290  1.00  0.00     0.055 A 
ATOM     54  C   UNL     1       5.553  11.249  -0.866  1.00  0.00     0.041 A 
ATOM     55  F   UNL     1       4.532  10.133   0.924  1.00  0.00    -0.206 F 
ATOM     56  C   UNL     1       6.686  11.537  -1.620  1.00  0.00     0.022 A 
BRANCH  53  57
ATOM     57  S   UNL     1       9.407  11.350  -2.199  1.00  0.00     0.124 S 
ATOM     58  O   UNL     1      10.252  11.887  -1.138  1.00  0.00    -0.237 OA
ATOM     59  O   UNL     1       9.807  10.058  -2.746  1.00  0.00    -0.237 OA
ATOM     60  O   UNL     1       8.946  12.325  -3.185  1.00  0.00    -0.744 OA
ENDBRANCH  53  57
ENDBRANCH  26  50
BRANCH  38  61
ATOM     61  C   UNL     1      10.136   9.870   6.678  1.00  0.00     0.023 A 
ATOM     62  C   UNL     1       9.690  11.149   7.058  1.00  0.00     0.031 A 
ATOM     63  C   UNL     1      11.498   9.566   6.844  1.00  0.00     0.131 A 
ATOM     64  C   UNL     1      10.611  12.099   7.525  1.00  0.00     0.055 A 
ATOM     65  C   UNL     1      12.400  10.498   7.361  1.00  0.00     0.041 A 
ATOM     66  F   UNL     1      11.976   8.361   6.495  1.00  0.00    -0.206 F 
ATOM     67  C   UNL     1      11.961  11.777   7.691  1.00  0.00     0.022 A 
BRANCH  64  68
ATOM     68  S   UNL     1      10.040  13.796   7.814  1.00  0.00     0.124 S 
ATOM     69  O   UNL     1       9.484  14.156   6.514  1.00  0.00    -0.237 OA
ATOM     70  O   UNL     1       9.073  13.620   8.894  1.00  0.00    -0.237 OA
ATOM     71  O   UNL     1      11.260  14.510   8.186  1.00  0.00    -0.744 OA
ENDBRANCH  64  68
ENDBRANCH  38  61
ENDBRANCH  12  13
ENDBRANCH   5   7
ENDBRANCH   2   3
ENDBRANCH   1   2
BRANCH   1  72
ATOM     72  C   UNL     1       5.469  -3.354  -0.257  1.00  0.00     0.023 C 
BRANCH  72  73
ATOM     73  C   UNL     1       6.054  -3.172  -1.657  1.00  0.00     0.116 C 
BRANCH  73  74
ATOM     74  N   UNL     1       7.226  -3.996  -1.840  1.00  0.00    -0.354 N 
ATOM     75  C   UNL     1       7.386  -5.274  -2.269  1.00  0.00     0.242 C 
ATOM     76  H   UNL     1       8.071  -3.545  -1.610  1.00  0.00     0.163 HD
ATOM     77  O   UNL     1       8.532  -5.733  -2.161  1.00  0.00    -0.273 OA
BRANCH  75  78
ATOM     78  C   UNL     1       6.265  -6.152  -2.893  1.00  0.00     0.173 C 
BRANCH  78  79
ATOM     79  C   UNL     1       5.162  -6.634  -1.917  1.00  0.00     0.070 C 
BRANCH  79  80
ATOM     80  C   UNL     1       3.883  -5.892  -1.572  1.00  0.00    -0.045 A 
ATOM     81  C   UNL     1       3.216  -4.989  -2.411  1.00  0.00     0.007 A 
ATOM     82  C   UNL     1       3.282  -6.192  -0.331  1.00  0.00     0.007 A 
ATOM     83  C   UNL     1       2.085  -4.288  -1.963  1.00  0.00     0.046 A 
ATOM     84  C   UNL     1       2.132  -5.528   0.101  1.00  0.00     0.046 A 
ATOM     85  C   UNL     1       1.569  -4.547  -0.700  1.00  0.00     0.115 A 
BRANCH  85  86
ATOM     86  O   UNL     1       0.507  -3.852  -0.205  1.00  0.00    -0.508 OA
ATOM     87  H   UNL     1       0.104  -3.182  -0.722  1.00  0.00     0.293 HD
ENDBRANCH  85  86
ENDBRANCH  79  80
ENDBRANCH  78  79
BRANCH  78  88
ATOM     88  N   UNL     1       5.773  -5.605  -4.162  1.00  0.00    -0.372 N 
ATOM     89  H   UNL     1       5.364  -4.712  -4.100  1.00  0.00     0.161 HD
BRANCH  88  90
ATOM     90  C   UNL     1       5.797  -6.162  -5.452  1.00  0.00     0.054 A 
ATOM     91  C   UNL     1       5.885  -7.575  -5.750  1.00  0.00     0.024 A 
ATOM     92  C   UNL     1       5.699  -5.239  -6.563  1.00  0.00     0.024 A 
ATOM     93  C   UNL     1       5.909  -8.672  -4.838  1.00  0.00     0.012 A 
ATOM     94  C   UNL     1       5.936  -7.940  -7.115  1.00  0.00     0.073 A 
ATOM     95  C   UNL     1       5.722  -5.777  -7.865  1.00  0.00     0.073 A 
ATOM     96  C   UNL     1       5.589  -3.819  -6.468  1.00  0.00     0.012 A 
ATOM     97  C   UNL     1       6.054 -10.006  -5.233  1.00  0.00     0.001 A 
ATOM     98  C   UNL     1       6.071  -9.270  -7.497  1.00  0.00     0.029 A 
ATOM     99  N   UNL     1       5.851  -7.075  -8.123  1.00  0.00    -0.248 NA
ATOM    100  C   UNL     1       5.615  -4.945  -8.973  1.00  0.00     0.029 A 
ATOM    101  C   UNL     1       5.491  -2.996  -7.594  1.00  0.00     0.001 A 
ATOM    102  C   UNL     1       6.147 -10.307  -6.574  1.00  0.00     0.002 A 
ATOM    103  C   UNL     1       5.497  -3.564  -8.854  1.00  0.00     0.002 A 
ENDBRANCH  88  90
ENDBRANCH  78  88
ENDBRANCH  75  78
ENDBRANCH  73  74
ENDBRANCH  72  73
ENDBRANCH   1  72
TORSDOF 19
