REMARK SMILES C[C@@H]1CN(c2cc(C(=O)NCCCCNC(=O)c3ccc(-c4c5nc(c(-c6cc(S(=O)(=O)[O-])ccc6F)c6ccc([nH]6)c(-c6cc(S(=O)(=O)[O-])ccc6F)c6nc(c(-c7cc(S(=O)(=O)[O-])ccc7F)c7ccc4[nH]7)C=C6)C=C5)cc3)c(F)cc2F)S(=O)(=O)C1
REMARK SMILES IDX 13 1 12 2 11 3 10 4 8 5 9 6 7 8 5 9 6 10 84 11 83 12 85 13
REMARK SMILES IDX 81 14 82 15 4 16 1 17 2 18 3 19 89 20 86 21 87 22 88 23
REMARK SMILES IDX 14 24 15 25 16 26 17 28 18 29 19 30 80 31 20 32 79 33 21 34
REMARK SMILES IDX 22 35 23 36 73 37 24 38 78 39 72 40 74 41 25 42 77 43 71 44
REMARK SMILES IDX 70 45 26 47 58 48 38 49 57 50 39 51 42 52 56 53 75 54 40 55
REMARK SMILES IDX 41 56 55 58 76 59 43 60 27 61 28 62 36 63 29 64 35 65 37 66
REMARK SMILES IDX 34 67 30 68 31 69 32 70 33 71 59 72 60 73 68 74 61 75 67 76
REMARK SMILES IDX 69 77 66 78 62 79 63 80 64 81 65 82 44 83 45 84 53 85 46 86
REMARK SMILES IDX 52 87 54 88 51 89 47 90 48 91 49 92 50 93
REMARK H PARENT 10 7 15 27 74 46 42 57
REMARK Flexibility Score: inf
ROOT
ATOM      1  C   UNL     1       5.638  -3.665  10.194  1.00  0.00     0.023 C 
ENDROOT
BRANCH   1   2
ATOM      2  C   UNL     1       5.757  -3.793   8.681  1.00  0.00     0.023 C 
BRANCH   2   3
ATOM      3  C   UNL     1       4.682  -4.615   7.985  1.00  0.00     0.116 C 
BRANCH   3   4
ATOM      4  N   UNL     1       3.387  -3.969   7.936  1.00  0.00    -0.352 N 
ATOM      5  C   UNL     1       2.513  -3.695   6.917  1.00  0.00     0.254 C 
ATOM      6  O   UNL     1       1.464  -3.129   7.236  1.00  0.00    -0.269 OA
ATOM      7  H   UNL     1       3.068  -3.664   8.817  1.00  0.00     0.163 HD
BRANCH   5   8
ATOM      8  C   UNL     1       2.761  -3.934   5.465  1.00  0.00     0.077 A 
ATOM      9  C   UNL     1       2.118  -3.289   3.197  1.00  0.00     0.088 A 
ATOM     10  C   UNL     1       1.967  -3.178   4.580  1.00  0.00     0.047 A 
ATOM     11  C   UNL     1       3.196  -4.012   2.690  1.00  0.00     0.150 A 
ATOM     12  C   UNL     1       3.935  -4.830   3.529  1.00  0.00     0.081 A 
ATOM     13  F   UNL     1       3.505  -3.962   1.386  1.00  0.00    -0.205 F 
ATOM     14  C   UNL     1       3.649  -4.848   4.896  1.00  0.00     0.139 A 
ATOM     15  F   UNL     1       4.200  -5.843   5.601  1.00  0.00    -0.206 F 
BRANCH   9  16
ATOM     16  N   UNL     1       1.152  -2.622   2.381  1.00  0.00    -0.267 N 
ATOM     17  C   UNL     1       1.034   0.136  -0.190  1.00  0.00     0.011 C 
ATOM     18  C   UNL     1       0.565  -1.031   0.660  1.00  0.00     0.023 C 
ATOM     19  C   UNL     1       1.442  -1.252   1.902  1.00  0.00     0.140 C 
ATOM     20  C   UNL     1       0.585  -2.358  -0.093  1.00  0.00     0.165 C 
ATOM     21  S   UNL     1       0.318  -3.555   1.198  1.00  0.00     0.235 S 
ATOM     22  O   UNL     1       1.019  -4.778   0.874  1.00  0.00    -0.206 OA
ATOM     23  O   UNL     1      -1.087  -3.546   1.534  1.00  0.00    -0.206 OA
ENDBRANCH   9  16
ENDBRANCH   5   8
ENDBRANCH   3   4
ENDBRANCH   2   3
ENDBRANCH   1   2
BRANCH   1  24
ATOM     24  C   UNL     1       5.456  -4.971  10.957  1.00  0.00     0.116 C 
BRANCH  24  25
ATOM     25  N   UNL     1       6.456  -5.981  10.640  1.00  0.00    -0.352 N 
ATOM     26  C   UNL     1       7.179  -6.783  11.493  1.00  0.00     0.251 C 
ATOM     27  H   UNL     1       6.641  -6.107   9.681  1.00  0.00     0.163 HD
ATOM     28  O   UNL     1       8.066  -7.506  11.050  1.00  0.00    -0.269 OA
BRANCH  26  29
ATOM     29  C   UNL     1       6.907  -6.727  12.944  1.00  0.00     0.039 A 
ATOM     30  C   UNL     1       7.978  -6.599  13.830  1.00  0.00     0.014 A 
ATOM     31  C   UNL     1       5.594  -6.745  13.423  1.00  0.00     0.014 A 
ATOM     32  C   UNL     1       7.725  -6.407  15.190  1.00  0.00     0.010 A 
ATOM     33  C   UNL     1       5.344  -6.457  14.760  1.00  0.00     0.010 A 
ATOM     34  C   UNL     1       6.406  -6.289  15.660  1.00  0.00    -0.014 A 
BRANCH  34  35
ATOM     35  C   UNL     1       6.125  -5.998  17.091  1.00  0.00     0.031 A 
ATOM     36  C   UNL     1       5.353  -6.987  17.923  1.00  0.00     0.074 A 
ATOM     37  C   UNL     1       6.526  -4.827  17.627  1.00  0.00     0.049 A 
ATOM     38  N   UNL     1       4.979  -6.901  19.174  1.00  0.00    -0.248 NA
ATOM     39  C   UNL     1       4.917  -8.220  17.251  1.00  0.00     0.031 C 
ATOM     40  C   UNL     1       7.240  -3.769  16.907  1.00  0.00     0.029 A 
ATOM     41  N   UNL     1       6.395  -4.328  18.898  1.00  0.00    -0.354 N 
ATOM     42  C   UNL     1       4.262  -8.064  19.435  1.00  0.00     0.074 A 
ATOM     43  C   UNL     1       4.187  -8.798  18.191  1.00  0.00     0.031 C 
ATOM     44  C   UNL     1       7.521  -2.769  17.757  1.00  0.00     0.029 A 
ATOM     45  C   UNL     1       6.963  -3.086  19.068  1.00  0.00     0.049 A 
ATOM     46  H   UNL     1       5.938  -4.813  19.622  1.00  0.00     0.167 HD
ATOM     47  C   UNL     1       3.740  -8.495  20.610  1.00  0.00     0.034 A 
ATOM     48  C   UNL     1       7.022  -2.289  20.154  1.00  0.00     0.034 A 
ATOM     49  C   UNL     1       3.829  -7.751  21.843  1.00  0.00     0.049 A 
ATOM     50  C   UNL     1       6.403  -2.774  21.442  1.00  0.00     0.074 A 
ATOM     51  C   UNL     1       3.377  -8.111  23.101  1.00  0.00     0.029 A 
ATOM     52  N   UNL     1       4.399  -6.490  21.974  1.00  0.00    -0.354 N 
ATOM     53  N   UNL     1       5.776  -3.902  21.686  1.00  0.00    -0.248 NA
ATOM     54  C   UNL     1       6.512  -1.883  22.604  1.00  0.00     0.031 C 
ATOM     55  C   UNL     1       3.599  -7.038  23.971  1.00  0.00     0.029 A 
ATOM     56  C   UNL     1       4.277  -6.045  23.282  1.00  0.00     0.049 A 
ATOM     57  H   UNL     1       4.826  -5.986  21.244  1.00  0.00     0.167 HD
ATOM     58  C   UNL     1       5.449  -3.870  23.039  1.00  0.00     0.074 A 
ATOM     59  C   UNL     1       5.966  -2.620  23.558  1.00  0.00     0.031 C 
ATOM     60  C   UNL     1       4.786  -4.790  23.786  1.00  0.00     0.034 A 
BRANCH  47  61
ATOM     61  C   UNL     1       3.010  -9.818  20.604  1.00  0.00     0.023 A 
ATOM     62  C   UNL     1       3.658 -11.018  20.261  1.00  0.00     0.031 A 
ATOM     63  C   UNL     1       1.641  -9.879  20.920  1.00  0.00     0.131 A 
ATOM     64  C   UNL     1       2.923 -12.210  20.164  1.00  0.00     0.055 A 
ATOM     65  C   UNL     1       0.936 -11.084  20.910  1.00  0.00     0.041 A 
ATOM     66  F   UNL     1       0.961  -8.765  21.232  1.00  0.00    -0.206 F 
ATOM     67  C   UNL     1       1.572 -12.257  20.514  1.00  0.00     0.022 A 
BRANCH  64  68
ATOM     68  S   UNL     1       3.721 -13.660  19.424  1.00  0.00     0.124 S 
ATOM     69  O   UNL     1       4.095 -13.151  18.106  1.00  0.00    -0.237 OA
ATOM     70  O   UNL     1       4.822 -13.919  20.344  1.00  0.00    -0.237 OA
ATOM     71  O   UNL     1       2.663 -14.668  19.416  1.00  0.00    -0.744 OA
ENDBRANCH  64  68
ENDBRANCH  47  61
BRANCH  48  72
ATOM     72  C   UNL     1       7.682  -0.952  20.082  1.00  0.00     0.023 A 
ATOM     73  C   UNL     1       8.812  -0.657  20.862  1.00  0.00     0.031 A 
ATOM     74  C   UNL     1       7.161   0.071  19.269  1.00  0.00     0.131 A 
ATOM     75  C   UNL     1       9.350   0.639  20.855  1.00  0.00     0.055 A 
ATOM     76  C   UNL     1       7.738   1.341  19.218  1.00  0.00     0.041 A 
ATOM     77  F   UNL     1       6.083  -0.154  18.501  1.00  0.00    -0.206 F 
ATOM     78  C   UNL     1       8.831   1.636  20.027  1.00  0.00     0.022 A 
BRANCH  75  79
ATOM     79  S   UNL     1      10.679   1.035  22.026  1.00  0.00     0.124 S 
ATOM     80  O   UNL     1      10.053   0.717  23.304  1.00  0.00    -0.237 OA
ATOM     81  O   UNL     1      11.743   0.137  21.590  1.00  0.00    -0.237 OA
ATOM     82  O   UNL     1      10.929   2.455  21.788  1.00  0.00    -0.744 OA
ENDBRANCH  75  79
ENDBRANCH  48  72
BRANCH  60  83
ATOM     83  C   UNL     1       4.630  -4.495  25.260  1.00  0.00     0.023 A 
ATOM     84  C   UNL     1       3.880  -3.401  25.724  1.00  0.00     0.031 A 
ATOM     85  C   UNL     1       5.262  -5.313  26.215  1.00  0.00     0.131 A 
ATOM     86  C   UNL     1       3.840  -3.112  27.096  1.00  0.00     0.055 A 
ATOM     87  C   UNL     1       5.155  -5.065  27.583  1.00  0.00     0.041 A 
ATOM     88  F   UNL     1       5.997  -6.370  25.831  1.00  0.00    -0.206 F 
ATOM     89  C   UNL     1       4.455  -3.949  28.031  1.00  0.00     0.022 A 
BRANCH  86  90
ATOM     90  S   UNL     1       3.074  -1.558  27.636  1.00  0.00     0.124 S 
ATOM     91  O   UNL     1       3.839  -0.568  26.885  1.00  0.00    -0.237 OA
ATOM     92  O   UNL     1       1.685  -1.736  27.226  1.00  0.00    -0.237 OA
ATOM     93  O   UNL     1       3.298  -1.549  29.080  1.00  0.00    -0.744 OA
ENDBRANCH  86  90
ENDBRANCH  60  83
ENDBRANCH  34  35
ENDBRANCH  26  29
ENDBRANCH  24  25
ENDBRANCH   1  24
TORSDOF 15
