REMARK SMILES COCCN(CC(=O)NCCCCNC(=O)c1ccc(-c2c3nc(c(-c4cc(S(=O)(=O)[O-])ccc4F)c4ccc([nH]4)c(-c4cc(S(=O)(=O)[O-])ccc4F)c4nc(c(-c5cc(S(=O)(=O)[O-])ccc5F)c5ccc2[nH]5)C=C4)C=C3)cc1)C(=O)N1CCC[C@@H]1C
REMARK SMILES IDX 11 1 10 2 9 3 7 4 8 5 6 7 5 8 4 9 3 10 2 11 1 12 80 13 81 14
REMARK SMILES IDX 82 15 83 16 86 17 84 18 85 19 87 20 12 21 13 22 14 23 15 24
REMARK SMILES IDX 16 26 17 27 18 28 79 29 19 30 78 31 20 32 21 33 22 34 72 35
REMARK SMILES IDX 23 36 77 37 71 38 73 39 24 40 76 41 70 42 69 43 25 45 57 46
REMARK SMILES IDX 37 47 56 48 38 49 41 50 55 51 74 52 39 53 40 54 54 56 75 57
REMARK SMILES IDX 42 58 26 59 27 60 35 61 28 62 34 63 36 64 33 65 29 66 30 67
REMARK SMILES IDX 31 68 32 69 58 70 59 71 67 72 60 73 66 74 68 75 65 76 61 77
REMARK SMILES IDX 62 78 63 79 64 80 43 81 44 82 52 83 45 84 51 85 53 86 50 87
REMARK SMILES IDX 46 88 47 89 48 90 49 91
REMARK H PARENT 9 6 14 25 73 44 41 55
REMARK Flexibility Score: inf
ROOT
ATOM      1  C   UNL     1      -1.990   1.329  -4.026  1.00  0.00     0.023 C 
ENDROOT
BRANCH   1   2
ATOM      2  C   UNL     1      -0.830   1.265  -5.015  1.00  0.00     0.116 C 
BRANCH   2   3
ATOM      3  N   UNL     1       0.100   2.366  -4.918  1.00  0.00    -0.355 N 
ATOM      4  C   UNL     1       1.322   2.415  -4.319  1.00  0.00     0.239 C 
ATOM      5  O   UNL     1       2.110   3.269  -4.745  1.00  0.00    -0.273 OA
ATOM      6  H   UNL     1      -0.193   3.203  -5.347  1.00  0.00     0.163 HD
BRANCH   4   7
ATOM      7  C   UNL     1       1.799   1.380  -3.280  1.00  0.00     0.221 C 
BRANCH   7   8
ATOM      8  N   UNL     1       0.843   0.923  -2.267  1.00  0.00    -0.313 N 
BRANCH   8   9
ATOM      9  C   UNL     1       0.407  -0.486  -2.348  1.00  0.00     0.150 C 
BRANCH   9  10
ATOM     10  C   UNL     1       1.325  -1.499  -1.636  1.00  0.00     0.181 C 
BRANCH  10  11
ATOM     11  O   UNL     1       0.989  -1.673  -0.263  1.00  0.00    -0.383 OA
ATOM     12  C   UNL     1       1.808  -0.926   0.622  1.00  0.00     0.194 C 
ENDBRANCH  10  11
ENDBRANCH   9  10
ENDBRANCH   8   9
BRANCH   8  13
ATOM     13  C   UNL     1       0.512   1.610  -1.107  1.00  0.00     0.320 C 
ATOM     14  O   UNL     1      -0.253   1.123  -0.272  1.00  0.00    -0.248 OA
BRANCH  13  15
ATOM     15  N   UNL     1       1.183   2.770  -0.806  1.00  0.00    -0.322 N 
ATOM     16  C   UNL     1       1.525   3.026   0.578  1.00  0.00     0.122 C 
ATOM     17  C   UNL     1       1.155   4.040  -1.540  1.00  0.00     0.083 C 
ATOM     18  C   UNL     1       2.465   4.209   0.493  1.00  0.00     0.024 C 
ATOM     19  C   UNL     1       1.825   5.059  -0.596  1.00  0.00     0.027 C 
ATOM     20  C   UNL     1      -0.263   4.488  -1.880  1.00  0.00     0.031 C 
ENDBRANCH  13  15
ENDBRANCH   8  13
ENDBRANCH   7   8
ENDBRANCH   4   7
ENDBRANCH   2   3
ENDBRANCH   1   2
BRANCH   1  21
ATOM     21  C   UNL     1      -3.001   2.450  -4.268  1.00  0.00     0.023 C 
BRANCH  21  22
ATOM     22  C   UNL     1      -3.550   2.553  -5.684  1.00  0.00     0.116 C 
BRANCH  22  23
ATOM     23  N   UNL     1      -4.121   1.310  -6.178  1.00  0.00    -0.352 N 
ATOM     24  C   UNL     1      -5.234   1.127  -6.962  1.00  0.00     0.251 C 
ATOM     25  H   UNL     1      -3.645   0.489  -5.914  1.00  0.00     0.163 HD
ATOM     26  O   UNL     1      -5.623  -0.010  -7.214  1.00  0.00    -0.269 OA
BRANCH  24  27
ATOM     27  C   UNL     1      -5.983   2.304  -7.452  1.00  0.00     0.039 A 
ATOM     28  C   UNL     1      -7.368   2.338  -7.277  1.00  0.00     0.014 A 
ATOM     29  C   UNL     1      -5.319   3.389  -8.032  1.00  0.00     0.014 A 
ATOM     30  C   UNL     1      -8.077   3.494  -7.608  1.00  0.00     0.010 A 
ATOM     31  C   UNL     1      -6.016   4.565  -8.293  1.00  0.00     0.010 A 
ATOM     32  C   UNL     1      -7.401   4.633  -8.074  1.00  0.00    -0.014 A 
BRANCH  32  33
ATOM     33  C   UNL     1      -8.122   5.911  -8.313  1.00  0.00     0.031 A 
ATOM     34  C   UNL     1      -8.194   6.491  -9.699  1.00  0.00     0.074 A 
ATOM     35  C   UNL     1      -8.652   6.579  -7.269  1.00  0.00     0.049 A 
ATOM     36  N   UNL     1      -8.710   7.626 -10.094  1.00  0.00    -0.248 NA
ATOM     37  C   UNL     1      -7.578   5.703 -10.776  1.00  0.00     0.031 C 
ATOM     38  C   UNL     1      -8.606   6.137  -5.873  1.00  0.00     0.029 A 
ATOM     39  N   UNL     1      -9.323   7.775  -7.214  1.00  0.00    -0.354 N 
ATOM     40  C   UNL     1      -8.475   7.694 -11.463  1.00  0.00     0.074 A 
ATOM     41  C   UNL     1      -7.715   6.513 -11.815  1.00  0.00     0.031 C 
ATOM     42  C   UNL     1      -9.243   7.036  -5.105  1.00  0.00     0.029 A 
ATOM     43  C   UNL     1      -9.701   8.140  -5.942  1.00  0.00     0.049 A 
ATOM     44  H   UNL     1      -9.517   8.320  -8.010  1.00  0.00     0.167 HD
ATOM     45  C   UNL     1      -8.876   8.642 -12.347  1.00  0.00     0.034 A 
ATOM     46  C   UNL     1     -10.331   9.246  -5.497  1.00  0.00     0.034 A 
ATOM     47  C   UNL     1      -9.641   9.809 -11.979  1.00  0.00     0.049 A 
ATOM     48  C   UNL     1     -10.741  10.299  -6.495  1.00  0.00     0.074 A 
ATOM     49  C   UNL     1     -10.147  10.802 -12.800  1.00  0.00     0.029 A 
ATOM     50  N   UNL     1     -10.002  10.149 -10.681  1.00  0.00    -0.354 N 
ATOM     51  N   UNL     1     -10.558  10.321  -7.796  1.00  0.00    -0.248 NA
ATOM     52  C   UNL     1     -11.450  11.471  -5.967  1.00  0.00     0.031 C 
ATOM     53  C   UNL     1     -10.751  11.773 -11.995  1.00  0.00     0.029 A 
ATOM     54  C   UNL     1     -10.693  11.351 -10.677  1.00  0.00     0.049 A 
ATOM     55  H   UNL     1      -9.797   9.613  -9.880  1.00  0.00     0.167 HD
ATOM     56  C   UNL     1     -11.156  11.496  -8.242  1.00  0.00     0.074 A 
ATOM     57  C   UNL     1     -11.720  12.144  -7.075  1.00  0.00     0.031 C 
ATOM     58  C   UNL     1     -11.236  11.994  -9.503  1.00  0.00     0.034 A 
BRANCH  45  59
ATOM     59  C   UNL     1      -8.471   8.461 -13.790  1.00  0.00     0.023 A 
ATOM     60  C   UNL     1      -8.912   7.364 -14.550  1.00  0.00     0.031 A 
ATOM     61  C   UNL     1      -7.615   9.388 -14.412  1.00  0.00     0.131 A 
ATOM     62  C   UNL     1      -8.439   7.180 -15.858  1.00  0.00     0.055 A 
ATOM     63  C   UNL     1      -7.213   9.243 -15.741  1.00  0.00     0.041 A 
ATOM     64  F   UNL     1      -7.143  10.445 -13.732  1.00  0.00    -0.206 F 
ATOM     65  C   UNL     1      -7.613   8.126 -16.468  1.00  0.00     0.022 A 
BRANCH  62  66
ATOM     66  S   UNL     1      -8.805   5.615 -16.700  1.00  0.00     0.124 S 
ATOM     67  O   UNL     1      -8.208   4.643 -15.787  1.00  0.00    -0.237 OA
ATOM     68  O   UNL     1     -10.262   5.623 -16.761  1.00  0.00    -0.237 OA
ATOM     69  O   UNL     1      -8.125   5.751 -17.986  1.00  0.00    -0.744 OA
ENDBRANCH  62  66
ENDBRANCH  45  59
BRANCH  46  70
ATOM     70  C   UNL     1     -10.604   9.428  -4.043  1.00  0.00     0.023 A 
ATOM     71  C   UNL     1     -11.920   9.489  -3.556  1.00  0.00     0.031 A 
ATOM     72  C   UNL     1      -9.553   9.592  -3.123  1.00  0.00     0.131 A 
ATOM     73  C   UNL     1     -12.152   9.757  -2.198  1.00  0.00     0.055 A 
ATOM     74  C   UNL     1      -9.789   9.803  -1.763  1.00  0.00     0.041 A 
ATOM     75  F   UNL     1      -8.276   9.539  -3.534  1.00  0.00    -0.206 F 
ATOM     76  C   UNL     1     -11.095   9.900  -1.296  1.00  0.00     0.022 A 
BRANCH  73  77
ATOM     77  S   UNL     1     -13.861  10.005  -1.642  1.00  0.00     0.124 S 
ATOM     78  O   UNL     1     -14.291  11.111  -2.490  1.00  0.00    -0.237 OA
ATOM     79  O   UNL     1     -14.463   8.707  -1.925  1.00  0.00    -0.237 OA
ATOM     80  O   UNL     1     -13.714  10.326  -0.224  1.00  0.00    -0.744 OA
ENDBRANCH  73  77
ENDBRANCH  46  70
BRANCH  58  81
ATOM     81  C   UNL     1     -11.997  13.285  -9.681  1.00  0.00     0.023 A 
ATOM     82  C   UNL     1     -11.533  14.498  -9.143  1.00  0.00     0.031 A 
ATOM     83  C   UNL     1     -13.214  13.298 -10.386  1.00  0.00     0.131 A 
ATOM     84  C   UNL     1     -12.308  15.661  -9.269  1.00  0.00     0.055 A 
ATOM     85  C   UNL     1     -13.950  14.470 -10.562  1.00  0.00     0.041 A 
ATOM     86  F   UNL     1     -13.707  12.168 -10.919  1.00  0.00    -0.206 F 
ATOM     87  C   UNL     1     -13.505  15.658  -9.990  1.00  0.00     0.022 A 
BRANCH  84  88
ATOM     88  S   UNL     1     -11.777  17.161  -8.397  1.00  0.00     0.124 S 
ATOM     89  O   UNL     1     -11.746  16.710  -7.010  1.00  0.00    -0.237 OA
ATOM     90  O   UNL     1     -10.480  17.434  -9.007  1.00  0.00    -0.237 OA
ATOM     91  O   UNL     1     -12.825  18.130  -8.712  1.00  0.00    -0.744 OA
ENDBRANCH  84  88
ENDBRANCH  58  81
ENDBRANCH  32  33
ENDBRANCH  24  27
ENDBRANCH  22  23
ENDBRANCH  21  22
ENDBRANCH   1  21
TORSDOF 20
