REMARK SMILES O=C1NC(=S)S/C1=C\c1ccc(OCc2cn(-c3ccc(C(=O)NCCCCNC(=O)c4ccc(-c5c6nc(c(-c7cc(S(=O)(=O)[O-])ccc7F)c7ccc([nH]7)c(-c7cc(S(=O)(=O)[O-])ccc7F)c7nc(c(-c8cc(S(=O)(=O)[O-])ccc8F)c8ccc5[nH]8)C=C7)C=C6)cc4)cc3)nn2)cc1
REMARK SMILES IDX 25 1 24 2 22 3 23 4 21 6 18 7 19 8 96 9 20 10 95 11 17 12
REMARK SMILES IDX 15 13 16 14 98 15 97 16 14 17 13 18 12 19 9 20 10 21 100 22
REMARK SMILES IDX 11 23 99 24 8 25 1 26 2 27 3 28 7 29 4 30 6 32 5 33 26 34
REMARK SMILES IDX 27 35 28 36 29 37 30 38 31 40 32 41 33 42 94 43 34 44 93 45
REMARK SMILES IDX 35 46 36 47 37 48 87 49 38 50 92 51 86 52 88 53 39 54 91 55
REMARK SMILES IDX 85 56 84 57 40 59 72 60 52 61 71 62 53 63 56 64 70 65 89 66
REMARK SMILES IDX 54 67 55 68 69 70 90 71 57 72 41 73 42 74 50 75 43 76 49 77
REMARK SMILES IDX 51 78 48 79 44 80 45 81 46 82 47 83 73 84 74 85 82 86 75 87
REMARK SMILES IDX 81 88 83 89 80 90 76 91 77 92 78 93 79 94 58 95 59 96 67 97
REMARK SMILES IDX 60 98 66 99 68 100 65 101 61 102 62 103 63 104 64 105
REMARK H PARENT 24 5 3 31 29 39 88 58 56 69
REMARK Flexibility Score: inf
ROOT
ATOM      1  C   UNL     1       6.395  10.875   0.880  1.00  0.00     0.116 C 
ENDROOT
BRANCH   1   2
ATOM      2  N   UNL     1       7.019  10.078  -0.159  1.00  0.00    -0.352 N 
ATOM      3  C   UNL     1       6.562   9.072  -0.971  1.00  0.00     0.251 C 
ATOM      4  O   UNL     1       7.374   8.559  -1.743  1.00  0.00    -0.269 OA
ATOM      5  H   UNL     1       7.964  10.307  -0.312  1.00  0.00     0.163 HD
BRANCH   3   6
ATOM      6  C   UNL     1       5.143   8.609  -1.007  1.00  0.00     0.039 A 
ATOM      7  C   UNL     1       2.466   7.825  -1.320  1.00  0.00     0.066 A 
ATOM      8  C   UNL     1       3.401   7.499  -2.305  1.00  0.00     0.029 A 
ATOM      9  C   UNL     1       2.869   8.477  -0.156  1.00  0.00     0.029 A 
ATOM     10  C   UNL     1       4.725   7.924  -2.161  1.00  0.00     0.016 A 
ATOM     11  C   UNL     1       4.214   8.805   0.018  1.00  0.00     0.016 A 
BRANCH   7  12
ATOM     12  N   UNL     1       1.116   7.466  -1.483  1.00  0.00    -0.220 N 
ATOM     13  C   UNL     1      -1.054   7.291  -1.357  1.00  0.00     0.120 A 
ATOM     14  C   UNL     1      -0.002   8.101  -0.989  1.00  0.00     0.144 A 
ATOM     15  N   UNL     1      -0.555   6.240  -2.083  1.00  0.00    -0.131 NA
ATOM     16  N   UNL     1       0.754   6.377  -2.189  1.00  0.00    -0.062 NA
BRANCH  13  17
ATOM     17  C   UNL     1      -2.529   7.470  -1.187  1.00  0.00     0.289 C 
BRANCH  17  18
ATOM     18  O   UNL     1      -3.133   6.724  -0.113  1.00  0.00    -0.487 OA
BRANCH  18  19
ATOM     19  C   UNL     1      -3.157   5.359  -0.195  1.00  0.00     0.119 A 
ATOM     20  C   UNL     1      -2.924   2.566  -0.012  1.00  0.00    -0.024 A 
ATOM     21  C   UNL     1      -3.386   3.303   1.080  1.00  0.00     0.012 A 
ATOM     22  C   UNL     1      -2.685   3.220  -1.222  1.00  0.00     0.012 A 
ATOM     23  C   UNL     1      -3.494   4.696   0.988  1.00  0.00     0.047 A 
ATOM     24  C   UNL     1      -2.838   4.604  -1.320  1.00  0.00     0.047 A 
BRANCH  20  25
ATOM     25  C   UNL     1      -2.679   1.126   0.094  1.00  0.00     0.029 C 
ATOM     26  O   UNL     1      -2.191  -1.742   0.143  1.00  0.00    -0.268 OA
ATOM     27  C   UNL     1      -1.295  -0.924   0.105  1.00  0.00     0.263 C 
ATOM     28  N   UNL     1       0.039  -1.229   0.058  1.00  0.00    -0.307 N 
ATOM     29  C   UNL     1      -1.466   0.555   0.088  1.00  0.00     0.080 C 
ATOM     30  C   UNL     1       0.934  -0.204   0.022  1.00  0.00     0.145 C 
ATOM     31  H   UNL     1       0.344  -2.165   0.050  1.00  0.00     0.171 HD
ATOM     32  S   UNL     1       0.083   1.322   0.038  1.00  0.00    -0.055 SA
ATOM     33  S   UNL     1       2.573  -0.429  -0.024  1.00  0.00    -0.052 S 
ENDBRANCH  20  25
ENDBRANCH  18  19
ENDBRANCH  17  18
ENDBRANCH  13  17
ENDBRANCH   7  12
ENDBRANCH   3   6
ENDBRANCH   1   2
BRANCH   1  34
ATOM     34  C   UNL     1       6.624  10.247   2.262  1.00  0.00     0.023 C 
BRANCH  34  35
ATOM     35  C   UNL     1       8.039  10.444   2.827  1.00  0.00     0.023 C 
BRANCH  35  36
ATOM     36  C   UNL     1       8.401  11.891   3.143  1.00  0.00     0.116 C 
BRANCH  36  37
ATOM     37  N   UNL     1       7.538  12.482   4.167  1.00  0.00    -0.352 N 
ATOM     38  C   UNL     1       7.440  13.817   4.521  1.00  0.00     0.251 C 
ATOM     39  H   UNL     1       6.960  11.857   4.662  1.00  0.00     0.163 HD
ATOM     40  O   UNL     1       7.051  14.140   5.637  1.00  0.00    -0.269 OA
BRANCH  38  41
ATOM     41  C   UNL     1       7.790  14.835   3.513  1.00  0.00     0.039 A 
ATOM     42  C   UNL     1       8.523  15.980   3.829  1.00  0.00     0.014 A 
ATOM     43  C   UNL     1       7.390  14.584   2.203  1.00  0.00     0.014 A 
ATOM     44  C   UNL     1       8.918  16.825   2.791  1.00  0.00     0.010 A 
ATOM     45  C   UNL     1       7.918  15.319   1.173  1.00  0.00     0.010 A 
ATOM     46  C   UNL     1       8.630  16.475   1.459  1.00  0.00    -0.014 A 
BRANCH  46  47
ATOM     47  C   UNL     1       9.193  17.211   0.330  1.00  0.00     0.031 A 
ATOM     48  C   UNL     1      10.671  17.352   0.391  1.00  0.00     0.074 A 
ATOM     49  C   UNL     1       8.488  17.541  -0.778  1.00  0.00     0.049 A 
ATOM     50  N   UNL     1      11.331  18.425   0.672  1.00  0.00    -0.248 NA
ATOM     51  C   UNL     1      11.512  16.145   0.334  1.00  0.00     0.031 C 
ATOM     52  C   UNL     1       7.090  17.239  -1.099  1.00  0.00     0.029 A 
ATOM     53  N   UNL     1       8.916  18.154  -1.916  1.00  0.00    -0.354 N 
ATOM     54  C   UNL     1      12.674  18.094   0.549  1.00  0.00     0.074 A 
ATOM     55  C   UNL     1      12.722  16.657   0.577  1.00  0.00     0.031 C 
ATOM     56  C   UNL     1       6.862  17.457  -2.416  1.00  0.00     0.029 A 
ATOM     57  C   UNL     1       8.044  18.065  -3.003  1.00  0.00     0.049 A 
ATOM     58  H   UNL     1       9.778  18.627  -1.968  1.00  0.00     0.167 HD
ATOM     59  C   UNL     1      13.585  19.034   0.170  1.00  0.00     0.034 A 
ATOM     60  C   UNL     1       8.276  18.464  -4.288  1.00  0.00     0.034 A 
ATOM     61  C   UNL     1      13.014  20.364   0.268  1.00  0.00     0.049 A 
ATOM     62  C   UNL     1       9.349  19.488  -4.213  1.00  0.00     0.074 A 
ATOM     63  C   UNL     1      12.438  21.091   1.293  1.00  0.00     0.029 A 
ATOM     64  N   UNL     1      12.589  20.972  -0.895  1.00  0.00    -0.354 N 
ATOM     65  N   UNL     1       9.178  20.643  -3.628  1.00  0.00    -0.248 NA
ATOM     66  C   UNL     1      10.731  19.033  -4.288  1.00  0.00     0.031 C 
ATOM     67  C   UNL     1      11.302  21.717   0.698  1.00  0.00     0.029 A 
ATOM     68  C   UNL     1      11.315  21.440  -0.671  1.00  0.00     0.049 A 
ATOM     69  H   UNL     1      13.102  21.056  -1.731  1.00  0.00     0.167 HD
ATOM     70  C   UNL     1      10.323  20.832  -2.870  1.00  0.00     0.074 A 
ATOM     71  C   UNL     1      11.284  19.854  -3.387  1.00  0.00     0.031 C 
ATOM     72  C   UNL     1      10.296  21.541  -1.700  1.00  0.00     0.034 A 
BRANCH  59  73
ATOM     73  C   UNL     1      14.828  18.767  -0.653  1.00  0.00     0.023 A 
ATOM     74  C   UNL     1      15.623  19.883  -0.979  1.00  0.00     0.031 A 
ATOM     75  C   UNL     1      15.113  17.584  -1.370  1.00  0.00     0.131 A 
ATOM     76  C   UNL     1      16.532  19.838  -2.048  1.00  0.00     0.055 A 
ATOM     77  C   UNL     1      16.071  17.525  -2.387  1.00  0.00     0.041 A 
ATOM     78  F   UNL     1      14.431  16.447  -1.200  1.00  0.00    -0.206 F 
ATOM     79  C   UNL     1      16.760  18.666  -2.759  1.00  0.00     0.022 A 
BRANCH  76  80
ATOM     80  S   UNL     1      17.259  21.397  -2.612  1.00  0.00     0.124 S 
ATOM     81  O   UNL     1      16.067  22.202  -2.857  1.00  0.00    -0.237 OA
ATOM     82  O   UNL     1      18.073  21.781  -1.463  1.00  0.00    -0.237 OA
ATOM     83  O   UNL     1      18.008  21.008  -3.805  1.00  0.00    -0.744 OA
ENDBRANCH  76  80
ENDBRANCH  59  73
BRANCH  60  84
ATOM     84  C   UNL     1       7.853  17.805  -5.565  1.00  0.00     0.023 A 
ATOM     85  C   UNL     1       7.908  18.439  -6.832  1.00  0.00     0.031 A 
ATOM     86  C   UNL     1       7.625  16.410  -5.577  1.00  0.00     0.131 A 
ATOM     87  C   UNL     1       7.747  17.683  -8.025  1.00  0.00     0.055 A 
ATOM     88  C   UNL     1       7.478  15.671  -6.755  1.00  0.00     0.041 A 
ATOM     89  F   UNL     1       7.626  15.697  -4.441  1.00  0.00    -0.206 F 
ATOM     90  C   UNL     1       7.550  16.302  -7.985  1.00  0.00     0.022 A 
BRANCH  87  91
ATOM     91  S   UNL     1       7.882  18.466  -9.673  1.00  0.00     0.124 S 
ATOM     92  O   UNL     1       6.656  19.252  -9.745  1.00  0.00    -0.237 OA
ATOM     93  O   UNL     1       9.129  19.215  -9.569  1.00  0.00    -0.237 OA
ATOM     94  O   UNL     1       7.932  17.326 -10.591  1.00  0.00    -0.744 OA
ENDBRANCH  87  91
ENDBRANCH  60  84
BRANCH  72  95
ATOM     95  C   UNL     1       9.044  22.332  -1.357  1.00  0.00     0.023 A 
ATOM     96  C   UNL     1       7.736  21.796  -1.262  1.00  0.00     0.031 A 
ATOM     97  C   UNL     1       9.217  23.678  -0.988  1.00  0.00     0.131 A 
ATOM     98  C   UNL     1       6.667  22.608  -0.828  1.00  0.00     0.055 A 
ATOM     99  C   UNL     1       8.164  24.470  -0.533  1.00  0.00     0.041 A 
ATOM    100  F   UNL     1      10.435  24.244  -1.031  1.00  0.00    -0.206 F 
ATOM    101  C   UNL     1       6.882  23.939  -0.458  1.00  0.00     0.022 A 
BRANCH  98 102
ATOM    102  S   UNL     1       4.964  21.957  -0.758  1.00  0.00     0.124 S 
ATOM    103  O   UNL     1       4.792  21.308  -2.053  1.00  0.00    -0.237 OA
ATOM    104  O   UNL     1       5.008  21.069   0.400  1.00  0.00    -0.237 OA
ATOM    105  O   UNL     1       4.148  23.159  -0.569  1.00  0.00    -0.744 OA
ENDBRANCH  98 102
ENDBRANCH  72  95
ENDBRANCH  46  47
ENDBRANCH  38  41
ENDBRANCH  36  37
ENDBRANCH  35  36
ENDBRANCH  34  35
ENDBRANCH   1  34
TORSDOF 19
