REMARK SMILES CC[NH+]1CCN(c2ccc(NC(=O)C3CCCC3)c(C(=O)NCCCCNC(=O)c3ccc(-c4c5nc(c(-c6cc(S(=O)(=O)[O-])ccc6F)c6ccc([nH]6)c(-c6cc(S(=O)(=O)[O-])ccc6F)c6nc(c(-c7cc(S(=O)(=O)[O-])ccc7F)c7ccc4[nH]7)C=C6)C=C5)cc3)c2)CC1
REMARK SMILES IDX 25 1 24 2 23 3 22 4 20 5 21 6 19 8 7 9 8 10 93 11 9 12 10 13
REMARK SMILES IDX 6 14 3 15 4 16 95 17 5 19 94 20 2 21 1 22 11 23 12 24 13 26
REMARK SMILES IDX 14 27 15 28 18 29 16 30 17 31 26 32 27 33 28 34 29 36 30 37
REMARK SMILES IDX 31 38 92 39 32 40 91 41 33 42 34 43 35 44 85 45 36 46 90 47
REMARK SMILES IDX 84 48 86 49 37 50 89 51 83 52 82 53 38 55 70 56 50 57 69 58
REMARK SMILES IDX 51 59 54 60 68 61 87 62 52 63 53 64 67 66 88 67 55 68 39 69
REMARK SMILES IDX 40 70 48 71 41 72 47 73 49 74 46 75 42 76 43 77 44 78 45 79
REMARK SMILES IDX 71 80 72 81 80 82 73 83 79 84 81 85 78 86 74 87 75 88 76 89
REMARK SMILES IDX 77 90 56 91 57 92 65 93 58 94 64 95 66 96 63 97 59 98 60 99
REMARK SMILES IDX 61 100 62 101
REMARK H PARENT 22 7 3 18 11 25 27 35 86 54 54 65
REMARK Flexibility Score: inf
ROOT
ATOM      1  C   UNL     1       1.718  -1.377   9.207  1.00  0.00     0.023 C 
ENDROOT
BRANCH   1   2
ATOM      2  C   UNL     1       1.410  -0.615   7.924  1.00  0.00     0.023 C 
BRANCH   2   3
ATOM      3  C   UNL     1      -0.037  -0.604   7.449  1.00  0.00     0.116 C 
BRANCH   3   4
ATOM      4  N   UNL     1      -0.995   0.060   8.321  1.00  0.00    -0.352 N 
ATOM      5  C   UNL     1      -2.178   0.726   8.040  1.00  0.00     0.253 C 
ATOM      6  O   UNL     1      -2.812   1.193   8.989  1.00  0.00    -0.269 OA
ATOM      7  H   UNL     1      -0.762   0.031   9.277  1.00  0.00     0.163 HD
BRANCH   5   8
ATOM      8  C   UNL     1      -2.700   0.954   6.650  1.00  0.00     0.065 A 
ATOM      9  C   UNL     1      -2.477   0.458   4.275  1.00  0.00     0.038 A 
ATOM     10  C   UNL     1      -3.375   1.476   3.999  1.00  0.00     0.028 A 
ATOM     11  C   UNL     1      -2.314   0.096   5.607  1.00  0.00     0.042 A 
ATOM     12  C   UNL     1      -3.958   2.208   5.027  1.00  0.00     0.029 A 
ATOM     13  C   UNL     1      -3.525   2.069   6.346  1.00  0.00     0.054 A 
BRANCH   9  14
ATOM     14  N   UNL     1      -1.687  -0.060   3.273  1.00  0.00    -0.360 N 
ATOM     15  N   UNL     1       0.915  -0.914   2.191  1.00  0.00    -0.332 N 
ATOM     16  C   UNL     1       0.659   0.477   2.619  1.00  0.00     0.283 C 
ATOM     17  C   UNL     1       0.105  -1.800   3.069  1.00  0.00     0.283 C 
ATOM     18  H   UNL     1       1.913  -1.105   2.279  1.00  0.00     0.348 HD
ATOM     19  C   UNL     1      -0.824   0.899   2.555  1.00  0.00     0.178 C 
ATOM     20  C   UNL     1      -1.413  -1.491   3.115  1.00  0.00     0.178 C 
BRANCH  15  21
ATOM     21  C   UNL     1       0.600  -1.159   0.774  1.00  0.00     0.258 C 
ATOM     22  C   UNL     1       1.346  -0.250  -0.199  1.00  0.00     0.071 C 
ENDBRANCH  15  21
ENDBRANCH   9  14
BRANCH  13  23
ATOM     23  N   UNL     1      -3.882   3.007   7.351  1.00  0.00    -0.325 N 
ATOM     24  C   UNL     1      -4.354   4.298   7.324  1.00  0.00     0.227 C 
ATOM     25  H   UNL     1      -3.766   2.657   8.264  1.00  0.00     0.169 HD
ATOM     26  O   UNL     1      -4.657   4.834   8.395  1.00  0.00    -0.274 OA
BRANCH  24  27
ATOM     27  C   UNL     1      -4.489   5.074   6.019  1.00  0.00     0.079 C 
ATOM     28  C   UNL     1      -5.016   6.507   6.142  1.00  0.00     0.013 C 
ATOM     29  C   UNL     1      -3.159   5.333   5.312  1.00  0.00     0.013 C 
ATOM     30  C   UNL     1      -4.720   7.109   4.766  1.00  0.00     0.001 C 
ATOM     31  C   UNL     1      -3.525   6.327   4.218  1.00  0.00     0.001 C 
ENDBRANCH  24  27
ENDBRANCH  13  23
ENDBRANCH   5   8
ENDBRANCH   3   4
ENDBRANCH   2   3
ENDBRANCH   1   2
BRANCH   1  32
ATOM     32  C   UNL     1       1.202  -2.809   9.299  1.00  0.00     0.116 C 
BRANCH  32  33
ATOM     33  N   UNL     1       1.635  -3.674   8.212  1.00  0.00    -0.352 N 
ATOM     34  C   UNL     1       2.243  -4.909   8.250  1.00  0.00     0.251 C 
ATOM     35  H   UNL     1       1.467  -3.321   7.308  1.00  0.00     0.163 HD
ATOM     36  O   UNL     1       2.577  -5.446   7.196  1.00  0.00    -0.269 OA
BRANCH  34  37
ATOM     37  C   UNL     1       2.540  -5.564   9.545  1.00  0.00     0.039 A 
ATOM     38  C   UNL     1       3.801  -6.138   9.736  1.00  0.00     0.014 A 
ATOM     39  C   UNL     1       1.601  -5.595  10.578  1.00  0.00     0.014 A 
ATOM     40  C   UNL     1       4.148  -6.654  10.988  1.00  0.00     0.010 A 
ATOM     41  C   UNL     1       1.979  -6.026  11.849  1.00  0.00     0.010 A 
ATOM     42  C   UNL     1       3.259  -6.557  12.071  1.00  0.00    -0.014 A 
BRANCH  42  43
ATOM     43  C   UNL     1       3.657  -7.001  13.435  1.00  0.00     0.031 A 
ATOM     44  C   UNL     1       2.913  -8.117  14.120  1.00  0.00     0.074 A 
ATOM     45  C   UNL     1       4.656  -6.362  14.079  1.00  0.00     0.049 A 
ATOM     46  N   UNL     1       3.092  -8.622  15.315  1.00  0.00    -0.248 NA
ATOM     47  C   UNL     1       1.799  -8.721  13.375  1.00  0.00     0.031 C 
ATOM     48  C   UNL     1       5.412  -5.224  13.549  1.00  0.00     0.029 A 
ATOM     49  N   UNL     1       5.208  -6.574  15.318  1.00  0.00    -0.354 N 
ATOM     50  C   UNL     1       2.109  -9.595  15.467  1.00  0.00     0.074 A 
ATOM     51  C   UNL     1       1.293  -9.553  14.273  1.00  0.00     0.031 C 
ATOM     52  C   UNL     1       6.353  -4.867  14.438  1.00  0.00     0.029 A 
ATOM     53  C   UNL     1       6.244  -5.718  15.618  1.00  0.00     0.049 A 
ATOM     54  H   UNL     1       4.893  -7.274  15.935  1.00  0.00     0.167 HD
ATOM     55  C   UNL     1       1.922 -10.463  16.493  1.00  0.00     0.034 A 
ATOM     56  C   UNL     1       7.019  -5.629  16.717  1.00  0.00     0.034 A 
ATOM     57  C   UNL     1       2.751 -10.498  17.674  1.00  0.00     0.049 A 
ATOM     58  C   UNL     1       6.793  -6.605  17.844  1.00  0.00     0.074 A 
ATOM     59  C   UNL     1       2.682 -11.365  18.752  1.00  0.00     0.029 A 
ATOM     60  N   UNL     1       3.799  -9.624  17.938  1.00  0.00    -0.354 N 
ATOM     61  N   UNL     1       5.898  -7.561  17.945  1.00  0.00    -0.248 NA
ATOM     62  C   UNL     1       7.698  -6.502  18.995  1.00  0.00     0.031 C 
ATOM     63  C   UNL     1       3.643 -10.975  19.692  1.00  0.00     0.029 A 
ATOM     64  C   UNL     1       4.367  -9.916  19.169  1.00  0.00     0.049 A 
ATOM     65  H   UNL     1       4.095  -8.903  17.337  1.00  0.00     0.167 HD
ATOM     66  C   UNL     1       6.154  -8.192  19.160  1.00  0.00     0.074 A 
ATOM     67  C   UNL     1       7.302  -7.524  19.739  1.00  0.00     0.031 C 
ATOM     68  C   UNL     1       5.503  -9.231  19.744  1.00  0.00     0.034 A 
BRANCH  55  69
ATOM     69  C   UNL     1       0.762 -11.427  16.381  1.00  0.00     0.023 A 
ATOM     70  C   UNL     1       0.689 -12.375  15.344  1.00  0.00     0.031 A 
ATOM     71  C   UNL     1      -0.302 -11.377  17.299  1.00  0.00     0.131 A 
ATOM     72  C   UNL     1      -0.458 -13.171  15.199  1.00  0.00     0.055 A 
ATOM     73  C   UNL     1      -1.401 -12.234  17.200  1.00  0.00     0.041 A 
ATOM     74  F   UNL     1      -0.302 -10.481  18.299  1.00  0.00    -0.206 F 
ATOM     75  C   UNL     1      -1.492 -13.126  16.136  1.00  0.00     0.022 A 
BRANCH  72  76
ATOM     76  S   UNL     1      -0.645 -14.151  13.684  1.00  0.00     0.124 S 
ATOM     77  O   UNL     1      -0.593 -13.114  12.655  1.00  0.00    -0.237 OA
ATOM     78  O   UNL     1       0.503 -15.048  13.745  1.00  0.00    -0.237 OA
ATOM     79  O   UNL     1      -1.948 -14.791  13.848  1.00  0.00    -0.744 OA
ENDBRANCH  72  76
ENDBRANCH  55  69
BRANCH  56  80
ATOM     80  C   UNL     1       8.087  -4.591  16.812  1.00  0.00     0.023 A 
ATOM     81  C   UNL     1       9.442  -4.952  16.887  1.00  0.00     0.031 A 
ATOM     82  C   UNL     1       7.766  -3.224  16.878  1.00  0.00     0.131 A 
ATOM     83  C   UNL     1      10.421  -3.964  17.076  1.00  0.00     0.055 A 
ATOM     84  C   UNL     1       8.748  -2.240  17.010  1.00  0.00     0.041 A 
ATOM     85  F   UNL     1       6.487  -2.822  16.803  1.00  0.00    -0.206 F 
ATOM     86  C   UNL     1      10.085  -2.610  17.125  1.00  0.00     0.022 A 
BRANCH  83  87
ATOM     87  S   UNL     1      12.139  -4.483  17.344  1.00  0.00     0.124 S 
ATOM     88  O   UNL     1      12.012  -5.337  18.519  1.00  0.00    -0.237 OA
ATOM     89  O   UNL     1      12.450  -5.159  16.089  1.00  0.00    -0.237 OA
ATOM     90  O   UNL     1      12.845  -3.222  17.561  1.00  0.00    -0.744 OA
ENDBRANCH  83  87
ENDBRANCH  56  80
BRANCH  68  91
ATOM     91  C   UNL     1       6.054  -9.728  21.059  1.00  0.00     0.023 A 
ATOM     92  C   UNL     1       6.061  -8.922  22.212  1.00  0.00     0.031 A 
ATOM     93  C   UNL     1       6.621 -11.012  21.150  1.00  0.00     0.131 A 
ATOM     94  C   UNL     1       6.691  -9.376  23.380  1.00  0.00     0.055 A 
ATOM     95  C   UNL     1       7.182 -11.487  22.336  1.00  0.00     0.041 A 
ATOM     96  F   UNL     1       6.645 -11.826  20.082  1.00  0.00    -0.206 F 
ATOM     97  C   UNL     1       7.237 -10.660  23.455  1.00  0.00     0.022 A 
BRANCH  94  98
ATOM     98  S   UNL     1       6.902  -8.218  24.760  1.00  0.00     0.124 S 
ATOM     99  O   UNL     1       7.605  -7.110  24.121  1.00  0.00    -0.237 OA
ATOM    100  O   UNL     1       5.524  -7.953  25.158  1.00  0.00    -0.237 OA
ATOM    101  O   UNL     1       7.692  -8.978  25.727  1.00  0.00    -0.744 OA
ENDBRANCH  94  98
ENDBRANCH  68  91
ENDBRANCH  42  43
ENDBRANCH  34  37
ENDBRANCH  32  33
ENDBRANCH   1  32
TORSDOF 18
