REMARK SMILES C[C@@H]1[C@H](C(=O)NCCCCNC(=O)c2ccc(-c3c4nc(c(-c5cc(S(=O)(=O)[O-])ccc5F)c5ccc([nH]5)c(-c5cc(S(=O)(=O)[O-])ccc5F)c5nc(c(-c6cc(S(=O)(=O)[O-])ccc6F)c6ccc3[nH]6)C=C5)C=C4)cc2)CCN1S(=O)(=O)c1ccc(F)c(Cl)c1
REMARK SMILES IDX 9 1 8 2 7 3 6 4 4 5 5 6 3 8 1 9 2 10 79 11 77 12 78 13 80 14
REMARK SMILES IDX 81 15 82 16 83 17 84 18 90 19 85 20 88 21 86 22 89 23 87 24
REMARK SMILES IDX 10 25 11 26 12 27 13 29 14 30 15 31 76 32 16 33 75 34 17 35
REMARK SMILES IDX 18 36 19 37 69 38 20 39 74 40 68 41 70 42 21 43 73 44 67 45
REMARK SMILES IDX 66 46 22 48 54 49 34 50 53 51 35 52 38 53 52 54 71 55 36 56
REMARK SMILES IDX 37 57 51 59 72 60 39 61 23 62 24 63 32 64 25 65 31 66 33 67
REMARK SMILES IDX 30 68 26 69 27 70 28 71 29 72 55 73 56 74 64 75 57 76 63 77
REMARK SMILES IDX 65 78 62 79 58 80 59 81 60 82 61 83 40 84 41 85 49 86 42 87
REMARK SMILES IDX 48 88 50 89 47 90 43 91 44 92 45 93 46 94
REMARK H PARENT 6 7 11 28 70 47 38 58
REMARK Flexibility Score: inf
ROOT
ATOM      1  C   UNL     1       3.609   2.692   3.142  1.00  0.00     0.023 C 
ENDROOT
BRANCH   1   2
ATOM      2  C   UNL     1       2.668   1.689   2.508  1.00  0.00     0.023 C 
BRANCH   2   3
ATOM      3  C   UNL     1       1.238   2.162   2.220  1.00  0.00     0.116 C 
BRANCH   3   4
ATOM      4  N   UNL     1       1.099   2.747   0.894  1.00  0.00    -0.356 N 
ATOM      5  C   UNL     1       0.590   2.321  -0.289  1.00  0.00     0.224 C 
ATOM      6  O   UNL     1       0.685   3.123  -1.228  1.00  0.00    -0.275 OA
ATOM      7  H   UNL     1       1.456   3.663   0.844  1.00  0.00     0.163 HD
BRANCH   5   8
ATOM      8  C   UNL     1      -0.046   0.959  -0.575  1.00  0.00     0.098 C 
ATOM      9  C   UNL     1       2.063  -0.260   0.168  1.00  0.00     0.026 C 
ATOM     10  C   UNL     1       0.876  -0.264  -0.753  1.00  0.00     0.082 C 
ATOM     11  N   UNL     1      -0.026  -1.469  -0.627  1.00  0.00    -0.194 NA
ATOM     12  C   UNL     1      -1.162   0.459   0.311  1.00  0.00     0.032 C 
ATOM     13  C   UNL     1      -1.388  -0.946  -0.232  1.00  0.00     0.104 C 
BRANCH  11  14
ATOM     14  S   UNL     1       0.361  -2.889   0.231  1.00  0.00     0.243 S 
ATOM     15  O   UNL     1       0.618  -2.498   1.601  1.00  0.00    -0.207 OA
ATOM     16  O   UNL     1      -0.688  -3.843  -0.070  1.00  0.00    -0.207 OA
BRANCH  14  17
ATOM     17  C   UNL     1       1.861  -3.639  -0.367  1.00  0.00     0.084 A 
ATOM     18  C   UNL     1       2.248  -4.825   0.283  1.00  0.00     0.025 A 
ATOM     19  C   UNL     1       2.699  -3.066  -1.323  1.00  0.00     0.045 A 
ATOM     20  C   UNL     1       3.502  -5.385   0.040  1.00  0.00     0.042 A 
ATOM     21  C   UNL     1       3.983  -3.590  -1.504  1.00  0.00     0.078 A 
ATOM     22  C   UNL     1       4.379  -4.742  -0.825  1.00  0.00     0.141 A 
ATOM     23  Cl  UNL     1       5.096  -2.752  -2.518  1.00  0.00    -0.081 Cl
ATOM     24  F   UNL     1       5.612  -5.245  -0.984  1.00  0.00    -0.205 F 
ENDBRANCH  14  17
ENDBRANCH  11  14
ENDBRANCH   5   8
ENDBRANCH   3   4
ENDBRANCH   2   3
ENDBRANCH   1   2
BRANCH   1  25
ATOM     25  C   UNL     1       3.240   3.092   4.552  1.00  0.00     0.116 C 
BRANCH  25  26
ATOM     26  N   UNL     1       3.121   1.975   5.480  1.00  0.00    -0.352 N 
ATOM     27  C   UNL     1       3.549   1.908   6.793  1.00  0.00     0.251 C 
ATOM     28  H   UNL     1       2.680   1.167   5.129  1.00  0.00     0.163 HD
ATOM     29  O   UNL     1       3.444   0.881   7.433  1.00  0.00    -0.269 OA
BRANCH  27  30
ATOM     30  C   UNL     1       4.192   3.111   7.367  1.00  0.00     0.039 A 
ATOM     31  C   UNL     1       5.448   2.991   7.962  1.00  0.00     0.014 A 
ATOM     32  C   UNL     1       3.608   4.364   7.177  1.00  0.00     0.014 A 
ATOM     33  C   UNL     1       6.160   4.147   8.287  1.00  0.00     0.010 A 
ATOM     34  C   UNL     1       4.369   5.503   7.378  1.00  0.00     0.010 A 
ATOM     35  C   UNL     1       5.647   5.410   7.951  1.00  0.00    -0.014 A 
BRANCH  35  36
ATOM     36  C   UNL     1       6.388   6.663   8.238  1.00  0.00     0.031 A 
ATOM     37  C   UNL     1       5.752   7.694   9.133  1.00  0.00     0.074 A 
ATOM     38  C   UNL     1       7.566   6.913   7.633  1.00  0.00     0.049 A 
ATOM     39  N   UNL     1       6.135   8.914   9.400  1.00  0.00    -0.248 NA
ATOM     40  C   UNL     1       4.476   7.315   9.760  1.00  0.00     0.031 C 
ATOM     41  C   UNL     1       8.248   6.018   6.694  1.00  0.00     0.029 A 
ATOM     42  N   UNL     1       8.394   8.003   7.710  1.00  0.00    -0.354 N 
ATOM     43  C   UNL     1       5.126   9.459  10.188  1.00  0.00     0.074 A 
ATOM     44  C   UNL     1       4.080   8.464  10.279  1.00  0.00     0.031 C 
ATOM     45  C   UNL     1       9.407   6.581   6.312  1.00  0.00     0.029 A 
ATOM     46  C   UNL     1       9.532   7.890   6.945  1.00  0.00     0.049 A 
ATOM     47  H   UNL     1       8.194   8.793   8.262  1.00  0.00     0.167 HD
ATOM     48  C   UNL     1       5.091  10.662  10.811  1.00  0.00     0.034 A 
ATOM     49  C   UNL     1      10.557   8.749   6.777  1.00  0.00     0.034 A 
ATOM     50  C   UNL     1       6.170  11.614  10.750  1.00  0.00     0.049 A 
ATOM     51  C   UNL     1      10.526  10.060   7.520  1.00  0.00     0.074 A 
ATOM     52  C   UNL     1       6.284  12.838  11.383  1.00  0.00     0.029 A 
ATOM     53  N   UNL     1       7.337  11.436  10.015  1.00  0.00    -0.354 N 
ATOM     54  N   UNL     1       9.585  10.548   8.296  1.00  0.00    -0.248 NA
ATOM     55  C   UNL     1      11.701  10.928   7.379  1.00  0.00     0.031 C 
ATOM     56  C   UNL     1       7.498  13.418  11.000  1.00  0.00     0.029 A 
ATOM     57  C   UNL     1       8.171  12.530  10.174  1.00  0.00     0.049 A 
ATOM     58  H   UNL     1       7.541  10.648   9.462  1.00  0.00     0.167 HD
ATOM     59  C   UNL     1      10.071  11.766   8.761  1.00  0.00     0.074 A 
ATOM     60  C   UNL     1      11.391  11.931   8.187  1.00  0.00     0.031 C 
ATOM     61  C   UNL     1       9.484  12.667   9.591  1.00  0.00     0.034 A 
BRANCH  48  62
ATOM     62  C   UNL     1       3.841  10.997  11.591  1.00  0.00     0.023 A 
ATOM     63  C   UNL     1       3.418  10.209  12.677  1.00  0.00     0.031 A 
ATOM     64  C   UNL     1       3.019  12.067  11.199  1.00  0.00     0.131 A 
ATOM     65  C   UNL     1       2.162  10.431  13.258  1.00  0.00     0.055 A 
ATOM     66  C   UNL     1       1.813  12.345  11.848  1.00  0.00     0.041 A 
ATOM     67  F   UNL     1       3.356  12.844  10.158  1.00  0.00    -0.206 F 
ATOM     68  C   UNL     1       1.367  11.511  12.870  1.00  0.00     0.022 A 
BRANCH  65  69
ATOM     69  S   UNL     1       1.507   9.181  14.398  1.00  0.00     0.124 S 
ATOM     70  O   UNL     1       1.463   7.998  13.541  1.00  0.00    -0.237 OA
ATOM     71  O   UNL     1       2.507   9.164  15.458  1.00  0.00    -0.237 OA
ATOM     72  O   UNL     1       0.201   9.715  14.778  1.00  0.00    -0.744 OA
ENDBRANCH  65  69
ENDBRANCH  48  62
BRANCH  49  73
ATOM     73  C   UNL     1      11.705   8.397   5.895  1.00  0.00     0.023 A 
ATOM     74  C   UNL     1      12.982   8.170   6.433  1.00  0.00     0.031 A 
ATOM     75  C   UNL     1      11.551   8.311   4.501  1.00  0.00     0.131 A 
ATOM     76  C   UNL     1      14.066   7.913   5.580  1.00  0.00     0.055 A 
ATOM     77  C   UNL     1      12.624   8.012   3.659  1.00  0.00     0.041 A 
ATOM     78  F   UNL     1      10.349   8.507   3.937  1.00  0.00    -0.206 F 
ATOM     79  C   UNL     1      13.894   7.823   4.197  1.00  0.00     0.022 A 
BRANCH  76  80
ATOM     80  S   UNL     1      15.723   7.765   6.303  1.00  0.00     0.124 S 
ATOM     81  O   UNL     1      15.876   9.055   6.965  1.00  0.00    -0.237 OA
ATOM     82  O   UNL     1      15.569   6.608   7.178  1.00  0.00    -0.237 OA
ATOM     83  O   UNL     1      16.583   7.553   5.140  1.00  0.00    -0.744 OA
ENDBRANCH  76  80
ENDBRANCH  49  73
BRANCH  61  84
ATOM     84  C   UNL     1      10.299  13.877   9.965  1.00  0.00     0.023 A 
ATOM     85  C   UNL     1      10.605  14.879   9.030  1.00  0.00     0.031 A 
ATOM     86  C   UNL     1      10.778  14.022  11.279  1.00  0.00     0.131 A 
ATOM     87  C   UNL     1      11.416  15.959   9.408  1.00  0.00     0.055 A 
ATOM     88  C   UNL     1      11.540  15.125  11.663  1.00  0.00     0.041 A 
ATOM     89  F   UNL     1      10.511  13.091  12.210  1.00  0.00    -0.206 F 
ATOM     90  C   UNL     1      11.873  16.096  10.722  1.00  0.00     0.022 A 
BRANCH  87  91
ATOM     91  S   UNL     1      11.935  17.144   8.137  1.00  0.00     0.124 S 
ATOM     92  O   UNL     1      12.627  16.283   7.184  1.00  0.00    -0.237 OA
ATOM     93  O   UNL     1      10.661  17.697   7.689  1.00  0.00    -0.237 OA
ATOM     94  O   UNL     1      12.792  18.076   8.867  1.00  0.00    -0.744 OA
ENDBRANCH  87  91
ENDBRANCH  61  84
ENDBRANCH  35  36
ENDBRANCH  27  30
ENDBRANCH  25  26
ENDBRANCH   1  25
TORSDOF 16
