REMARK SMILES O=C(NCCCCNC(=O)[C@H]1C[C@@H](O)CN1C(=O)CCc1ccc(Cl)cc1Cl)c1ccc(-c2c3nc(c(-c4cc(S(=O)(=O)[O-])ccc4F)c4ccc([nH]4)c(-c4cc(S(=O)(=O)[O-])ccc4F)c4nc(c(-c5cc(S(=O)(=O)[O-])ccc5F)c5ccc2[nH]5)C=C4)C=C3)cc1
REMARK SMILES IDX 6 1 5 2 4 3 3 4 1 5 2 6 29 8 30 9 91 10 31 11 90 12 32 13
REMARK SMILES IDX 33 14 34 15 84 16 35 17 89 18 83 19 85 20 36 21 88 22 82 23
REMARK SMILES IDX 81 24 37 26 69 27 49 28 68 29 50 30 53 31 67 32 86 33 51 34
REMARK SMILES IDX 52 35 66 37 87 38 54 39 38 40 39 41 47 42 40 43 46 44 48 45
REMARK SMILES IDX 45 46 41 47 42 48 43 49 44 50 70 51 71 52 79 53 72 54 78 55
REMARK SMILES IDX 80 56 77 57 73 58 74 59 75 60 76 61 55 62 56 63 64 64 57 65
REMARK SMILES IDX 63 66 65 67 62 68 58 69 59 70 60 71 61 72 7 73 8 74 9 75
REMARK SMILES IDX 10 77 11 78 12 79 16 80 13 81 15 82 17 83 18 84 19 85 20 86
REMARK SMILES IDX 21 87 22 88 27 89 23 90 26 91 28 92 24 93 25 94 14 95
REMARK H PARENT 3 7 85 25 53 36 8 76 14 96
REMARK Flexibility Score: inf
ROOT
ATOM      1  C   UNL     1       4.604   0.597   3.503  1.00  0.00     0.023 C 
ENDROOT
BRANCH   1   2
ATOM      2  C   UNL     1       4.906   1.319   2.193  1.00  0.00     0.023 C 
BRANCH   2   3
ATOM      3  C   UNL     1       4.443   0.581   0.950  1.00  0.00     0.116 C 
BRANCH   3   4
ATOM      4  N   UNL     1       3.023   0.259   0.955  1.00  0.00    -0.352 N 
ATOM      5  O   UNL     1       1.015  -0.129  -0.017  1.00  0.00    -0.269 OA
ATOM      6  C   UNL     1       2.216   0.042  -0.142  1.00  0.00     0.251 C 
ATOM      7  H   UNL     1       2.592   0.188   1.837  1.00  0.00     0.163 HD
BRANCH   6   8
ATOM      8  C   UNL     1       2.852   0.070  -1.474  1.00  0.00     0.039 A 
ATOM      9  C   UNL     1       3.985  -0.709  -1.716  1.00  0.00     0.014 A 
ATOM     10  C   UNL     1       2.370   0.955  -2.440  1.00  0.00     0.014 A 
ATOM     11  C   UNL     1       4.727  -0.493  -2.868  1.00  0.00     0.010 A 
ATOM     12  C   UNL     1       3.070   1.103  -3.639  1.00  0.00     0.010 A 
ATOM     13  C   UNL     1       4.271   0.406  -3.846  1.00  0.00    -0.014 A 
BRANCH  13  14
ATOM     14  C   UNL     1       5.042   0.550  -5.104  1.00  0.00     0.031 A 
ATOM     15  C   UNL     1       5.705   1.849  -5.465  1.00  0.00     0.074 A 
ATOM     16  C   UNL     1       5.152  -0.524  -5.907  1.00  0.00     0.049 A 
ATOM     17  N   UNL     1       6.397   2.151  -6.533  1.00  0.00    -0.248 NA
ATOM     18  C   UNL     1       5.564   2.956  -4.508  1.00  0.00     0.031 C 
ATOM     19  C   UNL     1       4.542  -1.832  -5.647  1.00  0.00     0.029 A 
ATOM     20  N   UNL     1       5.819  -0.700  -7.090  1.00  0.00    -0.354 N 
ATOM     21  C   UNL     1       6.756   3.487  -6.393  1.00  0.00     0.074 A 
ATOM     22  C   UNL     1       6.181   3.942  -5.143  1.00  0.00     0.031 C 
ATOM     23  C   UNL     1       4.895  -2.683  -6.620  1.00  0.00     0.029 A 
ATOM     24  C   UNL     1       5.689  -1.966  -7.608  1.00  0.00     0.049 A 
ATOM     25  H   UNL     1       6.341   0.012  -7.526  1.00  0.00     0.167 HD
ATOM     26  C   UNL     1       7.498   4.254  -7.231  1.00  0.00     0.034 A 
ATOM     27  C   UNL     1       6.132  -2.486  -8.768  1.00  0.00     0.034 A 
ATOM     28  C   UNL     1       8.065   3.770  -8.469  1.00  0.00     0.049 A 
ATOM     29  C   UNL     1       6.928  -1.608  -9.690  1.00  0.00     0.074 A 
ATOM     30  C   UNL     1       8.863   4.446  -9.377  1.00  0.00     0.029 A 
ATOM     31  N   UNL     1       7.885   2.490  -8.981  1.00  0.00    -0.354 N 
ATOM     32  N   UNL     1       7.267  -0.349  -9.538  1.00  0.00    -0.248 NA
ATOM     33  C   UNL     1       7.400  -2.220 -10.935  1.00  0.00     0.031 C 
ATOM     34  C   UNL     1       9.110   3.598 -10.463  1.00  0.00     0.029 A 
ATOM     35  C   UNL     1       8.527   2.367 -10.204  1.00  0.00     0.049 A 
ATOM     36  H   UNL     1       7.374   1.773  -8.539  1.00  0.00     0.167 HD
ATOM     37  C   UNL     1       8.002  -0.018 -10.670  1.00  0.00     0.074 A 
ATOM     38  C   UNL     1       8.076  -1.219 -11.480  1.00  0.00     0.031 C 
ATOM     39  C   UNL     1       8.563   1.170 -11.011  1.00  0.00     0.034 A 
BRANCH  26  40
ATOM     40  C   UNL     1       7.690   5.707  -6.860  1.00  0.00     0.023 A 
ATOM     41  C   UNL     1       8.396   6.095  -5.708  1.00  0.00     0.031 A 
ATOM     42  C   UNL     1       7.136   6.721  -7.663  1.00  0.00     0.131 A 
ATOM     43  C   UNL     1       8.471   7.453  -5.356  1.00  0.00     0.055 A 
ATOM     44  C   UNL     1       7.278   8.074  -7.347  1.00  0.00     0.041 A 
ATOM     45  F   UNL     1       6.433   6.412  -8.764  1.00  0.00    -0.206 F 
ATOM     46  C   UNL     1       7.937   8.446  -6.179  1.00  0.00     0.022 A 
BRANCH  43  47
ATOM     47  S   UNL     1       9.154   7.892  -3.733  1.00  0.00     0.124 S 
ATOM     48  O   UNL     1       8.296   7.126  -2.832  1.00  0.00    -0.237 OA
ATOM     49  O   UNL     1      10.535   7.437  -3.839  1.00  0.00    -0.237 OA
ATOM     50  O   UNL     1       8.976   9.341  -3.666  1.00  0.00    -0.744 OA
ENDBRANCH  43  47
ENDBRANCH  26  40
BRANCH  27  51
ATOM     51  C   UNL     1       5.786  -3.888  -9.128  1.00  0.00     0.023 A 
ATOM     52  C   UNL     1       6.773  -4.878  -9.225  1.00  0.00     0.031 A 
ATOM     53  C   UNL     1       4.450  -4.255  -9.375  1.00  0.00     0.131 A 
ATOM     54  C   UNL     1       6.413  -6.186  -9.584  1.00  0.00     0.055 A 
ATOM     55  C   UNL     1       4.092  -5.567  -9.684  1.00  0.00     0.041 A 
ATOM     56  F   UNL     1       3.468  -3.344  -9.285  1.00  0.00    -0.206 F 
ATOM     57  C   UNL     1       5.078  -6.540  -9.800  1.00  0.00     0.022 A 
BRANCH  54  58
ATOM     58  S   UNL     1       7.726  -7.413  -9.823  1.00  0.00     0.124 S 
ATOM     59  O   UNL     1       8.539  -6.782 -10.858  1.00  0.00    -0.237 OA
ATOM     60  O   UNL     1       8.322  -7.482  -8.493  1.00  0.00    -0.237 OA
ATOM     61  O   UNL     1       7.001  -8.611 -10.242  1.00  0.00    -0.744 OA
ENDBRANCH  54  58
ENDBRANCH  27  51
BRANCH  39  62
ATOM     62  C   UNL     1       9.323   1.202 -12.313  1.00  0.00     0.023 A 
ATOM     63  C   UNL     1       8.664   1.081 -13.549  1.00  0.00     0.031 A 
ATOM     64  C   UNL     1      10.723   1.316 -12.313  1.00  0.00     0.131 A 
ATOM     65  C   UNL     1       9.412   1.019 -14.733  1.00  0.00     0.055 A 
ATOM     66  C   UNL     1      11.458   1.309 -13.499  1.00  0.00     0.041 A 
ATOM     67  F   UNL     1      11.400   1.429 -11.159  1.00  0.00    -0.206 F 
ATOM     68  C   UNL     1      10.804   1.146 -14.717  1.00  0.00     0.022 A 
BRANCH  65  69
ATOM     69  S   UNL     1       8.549   0.673 -16.291  1.00  0.00     0.124 S 
ATOM     70  O   UNL     1       7.934  -0.621 -16.016  1.00  0.00    -0.237 OA
ATOM     71  O   UNL     1       7.634   1.804 -16.398  1.00  0.00    -0.237 OA
ATOM     72  O   UNL     1       9.624   0.652 -17.281  1.00  0.00    -0.744 OA
ENDBRANCH  65  69
ENDBRANCH  39  62
ENDBRANCH  13  14
ENDBRANCH   6   8
ENDBRANCH   3   4
ENDBRANCH   2   3
ENDBRANCH   1   2
BRANCH   1  73
ATOM     73  C   UNL     1       5.260  -0.774   3.665  1.00  0.00     0.116 C 
BRANCH  73  74
ATOM     74  N   UNL     1       6.646  -0.674   4.057  1.00  0.00    -0.354 N 
ATOM     75  C   UNL     1       7.209  -0.593   5.290  1.00  0.00     0.242 C 
ATOM     76  H   UNL     1       7.287  -0.664   3.309  1.00  0.00     0.163 HD
ATOM     77  O   UNL     1       8.446  -0.610   5.320  1.00  0.00    -0.273 OA
BRANCH  75  78
ATOM     78  C   UNL     1       6.395  -0.589   6.618  1.00  0.00     0.177 C 
ATOM     79  C   UNL     1       7.226   0.088   7.722  1.00  0.00     0.069 C 
ATOM     80  N   UNL     1       5.173   0.216   6.639  1.00  0.00    -0.328 N 
ATOM     81  C   UNL     1       6.927   1.575   7.521  1.00  0.00     0.136 C 
ATOM     82  C   UNL     1       5.491   1.600   6.988  1.00  0.00     0.152 C 
BRANCH  80  83
ATOM     83  C   UNL     1       3.922  -0.363   6.615  1.00  0.00     0.223 C 
ATOM     84  O   UNL     1       3.768  -1.585   6.590  1.00  0.00    -0.275 OA
BRANCH  83  85
ATOM     85  C   UNL     1       2.706   0.546   6.569  1.00  0.00     0.105 C 
BRANCH  85  86
ATOM     86  C   UNL     1       1.875   0.467   7.853  1.00  0.00     0.047 C 
BRANCH  86  87
ATOM     87  C   UNL     1       2.574   1.147   9.011  1.00  0.00    -0.029 A 
ATOM     88  C   UNL     1       2.546   2.554   9.066  1.00  0.00     0.007 A 
ATOM     89  C   UNL     1       3.358   0.452   9.949  1.00  0.00     0.045 A 
ATOM     90  C   UNL     1       3.335   3.246   9.986  1.00  0.00     0.021 A 
ATOM     91  C   UNL     1       4.146   1.147  10.868  1.00  0.00     0.041 A 
ATOM     92  Cl  UNL     1       3.431  -1.272   9.998  1.00  0.00    -0.084 Cl
ATOM     93  C   UNL     1       4.144   2.538  10.870  1.00  0.00     0.042 A 
ATOM     94  Cl  UNL     1       5.173   3.390  11.953  1.00  0.00    -0.084 Cl
ENDBRANCH  86  87
ENDBRANCH  85  86
ENDBRANCH  83  85
ENDBRANCH  80  83
BRANCH  81  95
ATOM     95  O   UNL     1       7.818   2.201   6.606  1.00  0.00    -0.391 OA
ATOM     96  H   UNL     1       7.764   1.755   5.746  1.00  0.00     0.211 HD
ENDBRANCH  81  95
ENDBRANCH  75  78
ENDBRANCH  73  74
ENDBRANCH   1  73
TORSDOF 19
