REMARK SMILES Cc1cc(SCC(=O)NCCCCNC(=O)c2ccc(-c3c4nc(c(-c5cc(S(=O)(=O)[O-])ccc5F)c5ccc([nH]5)c(-c5cc(S(=O)(=O)[O-])ccc5F)c5nc(c(-c6cc(S(=O)(=O)[O-])ccc6F)c6ccc3[nH]6)C=C5)C=C4)cc2)c2cc(C(F)(F)F)ccc2n1
REMARK SMILES IDX 11 1 10 2 9 3 7 4 8 5 6 7 5 8 4 9 1 10 2 11 3 12 90 13 89 14
REMARK SMILES IDX 80 15 88 16 81 17 87 18 82 19 83 20 84 21 85 22 86 23 12 24
REMARK SMILES IDX 13 25 14 26 15 27 16 29 17 30 18 31 79 32 19 33 78 34 20 35
REMARK SMILES IDX 21 36 22 37 72 38 23 39 77 40 71 41 73 42 24 43 76 44 70 45
REMARK SMILES IDX 69 46 25 48 57 49 37 50 56 51 38 52 41 53 55 54 74 55 39 56
REMARK SMILES IDX 40 57 54 59 75 60 42 61 26 62 27 63 35 64 28 65 34 66 36 67
REMARK SMILES IDX 33 68 29 69 30 70 31 71 32 72 58 73 59 74 67 75 60 76 66 77
REMARK SMILES IDX 68 78 65 79 61 80 62 81 63 82 64 83 43 84 44 85 52 86 45 87
REMARK SMILES IDX 51 88 53 89 50 90 46 91 47 92 48 93 49 94
REMARK H PARENT 9 6 14 28 73 47 41 58
REMARK Flexibility Score: inf
ROOT
ATOM      1  C   UNL     1       0.223   4.066  -3.262  1.00  0.00     0.023 C 
ENDROOT
BRANCH   1   2
ATOM      2  C   UNL     1      -0.783   5.022  -2.620  1.00  0.00     0.116 C 
BRANCH   2   3
ATOM      3  N   UNL     1      -2.055   4.370  -2.378  1.00  0.00    -0.355 N 
ATOM      4  C   UNL     1      -2.610   3.952  -1.208  1.00  0.00     0.230 C 
ATOM      5  O   UNL     1      -3.699   3.372  -1.259  1.00  0.00    -0.274 OA
ATOM      6  H   UNL     1      -2.600   4.204  -3.181  1.00  0.00     0.163 HD
BRANCH   4   7
ATOM      7  C   UNL     1      -1.970   4.267   0.130  1.00  0.00     0.174 C 
BRANCH   7   8
ATOM      8  S   UNL     1      -0.379   3.441   0.447  1.00  0.00    -0.115 SA
BRANCH   8   9
ATOM      9  C   UNL     1      -0.669   1.670   0.258  1.00  0.00     0.019 A 
ATOM     10  C   UNL     1      -3.487  -0.848   0.073  1.00  0.00     0.067 C 
ATOM     11  C   UNL     1      -2.119  -0.236   0.107  1.00  0.00     0.039 A 
ATOM     12  C   UNL     1      -1.955   1.129   0.279  1.00  0.00     0.039 A 
ATOM     13  N   UNL     1      -1.076  -1.083  -0.012  1.00  0.00    -0.253 NA
ATOM     14  C   UNL     1       0.167  -0.587   0.002  1.00  0.00     0.072 A 
ATOM     15  C   UNL     1       0.447   0.790   0.126  1.00  0.00     0.014 A 
ATOM     16  C   UNL     1       1.217  -1.489  -0.107  1.00  0.00     0.029 A 
ATOM     17  C   UNL     1       1.814   1.190   0.119  1.00  0.00     0.024 A 
ATOM     18  C   UNL     1       2.553  -1.083  -0.100  1.00  0.00     0.015 A 
ATOM     19  C   UNL     1       2.869   0.269   0.013  1.00  0.00     0.056 A 
BRANCH  19  20
ATOM     20  C   UNL     1       4.299   0.749   0.023  1.00  0.00     0.416 C 
ATOM     21  F   UNL     1       4.593   1.538  -1.046  1.00  0.00    -0.166 F 
ATOM     22  F   UNL     1       4.589   1.494   1.127  1.00  0.00    -0.166 F 
ATOM     23  F   UNL     1       5.214  -0.260   0.009  1.00  0.00    -0.166 F 
ENDBRANCH  19  20
ENDBRANCH   8   9
ENDBRANCH   7   8
ENDBRANCH   4   7
ENDBRANCH   2   3
ENDBRANCH   1   2
BRANCH   1  24
ATOM     24  C   UNL     1      -0.178   3.545  -4.647  1.00  0.00     0.023 C 
BRANCH  24  25
ATOM     25  C   UNL     1      -0.452   4.614  -5.700  1.00  0.00     0.116 C 
BRANCH  25  26
ATOM     26  N   UNL     1       0.697   5.468  -5.955  1.00  0.00    -0.352 N 
ATOM     27  C   UNL     1       1.190   5.916  -7.157  1.00  0.00     0.251 C 
ATOM     28  H   UNL     1       1.189   5.766  -5.156  1.00  0.00     0.163 HD
ATOM     29  O   UNL     1       2.255   6.528  -7.188  1.00  0.00    -0.269 OA
BRANCH  27  30
ATOM     30  C   UNL     1       0.458   5.625  -8.410  1.00  0.00     0.039 A 
ATOM     31  C   UNL     1       1.164   5.115  -9.503  1.00  0.00     0.014 A 
ATOM     32  C   UNL     1      -0.920   5.837  -8.502  1.00  0.00     0.014 A 
ATOM     33  C   UNL     1       0.477   4.747 -10.663  1.00  0.00     0.010 A 
ATOM     34  C   UNL     1      -1.611   5.413  -9.635  1.00  0.00     0.010 A 
ATOM     35  C   UNL     1      -0.921   4.856 -10.724  1.00  0.00    -0.014 A 
BRANCH  35  36
ATOM     36  C   UNL     1      -1.688   4.392 -11.911  1.00  0.00     0.031 A 
ATOM     37  C   UNL     1      -2.460   5.382 -12.739  1.00  0.00     0.074 A 
ATOM     38  C   UNL     1      -1.756   3.076 -12.194  1.00  0.00     0.049 A 
ATOM     39  N   UNL     1      -3.298   5.168 -13.721  1.00  0.00    -0.248 NA
ATOM     40  C   UNL     1      -2.286   6.800 -12.393  1.00  0.00     0.031 C 
ATOM     41  C   UNL     1      -1.071   2.015 -11.452  1.00  0.00     0.029 A 
ATOM     42  N   UNL     1      -2.449   2.402 -13.170  1.00  0.00    -0.354 N 
ATOM     43  C   UNL     1      -3.762   6.423 -14.103  1.00  0.00     0.074 A 
ATOM     44  C   UNL     1      -3.154   7.383 -13.206  1.00  0.00     0.031 C 
ATOM     45  C   UNL     1      -1.369   0.828 -12.006  1.00  0.00     0.029 A 
ATOM     46  C   UNL     1      -2.303   1.035 -13.108  1.00  0.00     0.049 A 
ATOM     47  H   UNL     1      -2.998   2.855 -13.850  1.00  0.00     0.167 HD
ATOM     48  C   UNL     1      -4.602   6.745 -15.118  1.00  0.00     0.034 A 
ATOM     49  C   UNL     1      -2.874   0.059 -13.842  1.00  0.00     0.034 A 
ATOM     50  C   UNL     1      -5.193   5.776 -16.010  1.00  0.00     0.049 A 
ATOM     51  C   UNL     1      -3.837   0.437 -14.940  1.00  0.00     0.074 A 
ATOM     52  C   UNL     1      -6.026   5.996 -17.094  1.00  0.00     0.029 A 
ATOM     53  N   UNL     1      -5.017   4.401 -15.920  1.00  0.00    -0.354 N 
ATOM     54  N   UNL     1      -4.245   1.630 -15.305  1.00  0.00    -0.248 NA
ATOM     55  C   UNL     1      -4.409  -0.663 -15.728  1.00  0.00     0.031 C 
ATOM     56  C   UNL     1      -6.400   4.754 -17.621  1.00  0.00     0.029 A 
ATOM     57  C   UNL     1      -5.745   3.761 -16.912  1.00  0.00     0.049 A 
ATOM     58  H   UNL     1      -4.457   3.947 -15.249  1.00  0.00     0.167 HD
ATOM     59  C   UNL     1      -5.095   1.424 -16.388  1.00  0.00     0.074 A 
ATOM     60  C   UNL     1      -5.135  -0.005 -16.621  1.00  0.00     0.031 C 
ATOM     61  C   UNL     1      -5.776   2.334 -17.130  1.00  0.00     0.034 A 
BRANCH  48  62
ATOM     62  C   UNL     1      -4.945   8.204 -15.295  1.00  0.00     0.023 A 
ATOM     63  C   UNL     1      -3.962   9.157 -15.615  1.00  0.00     0.031 A 
ATOM     64  C   UNL     1      -6.264   8.656 -15.109  1.00  0.00     0.131 A 
ATOM     65  C   UNL     1      -4.295  10.519 -15.659  1.00  0.00     0.055 A 
ATOM     66  C   UNL     1      -6.604  10.005 -15.237  1.00  0.00     0.041 A 
ATOM     67  F   UNL     1      -7.242   7.797 -14.783  1.00  0.00    -0.206 F 
ATOM     68  C   UNL     1      -5.614  10.948 -15.497  1.00  0.00     0.022 A 
BRANCH  65  69
ATOM     69  S   UNL     1      -2.953  11.733 -15.782  1.00  0.00     0.124 S 
ATOM     70  O   UNL     1      -2.172  11.430 -14.584  1.00  0.00    -0.237 OA
ATOM     71  O   UNL     1      -2.330  11.387 -17.054  1.00  0.00    -0.237 OA
ATOM     72  O   UNL     1      -3.649  13.018 -15.755  1.00  0.00    -0.744 OA
ENDBRANCH  65  69
ENDBRANCH  48  62
BRANCH  49  73
ATOM     73  C   UNL     1      -2.575  -1.374 -13.558  1.00  0.00     0.023 A 
ATOM     74  C   UNL     1      -1.914  -2.173 -14.504  1.00  0.00     0.031 A 
ATOM     75  C   UNL     1      -2.990  -1.979 -12.358  1.00  0.00     0.131 A 
ATOM     76  C   UNL     1      -1.730  -3.543 -14.258  1.00  0.00     0.055 A 
ATOM     77  C   UNL     1      -2.758  -3.330 -12.095  1.00  0.00     0.041 A 
ATOM     78  F   UNL     1      -3.623  -1.259 -11.418  1.00  0.00    -0.206 F 
ATOM     79  C   UNL     1      -2.137  -4.124 -13.055  1.00  0.00     0.022 A 
BRANCH  76  80
ATOM     80  S   UNL     1      -1.030  -4.574 -15.575  1.00  0.00     0.124 S 
ATOM     81  O   UNL     1      -1.969  -4.341 -16.666  1.00  0.00    -0.237 OA
ATOM     82  O   UNL     1       0.300  -3.996 -15.737  1.00  0.00    -0.237 OA
ATOM     83  O   UNL     1      -1.057  -5.919 -15.004  1.00  0.00    -0.744 OA
ENDBRANCH  76  80
ENDBRANCH  49  73
BRANCH  61  84
ATOM     84  C   UNL     1      -6.572   1.810 -18.298  1.00  0.00     0.023 A 
ATOM     85  C   UNL     1      -7.734   1.039 -18.119  1.00  0.00     0.031 A 
ATOM     86  C   UNL     1      -6.157   2.089 -19.612  1.00  0.00     0.131 A 
ATOM     87  C   UNL     1      -8.415   0.535 -19.237  1.00  0.00     0.055 A 
ATOM     88  C   UNL     1      -6.868   1.628 -20.721  1.00  0.00     0.041 A 
ATOM     89  F   UNL     1      -5.054   2.820 -19.839  1.00  0.00    -0.206 F 
ATOM     90  C   UNL     1      -7.998   0.837 -20.536  1.00  0.00     0.022 A 
BRANCH  87  91
ATOM     91  S   UNL     1      -9.819  -0.583 -18.973  1.00  0.00     0.124 S 
ATOM     92  O   UNL     1      -9.196  -1.689 -18.254  1.00  0.00    -0.237 OA
ATOM     93  O   UNL     1     -10.737   0.245 -18.197  1.00  0.00    -0.237 OA
ATOM     94  O   UNL     1     -10.268  -0.897 -20.329  1.00  0.00    -0.744 OA
ENDBRANCH  87  91
ENDBRANCH  61  84
ENDBRANCH  35  36
ENDBRANCH  27  30
ENDBRANCH  25  26
ENDBRANCH  24  25
ENDBRANCH   1  24
TORSDOF 17
