REMARK SMILES CN(C)C(=O)C[NH+]1CCN(c2cc(C(=O)NCCCCNC(=O)c3ccc(-c4c5nc(c(-c6cc(S(=O)(=O)[O-])ccc6F)c6ccc([nH]6)c(-c6cc(S(=O)(=O)[O-])ccc6F)c6nc(c(-c7cc(S(=O)(=O)[O-])ccc7F)c7ccc4[nH]7)C=C6)C=C5)cc3)c3cc(NC(=O)c4cccc(Cl)c4)ccc3n2)CC1
REMARK SMILES IDX 18 1 17 2 16 3 14 4 15 5 13 7 11 8 12 9 103 10 102 11 87 12
REMARK SMILES IDX 101 13 88 14 100 15 89 16 10 17 7 18 8 19 105 20 9 22 104 23
REMARK SMILES IDX 6 24 4 25 1 26 2 27 3 28 5 29 90 30 91 31 92 33 93 34 94 35
REMARK SMILES IDX 99 36 95 37 97 38 96 39 98 40 19 41 20 42 21 43 22 44 23 46
REMARK SMILES IDX 24 47 25 48 86 49 26 50 85 51 27 52 28 53 29 54 79 55 30 56
REMARK SMILES IDX 84 57 78 58 80 59 31 60 83 61 77 62 76 63 32 65 64 66 44 67
REMARK SMILES IDX 63 68 45 69 48 70 62 71 81 72 46 73 47 74 61 76 82 77 49 78
REMARK SMILES IDX 33 79 34 80 42 81 35 82 41 83 43 84 40 85 36 86 37 87 38 88
REMARK SMILES IDX 39 89 65 90 66 91 74 92 67 93 73 94 75 95 72 96 68 97 69 98
REMARK SMILES IDX 70 99 71 100 50 101 51 102 59 103 52 104 58 105 60 106
REMARK SMILES IDX 57 107 53 108 54 109 55 110 56 111
REMARK H PARENT 16 6 7 21 90 32 21 45 80 64 48 75
REMARK Flexibility Score: inf
ROOT
ATOM      1  C   UNL     1       3.424  13.860   5.628  1.00  0.00     0.023 C 
ENDROOT
BRANCH   1   2
ATOM      2  C   UNL     1       3.840  12.388   5.625  1.00  0.00     0.116 C 
BRANCH   2   3
ATOM      3  N   UNL     1       2.942  11.438   6.279  1.00  0.00    -0.352 N 
ATOM      4  C   UNL     1       2.655  10.091   6.099  1.00  0.00     0.252 C 
ATOM      5  O   UNL     1       1.870   9.601   6.917  1.00  0.00    -0.269 OA
ATOM      6  H   UNL     1       2.424  11.845   7.011  1.00  0.00     0.163 HD
BRANCH   4   7
ATOM      7  C   UNL     1       3.148   9.182   4.993  1.00  0.00     0.052 A 
ATOM      8  C   UNL     1       2.688   7.167   3.700  1.00  0.00     0.130 A 
ATOM      9  C   UNL     1       2.303   8.108   4.655  1.00  0.00     0.061 A 
ATOM     10  N   UNL     1       3.811   7.341   2.981  1.00  0.00    -0.231 NA
ATOM     11  C   UNL     1       4.658   8.321   3.312  1.00  0.00     0.074 A 
ATOM     12  C   UNL     1       4.413   9.200   4.379  1.00  0.00     0.015 A 
ATOM     13  C   UNL     1       5.861   8.422   2.619  1.00  0.00     0.031 A 
ATOM     14  C   UNL     1       5.493   9.954   4.842  1.00  0.00     0.037 A 
ATOM     15  C   UNL     1       6.894   9.263   3.050  1.00  0.00     0.028 A 
ATOM     16  C   UNL     1       6.743   9.962   4.237  1.00  0.00     0.042 A 
BRANCH   8  17
ATOM     17  N   UNL     1       1.982   5.993   3.530  1.00  0.00    -0.345 N 
ATOM     18  N   UNL     1       0.887   4.242   1.417  1.00  0.00    -0.324 N 
ATOM     19  C   UNL     1       0.279   5.545   1.796  1.00  0.00     0.284 C 
ATOM     20  C   UNL     1       2.345   4.326   1.712  1.00  0.00     0.284 C 
ATOM     21  H   UNL     1       0.754   4.051   0.424  1.00  0.00     0.348 HD
ATOM     22  C   UNL     1       0.550   6.021   3.248  1.00  0.00     0.179 C 
ATOM     23  C   UNL     1       2.704   4.769   3.149  1.00  0.00     0.179 C 
BRANCH  18  24
ATOM     24  C   UNL     1       0.231   3.130   2.146  1.00  0.00     0.363 C 
BRANCH  24  25
ATOM     25  C   UNL     1       0.756   1.754   1.702  1.00  0.00     0.277 C 
ATOM     26  C   UNL     1       1.026   0.043   0.002  1.00  0.00     0.146 C 
ATOM     27  N   UNL     1       0.408   1.280   0.440  1.00  0.00    -0.344 N 
ATOM     28  C   UNL     1      -0.287   2.081  -0.554  1.00  0.00     0.146 C 
ATOM     29  O   UNL     1       1.470   1.096   2.467  1.00  0.00    -0.268 OA
ENDBRANCH  24  25
ENDBRANCH  18  24
ENDBRANCH   8  17
BRANCH  16  30
ATOM     30  N   UNL     1       7.843  10.639   4.787  1.00  0.00    -0.322 N 
ATOM     31  C   UNL     1       8.077  11.104   6.071  1.00  0.00     0.255 C 
ATOM     32  H   UNL     1       8.574  10.813   4.151  1.00  0.00     0.170 HD
ATOM     33  O   UNL     1       9.007  11.879   6.273  1.00  0.00    -0.269 OA
BRANCH  31  34
ATOM     34  C   UNL     1       7.248  10.672   7.227  1.00  0.00     0.041 A 
ATOM     35  C   UNL     1       6.724  11.661   8.064  1.00  0.00     0.014 A 
ATOM     36  C   UNL     1       6.903   9.333   7.436  1.00  0.00     0.034 A 
ATOM     37  C   UNL     1       5.771  11.335   9.032  1.00  0.00     0.002 A 
ATOM     38  C   UNL     1       5.933   9.018   8.389  1.00  0.00     0.041 A 
ATOM     39  C   UNL     1       5.353  10.014   9.174  1.00  0.00     0.020 A 
ATOM     40  Cl  UNL     1       5.392   7.393   8.542  1.00  0.00    -0.084 Cl
ENDBRANCH  31  34
ENDBRANCH  16  30
ENDBRANCH   4   7
ENDBRANCH   2   3
ENDBRANCH   1   2
BRANCH   1  41
ATOM     41  C   UNL     1       3.519  14.669   6.933  1.00  0.00     0.023 C 
BRANCH  41  42
ATOM     42  C   UNL     1       4.852  14.849   7.679  1.00  0.00     0.116 C 
BRANCH  42  43
ATOM     43  N   UNL     1       6.056  15.019   6.890  1.00  0.00    -0.352 N 
ATOM     44  C   UNL     1       7.283  15.528   7.294  1.00  0.00     0.251 C 
ATOM     45  H   UNL     1       5.996  14.739   5.948  1.00  0.00     0.163 HD
ATOM     46  O   UNL     1       8.179  15.655   6.475  1.00  0.00    -0.269 OA
BRANCH  44  47
ATOM     47  C   UNL     1       7.489  15.992   8.697  1.00  0.00     0.039 A 
ATOM     48  C   UNL     1       8.007  17.275   8.896  1.00  0.00     0.014 A 
ATOM     49  C   UNL     1       7.167  15.206   9.807  1.00  0.00     0.014 A 
ATOM     50  C   UNL     1       8.082  17.808  10.189  1.00  0.00     0.010 A 
ATOM     51  C   UNL     1       7.202  15.752  11.096  1.00  0.00     0.010 A 
ATOM     52  C   UNL     1       7.619  17.075  11.295  1.00  0.00    -0.014 A 
BRANCH  52  53
ATOM     53  C   UNL     1       7.456  17.739  12.620  1.00  0.00     0.031 A 
ATOM     54  C   UNL     1       8.286  17.351  13.810  1.00  0.00     0.074 A 
ATOM     55  C   UNL     1       6.508  18.691  12.748  1.00  0.00     0.049 A 
ATOM     56  N   UNL     1       8.303  17.875  15.011  1.00  0.00    -0.248 NA
ATOM     57  C   UNL     1       9.197  16.213  13.637  1.00  0.00     0.031 C 
ATOM     58  C   UNL     1       5.593  19.110  11.682  1.00  0.00     0.029 A 
ATOM     59  N   UNL     1       6.159  19.487  13.810  1.00  0.00    -0.354 N 
ATOM     60  C   UNL     1       9.239  17.144  15.735  1.00  0.00     0.074 A 
ATOM     61  C   UNL     1       9.710  16.093  14.854  1.00  0.00     0.031 C 
ATOM     62  C   UNL     1       4.828  20.118  12.127  1.00  0.00     0.029 A 
ATOM     63  C   UNL     1       5.165  20.395  13.519  1.00  0.00     0.049 A 
ATOM     64  H   UNL     1       6.579  19.415  14.698  1.00  0.00     0.167 HD
ATOM     65  C   UNL     1       9.680  17.345  17.005  1.00  0.00     0.034 A 
ATOM     66  C   UNL     1       4.596  21.352  14.280  1.00  0.00     0.034 A 
ATOM     67  C   UNL     1       9.180  18.385  17.877  1.00  0.00     0.049 A 
ATOM     68  C   UNL     1       5.085  21.543  15.692  1.00  0.00     0.074 A 
ATOM     69  C   UNL     1       9.574  18.697  19.167  1.00  0.00     0.029 A 
ATOM     70  N   UNL     1       8.162  19.276  17.553  1.00  0.00    -0.354 N 
ATOM     71  N   UNL     1       6.020  20.886  16.339  1.00  0.00    -0.248 NA
ATOM     72  C   UNL     1       4.453  22.615  16.471  1.00  0.00     0.031 C 
ATOM     73  C   UNL     1       8.754  19.726  19.646  1.00  0.00     0.029 A 
ATOM     74  C   UNL     1       7.899  20.115  18.628  1.00  0.00     0.049 A 
ATOM     75  H   UNL     1       7.696  19.308  16.687  1.00  0.00     0.167 HD
ATOM     76  C   UNL     1       6.112  21.491  17.589  1.00  0.00     0.074 A 
ATOM     77  C   UNL     1       5.147  22.572  17.598  1.00  0.00     0.031 C 
ATOM     78  C   UNL     1       6.925  21.184  18.632  1.00  0.00     0.034 A 
BRANCH  65  79
ATOM     79  C   UNL     1      10.741  16.401  17.526  1.00  0.00     0.023 A 
ATOM     80  C   UNL     1      12.004  16.306  16.912  1.00  0.00     0.031 A 
ATOM     81  C   UNL     1      10.485  15.561  18.624  1.00  0.00     0.131 A 
ATOM     82  C   UNL     1      12.922  15.335  17.338  1.00  0.00     0.055 A 
ATOM     83  C   UNL     1      11.438  14.656  19.100  1.00  0.00     0.041 A 
ATOM     84  F   UNL     1       9.295  15.591  19.246  1.00  0.00    -0.206 F 
ATOM     85  C   UNL     1      12.658  14.525  18.444  1.00  0.00     0.022 A 
BRANCH  82  86
ATOM     86  S   UNL     1      14.395  15.034  16.322  1.00  0.00     0.124 S 
ATOM     87  O   UNL     1      13.798  14.700  15.031  1.00  0.00    -0.237 OA
ATOM     88  O   UNL     1      15.093  16.313  16.392  1.00  0.00    -0.237 OA
ATOM     89  O   UNL     1      15.058  13.922  17.000  1.00  0.00    -0.744 OA
ENDBRANCH  82  86
ENDBRANCH  65  79
BRANCH  66  90
ATOM     90  C   UNL     1       3.518  22.219  13.720  1.00  0.00     0.023 A 
ATOM     91  C   UNL     1       3.709  23.601  13.562  1.00  0.00     0.031 A 
ATOM     92  C   UNL     1       2.268  21.683  13.363  1.00  0.00     0.131 A 
ATOM     93  C   UNL     1       2.655  24.407  13.103  1.00  0.00     0.055 A 
ATOM     94  C   UNL     1       1.240  22.480  12.856  1.00  0.00     0.041 A 
ATOM     95  F   UNL     1       2.034  20.366  13.486  1.00  0.00    -0.206 F 
ATOM     96  C   UNL     1       1.427  23.853  12.736  1.00  0.00     0.022 A 
BRANCH  93  97
ATOM     97  S   UNL     1       2.886  26.206  13.068  1.00  0.00     0.124 S 
ATOM     98  O   UNL     1       3.203  26.492  14.462  1.00  0.00    -0.237 OA
ATOM     99  O   UNL     1       3.983  26.351  12.116  1.00  0.00    -0.237 OA
ATOM    100  O   UNL     1       1.593  26.705  12.605  1.00  0.00    -0.744 OA
ENDBRANCH  93  97
ENDBRANCH  66  90
BRANCH  78 101
ATOM    101  C   UNL     1       6.833  22.068  19.854  1.00  0.00     0.023 A 
ATOM    102  C   UNL     1       5.675  22.119  20.650  1.00  0.00     0.031 A 
ATOM    103  C   UNL     1       7.917  22.889  20.213  1.00  0.00     0.131 A 
ATOM    104  C   UNL     1       5.605  23.016  21.727  1.00  0.00     0.055 A 
ATOM    105  C   UNL     1       7.865  23.733  21.323  1.00  0.00     0.041 A 
ATOM    106  F   UNL     1       9.047  22.886  19.487  1.00  0.00    -0.206 F 
ATOM    107  C   UNL     1       6.699  23.811  22.079  1.00  0.00     0.022 A 
BRANCH 104 108
ATOM    108  S   UNL     1       4.028  23.206  22.603  1.00  0.00     0.124 S 
ATOM    109  O   UNL     1       3.127  23.599  21.524  1.00  0.00    -0.237 OA
ATOM    110  O   UNL     1       3.816  21.872  23.157  1.00  0.00    -0.237 OA
ATOM    111  O   UNL     1       4.306  24.248  23.590  1.00  0.00    -0.744 OA
ENDBRANCH 104 108
ENDBRANCH  78 101
ENDBRANCH  52  53
ENDBRANCH  44  47
ENDBRANCH  42  43
ENDBRANCH  41  42
ENDBRANCH   1  41
TORSDOF 19
