REMARK SMILES N#CCNC(=O)Cn1ccc(C(=O)NCCCCNC(=O)c2ccc(-c3c4nc(c(-c5cc(S(=O)(=O)[O-])ccc5F)c5ccc([nH]5)c(-c5cc(S(=O)(=O)[O-])ccc5F)c5nc(c(-c6cc(S(=O)(=O)[O-])ccc6F)c6ccc3[nH]6)C=C5)C=C4)cc2)c1
REMARK SMILES IDX 16 1 15 2 14 3 12 4 13 5 11 7 8 8 9 9 85 10 10 11 7 12 5 13
REMARK SMILES IDX 4 14 6 16 3 17 2 18 1 19 17 20 18 21 19 22 20 23 21 25 22 26
REMARK SMILES IDX 23 27 84 28 24 29 83 30 25 31 26 32 27 33 77 34 28 35 82 36
REMARK SMILES IDX 76 37 78 38 29 39 81 40 75 41 74 42 30 44 62 45 42 46 61 47
REMARK SMILES IDX 43 48 46 49 60 50 79 51 44 52 45 53 59 55 80 56 47 57 31 58
REMARK SMILES IDX 32 59 40 60 33 61 39 62 41 63 38 64 34 65 35 66 36 67 37 68
REMARK SMILES IDX 63 69 64 70 72 71 65 72 71 73 73 74 70 75 66 76 67 77 68 78
REMARK SMILES IDX 69 79 48 80 49 81 57 82 50 83 56 84 58 85 55 86 51 87 52 88
REMARK SMILES IDX 53 89 54 90
REMARK H PARENT 14 6 4 15 19 24 78 43 46 54
REMARK Flexibility Score: inf
ROOT
ATOM      1  C   UNL     1       1.646   5.608   2.692  1.00  0.00     0.023 C 
ENDROOT
BRANCH   1   2
ATOM      2  C   UNL     1       2.144   4.959   3.984  1.00  0.00     0.116 C 
BRANCH   2   3
ATOM      3  N   UNL     1       1.243   3.909   4.413  1.00  0.00    -0.352 N 
ATOM      4  C   UNL     1       1.328   2.539   4.375  1.00  0.00     0.252 C 
ATOM      5  O   UNL     1       0.397   1.907   4.863  1.00  0.00    -0.269 OA
ATOM      6  H   UNL     1       0.405   4.243   4.808  1.00  0.00     0.163 HD
BRANCH   4   7
ATOM      7  C   UNL     1       2.494   1.851   3.821  1.00  0.00     0.057 A 
ATOM      8  N   UNL     1       4.400   1.308   2.768  1.00  0.00    -0.344 N 
ATOM      9  C   UNL     1       4.008   0.184   3.440  1.00  0.00     0.087 A 
ATOM     10  C   UNL     1       3.467   2.297   2.948  1.00  0.00     0.100 A 
ATOM     11  C   UNL     1       2.819   0.477   4.069  1.00  0.00     0.033 A 
BRANCH   8  12
ATOM     12  C   UNL     1       5.568   1.424   1.907  1.00  0.00     0.221 C 
BRANCH  12  13
ATOM     13  C   UNL     1       5.213   1.999   0.548  1.00  0.00     0.240 C 
ATOM     14  N   UNL     1       4.304   1.358  -0.243  1.00  0.00    -0.341 N 
ATOM     15  H   UNL     1       4.025   1.832  -1.059  1.00  0.00     0.164 HD
ATOM     16  O   UNL     1       5.738   3.027   0.121  1.00  0.00    -0.273 OA
BRANCH  14  17
ATOM     17  C   UNL     1       3.704   0.060  -0.020  1.00  0.00     0.236 C 
BRANCH  17  18
ATOM     18  C   UNL     1       2.184   0.060  -0.020  1.00  0.00     0.084 C 
ATOM     19  N   UNL     1       0.923   0.060  -0.020  1.00  0.00    -0.196 NA
ENDBRANCH  17  18
ENDBRANCH  14  17
ENDBRANCH  12  13
ENDBRANCH   8  12
ENDBRANCH   4   7
ENDBRANCH   2   3
ENDBRANCH   1   2
BRANCH   1  20
ATOM     20  C   UNL     1       0.472   6.577   2.911  1.00  0.00     0.023 C 
BRANCH  20  21
ATOM     21  C   UNL     1       0.822   7.804   3.761  1.00  0.00     0.116 C 
BRANCH  21  22
ATOM     22  N   UNL     1       1.856   8.600   3.121  1.00  0.00    -0.352 N 
ATOM     23  C   UNL     1       2.513   9.717   3.565  1.00  0.00     0.251 C 
ATOM     24  H   UNL     1       2.126   8.287   2.227  1.00  0.00     0.163 HD
ATOM     25  O   UNL     1       3.010  10.471   2.730  1.00  0.00    -0.269 OA
BRANCH  23  26
ATOM     26  C   UNL     1       2.639  10.043   5.002  1.00  0.00     0.039 A 
ATOM     27  C   UNL     1       2.583  11.395   5.368  1.00  0.00     0.014 A 
ATOM     28  C   UNL     1       2.926   9.070   5.967  1.00  0.00     0.014 A 
ATOM     29  C   UNL     1       2.757  11.767   6.698  1.00  0.00     0.010 A 
ATOM     30  C   UNL     1       3.091   9.438   7.304  1.00  0.00     0.010 A 
ATOM     31  C   UNL     1       2.986  10.786   7.673  1.00  0.00    -0.014 A 
BRANCH  31  32
ATOM     32  C   UNL     1       2.836  11.174   9.100  1.00  0.00     0.031 A 
ATOM     33  C   UNL     1       1.318  11.265   9.468  1.00  0.00     0.074 A 
ATOM     34  C   UNL     1       3.985  11.409   9.817  1.00  0.00     0.049 A 
ATOM     35  N   UNL     1       0.702  11.958  10.376  1.00  0.00    -0.248 NA
ATOM     36  C   UNL     1       0.321  10.522   8.634  1.00  0.00     0.031 C 
ATOM     37  C   UNL     1       5.368  11.203   9.312  1.00  0.00     0.029 A 
ATOM     38  N   UNL     1       4.252  11.857  11.099  1.00  0.00    -0.354 N 
ATOM     39  C   UNL     1      -0.653  11.527  10.409  1.00  0.00     0.074 A 
ATOM     40  C   UNL     1      -0.854  10.768   9.218  1.00  0.00     0.031 C 
ATOM     41  C   UNL     1       6.296  11.601  10.218  1.00  0.00     0.029 A 
ATOM     42  C   UNL     1       5.635  12.084  11.415  1.00  0.00     0.049 A 
ATOM     43  H   UNL     1       3.536  12.011  11.757  1.00  0.00     0.167 HD
ATOM     44  C   UNL     1      -1.465  11.680  11.501  1.00  0.00     0.034 A 
ATOM     45  C   UNL     1       6.188  12.644  12.547  1.00  0.00     0.034 A 
ATOM     46  C   UNL     1      -0.762  12.409  12.500  1.00  0.00     0.049 A 
ATOM     47  C   UNL     1       5.047  12.723  13.468  1.00  0.00     0.074 A 
ATOM     48  C   UNL     1      -0.338  13.708  12.570  1.00  0.00     0.029 A 
ATOM     49  N   UNL     1      -0.111  11.664  13.456  1.00  0.00    -0.354 N 
ATOM     50  N   UNL     1       4.534  11.705  14.086  1.00  0.00    -0.248 NA
ATOM     51  C   UNL     1       4.391  14.021  13.676  1.00  0.00     0.031 C 
ATOM     52  C   UNL     1       0.931  13.576  13.164  1.00  0.00     0.029 A 
ATOM     53  C   UNL     1       1.091  12.278  13.672  1.00  0.00     0.049 A 
ATOM     54  H   UNL     1      -0.444  10.849  13.896  1.00  0.00     0.167 HD
ATOM     55  C   UNL     1       3.313  12.187  14.474  1.00  0.00     0.074 A 
ATOM     56  C   UNL     1       3.435  13.630  14.516  1.00  0.00     0.031 C 
ATOM     57  C   UNL     1       2.195  11.484  14.162  1.00  0.00     0.034 A 
BRANCH  44  58
ATOM     58  C   UNL     1      -2.761  11.036  11.949  1.00  0.00     0.023 A 
ATOM     59  C   UNL     1      -3.317  11.540  13.157  1.00  0.00     0.031 A 
ATOM     60  C   UNL     1      -3.265   9.806  11.511  1.00  0.00     0.131 A 
ATOM     61  C   UNL     1      -4.158  10.765  13.964  1.00  0.00     0.055 A 
ATOM     62  C   UNL     1      -4.180   9.066  12.280  1.00  0.00     0.041 A 
ATOM     63  F   UNL     1      -2.837   9.233  10.379  1.00  0.00    -0.206 F 
ATOM     64  C   UNL     1      -4.592   9.519  13.534  1.00  0.00     0.022 A 
BRANCH  61  65
ATOM     65  S   UNL     1      -4.473  11.334  15.662  1.00  0.00     0.124 S 
ATOM     66  O   UNL     1      -3.121  11.508  16.181  1.00  0.00    -0.237 OA
ATOM     67  O   UNL     1      -5.233  12.560  15.436  1.00  0.00    -0.237 OA
ATOM     68  O   UNL     1      -5.232  10.233  16.252  1.00  0.00    -0.744 OA
ENDBRANCH  61  65
ENDBRANCH  44  58
BRANCH  45  69
ATOM     69  C   UNL     1       7.498  13.198  13.134  1.00  0.00     0.023 A 
ATOM     70  C   UNL     1       8.784  13.177  12.562  1.00  0.00     0.031 A 
ATOM     71  C   UNL     1       7.437  13.908  14.385  1.00  0.00     0.131 A 
ATOM     72  C   UNL     1       9.860  13.899  13.180  1.00  0.00     0.055 A 
ATOM     73  C   UNL     1       8.458  14.690  14.923  1.00  0.00     0.041 A 
ATOM     74  F   UNL     1       6.357  13.882  15.177  1.00  0.00    -0.206 F 
ATOM     75  C   UNL     1       9.680  14.703  14.309  1.00  0.00     0.022 A 
BRANCH  72  76
ATOM     76  S   UNL     1      11.566  13.838  12.540  1.00  0.00     0.124 S 
ATOM     77  O   UNL     1      12.116  12.691  13.254  1.00  0.00    -0.237 OA
ATOM     78  O   UNL     1      11.373  13.672  11.104  1.00  0.00    -0.237 OA
ATOM     79  O   UNL     1      12.120  15.134  12.938  1.00  0.00    -0.744 OA
ENDBRANCH  72  76
ENDBRANCH  45  69
BRANCH  57  80
ATOM     80  C   UNL     1       2.407   9.982  13.971  1.00  0.00     0.023 A 
ATOM     81  C   UNL     1       3.014   9.220  14.990  1.00  0.00     0.031 A 
ATOM     82  C   UNL     1       2.134   9.291  12.775  1.00  0.00     0.131 A 
ATOM     83  C   UNL     1       3.344   7.863  14.791  1.00  0.00     0.055 A 
ATOM     84  C   UNL     1       2.454   7.940  12.575  1.00  0.00     0.041 A 
ATOM     85  F   UNL     1       1.555   9.904  11.745  1.00  0.00    -0.206 F 
ATOM     86  C   UNL     1       3.067   7.218  13.586  1.00  0.00     0.022 A 
BRANCH  83  87
ATOM     87  S   UNL     1       4.127   6.932  16.138  1.00  0.00     0.124 S 
ATOM     88  O   UNL     1       5.452   7.536  16.218  1.00  0.00    -0.237 OA
ATOM     89  O   UNL     1       3.235   7.195  17.263  1.00  0.00    -0.237 OA
ATOM     90  O   UNL     1       4.109   5.551  15.655  1.00  0.00    -0.744 OA
ENDBRANCH  83  87
ENDBRANCH  57  80
ENDBRANCH  31  32
ENDBRANCH  23  26
ENDBRANCH  21  22
ENDBRANCH  20  21
ENDBRANCH   1  20
TORSDOF 18
