REMARK SMILES CC[C@@](C)([NH3+])C(=O)Nc1cc(C(=O)NCCCCNC(=O)c2ccc(-c3c4nc(c(-c5cc(S(=O)(=O)[O-])ccc5F)c5ccc([nH]5)c(-c5cc(S(=O)(=O)[O-])ccc5F)c5nc(c(-c6cc(S(=O)(=O)[O-])ccc6F)c6ccc3[nH]6)C=C5)C=C4)cc2)cc(C(F)(F)F)c1
REMARK SMILES IDX 16 1 15 2 14 3 12 4 13 5 11 7 9 8 10 9 91 10 86 11 85 12
REMARK SMILES IDX 8 13 6 14 7 15 3 17 4 18 2 19 1 20 5 21 87 25 88 26 89 27
REMARK SMILES IDX 90 28 17 29 18 30 19 31 20 32 21 34 22 35 23 36 84 37 24 38
REMARK SMILES IDX 83 39 25 40 26 41 27 42 77 43 28 44 82 45 76 46 78 47 29 48
REMARK SMILES IDX 81 49 75 50 74 51 30 53 62 54 42 55 61 56 43 57 46 58 60 59
REMARK SMILES IDX 79 60 44 61 45 62 59 64 80 65 47 66 31 67 32 68 40 69 33 70
REMARK SMILES IDX 39 71 41 72 38 73 34 74 35 75 36 76 37 77 63 78 64 79 72 80
REMARK SMILES IDX 65 81 71 82 73 83 70 84 66 85 67 86 68 87 69 88 48 89 49 90
REMARK SMILES IDX 57 91 50 92 56 93 58 94 55 95 51 96 52 97 53 98 54 99
REMARK H PARENT 14 6 8 16 5 22 5 23 5 24 19 33 78 52 46 63
REMARK Flexibility Score: inf
ROOT
ATOM      1  C   UNL     1       2.083  -4.392  10.157  1.00  0.00     0.023 C 
ENDROOT
BRANCH   1   2
ATOM      2  C   UNL     1       1.465  -3.262   9.353  1.00  0.00     0.116 C 
BRANCH   2   3
ATOM      3  N   UNL     1       2.315  -2.099   9.130  1.00  0.00    -0.352 N 
ATOM      4  C   UNL     1       2.598  -1.394   7.974  1.00  0.00     0.251 C 
ATOM      5  O   UNL     1       3.345  -0.420   8.019  1.00  0.00    -0.269 OA
ATOM      6  H   UNL     1       2.764  -1.758   9.938  1.00  0.00     0.163 HD
BRANCH   4   7
ATOM      7  C   UNL     1       2.073  -1.842   6.657  1.00  0.00     0.042 A 
ATOM      8  C   UNL     1       2.427  -2.265   4.313  1.00  0.00     0.042 A 
ATOM      9  C   UNL     1       2.856  -1.683   5.504  1.00  0.00     0.040 A 
ATOM     10  C   UNL     1       1.410  -3.210   4.364  1.00  0.00     0.039 A 
ATOM     11  C   UNL     1       0.551  -3.273   5.456  1.00  0.00     0.058 A 
ATOM     12  C   UNL     1       0.827  -2.458   6.550  1.00  0.00     0.027 A 
BRANCH   8  13
ATOM     13  N   UNL     1       3.028  -1.927   3.097  1.00  0.00    -0.321 N 
ATOM     14  C   UNL     1       2.460  -1.762   1.848  1.00  0.00     0.285 C 
ATOM     15  O   UNL     1       3.247  -1.702   0.894  1.00  0.00    -0.267 OA
ATOM     16  H   UNL     1       4.002  -1.786   3.136  1.00  0.00     0.170 HD
BRANCH  14  17
ATOM     17  C   UNL     1       0.901  -1.505   1.637  1.00  0.00     0.171 C 
ATOM     18  C   UNL     1       0.390  -0.396   2.573  1.00  0.00     0.090 C 
BRANCH  17  19
ATOM     19  C   UNL     1       0.609  -1.119   0.156  1.00  0.00     0.075 C 
ATOM     20  C   UNL     1       1.086   0.258  -0.285  1.00  0.00     0.011 C 
ENDBRANCH  17  19
BRANCH  17  21
ATOM     21  N   UNL     1       0.126  -2.753   1.853  1.00  0.00    -0.345 N 
ATOM     22  H   UNL     1      -0.867  -2.566   1.713  1.00  0.00     0.345 HD
ATOM     23  H   UNL     1       0.278  -3.087   2.805  1.00  0.00     0.345 HD
ATOM     24  H   UNL     1       0.435  -3.464   1.190  1.00  0.00     0.345 HD
ENDBRANCH  17  21
ENDBRANCH  14  17
ENDBRANCH   8  13
BRANCH  11  25
ATOM     25  C   UNL     1      -0.593  -4.246   5.502  1.00  0.00     0.416 C 
ATOM     26  F   UNL     1      -0.299  -5.342   6.253  1.00  0.00    -0.166 F 
ATOM     27  F   UNL     1      -1.714  -3.704   6.051  1.00  0.00    -0.166 F 
ATOM     28  F   UNL     1      -0.963  -4.710   4.279  1.00  0.00    -0.166 F 
ENDBRANCH  11  25
ENDBRANCH   4   7
ENDBRANCH   2   3
ENDBRANCH   1   2
BRANCH   1  29
ATOM     29  C   UNL     1       2.395  -4.088  11.611  1.00  0.00     0.023 C 
BRANCH  29  30
ATOM     30  C   UNL     1       1.280  -3.421  12.404  1.00  0.00     0.116 C 
BRANCH  30  31
ATOM     31  N   UNL     1       0.024  -4.158  12.400  1.00  0.00    -0.352 N 
ATOM     32  C   UNL     1      -0.770  -4.537  13.458  1.00  0.00     0.251 C 
ATOM     33  H   UNL     1      -0.305  -4.423  11.511  1.00  0.00     0.163 HD
ATOM     34  O   UNL     1      -1.766  -5.227  13.255  1.00  0.00    -0.269 OA
BRANCH  32  35
ATOM     35  C   UNL     1      -0.392  -4.155  14.837  1.00  0.00     0.039 A 
ATOM     36  C   UNL     1      -0.413  -5.130  15.837  1.00  0.00     0.014 A 
ATOM     37  C   UNL     1       0.029  -2.857  15.133  1.00  0.00     0.014 A 
ATOM     38  C   UNL     1       0.073  -4.823  17.110  1.00  0.00     0.010 A 
ATOM     39  C   UNL     1       0.602  -2.582  16.370  1.00  0.00     0.010 A 
ATOM     40  C   UNL     1       0.629  -3.561  17.375  1.00  0.00    -0.014 A 
BRANCH  40  41
ATOM     41  C   UNL     1       1.232  -3.243  18.697  1.00  0.00     0.031 A 
ATOM     42  C   UNL     1       0.651  -2.139  19.541  1.00  0.00     0.074 A 
ATOM     43  C   UNL     1       2.336  -3.899  19.107  1.00  0.00     0.049 A 
ATOM     44  N   UNL     1       1.069  -1.663  20.685  1.00  0.00    -0.248 NA
ATOM     45  C   UNL     1      -0.538  -1.459  19.006  1.00  0.00     0.031 C 
ATOM     46  C   UNL     1       3.025  -4.950  18.355  1.00  0.00     0.029 A 
ATOM     47  N   UNL     1       3.078  -3.777  20.256  1.00  0.00    -0.354 N 
ATOM     48  C   UNL     1       0.206  -0.618  20.998  1.00  0.00     0.074 A 
ATOM     49  C   UNL     1      -0.712  -0.486  19.887  1.00  0.00     0.031 C 
ATOM     50  C   UNL     1       4.066  -5.398  19.075  1.00  0.00     0.029 A 
ATOM     51  C   UNL     1       4.149  -4.639  20.319  1.00  0.00     0.049 A 
ATOM     52  H   UNL     1       2.863  -3.133  20.969  1.00  0.00     0.167 HD
ATOM     53  C   UNL     1       0.162   0.142  22.121  1.00  0.00     0.034 A 
ATOM     54  C   UNL     1       5.092  -4.797  21.269  1.00  0.00     0.034 A 
ATOM     55  C   UNL     1       1.074  -0.014  23.228  1.00  0.00     0.049 A 
ATOM     56  C   UNL     1       5.026  -3.940  22.508  1.00  0.00     0.074 A 
ATOM     57  C   UNL     1       1.090   0.663  24.435  1.00  0.00     0.029 A 
ATOM     58  N   UNL     1       2.135  -0.910  23.264  1.00  0.00    -0.354 N 
ATOM     59  N   UNL     1       4.169  -2.992  22.813  1.00  0.00    -0.248 NA
ATOM     60  C   UNL     1       6.045  -4.186  23.536  1.00  0.00     0.031 C 
ATOM     61  C   UNL     1       2.195   0.223  25.172  1.00  0.00     0.029 A 
ATOM     62  C   UNL     1       2.826  -0.784  24.460  1.00  0.00     0.049 A 
ATOM     63  H   UNL     1       2.364  -1.542  22.544  1.00  0.00     0.167 HD
ATOM     64  C   UNL     1       4.528  -2.554  24.085  1.00  0.00     0.074 A 
ATOM     65  C   UNL     1       5.666  -3.352  24.493  1.00  0.00     0.031 C 
ATOM     66  C   UNL     1       3.966  -1.582  24.850  1.00  0.00     0.034 A 
BRANCH  53  67
ATOM     67  C   UNL     1      -0.896   1.219  22.187  1.00  0.00     0.023 A 
ATOM     68  C   UNL     1      -2.268   0.910  22.146  1.00  0.00     0.031 A 
ATOM     69  C   UNL     1      -0.532   2.575  22.254  1.00  0.00     0.131 A 
ATOM     70  C   UNL     1      -3.218   1.940  22.083  1.00  0.00     0.055 A 
ATOM     71  C   UNL     1      -1.487   3.594  22.282  1.00  0.00     0.041 A 
ATOM     72  F   UNL     1       0.761   2.937  22.276  1.00  0.00    -0.206 F 
ATOM     73  C   UNL     1      -2.839   3.280  22.178  1.00  0.00     0.022 A 
BRANCH  70  74
ATOM     74  S   UNL     1      -4.941   1.505  21.717  1.00  0.00     0.124 S 
ATOM     75  O   UNL     1      -4.807   0.839  20.423  1.00  0.00    -0.237 OA
ATOM     76  O   UNL     1      -5.297   0.649  22.843  1.00  0.00    -0.237 OA
ATOM     77  O   UNL     1      -5.619   2.799  21.676  1.00  0.00    -0.744 OA
ENDBRANCH  70  74
ENDBRANCH  53  67
BRANCH  54  78
ATOM     78  C   UNL     1       6.179  -5.804  21.098  1.00  0.00     0.023 A 
ATOM     79  C   UNL     1       6.286  -6.907  21.962  1.00  0.00     0.031 A 
ATOM     80  C   UNL     1       7.155  -5.655  20.097  1.00  0.00     0.131 A 
ATOM     81  C   UNL     1       7.371  -7.788  21.842  1.00  0.00     0.055 A 
ATOM     82  C   UNL     1       8.204  -6.565  19.948  1.00  0.00     0.041 A 
ATOM     83  F   UNL     1       7.097  -4.623  19.240  1.00  0.00    -0.206 F 
ATOM     84  C   UNL     1       8.324  -7.632  20.833  1.00  0.00     0.022 A 
BRANCH  81  85
ATOM     85  S   UNL     1       7.568  -9.097  23.082  1.00  0.00     0.124 S 
ATOM     86  O   UNL     1       7.642  -8.327  24.318  1.00  0.00    -0.237 OA
ATOM     87  O   UNL     1       6.354  -9.883  22.887  1.00  0.00    -0.237 OA
ATOM     88  O   UNL     1       8.808  -9.760  22.683  1.00  0.00    -0.744 OA
ENDBRANCH  81  85
ENDBRANCH  54  78
BRANCH  66  89
ATOM     89  C   UNL     1       4.549  -1.372  26.226  1.00  0.00     0.023 A 
ATOM     90  C   UNL     1       5.857  -0.891  26.412  1.00  0.00     0.031 A 
ATOM     91  C   UNL     1       3.789  -1.680  27.369  1.00  0.00     0.131 A 
ATOM     92  C   UNL     1       6.388  -0.793  27.707  1.00  0.00     0.055 A 
ATOM     93  C   UNL     1       4.300  -1.519  28.657  1.00  0.00     0.041 A 
ATOM     94  F   UNL     1       2.535  -2.144  27.251  1.00  0.00    -0.206 F 
ATOM     95  C   UNL     1       5.612  -1.088  28.832  1.00  0.00     0.022 A 
BRANCH  92  96
ATOM     96  S   UNL     1       8.143  -0.377  27.900  1.00  0.00     0.124 S 
ATOM     97  O   UNL     1       8.791  -1.427  27.120  1.00  0.00    -0.237 OA
ATOM     98  O   UNL     1       8.207   0.968  27.336  1.00  0.00    -0.237 OA
ATOM     99  O   UNL     1       8.357  -0.454  29.344  1.00  0.00    -0.744 OA
ENDBRANCH  92  96
ENDBRANCH  66  89
ENDBRANCH  40  41
ENDBRANCH  32  35
ENDBRANCH  30  31
ENDBRANCH  29  30
ENDBRANCH   1  29
TORSDOF 19
