REMARK SMILES O=C(C[C@H]1S/C(=[NH+]\N=C\c2cc(Br)ccc2OCc2ccccc2)NC1=O)NCCCCNC(=O)c1ccc(-c2c3nc(c(-c4cc(S(=O)(=O)[O-])ccc4F)c4ccc([nH]4)c(-c4cc(S(=O)(=O)[O-])ccc4F)c4nc(c(-c5cc(S(=O)(=O)[O-])ccc5F)c5ccc2[nH]5)C=C4)C=C3)cc1
REMARK SMILES IDX 29 1 28 2 1 3 2 4 3 6 4 7 5 8 26 9 6 10 25 11 27 12 7 13
REMARK SMILES IDX 8 16 9 17 10 18 11 19 16 20 12 21 15 22 13 23 14 24 17 25
REMARK SMILES IDX 18 26 19 27 20 28 24 29 21 30 23 31 22 32 30 33 31 34 32 35
REMARK SMILES IDX 33 36 34 37 35 39 36 40 37 41 98 42 38 43 97 44 39 45 40 46
REMARK SMILES IDX 41 47 91 48 42 49 96 50 90 51 92 52 43 53 95 54 89 55 88 56
REMARK SMILES IDX 44 58 76 59 56 60 75 61 57 62 60 63 74 64 93 65 58 66 59 67
REMARK SMILES IDX 73 69 94 70 61 71 45 72 46 73 54 74 47 75 53 76 55 77 52 78
REMARK SMILES IDX 48 79 49 80 50 81 51 82 77 83 78 84 86 85 79 86 85 87 87 88
REMARK SMILES IDX 84 89 80 90 81 91 82 92 83 93 62 94 63 95 71 96 64 97 70 98
REMARK SMILES IDX 72 99 69 100 65 101 66 102 67 103 68 104
REMARK H PARENT 28 5 25 14 7 15 33 38 92 57 60 68
REMARK Flexibility Score: inf
ROOT
ATOM      1  C   UNL     1       2.061  -1.437   1.959  1.00  0.00     0.116 C 
ENDROOT
BRANCH   1   2
ATOM      2  N   UNL     1       2.697  -0.704   0.884  1.00  0.00    -0.356 N 
ATOM      3  O   UNL     1       0.757   0.122  -0.038  1.00  0.00    -0.275 OA
ATOM      4  C   UNL     1       1.980   0.038  -0.026  1.00  0.00     0.221 C 
ATOM      5  H   UNL     1       3.678  -0.739   0.801  1.00  0.00     0.163 HD
BRANCH   4   6
ATOM      6  C   UNL     1       2.834   0.723  -1.063  1.00  0.00     0.127 C 
BRANCH   6   7
ATOM      7  C   UNL     1       3.777   1.724  -0.400  1.00  0.00     0.183 C 
ATOM      8  S   UNL     1       5.504   1.299  -0.822  1.00  0.00    -0.020 SA
ATOM      9  C   UNL     1       3.569   3.103  -0.991  1.00  0.00     0.322 C 
ATOM     10  C   UNL     1       5.597   2.567  -2.003  1.00  0.00     0.337 C 
ATOM     11  N   UNL     1       4.554   3.418  -1.877  1.00  0.00    -0.202 N 
ATOM     12  O   UNL     1       2.610   3.824  -0.766  1.00  0.00    -0.246 OA
ATOM     13  N   UNL     1       6.473   2.769  -2.924  1.00  0.00    -0.142 N 
ATOM     14  H   UNL     1       4.508   4.244  -2.411  1.00  0.00     0.316 HD
ATOM     15  H   UNL     1       6.430   3.543  -3.531  1.00  0.00     0.343 HD
BRANCH  13  16
ATOM     16  N   UNL     1       7.488   1.815  -3.002  1.00  0.00    -0.093 NA
ATOM     17  C   UNL     1       8.219   2.071  -4.042  1.00  0.00     0.170 C 
BRANCH  17  18
ATOM     18  C   UNL     1       9.383   1.275  -4.435  1.00  0.00     0.040 A 
ATOM     19  C   UNL     1       9.129  -0.099  -4.595  1.00  0.00     0.029 A 
ATOM     20  C   UNL     1      10.650   1.800  -4.733  1.00  0.00     0.128 A 
ATOM     21  C   UNL     1      10.138  -0.952  -5.031  1.00  0.00     0.018 A 
ATOM     22  C   UNL     1      11.668   0.901  -5.096  1.00  0.00     0.048 A 
ATOM     23  Br  UNL     1       9.756  -2.772  -5.363  1.00  0.00    -0.051 Br
ATOM     24  C   UNL     1      11.418  -0.463  -5.257  1.00  0.00     0.019 A 
BRANCH  20  25
ATOM     25  O   UNL     1      11.107   3.087  -4.783  1.00  0.00    -0.488 OA
BRANCH  25  26
ATOM     26  C   UNL     1      10.261   4.234  -4.743  1.00  0.00     0.265 C 
BRANCH  26  27
ATOM     27  C   UNL     1       9.316   4.415  -5.919  1.00  0.00    -0.011 A 
ATOM     28  C   UNL     1       8.291   5.371  -5.810  1.00  0.00     0.007 A 
ATOM     29  C   UNL     1       9.328   3.570  -7.039  1.00  0.00     0.007 A 
ATOM     30  C   UNL     1       7.246   5.399  -6.734  1.00  0.00     0.000 A 
ATOM     31  C   UNL     1       8.269   3.582  -7.947  1.00  0.00     0.000 A 
ATOM     32  C   UNL     1       7.220   4.483  -7.784  1.00  0.00     0.000 A 
ENDBRANCH  26  27
ENDBRANCH  25  26
ENDBRANCH  20  25
ENDBRANCH  17  18
ENDBRANCH  13  16
ENDBRANCH   6   7
ENDBRANCH   4   6
ENDBRANCH   1   2
BRANCH   1  33
ATOM     33  C   UNL     1       2.467  -2.908   1.962  1.00  0.00     0.023 C 
BRANCH  33  34
ATOM     34  C   UNL     1       3.960  -3.168   2.183  1.00  0.00     0.023 C 
BRANCH  34  35
ATOM     35  C   UNL     1       4.546  -2.582   3.465  1.00  0.00     0.116 C 
BRANCH  35  36
ATOM     36  N   UNL     1       3.937  -3.133   4.664  1.00  0.00    -0.352 N 
ATOM     37  C   UNL     1       4.531  -3.708   5.763  1.00  0.00     0.251 C 
ATOM     38  H   UNL     1       2.954  -3.089   4.694  1.00  0.00     0.163 HD
ATOM     39  O   UNL     1       3.831  -4.265   6.604  1.00  0.00    -0.269 OA
BRANCH  37  40
ATOM     40  C   UNL     1       6.005  -3.687   5.916  1.00  0.00     0.039 A 
ATOM     41  C   UNL     1       6.654  -4.849   6.340  1.00  0.00     0.014 A 
ATOM     42  C   UNL     1       6.747  -2.534   5.647  1.00  0.00     0.014 A 
ATOM     43  C   UNL     1       8.050  -4.877   6.421  1.00  0.00     0.010 A 
ATOM     44  C   UNL     1       8.141  -2.587   5.653  1.00  0.00     0.010 A 
ATOM     45  C   UNL     1       8.809  -3.760   6.036  1.00  0.00    -0.014 A 
BRANCH  45  46
ATOM     46  C   UNL     1      10.298  -3.807   6.021  1.00  0.00     0.031 A 
ATOM     47  C   UNL     1      11.097  -2.891   6.909  1.00  0.00     0.074 A 
ATOM     48  C   UNL     1      10.932  -4.635   5.166  1.00  0.00     0.049 A 
ATOM     49  N   UNL     1      12.394  -2.732   6.983  1.00  0.00    -0.248 NA
ATOM     50  C   UNL     1      10.333  -2.020   7.814  1.00  0.00     0.031 C 
ATOM     51  C   UNL     1      10.272  -5.547   4.229  1.00  0.00     0.029 A 
ATOM     52  N   UNL     1      12.271  -4.841   4.938  1.00  0.00    -0.354 N 
ATOM     53  C   UNL     1      12.603  -1.741   7.936  1.00  0.00     0.074 A 
ATOM     54  C   UNL     1      11.294  -1.290   8.360  1.00  0.00     0.031 C 
ATOM     55  C   UNL     1      11.205  -6.230   3.548  1.00  0.00     0.029 A 
ATOM     56  C   UNL     1      12.529  -5.770   3.955  1.00  0.00     0.049 A 
ATOM     57  H   UNL     1      12.980  -4.369   5.432  1.00  0.00     0.167 HD
ATOM     58  C   UNL     1      13.775  -1.268   8.430  1.00  0.00     0.034 A 
ATOM     59  C   UNL     1      13.696  -6.190   3.426  1.00  0.00     0.034 A 
ATOM     60  C   UNL     1      15.073  -1.728   7.996  1.00  0.00     0.049 A 
ATOM     61  C   UNL     1      14.986  -5.616   3.956  1.00  0.00     0.074 A 
ATOM     62  C   UNL     1      16.321  -1.347   8.459  1.00  0.00     0.029 A 
ATOM     63  N   UNL     1      15.294  -2.661   6.991  1.00  0.00    -0.354 N 
ATOM     64  N   UNL     1      15.166  -4.711   4.890  1.00  0.00    -0.248 NA
ATOM     65  C   UNL     1      16.231  -6.128   3.368  1.00  0.00     0.031 C 
ATOM     66  C   UNL     1      17.293  -1.986   7.683  1.00  0.00     0.029 A 
ATOM     67  C   UNL     1      16.657  -2.839   6.796  1.00  0.00     0.049 A 
ATOM     68  H   UNL     1      14.588  -3.128   6.489  1.00  0.00     0.167 HD
ATOM     69  C   UNL     1      16.546  -4.571   5.023  1.00  0.00     0.074 A 
ATOM     70  C   UNL     1      17.148  -5.496   4.085  1.00  0.00     0.031 C 
ATOM     71  C   UNL     1      17.250  -3.756   5.849  1.00  0.00     0.034 A 
BRANCH  58  72
ATOM     72  C   UNL     1      13.700  -0.180   9.477  1.00  0.00     0.023 A 
ATOM     73  C   UNL     1      13.073  -0.392  10.718  1.00  0.00     0.031 A 
ATOM     74  C   UNL     1      14.241   1.093   9.226  1.00  0.00     0.131 A 
ATOM     75  C   UNL     1      12.930   0.671  11.623  1.00  0.00     0.055 A 
ATOM     76  C   UNL     1      14.175   2.122  10.168  1.00  0.00     0.041 A 
ATOM     77  F   UNL     1      14.834   1.365   8.053  1.00  0.00    -0.206 F 
ATOM     78  C   UNL     1      13.502   1.919  11.369  1.00  0.00     0.022 A 
BRANCH  75  79
ATOM     79  S   UNL     1      11.849   0.441  13.062  1.00  0.00     0.124 S 
ATOM     80  O   UNL     1      10.581   0.092  12.424  1.00  0.00    -0.237 OA
ATOM     81  O   UNL     1      12.516  -0.632  13.789  1.00  0.00    -0.237 OA
ATOM     82  O   UNL     1      11.869   1.748  13.717  1.00  0.00    -0.744 OA
ENDBRANCH  75  79
ENDBRANCH  58  72
BRANCH  59  83
ATOM     83  C   UNL     1      13.706  -7.191   2.318  1.00  0.00     0.023 A 
ATOM     84  C   UNL     1      14.302  -8.451   2.481  1.00  0.00     0.031 A 
ATOM     85  C   UNL     1      13.158  -6.880   1.060  1.00  0.00     0.131 A 
ATOM     86  C   UNL     1      14.380  -9.335   1.393  1.00  0.00     0.055 A 
ATOM     87  C   UNL     1      13.182  -7.787  -0.002  1.00  0.00     0.041 A 
ATOM     88  F   UNL     1      12.576  -5.689   0.847  1.00  0.00    -0.206 F 
ATOM     89  C   UNL     1      13.810  -9.018   0.158  1.00  0.00     0.022 A 
BRANCH  86  90
ATOM     90  S   UNL     1      15.326 -10.871   1.586  1.00  0.00     0.124 S 
ATOM     91  O   UNL     1      16.642 -10.362   1.958  1.00  0.00    -0.237 OA
ATOM     92  O   UNL     1      14.582 -11.555   2.638  1.00  0.00    -0.237 OA
ATOM     93  O   UNL     1      15.246 -11.489   0.264  1.00  0.00    -0.744 OA
ENDBRANCH  86  90
ENDBRANCH  59  83
BRANCH  71  94
ATOM     94  C   UNL     1      18.757  -3.867   5.809  1.00  0.00     0.023 A 
ATOM     95  C   UNL     1      19.499  -3.514   4.668  1.00  0.00     0.031 A 
ATOM     96  C   UNL     1      19.459  -4.343   6.931  1.00  0.00     0.131 A 
ATOM     97  C   UNL     1      20.891  -3.698   4.655  1.00  0.00     0.055 A 
ATOM     98  C   UNL     1      20.850  -4.458   6.936  1.00  0.00     0.041 A 
ATOM     99  F   UNL     1      18.803  -4.700   8.048  1.00  0.00    -0.206 F 
ATOM    100  C   UNL     1      21.573  -4.148   5.788  1.00  0.00     0.022 A 
BRANCH  97 101
ATOM    101  S   UNL     1      21.790  -3.439   3.100  1.00  0.00     0.124 S 
ATOM    102  O   UNL     1      21.122  -4.377   2.204  1.00  0.00    -0.237 OA
ATOM    103  O   UNL     1      21.551  -2.024   2.834  1.00  0.00    -0.237 OA
ATOM    104  O   UNL     1      23.169  -3.781   3.441  1.00  0.00    -0.744 OA
ENDBRANCH  97 101
ENDBRANCH  71  94
ENDBRANCH  45  46
ENDBRANCH  37  40
ENDBRANCH  35  36
ENDBRANCH  34  35
ENDBRANCH  33  34
ENDBRANCH   1  33
TORSDOF 20
