REMARK SMILES Cn1c(SCC(=O)NCCCCNC(=O)c2ccc(-c3c4nc(c(-c5cc(S(=O)(=O)[O-])ccc5F)c5ccc([nH]5)c(-c5cc(S(=O)(=O)[O-])ccc5F)c5nc(c(-c6cc(S(=O)(=O)[O-])ccc6F)c6ccc3[nH]6)C=C5)C=C4)cc2)nnc1-c1ccccc1Br
REMARK SMILES IDX 10 1 9 2 8 3 6 4 7 5 5 7 4 8 3 9 1 10 2 11 81 12 79 13 80 14
REMARK SMILES IDX 82 15 83 16 87 17 84 18 86 19 88 20 85 21 11 22 12 23 13 24
REMARK SMILES IDX 14 25 15 27 16 28 17 29 78 30 18 31 77 32 19 33 20 34 21 35
REMARK SMILES IDX 71 36 22 37 76 38 70 39 72 40 23 41 75 42 69 43 68 44 24 46
REMARK SMILES IDX 56 47 36 48 55 49 37 50 40 51 54 52 73 53 38 54 39 55 53 57
REMARK SMILES IDX 74 58 41 59 25 60 26 61 34 62 27 63 33 64 35 65 32 66 28 67
REMARK SMILES IDX 29 68 30 69 31 70 57 71 58 72 66 73 59 74 65 75 67 76 64 77
REMARK SMILES IDX 60 78 61 79 62 80 63 81 42 82 43 83 51 84 44 85 50 86 52 87
REMARK SMILES IDX 49 88 45 89 46 90 47 91 48 92
REMARK H PARENT 8 6 13 26 72 45 40 56
REMARK Flexibility Score: inf
ROOT
ATOM      1  C   UNL     1       0.308   3.516   3.271  1.00  0.00     0.023 C 
ENDROOT
BRANCH   1   2
ATOM      2  C   UNL     1       1.499   4.108   2.521  1.00  0.00     0.116 C 
BRANCH   2   3
ATOM      3  N   UNL     1       2.507   3.107   2.234  1.00  0.00    -0.355 N 
ATOM      4  C   UNL     1       2.904   2.595   1.040  1.00  0.00     0.230 C 
ATOM      5  O   UNL     1       3.866   1.821   1.041  1.00  0.00    -0.274 OA
ATOM      6  H   UNL     1       2.974   2.744   3.021  1.00  0.00     0.163 HD
BRANCH   4   7
ATOM      7  C   UNL     1       2.280   3.025  -0.265  1.00  0.00     0.178 C 
BRANCH   7   8
ATOM      8  S   UNL     1       0.544   2.676  -0.497  1.00  0.00    -0.076 SA
BRANCH   8   9
ATOM      9  C   UNL     1       0.139   1.027  -0.197  1.00  0.00     0.191 A 
ATOM     10  C   UNL     1       2.313  -0.284  -0.409  1.00  0.00     0.154 C 
ATOM     11  N   UNL     1       0.906  -0.107  -0.178  1.00  0.00    -0.305 N 
ATOM     12  C   UNL     1       0.026  -1.155   0.050  1.00  0.00     0.165 A 
ATOM     13  N   UNL     1      -1.124   0.684  -0.050  1.00  0.00    -0.123 NA
ATOM     14  N   UNL     1      -1.199  -0.675   0.087  1.00  0.00    -0.129 NA
BRANCH  12  15
ATOM     15  C   UNL     1       0.385  -2.569   0.124  1.00  0.00     0.034 A 
ATOM     16  C   UNL     1       0.009  -3.401  -0.943  1.00  0.00     0.013 A 
ATOM     17  C   UNL     1       1.105  -3.125   1.193  1.00  0.00     0.029 A 
ATOM     18  C   UNL     1       0.386  -4.745  -0.969  1.00  0.00     0.001 A 
ATOM     19  C   UNL     1       1.489  -4.470   1.160  1.00  0.00     0.016 A 
ATOM     20  Br  UNL     1       1.575  -2.122   2.739  1.00  0.00    -0.050 Br
ATOM     21  C   UNL     1       1.137  -5.275   0.076  1.00  0.00     0.001 A 
ENDBRANCH  12  15
ENDBRANCH   8   9
ENDBRANCH   7   8
ENDBRANCH   4   7
ENDBRANCH   2   3
ENDBRANCH   1   2
BRANCH   1  22
ATOM     22  C   UNL     1       0.633   2.939   4.654  1.00  0.00     0.023 C 
BRANCH  22  23
ATOM     23  C   UNL     1       1.370   3.875   5.608  1.00  0.00     0.116 C 
BRANCH  23  24
ATOM     24  N   UNL     1       0.672   5.131   5.823  1.00  0.00    -0.352 N 
ATOM     25  C   UNL     1       0.430   5.813   6.989  1.00  0.00     0.251 C 
ATOM     26  H   UNL     1       0.319   5.557   5.009  1.00  0.00     0.163 HD
ATOM     27  O   UNL     1      -0.306   6.799   6.960  1.00  0.00    -0.269 OA
BRANCH  25  28
ATOM     28  C   UNL     1       1.014   5.360   8.272  1.00  0.00     0.039 A 
ATOM     29  C   UNL     1       0.216   5.404   9.419  1.00  0.00     0.014 A 
ATOM     30  C   UNL     1       2.336   4.913   8.364  1.00  0.00     0.014 A 
ATOM     31  C   UNL     1       0.724   4.952  10.639  1.00  0.00     0.010 A 
ATOM     32  C   UNL     1       2.814   4.389   9.566  1.00  0.00     0.010 A 
ATOM     33  C   UNL     1       2.016   4.407  10.719  1.00  0.00    -0.014 A 
BRANCH  33  34
ATOM     34  C   UNL     1       2.527   3.857  12.004  1.00  0.00     0.031 A 
ATOM     35  C   UNL     1       3.716   4.480  12.687  1.00  0.00     0.074 A 
ATOM     36  C   UNL     1       1.930   2.776  12.546  1.00  0.00     0.049 A 
ATOM     37  N   UNL     1       4.295   4.143  13.812  1.00  0.00    -0.248 NA
ATOM     38  C   UNL     1       4.353   5.615  12.004  1.00  0.00     0.031 C 
ATOM     39  C   UNL     1       0.800   2.054  11.956  1.00  0.00     0.029 A 
ATOM     40  N   UNL     1       2.179   2.099  13.713  1.00  0.00    -0.354 N 
ATOM     41  C   UNL     1       5.362   5.021  13.971  1.00  0.00     0.074 A 
ATOM     42  C   UNL     1       5.391   5.857  12.789  1.00  0.00     0.031 C 
ATOM     43  C   UNL     1       0.427   1.066  12.784  1.00  0.00     0.029 A 
ATOM     44  C   UNL     1       1.318   1.049  13.940  1.00  0.00     0.049 A 
ATOM     45  H   UNL     1       2.906   2.341  14.331  1.00  0.00     0.167 HD
ATOM     46  C   UNL     1       6.222   5.137  15.015  1.00  0.00     0.034 A 
ATOM     47  C   UNL     1       1.252   0.171  14.960  1.00  0.00     0.034 A 
ATOM     48  C   UNL     1       6.179   4.293  16.187  1.00  0.00     0.049 A 
ATOM     49  C   UNL     1       2.234   0.304  16.097  1.00  0.00     0.074 A 
ATOM     50  C   UNL     1       6.972   4.352  17.320  1.00  0.00     0.029 A 
ATOM     51  N   UNL     1       5.303   3.230  16.374  1.00  0.00    -0.354 N 
ATOM     52  N   UNL     1       3.202   1.178  16.257  1.00  0.00    -0.248 NA
ATOM     53  C   UNL     1       2.102  -0.658  17.197  1.00  0.00     0.031 C 
ATOM     54  C   UNL     1       6.629   3.282  18.154  1.00  0.00     0.029 A 
ATOM     55  C   UNL     1       5.560   2.607  17.587  1.00  0.00     0.049 A 
ATOM     56  H   UNL     1       4.602   2.959  15.739  1.00  0.00     0.167 HD
ATOM     57  C   UNL     1       3.772   0.888  17.495  1.00  0.00     0.074 A 
ATOM     58  C   UNL     1       3.022  -0.222  18.045  1.00  0.00     0.031 C 
ATOM     59  C   UNL     1       4.819   1.487  18.121  1.00  0.00     0.034 A 
BRANCH  46  60
ATOM     60  C   UNL     1       7.295   6.198  14.919  1.00  0.00     0.023 A 
ATOM     61  C   UNL     1       6.977   7.565  14.822  1.00  0.00     0.031 A 
ATOM     62  C   UNL     1       8.655   5.840  14.905  1.00  0.00     0.131 A 
ATOM     63  C   UNL     1       7.996   8.512  14.636  1.00  0.00     0.055 A 
ATOM     64  C   UNL     1       9.669   6.796  14.809  1.00  0.00     0.041 A 
ATOM     65  F   UNL     1       9.024   4.551  14.972  1.00  0.00    -0.206 F 
ATOM     66  C   UNL     1       9.342   8.140  14.657  1.00  0.00     0.022 A 
BRANCH  63  67
ATOM     67  S   UNL     1       7.531  10.214  14.212  1.00  0.00     0.124 S 
ATOM     68  O   UNL     1       6.754  10.012  12.992  1.00  0.00    -0.237 OA
ATOM     69  O   UNL     1       6.778  10.637  15.387  1.00  0.00    -0.237 OA
ATOM     70  O   UNL     1       8.816  10.883  14.019  1.00  0.00    -0.744 OA
ENDBRANCH  63  67
ENDBRANCH  46  60
BRANCH  47  71
ATOM     71  C   UNL     1       0.226  -0.913  14.963  1.00  0.00     0.023 A 
ATOM     72  C   UNL     1      -0.760  -0.978  15.961  1.00  0.00     0.031 A 
ATOM     73  C   UNL     1       0.248  -1.933  13.994  1.00  0.00     0.131 A 
ATOM     74  C   UNL     1      -1.648  -2.064  15.999  1.00  0.00     0.055 A 
ATOM     75  C   UNL     1      -0.676  -2.978  14.000  1.00  0.00     0.041 A 
ATOM     76  F   UNL     1       1.168  -1.921  13.016  1.00  0.00    -0.206 F 
ATOM     77  C   UNL     1      -1.623  -3.056  15.017  1.00  0.00     0.022 A 
BRANCH  74  78
ATOM     78  S   UNL     1      -2.775  -2.216  17.413  1.00  0.00     0.124 S 
ATOM     79  O   UNL     1      -1.842  -2.241  18.534  1.00  0.00    -0.237 OA
ATOM     80  O   UNL     1      -3.589  -1.012  17.282  1.00  0.00    -0.237 OA
ATOM     81  O   UNL     1      -3.476  -3.471  17.155  1.00  0.00    -0.744 OA
ENDBRANCH  74  78
ENDBRANCH  47  71
BRANCH  59  82
ATOM     82  C   UNL     1       5.179   0.970  19.495  1.00  0.00     0.023 A 
ATOM     83  C   UNL     1       5.629  -0.347  19.698  1.00  0.00     0.031 A 
ATOM     84  C   UNL     1       5.028   1.794  20.625  1.00  0.00     0.131 A 
ATOM     85  C   UNL     1       5.833  -0.825  21.001  1.00  0.00     0.055 A 
ATOM     86  C   UNL     1       5.307   1.337  21.913  1.00  0.00     0.041 A 
ATOM     87  F   UNL     1       4.598   3.060  20.496  1.00  0.00    -0.206 F 
ATOM     88  C   UNL     1       5.694   0.014  22.109  1.00  0.00     0.022 A 
BRANCH  85  89
ATOM     89  S   UNL     1       6.151  -2.595  21.238  1.00  0.00     0.124 S 
ATOM     90  O   UNL     1       4.996  -3.200  20.583  1.00  0.00    -0.237 OA
ATOM     91  O   UNL     1       7.433  -2.775  20.564  1.00  0.00    -0.237 OA
ATOM     92  O   UNL     1       6.189  -2.746  22.692  1.00  0.00    -0.744 OA
ENDBRANCH  85  89
ENDBRANCH  59  82
ENDBRANCH  33  34
ENDBRANCH  25  28
ENDBRANCH  23  24
ENDBRANCH  22  23
ENDBRANCH   1  22
TORSDOF 17
