REMARK SMILES O=C(NCCCCNC(=O)c1ccnc(-n2cnnn2)c1)c1ccc(-c2c3nc(c(-c4cc(S(=O)(=O)[O-])ccc4F)c4ccc([nH]4)c(-c4cc(S(=O)(=O)[O-])ccc4F)c4nc(c(-c5cc(S(=O)(=O)[O-])ccc5F)c5ccc2[nH]5)C=C4)C=C3)cc1
REMARK SMILES IDX 4 1 3 2 1 3 2 4 22 6 23 7 84 8 24 9 83 10 25 11 26 12 27 13
REMARK SMILES IDX 77 14 28 15 82 16 76 17 78 18 29 19 81 20 75 21 74 22 30 24
REMARK SMILES IDX 62 25 42 26 61 27 43 28 46 29 60 30 79 31 44 32 45 33 59 35
REMARK SMILES IDX 80 36 47 37 31 38 32 39 40 40 33 41 39 42 41 43 38 44 34 45
REMARK SMILES IDX 35 46 36 47 37 48 63 49 64 50 72 51 65 52 71 53 73 54 70 55
REMARK SMILES IDX 66 56 67 57 68 58 69 59 48 60 49 61 57 62 50 63 56 64 58 65
REMARK SMILES IDX 55 66 51 67 52 68 53 69 54 70 5 71 6 72 7 73 8 74 9 75 10 77
REMARK SMILES IDX 11 78 12 79 21 80 13 81 15 82 14 83 16 84 17 85 20 86 18 87
REMARK SMILES IDX 19 88
REMARK H PARENT 3 5 78 23 46 34 8 76
REMARK Flexibility Score: inf
ROOT
ATOM      1  C   UNL     1       4.770  -1.021   0.119  1.00  0.00     0.116 C 
ENDROOT
BRANCH   1   2
ATOM      2  N   UNL     1       3.369  -0.904  -0.223  1.00  0.00    -0.352 N 
ATOM      3  O   UNL     1       1.351  -0.082  -0.569  1.00  0.00    -0.269 OA
ATOM      4  C   UNL     1       2.378  -0.021   0.113  1.00  0.00     0.251 C 
ATOM      5  H   UNL     1       3.061  -1.615  -0.830  1.00  0.00     0.163 HD
BRANCH   4   6
ATOM      6  C   UNL     1       2.422   0.912   1.272  1.00  0.00     0.039 A 
ATOM      7  C   UNL     1       3.569   1.326   1.951  1.00  0.00     0.014 A 
ATOM      8  C   UNL     1       1.172   1.383   1.719  1.00  0.00     0.014 A 
ATOM      9  C   UNL     1       3.462   2.106   3.105  1.00  0.00     0.010 A 
ATOM     10  C   UNL     1       1.060   2.163   2.865  1.00  0.00     0.010 A 
ATOM     11  C   UNL     1       2.205   2.501   3.580  1.00  0.00    -0.014 A 
BRANCH  11  12
ATOM     12  C   UNL     1       2.137   3.512   4.641  1.00  0.00     0.031 A 
ATOM     13  C   UNL     1       2.669   4.829   4.189  1.00  0.00     0.074 A 
ATOM     14  C   UNL     1       1.512   3.355   5.830  1.00  0.00     0.049 A 
ATOM     15  N   UNL     1       3.733   5.437   4.601  1.00  0.00    -0.248 NA
ATOM     16  C   UNL     1       2.062   5.449   2.996  1.00  0.00     0.031 C 
ATOM     17  C   UNL     1       0.749   2.191   6.279  1.00  0.00     0.029 A 
ATOM     18  N   UNL     1       1.338   4.240   6.862  1.00  0.00    -0.354 N 
ATOM     19  C   UNL     1       3.753   6.651   3.918  1.00  0.00     0.074 A 
ATOM     20  C   UNL     1       2.878   6.483   2.793  1.00  0.00     0.031 C 
ATOM     21  C   UNL     1       0.016   2.523   7.368  1.00  0.00     0.029 A 
ATOM     22  C   UNL     1       0.327   3.889   7.765  1.00  0.00     0.049 A 
ATOM     23  H   UNL     1       1.879   5.057   6.960  1.00  0.00     0.167 HD
ATOM     24  C   UNL     1       4.223   7.778   4.522  1.00  0.00     0.034 A 
ATOM     25  C   UNL     1      -0.255   4.665   8.730  1.00  0.00     0.034 A 
ATOM     26  C   UNL     1       5.081   7.439   5.641  1.00  0.00     0.049 A 
ATOM     27  C   UNL     1       0.688   5.771   9.022  1.00  0.00     0.074 A 
ATOM     28  C   UNL     1       6.204   6.646   5.798  1.00  0.00     0.029 A 
ATOM     29  N   UNL     1       4.602   7.643   6.918  1.00  0.00    -0.354 N 
ATOM     30  N   UNL     1       1.847   5.588   9.590  1.00  0.00    -0.248 NA
ATOM     31  C   UNL     1       0.566   6.992   8.239  1.00  0.00     0.031 C 
ATOM     32  C   UNL     1       6.030   6.006   7.061  1.00  0.00     0.029 A 
ATOM     33  C   UNL     1       4.873   6.516   7.650  1.00  0.00     0.049 A 
ATOM     34  H   UNL     1       4.147   8.452   7.245  1.00  0.00     0.167 HD
ATOM     35  C   UNL     1       2.720   6.393   8.875  1.00  0.00     0.074 A 
ATOM     36  C   UNL     1       1.860   7.302   8.117  1.00  0.00     0.031 C 
ATOM     37  C   UNL     1       4.037   6.055   8.741  1.00  0.00     0.034 A 
BRANCH  24  38
ATOM     38  C   UNL     1       3.541   9.136   4.411  1.00  0.00     0.023 A 
ATOM     39  C   UNL     1       4.061  10.161   5.223  1.00  0.00     0.031 A 
ATOM     40  C   UNL     1       2.264   9.391   3.859  1.00  0.00     0.131 A 
ATOM     41  C   UNL     1       3.263  11.250   5.610  1.00  0.00     0.055 A 
ATOM     42  C   UNL     1       1.502  10.517   4.189  1.00  0.00     0.041 A 
ATOM     43  F   UNL     1       1.636   8.549   3.033  1.00  0.00    -0.206 F 
ATOM     44  C   UNL     1       1.980  11.431   5.108  1.00  0.00     0.022 A 
BRANCH  41  45
ATOM     45  S   UNL     1       3.862  12.292   6.962  1.00  0.00     0.124 S 
ATOM     46  O   UNL     1       4.053  11.299   8.014  1.00  0.00    -0.237 OA
ATOM     47  O   UNL     1       5.075  12.861   6.384  1.00  0.00    -0.237 OA
ATOM     48  O   UNL     1       2.767  13.235   7.172  1.00  0.00    -0.744 OA
ENDBRANCH  41  45
ENDBRANCH  24  38
BRANCH  25  49
ATOM     49  C   UNL     1      -1.686   4.686   9.184  1.00  0.00     0.023 A 
ATOM     50  C   UNL     1      -2.133   5.333  10.366  1.00  0.00     0.031 A 
ATOM     51  C   UNL     1      -2.697   4.265   8.290  1.00  0.00     0.131 A 
ATOM     52  C   UNL     1      -3.522   5.528  10.603  1.00  0.00     0.055 A 
ATOM     53  C   UNL     1      -4.060   4.461   8.528  1.00  0.00     0.041 A 
ATOM     54  F   UNL     1      -2.393   3.725   7.101  1.00  0.00    -0.206 F 
ATOM     55  C   UNL     1      -4.479   5.102   9.680  1.00  0.00     0.022 A 
BRANCH  52  56
ATOM     56  S   UNL     1      -4.127   6.423  12.080  1.00  0.00     0.124 S 
ATOM     57  O   UNL     1      -3.813   5.495  13.160  1.00  0.00    -0.237 OA
ATOM     58  O   UNL     1      -3.358   7.661  12.040  1.00  0.00    -0.237 OA
ATOM     59  O   UNL     1      -5.559   6.590  11.818  1.00  0.00    -0.744 OA
ENDBRANCH  52  56
ENDBRANCH  25  49
BRANCH  37  60
ATOM     60  C   UNL     1       4.617   5.003   9.663  1.00  0.00     0.023 A 
ATOM     61  C   UNL     1       4.111   3.695   9.838  1.00  0.00     0.031 A 
ATOM     62  C   UNL     1       5.807   5.336  10.336  1.00  0.00     0.131 A 
ATOM     63  C   UNL     1       4.785   2.786  10.680  1.00  0.00     0.055 A 
ATOM     64  C   UNL     1       6.482   4.428  11.149  1.00  0.00     0.041 A 
ATOM     65  F   UNL     1       6.354   6.554  10.193  1.00  0.00    -0.206 F 
ATOM     66  C   UNL     1       5.967   3.151  11.332  1.00  0.00     0.022 A 
BRANCH  63  67
ATOM     67  S   UNL     1       4.120   1.115  10.973  1.00  0.00     0.124 S 
ATOM     68  O   UNL     1       2.700   1.345  11.211  1.00  0.00    -0.237 OA
ATOM     69  O   UNL     1       4.456   0.421   9.733  1.00  0.00    -0.237 OA
ATOM     70  O   UNL     1       4.867   0.654  12.146  1.00  0.00    -0.744 OA
ENDBRANCH  63  67
ENDBRANCH  37  60
ENDBRANCH  11  12
ENDBRANCH   4   6
ENDBRANCH   1   2
BRANCH   1  71
ATOM     71  C   UNL     1       5.062  -1.754   1.427  1.00  0.00     0.023 C 
BRANCH  71  72
ATOM     72  C   UNL     1       4.534  -3.189   1.513  1.00  0.00     0.023 C 
BRANCH  72  73
ATOM     73  C   UNL     1       4.934  -4.115   0.368  1.00  0.00     0.116 C 
BRANCH  73  74
ATOM     74  N   UNL     1       6.373  -4.316   0.290  1.00  0.00    -0.352 N 
ATOM     75  C   UNL     1       7.083  -5.482   0.350  1.00  0.00     0.251 C 
ATOM     76  H   UNL     1       6.910  -3.499   0.179  1.00  0.00     0.163 HD
ATOM     77  O   UNL     1       8.315  -5.470   0.425  1.00  0.00    -0.269 OA
BRANCH  75  78
ATOM     78  C   UNL     1       6.393  -6.782   0.329  1.00  0.00     0.045 A 
ATOM     79  C   UNL     1       5.522  -7.105  -0.708  1.00  0.00     0.034 A 
ATOM     80  C   UNL     1       6.702  -7.716   1.320  1.00  0.00     0.063 A 
ATOM     81  C   UNL     1       4.967  -8.367  -0.702  1.00  0.00     0.114 A 
ATOM     82  C   UNL     1       6.106  -8.968   1.238  1.00  0.00     0.157 A 
ATOM     83  N   UNL     1       5.252  -9.300   0.231  1.00  0.00    -0.237 NA
BRANCH  82  84
ATOM     84  N   UNL     1       6.398  -9.953   2.216  1.00  0.00    -0.182 N 
ATOM     85  C   UNL     1       6.955  -9.807   3.460  1.00  0.00     0.254 A 
ATOM     86  N   UNL     1       6.145 -11.270   2.025  1.00  0.00    -0.039 NA
ATOM     87  N   UNL     1       7.112 -10.990   4.008  1.00  0.00    -0.117 NA
ATOM     88  N   UNL     1       6.614 -11.888   3.100  1.00  0.00    -0.024 NA
ENDBRANCH  82  84
ENDBRANCH  75  78
ENDBRANCH  73  74
ENDBRANCH  72  73
ENDBRANCH  71  72
ENDBRANCH   1  71
TORSDOF 15
