REMARK SMILES COc1cc(OC)cc(-c2ccc(C(=O)NCCCCNC(=O)c3ccc(-c4c5nc(c(-c6cc(S(=O)(=O)[O-])ccc6F)c6ccc([nH]6)c(-c6cc(S(=O)(=O)[O-])ccc6F)c6nc(c(-c7cc(S(=O)(=O)[O-])ccc7F)c7ccc4[nH]7)C=C6)C=C5)cc3)o2)c1
REMARK SMILES IDX 19 1 18 2 17 3 16 4 14 5 15 6 13 8 10 9 11 10 87 11 12 12
REMARK SMILES IDX 9 13 3 14 4 15 88 16 5 17 8 18 2 19 1 20 6 21 7 22 20 23
REMARK SMILES IDX 21 24 22 25 23 27 24 28 25 29 86 30 26 31 85 32 27 33 28 34
REMARK SMILES IDX 29 35 79 36 30 37 84 38 78 39 80 40 31 41 83 42 77 43 76 44
REMARK SMILES IDX 32 46 64 47 44 48 63 49 45 50 48 51 62 52 81 53 46 54 47 55
REMARK SMILES IDX 61 57 82 58 49 59 33 60 34 61 42 62 35 63 41 64 43 65 40 66
REMARK SMILES IDX 36 67 37 68 38 69 39 70 65 71 66 72 74 73 67 74 73 75 75 76
REMARK SMILES IDX 72 77 68 78 69 79 70 80 71 81 50 82 51 83 59 84 52 85 58 86
REMARK SMILES IDX 60 87 57 88 53 89 54 90 55 91 56 92
REMARK H PARENT 16 7 21 26 80 45 48 56
REMARK Flexibility Score: inf
ROOT
ATOM      1  C   UNL     1      10.585   3.381   5.690  1.00  0.00     0.023 C 
ENDROOT
BRANCH   1   2
ATOM      2  C   UNL     1       9.407   3.335   4.711  1.00  0.00     0.023 C 
BRANCH   2   3
ATOM      3  C   UNL     1       8.811   1.938   4.534  1.00  0.00     0.116 C 
BRANCH   3   4
ATOM      4  N   UNL     1       7.885   1.628   5.602  1.00  0.00    -0.349 N 
ATOM      5  C   UNL     1       6.510   1.700   5.658  1.00  0.00     0.287 C 
ATOM      6  O   UNL     1       5.993   1.308   6.704  1.00  0.00    -0.266 OA
ATOM      7  H   UNL     1       8.310   1.310   6.431  1.00  0.00     0.163 HD
BRANCH   5   8
ATOM      8  C   UNL     1       5.737   2.195   4.530  1.00  0.00     0.192 A 
ATOM      9  C   UNL     1       3.858   2.436   3.392  1.00  0.00     0.135 A 
ATOM     10  C   UNL     1       4.839   3.029   2.636  1.00  0.00     0.052 A 
ATOM     11  O   UNL     1       4.380   1.933   4.540  1.00  0.00    -0.451 OA
ATOM     12  C   UNL     1       6.026   2.929   3.391  1.00  0.00     0.057 A 
BRANCH   9  13
ATOM     13  C   UNL     1       2.428   2.335   3.199  1.00  0.00     0.025 A 
ATOM     14  C   UNL     1       0.576   1.708   1.771  1.00  0.00     0.123 A 
ATOM     15  C   UNL     1      -0.257   2.546   2.520  1.00  0.00     0.092 A 
ATOM     16  C   UNL     1       1.922   1.607   2.113  1.00  0.00     0.058 A 
ATOM     17  C   UNL     1       0.233   3.259   3.618  1.00  0.00     0.123 A 
ATOM     18  C   UNL     1       1.573   3.126   3.975  1.00  0.00     0.058 A 
BRANCH  14  19
ATOM     19  O   UNL     1      -0.021   1.103   0.699  1.00  0.00    -0.497 OA
ATOM     20  C   UNL     1       0.696   0.040   0.083  1.00  0.00     0.278 C 
ENDBRANCH  14  19
BRANCH  17  21
ATOM     21  O   UNL     1      -0.676   4.075   4.236  1.00  0.00    -0.497 OA
ATOM     22  C   UNL     1      -0.143   5.041   5.136  1.00  0.00     0.278 C 
ENDBRANCH  17  21
ENDBRANCH   9  13
ENDBRANCH   5   8
ENDBRANCH   3   4
ENDBRANCH   2   3
ENDBRANCH   1   2
BRANCH   1  23
ATOM     23  C   UNL     1      11.775   2.506   5.305  1.00  0.00     0.116 C 
BRANCH  23  24
ATOM     24  N   UNL     1      12.294   2.797   3.977  1.00  0.00    -0.352 N 
ATOM     25  C   UNL     1      13.599   2.770   3.545  1.00  0.00     0.251 C 
ATOM     26  H   UNL     1      11.624   3.046   3.300  1.00  0.00     0.163 HD
ATOM     27  O   UNL     1      13.880   3.174   2.422  1.00  0.00    -0.269 OA
BRANCH  25  28
ATOM     28  C   UNL     1      14.652   2.292   4.465  1.00  0.00     0.039 A 
ATOM     29  C   UNL     1      15.802   3.065   4.632  1.00  0.00     0.014 A 
ATOM     30  C   UNL     1      14.483   1.110   5.191  1.00  0.00     0.014 A 
ATOM     31  C   UNL     1      16.752   2.686   5.581  1.00  0.00     0.010 A 
ATOM     32  C   UNL     1      15.392   0.778   6.191  1.00  0.00     0.010 A 
ATOM     33  C   UNL     1      16.536   1.563   6.399  1.00  0.00    -0.014 A 
BRANCH  33  34
ATOM     34  C   UNL     1      17.501   1.201   7.471  1.00  0.00     0.031 A 
ATOM     35  C   UNL     1      18.237  -0.110   7.412  1.00  0.00     0.074 A 
ATOM     36  C   UNL     1      17.686   2.038   8.512  1.00  0.00     0.049 A 
ATOM     37  N   UNL     1      19.079  -0.624   8.272  1.00  0.00    -0.248 NA
ATOM     38  C   UNL     1      17.972  -0.967   6.246  1.00  0.00     0.031 C 
ATOM     39  C   UNL     1      16.997   3.318   8.700  1.00  0.00     0.029 A 
ATOM     40  N   UNL     1      18.503   1.941   9.611  1.00  0.00    -0.354 N 
ATOM     41  C   UNL     1      19.452  -1.856   7.747  1.00  0.00     0.074 A 
ATOM     42  C   UNL     1      18.680  -2.048   6.538  1.00  0.00     0.031 C 
ATOM     43  C   UNL     1      17.444   3.897   9.826  1.00  0.00     0.029 A 
ATOM     44  C   UNL     1      18.410   3.013  10.469  1.00  0.00     0.049 A 
ATOM     45  H   UNL     1      19.101   1.175   9.770  1.00  0.00     0.167 HD
ATOM     46  C   UNL     1      20.379  -2.731   8.209  1.00  0.00     0.034 A 
ATOM     47  C   UNL     1      19.023   3.250  11.646  1.00  0.00     0.034 A 
ATOM     48  C   UNL     1      21.140  -2.530   9.417  1.00  0.00     0.049 A 
ATOM     49  C   UNL     1      20.012   2.233  12.166  1.00  0.00     0.074 A 
ATOM     50  C   UNL     1      22.112  -3.346   9.970  1.00  0.00     0.029 A 
ATOM     51  N   UNL     1      21.015  -1.436  10.263  1.00  0.00    -0.354 N 
ATOM     52  N   UNL     1      20.382   1.091  11.631  1.00  0.00    -0.248 NA
ATOM     53  C   UNL     1      20.677   2.545  13.437  1.00  0.00     0.031 C 
ATOM     54  C   UNL     1      22.526  -2.780  11.179  1.00  0.00     0.029 A 
ATOM     55  C   UNL     1      21.876  -1.568  11.342  1.00  0.00     0.049 A 
ATOM     56  H   UNL     1      20.404  -0.677  10.118  1.00  0.00     0.167 HD
ATOM     57  C   UNL     1      21.352   0.571  12.485  1.00  0.00     0.074 A 
ATOM     58  C   UNL     1      21.525   1.534  13.552  1.00  0.00     0.031 C 
ATOM     59  C   UNL     1      22.038  -0.598  12.399  1.00  0.00     0.034 A 
BRANCH  46  60
ATOM     60  C   UNL     1      20.614  -3.985   7.401  1.00  0.00     0.023 A 
ATOM     61  C   UNL     1      21.110  -3.924   6.086  1.00  0.00     0.031 A 
ATOM     62  C   UNL     1      20.335  -5.253   7.940  1.00  0.00     0.131 A 
ATOM     63  C   UNL     1      21.248  -5.099   5.333  1.00  0.00     0.055 A 
ATOM     64  C   UNL     1      20.554  -6.425   7.213  1.00  0.00     0.041 A 
ATOM     65  F   UNL     1      19.837  -5.374   9.181  1.00  0.00    -0.206 F 
ATOM     66  C   UNL     1      21.001  -6.352   5.897  1.00  0.00     0.022 A 
BRANCH  63  67
ATOM     67  S   UNL     1      21.627  -4.954   3.566  1.00  0.00     0.124 S 
ATOM     68  O   UNL     1      20.486  -4.180   3.083  1.00  0.00    -0.237 OA
ATOM     69  O   UNL     1      22.911  -4.262   3.574  1.00  0.00    -0.237 OA
ATOM     70  O   UNL     1      21.668  -6.341   3.109  1.00  0.00    -0.744 OA
ENDBRANCH  63  67
ENDBRANCH  46  60
BRANCH  47  71
ATOM     71  C   UNL     1      18.717   4.481  12.436  1.00  0.00     0.023 A 
ATOM     72  C   UNL     1      19.722   5.410  12.751  1.00  0.00     0.031 A 
ATOM     73  C   UNL     1      17.432   4.703  12.963  1.00  0.00     0.131 A 
ATOM     74  C   UNL     1      19.447   6.471  13.628  1.00  0.00     0.055 A 
ATOM     75  C   UNL     1      17.145   5.801  13.776  1.00  0.00     0.041 A 
ATOM     76  F   UNL     1      16.430   3.850  12.695  1.00  0.00    -0.206 F 
ATOM     77  C   UNL     1      18.162   6.681  14.131  1.00  0.00     0.022 A 
BRANCH  74  78
ATOM     78  S   UNL     1      20.829   7.489  14.215  1.00  0.00     0.124 S 
ATOM     79  O   UNL     1      21.727   6.480  14.766  1.00  0.00    -0.237 OA
ATOM     80  O   UNL     1      21.270   8.138  12.985  1.00  0.00    -0.237 OA
ATOM     81  O   UNL     1      20.205   8.374  15.197  1.00  0.00    -0.744 OA
ENDBRANCH  74  78
ENDBRANCH  47  71
BRANCH  59  82
ATOM     82  C   UNL     1      23.078  -0.864  13.461  1.00  0.00     0.023 A 
ATOM     83  C   UNL     1      22.731  -1.038  14.813  1.00  0.00     0.031 A 
ATOM     84  C   UNL     1      24.440  -0.921  13.117  1.00  0.00     0.131 A 
ATOM     85  C   UNL     1      23.737  -1.192  15.778  1.00  0.00     0.055 A 
ATOM     86  C   UNL     1      25.432  -1.147  14.073  1.00  0.00     0.041 A 
ATOM     87  F   UNL     1      24.831  -0.760  11.843  1.00  0.00    -0.206 F 
ATOM     88  C   UNL     1      25.084  -1.266  15.415  1.00  0.00     0.022 A 
BRANCH  85  89
ATOM     89  S   UNL     1      23.268  -1.179  17.531  1.00  0.00     0.124 S 
ATOM     90  O   UNL     1      22.591   0.107  17.655  1.00  0.00    -0.237 OA
ATOM     91  O   UNL     1      22.416  -2.360  17.634  1.00  0.00    -0.237 OA
ATOM     92  O   UNL     1      24.549  -1.277  18.229  1.00  0.00    -0.744 OA
ENDBRANCH  85  89
ENDBRANCH  59  82
ENDBRANCH  33  34
ENDBRANCH  25  28
ENDBRANCH  23  24
ENDBRANCH   1  23
TORSDOF 17
