REMARK SMILES C[C@H]1CC=C(C2=NN=C(C(=O)NCCCCNC(=O)c3ccc(-c4c5nc(c(-c6cc(S(=O)(=O)[O-])ccc6F)c6ccc([nH]6)c(-c6cc(S(=O)(=O)[O-])ccc6F)c6nc(c(-c7cc(S(=O)(=O)[O-])ccc7F)c7ccc4[nH]7)C=C6)C=C5)cc3)C2)O1
REMARK SMILES IDX 15 1 14 2 13 3 12 4 10 5 11 6 9 8 6 9 7 10 83 11 8 12 5 13
REMARK SMILES IDX 1 14 2 15 3 16 84 17 4 18 16 19 17 20 18 21 19 23 20 24
REMARK SMILES IDX 21 25 82 26 22 27 81 28 23 29 24 30 25 31 75 32 26 33 80 34
REMARK SMILES IDX 74 35 76 36 27 37 79 38 73 39 72 40 28 42 60 43 40 44 59 45
REMARK SMILES IDX 41 46 44 47 58 48 77 49 42 50 43 51 57 53 78 54 45 55 29 56
REMARK SMILES IDX 30 57 38 58 31 59 37 60 39 61 36 62 32 63 33 64 34 65 35 66
REMARK SMILES IDX 61 67 62 68 70 69 63 70 69 71 71 72 68 73 64 74 65 75 66 76
REMARK SMILES IDX 67 77 46 78 47 79 55 80 48 81 54 82 56 83 53 84 49 85 50 86
REMARK SMILES IDX 51 87 52 88
REMARK H PARENT 12 7 17 22 76 41 44 52
REMARK Flexibility Score: inf
ROOT
ATOM      1  C   UNL     1       0.099  11.162  -0.928  1.00  0.00     0.023 C 
ENDROOT
BRANCH   1   2
ATOM      2  C   UNL     1      -0.521   9.980  -0.167  1.00  0.00     0.023 C 
BRANCH   2   3
ATOM      3  C   UNL     1      -1.193   8.911  -1.035  1.00  0.00     0.116 C 
BRANCH   3   4
ATOM      4  N   UNL     1      -0.232   8.203  -1.865  1.00  0.00    -0.351 N 
ATOM      5  C   UNL     1       0.278   6.934  -1.756  1.00  0.00     0.267 C 
ATOM      6  O   UNL     1       1.137   6.541  -2.541  1.00  0.00    -0.268 OA
ATOM      7  H   UNL     1       0.110   8.720  -2.631  1.00  0.00     0.163 HD
BRANCH   5   8
ATOM      8  C   UNL     1      -0.185   5.962  -0.707  1.00  0.00     0.134 C 
ATOM      9  C   UNL     1      -0.472   4.064   0.432  1.00  0.00     0.111 C 
ATOM     10  N   UNL     1      -1.250   4.965   0.947  1.00  0.00    -0.151 NA
ATOM     11  C   UNL     1       0.359   4.576  -0.697  1.00  0.00     0.126 C 
ATOM     12  N   UNL     1      -1.053   6.183   0.232  1.00  0.00    -0.149 NA
BRANCH   9  13
ATOM     13  C   UNL     1      -0.391   2.658   0.845  1.00  0.00     0.139 C 
ATOM     14  C   UNL     1       1.257   0.014   2.375  1.00  0.00     0.053 C 
ATOM     15  C   UNL     1       0.507   0.661   1.220  1.00  0.00     0.174 C 
ATOM     16  C   UNL     1      -1.016   0.524   1.348  1.00  0.00     0.076 C 
ATOM     17  O   UNL     1       0.829   2.070   1.152  1.00  0.00    -0.489 OA
ATOM     18  C   UNL     1      -1.457   1.865   0.911  1.00  0.00     0.025 C 
ENDBRANCH   9  13
ENDBRANCH   5   8
ENDBRANCH   3   4
ENDBRANCH   2   3
ENDBRANCH   1   2
BRANCH   1  19
ATOM     19  C   UNL     1      -0.883  11.966  -1.771  1.00  0.00     0.116 C 
BRANCH  19  20
ATOM     20  N   UNL     1      -1.898  12.657  -0.979  1.00  0.00    -0.352 N 
ATOM     21  C   UNL     1      -2.941  13.439  -1.457  1.00  0.00     0.251 C 
ATOM     22  H   UNL     1      -1.836  12.556  -0.001  1.00  0.00     0.163 HD
ATOM     23  O   UNL     1      -3.456  14.295  -0.759  1.00  0.00    -0.269 OA
BRANCH  21  24
ATOM     24  C   UNL     1      -3.413  13.187  -2.834  1.00  0.00     0.039 A 
ATOM     25  C   UNL     1      -3.694  14.223  -3.727  1.00  0.00     0.014 A 
ATOM     26  C   UNL     1      -3.514  11.855  -3.230  1.00  0.00     0.014 A 
ATOM     27  C   UNL     1      -3.992  13.897  -5.051  1.00  0.00     0.010 A 
ATOM     28  C   UNL     1      -3.652  11.545  -4.559  1.00  0.00     0.010 A 
ATOM     29  C   UNL     1      -3.943  12.554  -5.467  1.00  0.00    -0.014 A 
BRANCH  29  30
ATOM     30  C   UNL     1      -4.037  12.188  -6.879  1.00  0.00     0.031 A 
ATOM     31  C   UNL     1      -3.071  12.911  -7.748  1.00  0.00     0.074 A 
ATOM     32  C   UNL     1      -4.763  11.144  -7.342  1.00  0.00     0.049 A 
ATOM     33  N   UNL     1      -3.335  13.868  -8.571  1.00  0.00    -0.248 NA
ATOM     34  C   UNL     1      -1.628  12.687  -7.554  1.00  0.00     0.031 C 
ATOM     35  C   UNL     1      -5.543  10.161  -6.582  1.00  0.00     0.029 A 
ATOM     36  N   UNL     1      -4.886  10.683  -8.617  1.00  0.00    -0.354 N 
ATOM     37  C   UNL     1      -2.136  14.177  -9.202  1.00  0.00     0.074 A 
ATOM     38  C   UNL     1      -1.107  13.595  -8.384  1.00  0.00     0.031 C 
ATOM     39  C   UNL     1      -5.855   9.109  -7.374  1.00  0.00     0.029 A 
ATOM     40  C   UNL     1      -5.452   9.413  -8.736  1.00  0.00     0.049 A 
ATOM     41  H   UNL     1      -4.596  11.208  -9.398  1.00  0.00     0.167 HD
ATOM     42  C   UNL     1      -2.129  14.658 -10.477  1.00  0.00     0.034 A 
ATOM     43  C   UNL     1      -5.587   8.665  -9.870  1.00  0.00     0.034 A 
ATOM     44  C   UNL     1      -3.456  15.092 -10.867  1.00  0.00     0.049 A 
ATOM     45  C   UNL     1      -5.552   9.627 -11.002  1.00  0.00     0.074 A 
ATOM     46  C   UNL     1      -4.361  16.005 -10.356  1.00  0.00     0.029 A 
ATOM     47  N   UNL     1      -4.198  14.254 -11.671  1.00  0.00    -0.354 N 
ATOM     48  N   UNL     1      -6.472  10.537 -11.184  1.00  0.00    -0.248 NA
ATOM     49  C   UNL     1      -4.257   9.930 -11.594  1.00  0.00     0.031 C 
ATOM     50  C   UNL     1      -5.624  15.346 -10.439  1.00  0.00     0.029 A 
ATOM     51  C   UNL     1      -5.441  14.127 -11.097  1.00  0.00     0.049 A 
ATOM     52  H   UNL     1      -3.894  13.825 -12.503  1.00  0.00     0.167 HD
ATOM     53  C   UNL     1      -5.773  11.694 -11.498  1.00  0.00     0.074 A 
ATOM     54  C   UNL     1      -4.418  11.238 -11.818  1.00  0.00     0.031 C 
ATOM     55  C   UNL     1      -6.263  12.932 -11.189  1.00  0.00     0.034 A 
BRANCH  42  56
ATOM     56  C   UNL     1      -1.051  14.392 -11.506  1.00  0.00     0.023 A 
ATOM     57  C   UNL     1      -1.228  14.967 -12.780  1.00  0.00     0.031 A 
ATOM     58  C   UNL     1      -0.049  13.399 -11.416  1.00  0.00     0.131 A 
ATOM     59  C   UNL     1      -0.531  14.479 -13.898  1.00  0.00     0.055 A 
ATOM     60  C   UNL     1       0.692  12.966 -12.520  1.00  0.00     0.041 A 
ATOM     61  F   UNL     1       0.209  12.726 -10.290  1.00  0.00    -0.206 F 
ATOM     62  C   UNL     1       0.429  13.480 -13.777  1.00  0.00     0.022 A 
BRANCH  59  63
ATOM     63  S   UNL     1      -1.041  15.049 -15.539  1.00  0.00     0.124 S 
ATOM     64  O   UNL     1      -2.461  14.714 -15.535  1.00  0.00    -0.237 OA
ATOM     65  O   UNL     1      -0.713  16.469 -15.479  1.00  0.00    -0.237 OA
ATOM     66  O   UNL     1      -0.214  14.255 -16.445  1.00  0.00    -0.744 OA
ENDBRANCH  59  63
ENDBRANCH  42  56
BRANCH  43  67
ATOM     67  C   UNL     1      -5.362   7.193 -10.027  1.00  0.00     0.023 A 
ATOM     68  C   UNL     1      -5.806   6.442 -11.144  1.00  0.00     0.031 A 
ATOM     69  C   UNL     1      -4.456   6.542  -9.159  1.00  0.00     0.131 A 
ATOM     70  C   UNL     1      -5.343   5.114 -11.349  1.00  0.00     0.055 A 
ATOM     71  C   UNL     1      -3.998   5.238  -9.371  1.00  0.00     0.041 A 
ATOM     72  F   UNL     1      -3.912   7.185  -8.114  1.00  0.00    -0.206 F 
ATOM     73  C   UNL     1      -4.432   4.521 -10.473  1.00  0.00     0.022 A 
BRANCH  70  74
ATOM     74  S   UNL     1      -5.859   4.143 -12.811  1.00  0.00     0.124 S 
ATOM     75  O   UNL     1      -7.279   3.932 -12.560  1.00  0.00    -0.237 OA
ATOM     76  O   UNL     1      -5.518   5.031 -13.916  1.00  0.00    -0.237 OA
ATOM     77  O   UNL     1      -5.037   2.933 -12.726  1.00  0.00    -0.744 OA
ENDBRANCH  70  74
ENDBRANCH  43  67
BRANCH  55  78
ATOM     78  C   UNL     1      -7.709  13.058 -10.737  1.00  0.00     0.023 A 
ATOM     79  C   UNL     1      -8.286  12.398  -9.625  1.00  0.00     0.031 A 
ATOM     80  C   UNL     1      -8.502  14.004 -11.411  1.00  0.00     0.131 A 
ATOM     81  C   UNL     1      -9.611  12.694  -9.238  1.00  0.00     0.055 A 
ATOM     82  C   UNL     1      -9.801  14.312 -11.010  1.00  0.00     0.041 A 
ATOM     83  F   UNL     1      -8.009  14.680 -12.462  1.00  0.00    -0.206 F 
ATOM     84  C   UNL     1     -10.363  13.654  -9.924  1.00  0.00     0.022 A 
BRANCH  81  85
ATOM     85  S   UNL     1     -10.404  11.819  -7.846  1.00  0.00     0.124 S 
ATOM     86  O   UNL     1     -10.105  10.417  -8.110  1.00  0.00    -0.237 OA
ATOM     87  O   UNL     1      -9.743  12.407  -6.684  1.00  0.00    -0.237 OA
ATOM     88  O   UNL     1     -11.818  12.174  -7.983  1.00  0.00    -0.744 OA
ENDBRANCH  81  85
ENDBRANCH  55  78
ENDBRANCH  29  30
ENDBRANCH  21  24
ENDBRANCH  19  20
ENDBRANCH   1  19
TORSDOF 15
