REMARK SMILES O=C(NCCCCNC(=O)[C@@H](NC(=O)c1ccncc1Cl)C1CC1)c1ccc(-c2c3nc(c(-c4cc(S(=O)(=O)[O-])ccc4F)c4ccc([nH]4)c(-c4cc(S(=O)(=O)[O-])ccc4F)c4nc(c(-c5cc(S(=O)(=O)[O-])ccc5F)c5ccc2[nH]5)C=C4)C=C3)cc1
REMARK SMILES IDX 5 1 4 2 3 3 1 4 2 5 25 7 26 8 87 9 27 10 86 11 28 12 29 13
REMARK SMILES IDX 30 14 80 15 31 16 85 17 79 18 81 19 32 20 84 21 78 22 77 23
REMARK SMILES IDX 33 25 65 26 45 27 64 28 46 29 49 30 63 31 82 32 47 33 48 34
REMARK SMILES IDX 62 36 83 37 50 38 34 39 35 40 43 41 36 42 42 43 44 44 41 45
REMARK SMILES IDX 37 46 38 47 39 48 40 49 66 50 67 51 75 52 68 53 74 54 76 55
REMARK SMILES IDX 73 56 69 57 70 58 71 59 72 60 51 61 52 62 60 63 53 64 59 65
REMARK SMILES IDX 61 66 58 67 54 68 55 69 56 70 57 71 6 72 7 73 8 74 9 75
REMARK SMILES IDX 10 77 11 78 12 79 13 80 14 82 15 83 16 84 20 85 17 86 19 87
REMARK SMILES IDX 21 88 18 89 22 90 23 91 24 92
REMARK H PARENT 3 6 81 24 49 35 8 76 12 81
REMARK Flexibility Score: inf
ROOT
ATOM      1  C   UNL     1       4.800   1.621  -1.944  1.00  0.00     0.023 C 
ENDROOT
BRANCH   1   2
ATOM      2  C   UNL     1       4.507   0.947  -0.610  1.00  0.00     0.116 C 
BRANCH   2   3
ATOM      3  N   UNL     1       3.090   0.959  -0.269  1.00  0.00    -0.352 N 
ATOM      4  O   UNL     1       1.096   0.032   0.252  1.00  0.00    -0.269 OA
ATOM      5  C   UNL     1       2.303  -0.098   0.135  1.00  0.00     0.251 C 
ATOM      6  H   UNL     1       2.639   1.831  -0.334  1.00  0.00     0.163 HD
BRANCH   5   7
ATOM      7  C   UNL     1       2.960  -1.395   0.400  1.00  0.00     0.039 A 
ATOM      8  C   UNL     1       4.093  -1.438   1.216  1.00  0.00     0.014 A 
ATOM      9  C   UNL     1       2.485  -2.549  -0.225  1.00  0.00     0.014 A 
ATOM     10  C   UNL     1       4.836  -2.607   1.289  1.00  0.00     0.010 A 
ATOM     11  C   UNL     1       3.185  -3.749  -0.071  1.00  0.00     0.010 A 
ATOM     12  C   UNL     1       4.380  -3.780   0.665  1.00  0.00    -0.014 A 
BRANCH  12  13
ATOM     13  C   UNL     1       5.142  -5.038   0.864  1.00  0.00     0.031 A 
ATOM     14  C   UNL     1       5.811  -5.740  -0.285  1.00  0.00     0.074 A 
ATOM     15  C   UNL     1       5.251  -5.520   2.117  1.00  0.00     0.049 A 
ATOM     16  N   UNL     1       6.515  -6.843  -0.277  1.00  0.00    -0.248 NA
ATOM     17  C   UNL     1       5.663  -5.132  -1.615  1.00  0.00     0.031 C 
ATOM     18  C   UNL     1       4.638  -4.914   3.304  1.00  0.00     0.029 A 
ATOM     19  N   UNL     1       5.925  -6.605   2.612  1.00  0.00    -0.354 N 
ATOM     20  C   UNL     1       6.881  -7.075  -1.598  1.00  0.00     0.074 A 
ATOM     21  C   UNL     1       6.295  -6.009  -2.385  1.00  0.00     0.031 C 
ATOM     22  C   UNL     1       5.007  -5.604   4.391  1.00  0.00     0.029 A 
ATOM     23  C   UNL     1       5.811  -6.745   3.975  1.00  0.00     0.049 A 
ATOM     24  H   UNL     1       6.440  -7.224   2.047  1.00  0.00     0.167 HD
ATOM     25  C   UNL     1       7.640  -8.083  -2.100  1.00  0.00     0.034 A 
ATOM     26  C   UNL     1       6.276  -7.702   4.800  1.00  0.00     0.034 A 
ATOM     27  C   UNL     1       8.215  -9.134  -1.292  1.00  0.00     0.049 A 
ATOM     28  C   UNL     1       7.078  -8.827   4.210  1.00  0.00     0.074 A 
ATOM     29  C   UNL     1       9.021 -10.187  -1.691  1.00  0.00     0.029 A 
ATOM     30  N   UNL     1       8.039  -9.273   0.081  1.00  0.00    -0.354 N 
ATOM     31  N   UNL     1       7.422  -9.026   2.958  1.00  0.00    -0.248 NA
ATOM     32  C   UNL     1       7.555  -9.855   5.141  1.00  0.00     0.031 C 
ATOM     33  C   UNL     1       9.275 -10.995  -0.577  1.00  0.00     0.029 A 
ATOM     34  C   UNL     1       8.693 -10.409   0.535  1.00  0.00     0.049 A 
ATOM     35  H   UNL     1       7.525  -8.654   0.648  1.00  0.00     0.167 HD
ATOM     36  C   UNL     1       8.169 -10.199   2.955  1.00  0.00     0.074 A 
ATOM     37  C   UNL     1       8.247 -10.643   4.333  1.00  0.00     0.031 C 
ATOM     38  C   UNL     1       8.739 -10.851   1.910  1.00  0.00     0.034 A 
BRANCH  25  39
ATOM     39  C   UNL     1       7.848  -8.123  -3.596  1.00  0.00     0.023 A 
ATOM     40  C   UNL     1       8.557  -7.118  -4.277  1.00  0.00     0.031 A 
ATOM     41  C   UNL     1       7.322  -9.184  -4.356  1.00  0.00     0.131 A 
ATOM     42  C   UNL     1       8.667  -7.161  -5.676  1.00  0.00     0.055 A 
ATOM     43  C   UNL     1       7.499  -9.260  -5.740  1.00  0.00     0.041 A 
ATOM     44  F   UNL     1       6.619 -10.164  -3.767  1.00  0.00    -0.206 F 
ATOM     45  C   UNL     1       8.164  -8.238  -6.410  1.00  0.00     0.022 A 
BRANCH  42  46
ATOM     46  S   UNL     1       9.365  -5.725  -6.538  1.00  0.00     0.124 S 
ATOM     47  O   UNL     1       8.472  -4.655  -6.101  1.00  0.00    -0.237 OA
ATOM     48  O   UNL     1      10.725  -5.674  -6.014  1.00  0.00    -0.237 OA
ATOM     49  O   UNL     1       9.252  -6.084  -7.950  1.00  0.00    -0.744 OA
ENDBRANCH  42  46
ENDBRANCH  25  39
BRANCH  26  50
ATOM     50  C   UNL     1       5.956  -7.656   6.253  1.00  0.00     0.023 A 
ATOM     51  C   UNL     1       6.967  -7.510   7.215  1.00  0.00     0.031 A 
ATOM     52  C   UNL     1       4.628  -7.775   6.703  1.00  0.00     0.131 A 
ATOM     53  C   UNL     1       6.638  -7.523   8.579  1.00  0.00     0.055 A 
ATOM     54  C   UNL     1       4.300  -7.730   8.058  1.00  0.00     0.041 A 
ATOM     55  F   UNL     1       3.622  -7.911   5.824  1.00  0.00    -0.206 F 
ATOM     56  C   UNL     1       5.311  -7.617   9.006  1.00  0.00     0.022 A 
BRANCH  53  57
ATOM     57  S   UNL     1       7.984  -7.497   9.794  1.00  0.00     0.124 S 
ATOM     58  O   UNL     1       8.763  -8.665   9.401  1.00  0.00    -0.237 OA
ATOM     59  O   UNL     1       8.598  -6.199   9.536  1.00  0.00    -0.237 OA
ATOM     60  O   UNL     1       7.287  -7.612  11.074  1.00  0.00    -0.744 OA
ENDBRANCH  53  57
ENDBRANCH  26  50
BRANCH  38  61
ATOM     61  C   UNL     1       9.518 -12.099   2.240  1.00  0.00     0.023 A 
ATOM     62  C   UNL     1       8.883 -13.254   2.730  1.00  0.00     0.031 A 
ATOM     63  C   UNL     1      10.916 -12.119   2.099  1.00  0.00     0.131 A 
ATOM     64  C   UNL     1       9.653 -14.359   3.123  1.00  0.00     0.055 A 
ATOM     65  C   UNL     1      11.671 -13.244   2.434  1.00  0.00     0.041 A 
ATOM     66  F   UNL     1      11.572 -11.041   1.640  1.00  0.00    -0.206 F 
ATOM     67  C   UNL     1      11.041 -14.367   2.963  1.00  0.00     0.022 A 
BRANCH  64  68
ATOM     68  S   UNL     1       8.824 -15.748   3.943  1.00  0.00     0.124 S 
ATOM     69  O   UNL     1       8.223 -15.100   5.104  1.00  0.00    -0.237 OA
ATOM     70  O   UNL     1       7.894 -16.207   2.916  1.00  0.00    -0.237 OA
ATOM     71  O   UNL     1       9.917 -16.670   4.245  1.00  0.00    -0.744 OA
ENDBRANCH  64  68
ENDBRANCH  38  61
ENDBRANCH  12  13
ENDBRANCH   5   7
ENDBRANCH   2   3
ENDBRANCH   1   2
BRANCH   1  72
ATOM     72  C   UNL     1       4.390   3.090  -2.014  1.00  0.00     0.023 C 
BRANCH  72  73
ATOM     73  C   UNL     1       5.068   3.965  -0.967  1.00  0.00     0.116 C 
BRANCH  73  74
ATOM     74  N   UNL     1       6.451   4.234  -1.304  1.00  0.00    -0.354 N 
ATOM     75  C   UNL     1       7.114   5.430  -1.298  1.00  0.00     0.242 C 
ATOM     76  H   UNL     1       6.984   3.451  -1.572  1.00  0.00     0.163 HD
ATOM     77  O   UNL     1       8.333   5.425  -1.489  1.00  0.00    -0.273 OA
BRANCH  75  78
ATOM     78  C   UNL     1       6.361   6.748  -0.926  1.00  0.00     0.174 C 
BRANCH  78  79
ATOM     79  N   UNL     1       5.261   6.896  -1.906  1.00  0.00    -0.340 N 
ATOM     80  C   UNL     1       3.965   7.265  -2.074  1.00  0.00     0.253 C 
ATOM     81  H   UNL     1       5.606   6.616  -2.785  1.00  0.00     0.164 HD
ATOM     82  O   UNL     1       3.489   7.242  -3.209  1.00  0.00    -0.269 OA
BRANCH  80  83
ATOM     83  C   UNL     1       3.047   7.592  -0.994  1.00  0.00     0.061 A 
ATOM     84  C   UNL     1       2.172   6.585  -0.566  1.00  0.00     0.035 A 
ATOM     85  C   UNL     1       2.899   8.890  -0.526  1.00  0.00     0.072 A 
ATOM     86  C   UNL     1       1.269   6.891   0.435  1.00  0.00     0.112 A 
ATOM     87  C   UNL     1       1.970   9.090   0.483  1.00  0.00     0.132 A 
ATOM     88  Cl  UNL     1       3.782  10.230  -1.151  1.00  0.00    -0.082 Cl
ATOM     89  N   UNL     1       1.169   8.117   0.989  1.00  0.00    -0.263 NA
ENDBRANCH  80  83
ENDBRANCH  78  79
BRANCH  78  90
ATOM     90  C   UNL     1       6.267   6.815   0.572  1.00  0.00     0.021 C 
ATOM     91  C   UNL     1       5.667   7.968   1.326  1.00  0.00     0.006 C 
ATOM     92  C   UNL     1       5.082   6.586   1.465  1.00  0.00     0.006 C 
ENDBRANCH  78  90
ENDBRANCH  75  78
ENDBRANCH  73  74
ENDBRANCH  72  73
ENDBRANCH   1  72
TORSDOF 17
