REMARK SMILES C=CCNC(=O)C[NH2+][C@](C)(C(=O)NCCCCNC(=O)c1ccc(-c2c3nc(c(-c4cc(S(=O)(=O)[O-])ccc4F)c4ccc([nH]4)c(-c4cc(S(=O)(=O)[O-])ccc4F)c4nc(c(-c5cc(S(=O)(=O)[O-])ccc5F)c5ccc2[nH]5)C=C4)C=C3)cc1)C(F)(F)F
REMARK SMILES IDX 14 1 13 2 11 3 12 4 9 6 10 7 8 8 7 11 5 12 4 13 6 15 3 16
REMARK SMILES IDX 2 17 1 18 84 19 85 20 86 21 87 22 15 23 16 24 17 25 18 26
REMARK SMILES IDX 19 27 20 29 21 30 22 31 83 32 23 33 82 34 24 35 25 36 26 37
REMARK SMILES IDX 76 38 27 39 81 40 75 41 77 42 28 43 80 44 74 45 73 46 29 48
REMARK SMILES IDX 61 49 41 50 60 51 42 52 45 53 59 54 78 55 43 56 44 57 58 59
REMARK SMILES IDX 79 60 46 61 30 62 31 63 39 64 32 65 38 66 40 67 37 68 33 69
REMARK SMILES IDX 34 70 35 71 36 72 62 73 63 74 71 75 64 76 70 77 72 78 69 79
REMARK SMILES IDX 65 80 66 81 67 82 68 83 47 84 48 85 56 86 49 87 55 88 57 89
REMARK SMILES IDX 54 90 50 91 51 92 52 93 53 94
REMARK H PARENT 13 5 8 9 8 10 4 14 18 28 77 47 45 58
REMARK Flexibility Score: inf
ROOT
ATOM      1  C   UNL     1      -0.189   2.351   6.110  1.00  0.00     0.116 C 
ENDROOT
BRANCH   1   2
ATOM      2  N   UNL     1      -0.084   3.421   5.133  1.00  0.00    -0.350 N 
ATOM      3  C   UNL     1      -0.857   3.807   4.075  1.00  0.00     0.290 C 
ATOM      4  O   UNL     1      -0.427   4.767   3.430  1.00  0.00    -0.267 OA
ATOM      5  H   UNL     1       0.711   3.987   5.261  1.00  0.00     0.163 HD
BRANCH   3   6
ATOM      6  C   UNL     1      -2.201   3.128   3.730  1.00  0.00     0.268 C 
ATOM      7  C   UNL     1      -1.983   1.641   3.389  1.00  0.00     0.101 C 
BRANCH   6   8
ATOM      8  N   UNL     1      -3.150   3.195   4.902  1.00  0.00    -0.318 N 
ATOM      9  H   UNL     1      -3.994   2.675   4.663  1.00  0.00     0.347 HD
ATOM     10  H   UNL     1      -2.662   2.797   5.705  1.00  0.00     0.347 HD
BRANCH   8  11
ATOM     11  C   UNL     1      -3.539   4.571   5.271  1.00  0.00     0.362 C 
BRANCH  11  12
ATOM     12  C   UNL     1      -4.363   4.527   6.564  1.00  0.00     0.275 C 
ATOM     13  N   UNL     1      -5.610   3.973   6.545  1.00  0.00    -0.348 N 
ATOM     14  H   UNL     1      -6.117   4.024   7.387  1.00  0.00     0.163 HD
ATOM     15  O   UNL     1      -3.916   4.964   7.626  1.00  0.00    -0.268 OA
BRANCH  13  16
ATOM     16  C   UNL     1      -6.280   3.321   5.444  1.00  0.00     0.143 C 
BRANCH  16  17
ATOM     17  C   UNL     1      -6.354   1.863   5.768  1.00  0.00    -0.014 C 
ATOM     18  C   UNL     1      -7.488   1.152   5.820  1.00  0.00     0.006 C 
ENDBRANCH  16  17
ENDBRANCH  13  16
ENDBRANCH  11  12
ENDBRANCH   8  11
ENDBRANCH   6   8
BRANCH   6  19
ATOM     19  C   UNL     1      -2.724   3.796   2.420  1.00  0.00     0.453 C 
ATOM     20  F   UNL     1      -1.901   3.591   1.365  1.00  0.00    -0.164 F 
ATOM     21  F   UNL     1      -3.927   3.257   2.070  1.00  0.00    -0.164 F 
ATOM     22  F   UNL     1      -2.934   5.127   2.536  1.00  0.00    -0.164 F 
ENDBRANCH   6  19
ENDBRANCH   3   6
ENDBRANCH   1   2
BRANCH   1  23
ATOM     23  C   UNL     1       0.910   1.310   5.926  1.00  0.00     0.023 C 
BRANCH  23  24
ATOM     24  C   UNL     1       2.317   1.798   6.275  1.00  0.00     0.023 C 
BRANCH  24  25
ATOM     25  C   UNL     1       2.478   2.372   7.679  1.00  0.00     0.116 C 
BRANCH  25  26
ATOM     26  N   UNL     1       2.069   1.449   8.726  1.00  0.00    -0.352 N 
ATOM     27  C   UNL     1       2.688   1.175   9.923  1.00  0.00     0.251 C 
ATOM     28  H   UNL     1       1.236   0.953   8.555  1.00  0.00     0.163 HD
ATOM     29  O   UNL     1       2.267   0.269  10.636  1.00  0.00    -0.269 OA
BRANCH  27  30
ATOM     30  C   UNL     1       3.884   1.951  10.315  1.00  0.00     0.039 A 
ATOM     31  C   UNL     1       5.022   1.266  10.749  1.00  0.00     0.014 A 
ATOM     32  C   UNL     1       3.894   3.344  10.212  1.00  0.00     0.014 A 
ATOM     33  C   UNL     1       6.197   1.976  11.006  1.00  0.00     0.010 A 
ATOM     34  C   UNL     1       5.085   4.040  10.396  1.00  0.00     0.010 A 
ATOM     35  C   UNL     1       6.249   3.363  10.792  1.00  0.00    -0.014 A 
BRANCH  35  36
ATOM     36  C   UNL     1       7.509   4.127  10.979  1.00  0.00     0.031 A 
ATOM     37  C   UNL     1       7.595   5.186  12.043  1.00  0.00     0.074 A 
ATOM     38  C   UNL     1       8.547   3.918  10.147  1.00  0.00     0.049 A 
ATOM     39  N   UNL     1       8.572   6.013  12.313  1.00  0.00    -0.248 NA
ATOM     40  C   UNL     1       6.407   5.356  12.890  1.00  0.00     0.031 C 
ATOM     41  C   UNL     1       8.570   2.949   9.049  1.00  0.00     0.029 A 
ATOM     42  N   UNL     1       9.781   4.514  10.088  1.00  0.00    -0.354 N 
ATOM     43  C   UNL     1       8.111   6.813  13.354  1.00  0.00     0.074 A 
ATOM     44  C   UNL     1       6.742   6.417  13.608  1.00  0.00     0.031 C 
ATOM     45  C   UNL     1       9.769   2.994   8.448  1.00  0.00     0.029 A 
ATOM     46  C   UNL     1      10.585   4.023   9.086  1.00  0.00     0.049 A 
ATOM     47  H   UNL     1      10.066   5.226  10.706  1.00  0.00     0.167 HD
ATOM     48  C   UNL     1       8.776   7.769  14.052  1.00  0.00     0.034 A 
ATOM     49  C   UNL     1      11.834   4.367   8.719  1.00  0.00     0.034 A 
ATOM     50  C   UNL     1      10.143   8.148  13.786  1.00  0.00     0.049 A 
ATOM     51  C   UNL     1      12.545   5.455   9.480  1.00  0.00     0.074 A 
ATOM     52  C   UNL     1      10.934   9.064  14.457  1.00  0.00     0.029 A 
ATOM     53  N   UNL     1      10.922   7.638  12.753  1.00  0.00    -0.354 N 
ATOM     54  N   UNL     1      12.115   6.172  10.493  1.00  0.00    -0.248 NA
ATOM     55  C   UNL     1      13.912   5.774   9.052  1.00  0.00     0.031 C 
ATOM     56  C   UNL     1      12.164   9.154  13.794  1.00  0.00     0.029 A 
ATOM     57  C   UNL     1      12.171   8.242  12.751  1.00  0.00     0.049 A 
ATOM     58  H   UNL     1      10.629   6.948  12.114  1.00  0.00     0.167 HD
ATOM     59  C   UNL     1      13.172   7.007  10.842  1.00  0.00     0.074 A 
ATOM     60  C   UNL     1      14.261   6.697   9.936  1.00  0.00     0.031 C 
ATOM     61  C   UNL     1      13.241   7.938  11.828  1.00  0.00     0.034 A 
BRANCH  48  62
ATOM     62  C   UNL     1       8.008   8.476  15.146  1.00  0.00     0.023 A 
ATOM     63  C   UNL     1       7.468   7.772  16.238  1.00  0.00     0.031 A 
ATOM     64  C   UNL     1       7.747   9.855  15.062  1.00  0.00     0.131 A 
ATOM     65  C   UNL     1       6.606   8.421  17.134  1.00  0.00     0.055 A 
ATOM     66  C   UNL     1       6.967  10.515  16.015  1.00  0.00     0.041 A 
ATOM     67  F   UNL     1       8.218  10.580  14.036  1.00  0.00    -0.206 F 
ATOM     68  C   UNL     1       6.371   9.793  17.045  1.00  0.00     0.022 A 
BRANCH  65  69
ATOM     69  S   UNL     1       5.646   7.405  18.292  1.00  0.00     0.124 S 
ATOM     70  O   UNL     1       4.952   6.497  17.382  1.00  0.00    -0.237 OA
ATOM     71  O   UNL     1       6.685   6.808  19.123  1.00  0.00    -0.237 OA
ATOM     72  O   UNL     1       4.786   8.375  18.967  1.00  0.00    -0.744 OA
ENDBRANCH  65  69
ENDBRANCH  48  62
BRANCH  49  73
ATOM     73  C   UNL     1      12.501   3.670   7.585  1.00  0.00     0.023 A 
ATOM     74  C   UNL     1      13.603   2.831   7.807  1.00  0.00     0.031 A 
ATOM     75  C   UNL     1      12.054   3.841   6.263  1.00  0.00     0.131 A 
ATOM     76  C   UNL     1      14.245   2.218   6.720  1.00  0.00     0.055 A 
ATOM     77  C   UNL     1      12.670   3.197   5.189  1.00  0.00     0.041 A 
ATOM     78  F   UNL     1      10.996   4.626   6.000  1.00  0.00    -0.206 F 
ATOM     79  C   UNL     1      13.779   2.386   5.414  1.00  0.00     0.022 A 
BRANCH  76  80
ATOM     80  S   UNL     1      15.733   1.231   7.034  1.00  0.00     0.124 S 
ATOM     81  O   UNL     1      16.635   2.225   7.604  1.00  0.00    -0.237 OA
ATOM     82  O   UNL     1      15.235   0.214   7.954  1.00  0.00    -0.237 OA
ATOM     83  O   UNL     1      16.102   0.740   5.708  1.00  0.00    -0.744 OA
ENDBRANCH  76  80
ENDBRANCH  49  73
BRANCH  61  84
ATOM     84  C   UNL     1      14.557   8.656  11.998  1.00  0.00     0.023 A 
ATOM     85  C   UNL     1      15.043   9.553  11.030  1.00  0.00     0.031 A 
ATOM     86  C   UNL     1      15.344   8.424  13.140  1.00  0.00     0.131 A 
ATOM     87  C   UNL     1      16.305  10.144  11.197  1.00  0.00     0.055 A 
ATOM     88  C   UNL     1      16.573   9.059  13.328  1.00  0.00     0.041 A 
ATOM     89  F   UNL     1      14.930   7.575  14.094  1.00  0.00    -0.206 F 
ATOM     90  C   UNL     1      17.065   9.915  12.347  1.00  0.00     0.022 A 
BRANCH  87  91
ATOM     91  S   UNL     1      16.982  11.150   9.847  1.00  0.00     0.124 S 
ATOM     92  O   UNL     1      17.006  10.197   8.742  1.00  0.00    -0.237 OA
ATOM     93  O   UNL     1      16.004  12.227   9.739  1.00  0.00    -0.237 OA
ATOM     94  O   UNL     1      18.296  11.554  10.346  1.00  0.00    -0.744 OA
ENDBRANCH  87  91
ENDBRANCH  61  84
ENDBRANCH  35  36
ENDBRANCH  27  30
ENDBRANCH  25  26
ENDBRANCH  24  25
ENDBRANCH  23  24
ENDBRANCH   1  23
TORSDOF 20
