REMARK SMILES CCC(CC)[C@H](C(=O)NCCCCNC(=O)c1ccc(-c2c3nc(c(-c4cc(S(=O)(=O)[O-])ccc4F)c4ccc([nH]4)c(-c4cc(S(=O)(=O)[O-])ccc4F)c4nc(c(-c5cc(S(=O)(=O)[O-])ccc5F)c5ccc2[nH]5)C=C4)C=C3)cc1)c1ccc(OC(F)F)cc1
REMARK SMILES IDX 11 1 10 2 9 3 7 4 8 5 6 7 3 8 2 9 1 10 4 11 5 12 80 13 81 14
REMARK SMILES IDX 89 15 82 16 88 17 83 18 84 19 85 20 86 21 87 22 12 23 13 24
REMARK SMILES IDX 14 25 15 26 16 28 17 29 18 30 79 31 19 32 78 33 20 34 21 35
REMARK SMILES IDX 22 36 72 37 23 38 77 39 71 40 73 41 24 42 76 43 70 44 69 45
REMARK SMILES IDX 25 47 57 48 37 49 56 50 38 51 41 52 55 53 74 54 39 55 40 56
REMARK SMILES IDX 54 58 75 59 42 60 26 61 27 62 35 63 28 64 34 65 36 66 33 67
REMARK SMILES IDX 29 68 30 69 31 70 32 71 58 72 59 73 67 74 60 75 66 76 68 77
REMARK SMILES IDX 65 78 61 79 62 80 63 81 64 82 43 83 44 84 52 85 45 86 51 87
REMARK SMILES IDX 53 88 50 89 46 90 47 91 48 92 49 93
REMARK H PARENT 9 6 14 27 73 46 41 57
REMARK Flexibility Score: inf
ROOT
ATOM      1  C   UNL     1      -2.284  -0.170  -0.997  1.00  0.00     0.023 C 
ENDROOT
BRANCH   1   2
ATOM      2  C   UNL     1      -1.040   0.351  -1.712  1.00  0.00     0.116 C 
BRANCH   2   3
ATOM      3  N   UNL     1       0.108  -0.515  -1.503  1.00  0.00    -0.356 N 
ATOM      4  C   UNL     1       0.916  -1.148  -2.407  1.00  0.00     0.227 C 
ATOM      5  O   UNL     1       1.849  -1.819  -1.961  1.00  0.00    -0.274 OA
ATOM      6  H   UNL     1       0.341  -0.671  -0.560  1.00  0.00     0.163 HD
BRANCH   4   7
ATOM      7  C   UNL     1       0.668  -0.961  -3.917  1.00  0.00     0.111 C 
BRANCH   7   8
ATOM      8  C   UNL     1       1.210   0.459  -4.315  1.00  0.00     0.005 C 
BRANCH   8   9
ATOM      9  C   UNL     1       2.743   0.608  -4.120  1.00  0.00     0.001 C 
ATOM     10  C   UNL     1       3.447   1.617  -5.009  1.00  0.00     0.004 C 
ENDBRANCH   8   9
BRANCH   8  11
ATOM     11  C   UNL     1       0.544   1.075  -5.573  1.00  0.00     0.001 C 
ATOM     12  C   UNL     1       0.515   0.277  -6.862  1.00  0.00     0.004 C 
ENDBRANCH   8  11
ENDBRANCH   7   8
BRANCH   7  13
ATOM     13  C   UNL     1       1.094  -2.202  -4.714  1.00  0.00    -0.035 A 
ATOM     14  C   UNL     1       0.414  -3.413  -4.491  1.00  0.00     0.008 A 
ATOM     15  C   UNL     1       2.113  -2.216  -5.674  1.00  0.00     0.008 A 
ATOM     16  C   UNL     1       0.736  -4.571  -5.211  1.00  0.00     0.047 A 
ATOM     17  C   UNL     1       2.430  -3.370  -6.401  1.00  0.00     0.047 A 
ATOM     18  C   UNL     1       1.738  -4.554  -6.181  1.00  0.00     0.126 A 
BRANCH  18  19
ATOM     19  O   UNL     1       1.944  -5.738  -6.829  1.00  0.00    -0.435 OA
BRANCH  19  20
ATOM     20  C   UNL     1       2.846  -5.749  -7.927  1.00  0.00     0.542 C 
ATOM     21  F   UNL     1       2.460  -4.847  -8.863  1.00  0.00    -0.167 F 
ATOM     22  F   UNL     1       4.096  -5.426  -7.515  1.00  0.00    -0.167 F 
ENDBRANCH  19  20
ENDBRANCH  18  19
ENDBRANCH   7  13
ENDBRANCH   4   7
ENDBRANCH   2   3
ENDBRANCH   1   2
BRANCH   1  23
ATOM     23  C   UNL     1      -2.163  -0.251   0.527  1.00  0.00     0.023 C 
BRANCH  23  24
ATOM     24  C   UNL     1      -1.847   1.067   1.228  1.00  0.00     0.116 C 
BRANCH  24  25
ATOM     25  N   UNL     1      -2.907   2.051   1.078  1.00  0.00    -0.352 N 
ATOM     26  C   UNL     1      -3.516   2.817   2.048  1.00  0.00     0.251 C 
ATOM     27  H   UNL     1      -3.234   2.188   0.160  1.00  0.00     0.163 HD
ATOM     28  O   UNL     1      -4.502   3.484   1.771  1.00  0.00    -0.269 OA
BRANCH  26  29
ATOM     29  C   UNL     1      -2.984   2.797   3.430  1.00  0.00     0.039 A 
ATOM     30  C   UNL     1      -3.866   2.608   4.498  1.00  0.00     0.014 A 
ATOM     31  C   UNL     1      -1.615   2.943   3.667  1.00  0.00     0.014 A 
ATOM     32  C   UNL     1      -3.365   2.491   5.799  1.00  0.00     0.010 A 
ATOM     33  C   UNL     1      -1.114   2.761   4.953  1.00  0.00     0.010 A 
ATOM     34  C   UNL     1      -1.982   2.530   6.033  1.00  0.00    -0.014 A 
BRANCH  34  35
ATOM     35  C   UNL     1      -1.403   2.360   7.392  1.00  0.00     0.031 A 
ATOM     36  C   UNL     1      -0.628   3.493   8.009  1.00  0.00     0.074 A 
ATOM     37  C   UNL     1      -1.481   1.172   8.023  1.00  0.00     0.049 A 
ATOM     38  N   UNL     1       0.125   3.500   9.078  1.00  0.00    -0.248 NA
ATOM     39  C   UNL     1      -0.685   4.781   7.302  1.00  0.00     0.031 C 
ATOM     40  C   UNL     1      -2.194  -0.006   7.525  1.00  0.00     0.029 A 
ATOM     41  N   UNL     1      -0.932   0.749   9.209  1.00  0.00    -0.354 N 
ATOM     42  C   UNL     1       0.657   4.783   9.156  1.00  0.00     0.074 A 
ATOM     43  C   UNL     1       0.176   5.507   7.998  1.00  0.00     0.031 C 
ATOM     44  C   UNL     1      -2.042  -1.014   8.400  1.00  0.00     0.029 A 
ATOM     45  C   UNL     1      -1.176  -0.576   9.491  1.00  0.00     0.049 A 
ATOM     46  H   UNL     1      -0.413   1.339   9.803  1.00  0.00     0.167 HD
ATOM     47  C   UNL     1       1.461   5.311  10.113  1.00  0.00     0.034 A 
ATOM     48  C   UNL     1      -0.728  -1.357  10.496  1.00  0.00     0.034 A 
ATOM     49  C   UNL     1       1.913   4.580  11.271  1.00  0.00     0.049 A 
ATOM     50  C   UNL     1       0.191  -0.759  11.534  1.00  0.00     0.074 A 
ATOM     51  C   UNL     1       2.695   5.027  12.322  1.00  0.00     0.029 A 
ATOM     52  N   UNL     1       1.624   3.246  11.531  1.00  0.00    -0.354 N 
ATOM     53  N   UNL     1       0.676   0.459  11.602  1.00  0.00    -0.248 NA
ATOM     54  C   UNL     1       0.618  -1.637  12.632  1.00  0.00     0.031 C 
ATOM     55  C   UNL     1       2.929   3.951  13.184  1.00  0.00     0.029 A 
ATOM     56  C   UNL     1       2.229   2.851  12.714  1.00  0.00     0.049 A 
ATOM     57  H   UNL     1       1.071   2.667  10.959  1.00  0.00     0.167 HD
ATOM     58  C   UNL     1       1.426   0.504  12.774  1.00  0.00     0.074 A 
ATOM     59  C   UNL     1       1.337  -0.809  13.377  1.00  0.00     0.031 C 
ATOM     60  C   UNL     1       2.116   1.542  13.310  1.00  0.00     0.034 A 
BRANCH  47  61
ATOM     61  C   UNL     1       1.924   6.735   9.923  1.00  0.00     0.023 A 
ATOM     62  C   UNL     1       1.016   7.808   9.887  1.00  0.00     0.031 A 
ATOM     63  C   UNL     1       3.288   7.023   9.741  1.00  0.00     0.131 A 
ATOM     64  C   UNL     1       1.472   9.102   9.592  1.00  0.00     0.055 A 
ATOM     65  C   UNL     1       3.745   8.326   9.535  1.00  0.00     0.041 A 
ATOM     66  F   UNL     1       4.201   6.038   9.744  1.00  0.00    -0.206 F 
ATOM     67  C   UNL     1       2.833   9.373   9.443  1.00  0.00     0.022 A 
BRANCH  64  68
ATOM     68  S   UNL     1       0.244  10.393   9.255  1.00  0.00     0.124 S 
ATOM     69  O   UNL     1      -0.479   9.822   8.121  1.00  0.00    -0.237 OA
ATOM     70  O   UNL     1      -0.493  10.464  10.512  1.00  0.00    -0.237 OA
ATOM     71  O   UNL     1       1.057  11.565   8.940  1.00  0.00    -0.744 OA
ENDBRANCH  64  68
ENDBRANCH  47  61
BRANCH  48  72
ATOM     72  C   UNL     1      -1.117  -2.795  10.567  1.00  0.00     0.023 A 
ATOM     73  C   UNL     1      -1.898  -3.280  11.628  1.00  0.00     0.031 A 
ATOM     74  C   UNL     1      -0.679  -3.715   9.597  1.00  0.00     0.131 A 
ATOM     75  C   UNL     1      -2.177  -4.652  11.722  1.00  0.00     0.055 A 
ATOM     76  C   UNL     1      -1.004  -5.071   9.667  1.00  0.00     0.041 A 
ATOM     77  F   UNL     1       0.066  -3.304   8.559  1.00  0.00    -0.206 F 
ATOM     78  C   UNL     1      -1.747  -5.549  10.742  1.00  0.00     0.022 A 
BRANCH  75  79
ATOM     79  S   UNL     1      -3.040  -5.263  13.196  1.00  0.00     0.124 S 
ATOM     80  O   UNL     1      -2.146  -4.829  14.264  1.00  0.00    -0.237 OA
ATOM     81  O   UNL     1      -4.319  -4.567  13.108  1.00  0.00    -0.237 OA
ATOM     82  O   UNL     1      -3.101  -6.707  12.981  1.00  0.00    -0.744 OA
ENDBRANCH  75  79
ENDBRANCH  48  72
BRANCH  60  83
ATOM     83  C   UNL     1       2.758   1.330  14.658  1.00  0.00     0.023 A 
ATOM     84  C   UNL     1       3.884   0.508  14.831  1.00  0.00     0.031 A 
ATOM     85  C   UNL     1       2.244   2.000  15.783  1.00  0.00     0.131 A 
ATOM     86  C   UNL     1       4.443   0.354  16.109  1.00  0.00     0.055 A 
ATOM     87  C   UNL     1       2.833   1.881  17.042  1.00  0.00     0.041 A 
ATOM     88  F   UNL     1       1.170   2.797  15.671  1.00  0.00    -0.206 F 
ATOM     89  C   UNL     1       3.935   1.049  17.211  1.00  0.00     0.022 A 
BRANCH  86  90
ATOM     90  S   UNL     1       5.823  -0.803  16.329  1.00  0.00     0.124 S 
ATOM     91  O   UNL     1       5.215  -2.075  15.951  1.00  0.00    -0.237 OA
ATOM     92  O   UNL     1       6.824  -0.277  15.407  1.00  0.00    -0.237 OA
ATOM     93  O   UNL     1       6.159  -0.673  17.746  1.00  0.00    -0.744 OA
ENDBRANCH  86  90
ENDBRANCH  60  83
ENDBRANCH  34  35
ENDBRANCH  26  29
ENDBRANCH  24  25
ENDBRANCH  23  24
ENDBRANCH   1  23
TORSDOF 20
