REMARK SMILES CC(C)C[C@@H](NS(C)(=O)=O)C(=O)N1CC[C@H](C(=O)NCCCCNC(=O)c2ccc(-c3c4nc(c(-c5cc(S(=O)(=O)[O-])ccc5F)c5ccc([nH]5)c(-c5cc(S(=O)(=O)[O-])ccc5F)c5nc(c(-c6cc(S(=O)(=O)[O-])ccc6F)c6ccc3[nH]6)C=C5)C=C4)cc2)[C@H]1C
REMARK SMILES IDX 21 1 20 2 19 3 17 4 18 5 16 7 13 8 14 9 90 10 15 11 91 12
REMARK SMILES IDX 11 13 12 14 5 15 4 16 2 17 1 18 3 19 6 20 7 22 8 23 9 24
REMARK SMILES IDX 10 25 22 26 23 27 24 28 25 29 26 31 27 32 28 33 89 34 29 35
REMARK SMILES IDX 88 36 30 37 31 38 32 39 82 40 33 41 87 42 81 43 83 44 34 45
REMARK SMILES IDX 86 46 80 47 79 48 35 50 67 51 47 52 66 53 48 54 51 55 65 56
REMARK SMILES IDX 84 57 49 58 50 59 64 61 85 62 52 63 36 64 37 65 45 66 38 67
REMARK SMILES IDX 44 68 46 69 43 70 39 71 40 72 41 73 42 74 68 75 69 76 77 77
REMARK SMILES IDX 70 78 76 79 78 80 75 81 71 82 72 83 73 84 74 85 53 86 54 87
REMARK SMILES IDX 62 88 55 89 61 90 63 91 60 92 56 93 57 94 58 95 59 96
REMARK H PARENT 19 6 6 21 24 30 83 49 51 60
REMARK Flexibility Score: inf
ROOT
ATOM      1  C   UNL     1      -6.380  -0.869  -0.017  1.00  0.00     0.023 C 
ENDROOT
BRANCH   1   2
ATOM      2  C   UNL     1      -5.736  -0.145   1.160  1.00  0.00     0.116 C 
BRANCH   2   3
ATOM      3  N   UNL     1      -6.283  -0.526   2.443  1.00  0.00    -0.356 N 
ATOM      4  C   UNL     1      -5.852  -1.356   3.420  1.00  0.00     0.225 C 
ATOM      5  O   UNL     1      -6.481  -1.297   4.486  1.00  0.00    -0.275 OA
ATOM      6  H   UNL     1      -7.144  -0.094   2.647  1.00  0.00     0.163 HD
BRANCH   4   7
ATOM      7  C   UNL     1      -4.748  -2.406   3.293  1.00  0.00     0.102 C 
ATOM      8  N   UNL     1      -3.398  -2.524   1.347  1.00  0.00    -0.338 N 
ATOM      9  C   UNL     1      -4.413  -3.552   1.181  1.00  0.00     0.121 C 
ATOM     10  C   UNL     1      -3.364  -2.049   2.731  1.00  0.00     0.094 C 
ATOM     11  C   UNL     1      -5.192  -3.622   2.484  1.00  0.00     0.037 C 
ATOM     12  C   UNL     1      -2.283  -2.799   3.528  1.00  0.00     0.032 C 
BRANCH   8  13
ATOM     13  C   UNL     1      -2.853  -1.919   0.228  1.00  0.00     0.241 C 
ATOM     14  O   UNL     1      -3.513  -1.771  -0.808  1.00  0.00    -0.273 OA
BRANCH  13  15
ATOM     15  C   UNL     1      -1.346  -1.599   0.158  1.00  0.00     0.159 C 
BRANCH  15  16
ATOM     16  C   UNL     1      -0.794  -0.623   1.210  1.00  0.00     0.033 C 
BRANCH  16  17
ATOM     17  C   UNL     1       0.742  -0.456   1.247  1.00  0.00    -0.015 C 
ATOM     18  C   UNL     1       1.300   0.129  -0.049  1.00  0.00     0.007 C 
ATOM     19  C   UNL     1       1.149   0.416   2.438  1.00  0.00     0.007 C 
ENDBRANCH  16  17
ENDBRANCH  15  16
BRANCH  15  20
ATOM     20  N   UNL     1      -0.578  -2.872   0.094  1.00  0.00    -0.203 NA
ATOM     21  H   UNL     1      -0.709  -3.341   0.990  1.00  0.00     0.141 HD
BRANCH  20  22
ATOM     22  S   UNL     1      -0.931  -4.008  -1.109  1.00  0.00     0.209 S 
ATOM     23  C   UNL     1      -0.799  -3.074  -2.627  1.00  0.00     0.176 C 
ATOM     24  O   UNL     1       0.193  -4.928  -1.071  1.00  0.00    -0.213 OA
ATOM     25  O   UNL     1      -2.274  -4.487  -0.957  1.00  0.00    -0.213 OA
ENDBRANCH  20  22
ENDBRANCH  15  20
ENDBRANCH  13  15
ENDBRANCH   8  13
ENDBRANCH   4   7
ENDBRANCH   2   3
ENDBRANCH   1   2
BRANCH   1  26
ATOM     26  C   UNL     1      -7.797  -0.437  -0.371  1.00  0.00     0.023 C 
BRANCH  26  27
ATOM     27  C   UNL     1      -7.952   1.027  -0.748  1.00  0.00     0.116 C 
BRANCH  27  28
ATOM     28  N   UNL     1      -7.117   1.433  -1.870  1.00  0.00    -0.352 N 
ATOM     29  C   UNL     1      -7.465   2.129  -3.006  1.00  0.00     0.251 C 
ATOM     30  H   UNL     1      -6.170   1.173  -1.808  1.00  0.00     0.163 HD
ATOM     31  O   UNL     1      -6.643   2.286  -3.905  1.00  0.00    -0.269 OA
BRANCH  29  32
ATOM     32  C   UNL     1      -8.843   2.647  -3.151  1.00  0.00     0.039 A 
ATOM     33  C   UNL     1      -9.513   2.470  -4.363  1.00  0.00     0.014 A 
ATOM     34  C   UNL     1      -9.489   3.261  -2.076  1.00  0.00     0.014 A 
ATOM     35  C   UNL     1     -10.855   2.841  -4.469  1.00  0.00     0.010 A 
ATOM     36  C   UNL     1     -10.851   3.523  -2.148  1.00  0.00     0.010 A 
ATOM     37  C   UNL     1     -11.548   3.331  -3.349  1.00  0.00    -0.014 A 
BRANCH  37  38
ATOM     38  C   UNL     1     -12.992   3.679  -3.422  1.00  0.00     0.031 A 
ATOM     39  C   UNL     1     -13.435   5.091  -3.144  1.00  0.00     0.074 A 
ATOM     40  C   UNL     1     -13.901   2.716  -3.678  1.00  0.00     0.049 A 
ATOM     41  N   UNL     1     -14.644   5.588  -3.099  1.00  0.00    -0.248 NA
ATOM     42  C   UNL     1     -12.378   6.066  -2.831  1.00  0.00     0.031 C 
ATOM     43  C   UNL     1     -13.596   1.300  -3.898  1.00  0.00     0.029 A 
ATOM     44  N   UNL     1     -15.266   2.780  -3.793  1.00  0.00    -0.354 N 
ATOM     45  C   UNL     1     -14.493   6.922  -2.735  1.00  0.00     0.074 A 
ATOM     46  C   UNL     1     -13.083   7.133  -2.493  1.00  0.00     0.031 C 
ATOM     47  C   UNL     1     -14.735   0.639  -4.161  1.00  0.00     0.029 A 
ATOM     48  C   UNL     1     -15.855   1.571  -4.087  1.00  0.00     0.049 A 
ATOM     49  H   UNL     1     -15.778   3.613  -3.677  1.00  0.00     0.167 HD
ATOM     50  C   UNL     1     -15.438   7.891  -2.643  1.00  0.00     0.034 A 
ATOM     51  C   UNL     1     -17.151   1.252  -4.274  1.00  0.00     0.034 A 
ATOM     52  C   UNL     1     -16.836   7.664  -2.913  1.00  0.00     0.049 A 
ATOM     53  C   UNL     1     -18.183   2.349  -4.186  1.00  0.00     0.074 A 
ATOM     54  C   UNL     1     -17.875   8.577  -2.909  1.00  0.00     0.029 A 
ATOM     55  N   UNL     1     -17.393   6.432  -3.235  1.00  0.00    -0.354 N 
ATOM     56  N   UNL     1     -18.016   3.621  -3.901  1.00  0.00    -0.248 NA
ATOM     57  C   UNL     1     -19.573   1.970  -4.465  1.00  0.00     0.031 C 
ATOM     58  C   UNL     1     -19.066   7.888  -3.163  1.00  0.00     0.029 A 
ATOM     59  C   UNL     1     -18.763   6.558  -3.409  1.00  0.00     0.049 A 
ATOM     60  H   UNL     1     -16.888   5.591  -3.327  1.00  0.00     0.167 HD
ATOM     61  C   UNL     1     -19.278   4.199  -4.001  1.00  0.00     0.074 A 
ATOM     62  C   UNL     1     -20.187   3.141  -4.394  1.00  0.00     0.031 C 
ATOM     63  C   UNL     1     -19.655   5.487  -3.790  1.00  0.00     0.034 A 
BRANCH  50  64
ATOM     64  C   UNL     1     -14.982   9.268  -2.216  1.00  0.00     0.023 A 
ATOM     65  C   UNL     1     -14.054  10.008  -2.971  1.00  0.00     0.031 A 
ATOM     66  C   UNL     1     -15.451   9.835  -1.018  1.00  0.00     0.131 A 
ATOM     67  C   UNL     1     -13.561  11.227  -2.480  1.00  0.00     0.055 A 
ATOM     68  C   UNL     1     -15.025  11.091  -0.580  1.00  0.00     0.041 A 
ATOM     69  F   UNL     1     -16.320   9.170  -0.241  1.00  0.00    -0.206 F 
ATOM     70  C   UNL     1     -14.061  11.787  -1.303  1.00  0.00     0.022 A 
BRANCH  67  71
ATOM     71  S   UNL     1     -12.147  11.992  -3.321  1.00  0.00     0.124 S 
ATOM     72  O   UNL     1     -11.136  10.943  -3.209  1.00  0.00    -0.237 OA
ATOM     73  O   UNL     1     -12.669  12.235  -4.660  1.00  0.00    -0.237 OA
ATOM     74  O   UNL     1     -11.882  13.189  -2.526  1.00  0.00    -0.744 OA
ENDBRANCH  67  71
ENDBRANCH  50  64
BRANCH  51  75
ATOM     75  C   UNL     1     -17.553  -0.154  -4.575  1.00  0.00     0.023 A 
ATOM     76  C   UNL     1     -18.145  -0.492  -5.803  1.00  0.00     0.031 A 
ATOM     77  C   UNL     1     -17.390  -1.174  -3.621  1.00  0.00     0.131 A 
ATOM     78  C   UNL     1     -18.601  -1.801  -6.024  1.00  0.00     0.055 A 
ATOM     79  C   UNL     1     -17.794  -2.487  -3.868  1.00  0.00     0.041 A 
ATOM     80  F   UNL     1     -16.823  -0.908  -2.433  1.00  0.00    -0.206 F 
ATOM     81  C   UNL     1     -18.418  -2.804  -5.071  1.00  0.00     0.022 A 
BRANCH  78  82
ATOM     82  S   UNL     1     -19.523  -2.154  -7.547  1.00  0.00     0.124 S 
ATOM     83  O   UNL     1     -20.625  -1.203  -7.454  1.00  0.00    -0.237 OA
ATOM     84  O   UNL     1     -18.524  -1.881  -8.575  1.00  0.00    -0.237 OA
ATOM     85  O   UNL     1     -19.896  -3.559  -7.401  1.00  0.00    -0.744 OA
ENDBRANCH  78  82
ENDBRANCH  51  75
BRANCH  63  86
ATOM     86  C   UNL     1     -21.108   5.820  -4.031  1.00  0.00     0.023 A 
ATOM     87  C   UNL     1     -22.135   5.264  -3.249  1.00  0.00     0.031 A 
ATOM     88  C   UNL     1     -21.471   6.679  -5.084  1.00  0.00     0.131 A 
ATOM     89  C   UNL     1     -23.476   5.510  -3.579  1.00  0.00     0.055 A 
ATOM     90  C   UNL     1     -22.805   6.979  -5.361  1.00  0.00     0.041 A 
ATOM     91  F   UNL     1     -20.533   7.238  -5.865  1.00  0.00    -0.206 F 
ATOM     92  C   UNL     1     -23.817   6.378  -4.619  1.00  0.00     0.022 A 
BRANCH  89  93
ATOM     93  S   UNL     1     -24.769   4.579  -2.711  1.00  0.00     0.124 S 
ATOM     94  O   UNL     1     -24.361   3.198  -2.953  1.00  0.00    -0.237 OA
ATOM     95  O   UNL     1     -24.627   5.054  -1.339  1.00  0.00    -0.237 OA
ATOM     96  O   UNL     1     -25.998   4.990  -3.386  1.00  0.00    -0.744 OA
ENDBRANCH  89  93
ENDBRANCH  63  86
ENDBRANCH  37  38
ENDBRANCH  29  32
ENDBRANCH  27  28
ENDBRANCH  26  27
ENDBRANCH   1  26
TORSDOF 20
