REMARK SMILES COc1ccc(-c2[nH]nc3nc(-c4ccc(C(F)(F)F)cc4)cc(C(=O)NCCCCNC(=O)c4ccc(-c5c6nc(c(-c7cc(S(=O)(=O)[O-])ccc7F)c7ccc([nH]7)c(-c7cc(S(=O)(=O)[O-])ccc7F)c7nc(c(-c8cc(S(=O)(=O)[O-])ccc8F)c8ccc5[nH]8)C=C7)C=C6)cc4)c23)cc1
REMARK SMILES IDX 30 1 29 2 28 3 27 4 25 5 26 6 24 8 7 9 8 10 98 11 9 12 10 14
REMARK SMILES IDX 11 15 23 16 12 17 6 18 3 19 4 20 100 21 5 22 99 23 2 24 1 25
REMARK SMILES IDX 13 26 14 27 22 28 15 29 21 30 16 31 17 32 18 33 19 34 20 35
REMARK SMILES IDX 31 36 32 37 33 38 34 40 35 41 36 42 97 43 37 44 96 45 38 46
REMARK SMILES IDX 39 47 40 48 90 49 41 50 95 51 89 52 91 53 42 54 94 55 88 56
REMARK SMILES IDX 87 57 43 59 75 60 55 61 74 62 56 63 59 64 73 65 92 66 57 67
REMARK SMILES IDX 58 68 72 70 93 71 60 72 44 73 45 74 53 75 46 76 52 77 54 78
REMARK SMILES IDX 51 79 47 80 48 81 49 82 50 83 76 84 77 85 85 86 78 87 84 88
REMARK SMILES IDX 86 89 83 90 79 91 80 92 81 93 82 94 61 95 62 96 70 97 63 98
REMARK SMILES IDX 69 99 71 100 68 101 64 102 65 103 66 104 67 105
REMARK H PARENT 27 7 8 13 32 39 91 58 59 69
REMARK Flexibility Score: inf
ROOT
ATOM      1  C   UNL     1       7.839   5.570  -2.654  1.00  0.00     0.023 C 
ENDROOT
BRANCH   1   2
ATOM      2  C   UNL     1       7.304   6.717  -1.780  1.00  0.00     0.023 C 
BRANCH   2   3
ATOM      3  C   UNL     1       5.894   7.194  -2.138  1.00  0.00     0.116 C 
BRANCH   3   4
ATOM      4  N   UNL     1       4.870   6.269  -1.695  1.00  0.00    -0.352 N 
ATOM      5  C   UNL     1       4.071   6.128  -0.590  1.00  0.00     0.252 C 
ATOM      6  O   UNL     1       3.236   5.236  -0.701  1.00  0.00    -0.269 OA
ATOM      7  H   UNL     1       4.707   5.560  -2.358  1.00  0.00     0.163 HD
BRANCH   5   8
ATOM      8  C   UNL     1       4.129   6.971   0.629  1.00  0.00     0.055 A 
ATOM      9  C   UNL     1       2.248   6.038   2.080  1.00  0.00     0.075 A 
ATOM     10  N   UNL     1       1.696   6.547   3.233  1.00  0.00    -0.275 N 
ATOM     11  C   UNL     1       3.246   6.940   1.734  1.00  0.00     0.059 A 
ATOM     12  N   UNL     1       2.298   7.638   3.721  1.00  0.00    -0.154 NA
ATOM     13  H   UNL     1       0.914   6.137   3.669  1.00  0.00     0.190 HD
ATOM     14  C   UNL     1       3.242   7.900   2.819  1.00  0.00     0.182 A 
ATOM     15  N   UNL     1       4.111   8.940   2.894  1.00  0.00    -0.226 NA
ATOM     16  C   UNL     1       5.056   8.005   0.816  1.00  0.00     0.043 A 
ATOM     17  C   UNL     1       4.987   8.959   1.862  1.00  0.00     0.074 A 
BRANCH   9  18
ATOM     18  C   UNL     1       1.763   4.764   1.564  1.00  0.00     0.001 A 
ATOM     19  C   UNL     1       0.865   2.312   0.512  1.00  0.00     0.118 A 
ATOM     20  C   UNL     1       0.030   3.433   0.518  1.00  0.00     0.047 A 
ATOM     21  C   UNL     1       2.147   2.416   1.049  1.00  0.00     0.047 A 
ATOM     22  C   UNL     1       0.470   4.650   1.046  1.00  0.00     0.014 A 
ATOM     23  C   UNL     1       2.589   3.632   1.584  1.00  0.00     0.014 A 
BRANCH  19  24
ATOM     24  O   UNL     1       0.323   1.200  -0.070  1.00  0.00    -0.497 OA
ATOM     25  C   UNL     1       1.025  -0.023   0.104  1.00  0.00     0.278 C 
ENDBRANCH  19  24
ENDBRANCH   9  18
BRANCH  17  26
ATOM     26  C   UNL     1       5.897  10.115   1.792  1.00  0.00     0.000 A 
ATOM     27  C   UNL     1       6.874  10.347   2.767  1.00  0.00     0.011 A 
ATOM     28  C   UNL     1       5.853  10.971   0.675  1.00  0.00     0.011 A 
ATOM     29  C   UNL     1       7.815  11.371   2.601  1.00  0.00     0.014 A 
ATOM     30  C   UNL     1       6.788  11.995   0.508  1.00  0.00     0.014 A 
ATOM     31  C   UNL     1       7.790  12.195   1.463  1.00  0.00     0.056 A 
BRANCH  31  32
ATOM     32  C   UNL     1       8.834  13.269   1.278  1.00  0.00     0.416 C 
ATOM     33  F   UNL     1       8.820  14.190   2.281  1.00  0.00    -0.166 F 
ATOM     34  F   UNL     1      10.099  12.761   1.261  1.00  0.00    -0.166 F 
ATOM     35  F   UNL     1       8.702  13.974   0.121  1.00  0.00    -0.166 F 
ENDBRANCH  31  32
ENDBRANCH  17  26
ENDBRANCH   5   8
ENDBRANCH   3   4
ENDBRANCH   2   3
ENDBRANCH   1   2
BRANCH   1  36
ATOM     36  C   UNL     1       8.045   5.912  -4.129  1.00  0.00     0.116 C 
BRANCH  36  37
ATOM     37  N   UNL     1       9.005   6.995  -4.341  1.00  0.00    -0.352 N 
ATOM     38  C   UNL     1       9.169   7.781  -5.474  1.00  0.00     0.251 C 
ATOM     39  H   UNL     1       9.609   7.191  -3.589  1.00  0.00     0.163 HD
ATOM     40  O   UNL     1      10.223   8.349  -5.695  1.00  0.00    -0.269 OA
BRANCH  38  41
ATOM     41  C   UNL     1       8.019   7.923  -6.388  1.00  0.00     0.039 A 
ATOM     42  C   UNL     1       8.144   7.790  -7.772  1.00  0.00     0.014 A 
ATOM     43  C   UNL     1       6.777   8.133  -5.801  1.00  0.00     0.014 A 
ATOM     44  C   UNL     1       6.985   7.770  -8.549  1.00  0.00     0.010 A 
ATOM     45  C   UNL     1       5.637   7.957  -6.542  1.00  0.00     0.010 A 
ATOM     46  C   UNL     1       5.729   7.828  -7.925  1.00  0.00    -0.014 A 
BRANCH  46  47
ATOM     47  C   UNL     1       4.491   7.638  -8.681  1.00  0.00     0.031 A 
ATOM     48  C   UNL     1       4.418   6.376  -9.471  1.00  0.00     0.074 A 
ATOM     49  C   UNL     1       3.393   8.403  -8.483  1.00  0.00     0.049 A 
ATOM     50  N   UNL     1       4.381   6.244 -10.755  1.00  0.00    -0.248 NA
ATOM     51  C   UNL     1       4.534   5.094  -8.755  1.00  0.00     0.031 C 
ATOM     52  C   UNL     1       3.203   9.481  -7.504  1.00  0.00     0.029 A 
ATOM     53  N   UNL     1       2.152   8.285  -9.029  1.00  0.00    -0.354 N 
ATOM     54  C   UNL     1       4.225   4.882 -11.005  1.00  0.00     0.074 A 
ATOM     55  C   UNL     1       4.534   4.221  -9.765  1.00  0.00     0.031 C 
ATOM     56  C   UNL     1       1.885   9.728  -7.347  1.00  0.00     0.029 A 
ATOM     57  C   UNL     1       1.152   8.972  -8.345  1.00  0.00     0.049 A 
ATOM     58  H   UNL     1       1.976   7.757  -9.841  1.00  0.00     0.167 HD
ATOM     59  C   UNL     1       3.625   4.435 -12.146  1.00  0.00     0.034 A 
ATOM     60  C   UNL     1      -0.190   8.911  -8.557  1.00  0.00     0.034 A 
ATOM     61  C   UNL     1       3.528   5.496 -13.124  1.00  0.00     0.049 A 
ATOM     62  C   UNL     1      -0.372   8.417  -9.945  1.00  0.00     0.074 A 
ATOM     63  C   UNL     1       4.444   6.318 -13.753  1.00  0.00     0.029 A 
ATOM     64  N   UNL     1       2.309   6.117 -13.284  1.00  0.00    -0.354 N 
ATOM     65  N   UNL     1       0.028   9.081 -10.996  1.00  0.00    -0.248 NA
ATOM     66  C   UNL     1      -0.528   6.984 -10.144  1.00  0.00     0.031 C 
ATOM     67  C   UNL     1       3.825   7.603 -13.766  1.00  0.00     0.029 A 
ATOM     68  C   UNL     1       2.536   7.471 -13.242  1.00  0.00     0.049 A 
ATOM     69  H   UNL     1       1.438   5.674 -13.405  1.00  0.00     0.167 HD
ATOM     70  C   UNL     1       0.592   8.127 -11.830  1.00  0.00     0.074 A 
ATOM     71  C   UNL     1       0.131   6.845 -11.300  1.00  0.00     0.031 C 
ATOM     72  C   UNL     1       1.606   8.441 -12.692  1.00  0.00     0.034 A 
BRANCH  59  73
ATOM     73  C   UNL     1       2.801   3.168 -12.275  1.00  0.00     0.023 A 
ATOM     74  C   UNL     1       2.257   2.878 -13.543  1.00  0.00     0.031 A 
ATOM     75  C   UNL     1       2.285   2.408 -11.202  1.00  0.00     0.131 A 
ATOM     76  C   UNL     1       1.189   1.976 -13.688  1.00  0.00     0.055 A 
ATOM     77  C   UNL     1       1.270   1.459 -11.362  1.00  0.00     0.041 A 
ATOM     78  F   UNL     1       2.656   2.600  -9.932  1.00  0.00    -0.206 F 
ATOM     79  C   UNL     1       0.690   1.263 -12.603  1.00  0.00     0.022 A 
BRANCH  76  80
ATOM     80  S   UNL     1       0.337   1.898 -15.285  1.00  0.00     0.124 S 
ATOM     81  O   UNL     1       0.021   3.303 -15.518  1.00  0.00    -0.237 OA
ATOM     82  O   UNL     1       1.363   1.315 -16.144  1.00  0.00    -0.237 OA
ATOM     83  O   UNL     1      -0.812   1.037 -15.014  1.00  0.00    -0.744 OA
ENDBRANCH  76  80
ENDBRANCH  59  73
BRANCH  60  84
ATOM     84  C   UNL     1      -1.254   8.916  -7.514  1.00  0.00     0.023 A 
ATOM     85  C   UNL     1      -2.594   9.281  -7.766  1.00  0.00     0.031 A 
ATOM     86  C   UNL     1      -0.987   8.325  -6.256  1.00  0.00     0.131 A 
ATOM     87  C   UNL     1      -3.591   9.057  -6.784  1.00  0.00     0.055 A 
ATOM     88  C   UNL     1      -1.974   8.109  -5.291  1.00  0.00     0.041 A 
ATOM     89  F   UNL     1       0.237   7.866  -5.952  1.00  0.00    -0.206 F 
ATOM     90  C   UNL     1      -3.285   8.468  -5.555  1.00  0.00     0.022 A 
BRANCH  87  91
ATOM     91  S   UNL     1      -5.336   9.470  -7.120  1.00  0.00     0.124 S 
ATOM     92  O   UNL     1      -5.289  10.918  -7.282  1.00  0.00    -0.237 OA
ATOM     93  O   UNL     1      -5.614   8.691  -8.322  1.00  0.00    -0.237 OA
ATOM     94  O   UNL     1      -6.035   9.010  -5.919  1.00  0.00    -0.744 OA
ENDBRANCH  87  91
ENDBRANCH  60  84
BRANCH  72  95
ATOM     95  C   UNL     1       1.929   9.901 -12.947  1.00  0.00     0.023 A 
ATOM     96  C   UNL     1       2.347  10.828 -11.963  1.00  0.00     0.031 A 
ATOM     97  C   UNL     1       1.960  10.317 -14.290  1.00  0.00     0.131 A 
ATOM     98  C   UNL     1       2.776  12.116 -12.349  1.00  0.00     0.055 A 
ATOM     99  C   UNL     1       2.405  11.582 -14.667  1.00  0.00     0.041 A 
ATOM    100  F   UNL     1       1.602   9.472 -15.271  1.00  0.00    -0.206 F 
ATOM    101  C   UNL     1       2.812  12.489 -13.697  1.00  0.00     0.022 A 
BRANCH  98 102
ATOM    102  S   UNL     1       3.294  13.343 -11.102  1.00  0.00     0.124 S 
ATOM    103  O   UNL     1       2.212  13.315 -10.125  1.00  0.00    -0.237 OA
ATOM    104  O   UNL     1       4.579  12.815 -10.651  1.00  0.00    -0.237 OA
ATOM    105  O   UNL     1       3.387  14.588 -11.868  1.00  0.00    -0.744 OA
ENDBRANCH  98 102
ENDBRANCH  72  95
ENDBRANCH  46  47
ENDBRANCH  38  41
ENDBRANCH  36  37
ENDBRANCH   1  36
TORSDOF 18
