REMARK SMILES CCn1nccc1-c1cc(C(=O)NCCCCNC(=O)c2ccc(-c3c4nc(c(-c5cc(S(=O)(=O)[O-])ccc5F)c5ccc([nH]5)c(-c5cc(S(=O)(=O)[O-])ccc5F)c5nc(c(-c6cc(S(=O)(=O)[O-])ccc6F)c6ccc3[nH]6)C=C5)C=C4)cc2)n2nc3nc(C(F)(F)F)cc(C4CC4)c3c2n1
REMARK SMILES IDX 16 1 15 2 14 3 13 4 11 5 12 6 10 8 8 9 9 10 100 11 99 12
REMARK SMILES IDX 84 13 98 14 85 15 86 16 94 17 87 18 93 19 88 20 7 21 3 22
REMARK SMILES IDX 4 23 5 24 6 25 2 26 1 27 95 28 96 29 97 30 89 31 90 32 91 33
REMARK SMILES IDX 92 34 17 35 18 36 19 37 20 39 21 40 22 41 83 42 23 43 82 44
REMARK SMILES IDX 24 45 25 46 26 47 76 48 27 49 81 50 75 51 77 52 28 53 80 54
REMARK SMILES IDX 74 55 73 56 29 58 61 59 41 60 60 61 42 62 45 63 59 64 78 65
REMARK SMILES IDX 43 66 44 67 58 69 79 70 46 71 30 72 31 73 39 74 32 75 38 76
REMARK SMILES IDX 40 77 37 78 33 79 34 80 35 81 36 82 62 83 63 84 71 85 64 86
REMARK SMILES IDX 70 87 72 88 69 89 65 90 66 91 67 92 68 93 47 94 48 95 56 96
REMARK SMILES IDX 49 97 55 98 57 99 54 100 50 101 51 102 52 103 53 104
REMARK H PARENT 13 7 18 38 77 57 45 68
REMARK Flexibility Score: inf
ROOT
ATOM      1  C   UNL     1      -3.040   0.386   4.331  1.00  0.00     0.023 C 
ENDROOT
BRANCH   1   2
ATOM      2  C   UNL     1      -2.635  -0.566   3.189  1.00  0.00     0.023 C 
BRANCH   2   3
ATOM      3  C   UNL     1      -3.027  -0.099   1.778  1.00  0.00     0.116 C 
BRANCH   3   4
ATOM      4  N   UNL     1      -2.220   1.044   1.366  1.00  0.00    -0.351 N 
ATOM      5  C   UNL     1      -1.286   1.271   0.395  1.00  0.00     0.270 C 
ATOM      6  O   UNL     1      -0.787   2.394   0.367  1.00  0.00    -0.268 OA
ATOM      7  H   UNL     1      -2.388   1.841   1.919  1.00  0.00     0.163 HD
BRANCH   5   8
ATOM      8  C   UNL     1      -0.903   0.242  -0.610  1.00  0.00     0.134 A 
ATOM      9  C   UNL     1      -0.313  -1.939  -1.345  1.00  0.00     0.093 A 
ATOM     10  C   UNL     1      -0.768  -1.050  -0.244  1.00  0.00     0.065 A 
ATOM     11  N   UNL     1      -0.665  -1.718  -2.579  1.00  0.00    -0.226 NA
ATOM     12  C   UNL     1      -0.384  -0.418  -2.918  1.00  0.00     0.166 A 
ATOM     13  N   UNL     1      -0.420   0.586  -1.908  1.00  0.00    -0.207 N 
ATOM     14  C   UNL     1       0.424   0.052  -3.940  1.00  0.00     0.069 A 
ATOM     15  N   UNL     1       0.481   1.568  -2.210  1.00  0.00    -0.145 NA
ATOM     16  C   UNL     1       1.156   1.074  -3.247  1.00  0.00     0.184 A 
ATOM     17  C   UNL     1       0.864  -0.660  -5.078  1.00  0.00    -0.028 A 
ATOM     18  N   UNL     1       2.481   1.290  -3.490  1.00  0.00    -0.222 NA
ATOM     19  C   UNL     1       2.181  -0.281  -5.377  1.00  0.00     0.038 A 
ATOM     20  C   UNL     1       2.968   0.474  -4.482  1.00  0.00     0.147 A 
BRANCH   9  21
ATOM     21  C   UNL     1       0.792  -2.848  -1.155  1.00  0.00     0.087 A 
ATOM     22  N   UNL     1       2.056  -2.484  -0.715  1.00  0.00    -0.264 N 
ATOM     23  N   UNL     1       2.972  -3.463  -0.874  1.00  0.00    -0.181 NA
ATOM     24  C   UNL     1       2.313  -4.416  -1.531  1.00  0.00     0.136 A 
ATOM     25  C   UNL     1       0.953  -4.114  -1.687  1.00  0.00     0.052 A 
BRANCH  22  26
ATOM     26  C   UNL     1       2.539  -1.147  -0.398  1.00  0.00     0.141 C 
ATOM     27  C   UNL     1       2.307  -0.724   1.042  1.00  0.00     0.029 C 
ENDBRANCH  22  26
ENDBRANCH   9  21
BRANCH  17  28
ATOM     28  C   UNL     1       0.242  -1.752  -5.889  1.00  0.00     0.020 C 
ATOM     29  C   UNL     1      -0.182  -3.069  -5.302  1.00  0.00     0.009 C 
ATOM     30  C   UNL     1      -1.202  -2.131  -5.893  1.00  0.00     0.009 C 
ENDBRANCH  17  28
BRANCH  20  31
ATOM     31  C   UNL     1       4.383  -0.118  -4.347  1.00  0.00     0.433 C 
ATOM     32  F   UNL     1       4.978  -0.366  -5.553  1.00  0.00    -0.165 F 
ATOM     33  F   UNL     1       5.269   0.616  -3.628  1.00  0.00    -0.165 F 
ATOM     34  F   UNL     1       4.329  -1.341  -3.729  1.00  0.00    -0.165 F 
ENDBRANCH  20  31
ENDBRANCH   5   8
ENDBRANCH   3   4
ENDBRANCH   2   3
ENDBRANCH   1   2
BRANCH   1  35
ATOM     35  C   UNL     1      -4.544   0.505   4.554  1.00  0.00     0.116 C 
BRANCH  35  36
ATOM     36  N   UNL     1      -5.141  -0.761   4.968  1.00  0.00    -0.352 N 
ATOM     37  C   UNL     1      -6.482  -1.063   5.099  1.00  0.00     0.251 C 
ATOM     38  H   UNL     1      -4.511  -1.487   5.180  1.00  0.00     0.163 HD
ATOM     39  O   UNL     1      -6.844  -1.993   5.800  1.00  0.00    -0.269 OA
BRANCH  37  40
ATOM     40  C   UNL     1      -7.464  -0.250   4.359  1.00  0.00     0.039 A 
ATOM     41  C   UNL     1      -8.650   0.166   4.970  1.00  0.00     0.014 A 
ATOM     42  C   UNL     1      -7.183   0.078   3.031  1.00  0.00     0.014 A 
ATOM     43  C   UNL     1      -9.530   0.966   4.247  1.00  0.00     0.010 A 
ATOM     44  C   UNL     1      -8.001   0.950   2.353  1.00  0.00     0.010 A 
ATOM     45  C   UNL     1      -9.193   1.355   2.943  1.00  0.00    -0.014 A 
BRANCH  45  46
ATOM     46  C   UNL     1     -10.084   2.216   2.185  1.00  0.00     0.031 A 
ATOM     47  C   UNL     1     -10.283   3.589   2.719  1.00  0.00     0.074 A 
ATOM     48  C   UNL     1     -10.562   1.871   0.974  1.00  0.00     0.049 A 
ATOM     49  N   UNL     1     -11.332   4.069   3.299  1.00  0.00    -0.248 NA
ATOM     50  C   UNL     1      -9.134   4.504   2.709  1.00  0.00     0.031 C 
ATOM     51  C   UNL     1     -10.202   0.730   0.126  1.00  0.00     0.029 A 
ATOM     52  N   UNL     1     -11.442   2.557   0.205  1.00  0.00    -0.354 N 
ATOM     53  C   UNL     1     -11.050   5.407   3.576  1.00  0.00     0.074 A 
ATOM     54  C   UNL     1      -9.636   5.570   3.338  1.00  0.00     0.031 C 
ATOM     55  C   UNL     1     -10.700   0.922  -1.117  1.00  0.00     0.029 A 
ATOM     56  C   UNL     1     -11.552   2.097  -1.096  1.00  0.00     0.049 A 
ATOM     57  H   UNL     1     -11.962   3.321   0.544  1.00  0.00     0.167 HD
ATOM     58  C   UNL     1     -12.034   6.323   3.811  1.00  0.00     0.034 A 
ATOM     59  C   UNL     1     -12.261   2.683  -2.090  1.00  0.00     0.034 A 
ATOM     60  C   UNL     1     -13.315   5.687   3.964  1.00  0.00     0.049 A 
ATOM     61  C   UNL     1     -13.267   3.572  -1.454  1.00  0.00     0.074 A 
ATOM     62  C   UNL     1     -13.854   4.803   4.877  1.00  0.00     0.029 A 
ATOM     63  N   UNL     1     -14.128   5.630   2.857  1.00  0.00    -0.354 N 
ATOM     64  N   UNL     1     -14.276   3.139  -0.749  1.00  0.00    -0.248 NA
ATOM     65  C   UNL     1     -12.894   4.960  -1.223  1.00  0.00     0.031 C 
ATOM     66  C   UNL     1     -14.653   3.917   4.098  1.00  0.00     0.029 A 
ATOM     67  C   UNL     1     -14.607   4.347   2.769  1.00  0.00     0.049 A 
ATOM     68  H   UNL     1     -14.329   6.371   2.241  1.00  0.00     0.167 HD
ATOM     69  C   UNL     1     -14.376   4.033   0.307  1.00  0.00     0.074 A 
ATOM     70  C   UNL     1     -13.570   5.186  -0.093  1.00  0.00     0.031 C 
ATOM     71  C   UNL     1     -14.864   3.650   1.524  1.00  0.00     0.034 A 
BRANCH  58  72
ATOM     72  C   UNL     1     -11.901   7.812   3.617  1.00  0.00     0.023 A 
ATOM     73  C   UNL     1     -10.876   8.386   2.844  1.00  0.00     0.031 A 
ATOM     74  C   UNL     1     -12.925   8.689   4.032  1.00  0.00     0.131 A 
ATOM     75  C   UNL     1     -10.864   9.754   2.539  1.00  0.00     0.055 A 
ATOM     76  C   UNL     1     -12.948  10.043   3.672  1.00  0.00     0.041 A 
ATOM     77  F   UNL     1     -13.961   8.246   4.761  1.00  0.00    -0.206 F 
ATOM     78  C   UNL     1     -11.911  10.584   2.924  1.00  0.00     0.022 A 
BRANCH  75  79
ATOM     79  S   UNL     1      -9.480  10.470   1.613  1.00  0.00     0.124 S 
ATOM     80  O   UNL     1     -10.155  11.021   0.443  1.00  0.00    -0.237 OA
ATOM     81  O   UNL     1      -8.961  11.448   2.566  1.00  0.00    -0.237 OA
ATOM     82  O   UNL     1      -8.609   9.325   1.365  1.00  0.00    -0.744 OA
ENDBRANCH  75  79
ENDBRANCH  58  72
BRANCH  59  83
ATOM     83  C   UNL     1     -11.794   2.886  -3.480  1.00  0.00     0.023 A 
ATOM     84  C   UNL     1     -10.416   2.916  -3.762  1.00  0.00     0.031 A 
ATOM     85  C   UNL     1     -12.668   3.369  -4.468  1.00  0.00     0.131 A 
ATOM     86  C   UNL     1      -9.945   3.478  -4.955  1.00  0.00     0.055 A 
ATOM     87  C   UNL     1     -12.197   3.916  -5.667  1.00  0.00     0.041 A 
ATOM     88  F   UNL     1     -13.992   3.387  -4.254  1.00  0.00    -0.206 F 
ATOM     89  C   UNL     1     -10.827   3.989  -5.908  1.00  0.00     0.022 A 
BRANCH  86  90
ATOM     90  S   UNL     1      -8.160   3.613  -5.244  1.00  0.00     0.124 S 
ATOM     91  O   UNL     1      -8.048   3.331  -6.673  1.00  0.00    -0.237 OA
ATOM     92  O   UNL     1      -7.901   4.993  -4.852  1.00  0.00    -0.237 OA
ATOM     93  O   UNL     1      -7.599   2.586  -4.370  1.00  0.00    -0.744 OA
ENDBRANCH  86  90
ENDBRANCH  59  83
BRANCH  71  94
ATOM     94  C   UNL     1     -15.500   2.283   1.657  1.00  0.00     0.023 A 
ATOM     95  C   UNL     1     -16.765   2.218   2.263  1.00  0.00     0.031 A 
ATOM     96  C   UNL     1     -14.818   1.069   1.448  1.00  0.00     0.131 A 
ATOM     97  C   UNL     1     -17.288   0.988   2.679  1.00  0.00     0.055 A 
ATOM     98  C   UNL     1     -15.370  -0.165   1.808  1.00  0.00     0.041 A 
ATOM     99  F   UNL     1     -13.568   1.041   0.973  1.00  0.00    -0.206 F 
ATOM    100  C   UNL     1     -16.605  -0.208   2.443  1.00  0.00     0.022 A 
BRANCH  97 101
ATOM    101  S   UNL     1     -18.806   0.927   3.663  1.00  0.00     0.124 S 
ATOM    102  O   UNL     1     -19.673   0.085   2.843  1.00  0.00    -0.237 OA
ATOM    103  O   UNL     1     -18.340   0.321   4.908  1.00  0.00    -0.237 OA
ATOM    104  O   UNL     1     -19.215   2.325   3.769  1.00  0.00    -0.744 OA
ENDBRANCH  97 101
ENDBRANCH  71  94
ENDBRANCH  45  46
ENDBRANCH  37  40
ENDBRANCH  35  36
ENDBRANCH   1  35
TORSDOF 18
