REMARK SMILES CCCCC[C@@H]1C[C@H](CC(=O)NCCCCNC(=O)c2ccc(-c3c4nc(c(-c5cc(S(=O)(=O)[O-])ccc5F)c5ccc([nH]5)c(-c5cc(S(=O)(=O)[O-])ccc5F)c5nc(c(-c6cc(S(=O)(=O)[O-])ccc6F)c6ccc3[nH]6)C=C5)C=C4)cc2)C(=O)O1
REMARK SMILES IDX 13 1 12 2 10 3 11 4 9 6 8 7 6 8 7 9 85 10 83 11 84 12 5 13
REMARK SMILES IDX 4 14 3 15 2 16 1 17 14 18 15 19 16 20 17 21 18 22 19 24
REMARK SMILES IDX 20 25 21 26 82 27 22 28 81 29 23 30 24 31 25 32 75 33 26 34
REMARK SMILES IDX 80 35 74 36 76 37 27 38 79 39 73 40 72 41 28 43 60 44 40 45
REMARK SMILES IDX 59 46 41 47 44 48 58 49 77 50 42 51 43 52 57 54 78 55 45 56
REMARK SMILES IDX 29 57 30 58 38 59 31 60 37 61 39 62 36 63 32 64 33 65 34 66
REMARK SMILES IDX 35 67 61 68 62 69 70 70 63 71 69 72 71 73 68 74 64 75 65 76
REMARK SMILES IDX 66 77 67 78 46 79 47 80 55 81 48 82 54 83 56 84 53 85 49 86
REMARK SMILES IDX 50 87 51 88 52 89
REMARK H PARENT 12 5 17 23 76 42 44 53
REMARK Flexibility Score: inf
ROOT
ATOM      1  C   UNL     1      -0.831   6.486   5.952  1.00  0.00     0.116 C 
ENDROOT
BRANCH   1   2
ATOM      2  N   UNL     1       0.530   6.232   5.526  1.00  0.00    -0.356 N 
ATOM      3  C   UNL     1       1.043   6.113   4.273  1.00  0.00     0.220 C 
ATOM      4  O   UNL     1       2.255   5.957   4.127  1.00  0.00    -0.275 OA
ATOM      5  H   UNL     1       1.183   6.130   6.256  1.00  0.00     0.163 HD
BRANCH   3   6
ATOM      6  C   UNL     1       0.138   6.248   3.069  1.00  0.00     0.115 C 
BRANCH   6   7
ATOM      7  C   UNL     1      -0.927   5.171   2.896  1.00  0.00     0.112 C 
ATOM      8  C   UNL     1      -1.593   3.506   1.293  1.00  0.00     0.177 C 
ATOM      9  C   UNL     1      -1.329   4.993   1.444  1.00  0.00     0.061 C 
ATOM     10  O   UNL     1      -1.153   2.874   2.488  1.00  0.00    -0.462 OA
ATOM     11  C   UNL     1      -0.548   3.774   3.311  1.00  0.00     0.309 C 
ATOM     12  O   UNL     1       0.100   3.445   4.284  1.00  0.00    -0.252 OA
BRANCH   8  13
ATOM     13  C   UNL     1      -0.896   2.867   0.085  1.00  0.00     0.045 C 
BRANCH  13  14
ATOM     14  C   UNL     1       0.644   2.829   0.113  1.00  0.00     0.004 C 
BRANCH  14  15
ATOM     15  C   UNL     1       1.322   1.896   1.128  1.00  0.00    -0.000 C 
BRANCH  15  16
ATOM     16  C   UNL     1       0.818   0.453   1.160  1.00  0.00    -0.003 C 
ATOM     17  C   UNL     1       1.107  -0.297  -0.129  1.00  0.00     0.004 C 
ENDBRANCH  15  16
ENDBRANCH  14  15
ENDBRANCH  13  14
ENDBRANCH   8  13
ENDBRANCH   6   7
ENDBRANCH   3   6
ENDBRANCH   1   2
BRANCH   1  18
ATOM     18  C   UNL     1      -1.546   5.229   6.449  1.00  0.00     0.023 C 
BRANCH  18  19
ATOM     19  C   UNL     1      -0.873   4.537   7.635  1.00  0.00     0.023 C 
BRANCH  19  20
ATOM     20  C   UNL     1      -0.708   5.421   8.863  1.00  0.00     0.116 C 
BRANCH  20  21
ATOM     21  N   UNL     1      -1.978   5.959   9.328  1.00  0.00    -0.352 N 
ATOM     22  C   UNL     1      -2.473   6.029  10.606  1.00  0.00     0.251 C 
ATOM     23  H   UNL     1      -2.564   6.325   8.627  1.00  0.00     0.163 HD
ATOM     24  O   UNL     1      -3.645   6.348  10.784  1.00  0.00    -0.269 OA
BRANCH  22  25
ATOM     25  C   UNL     1      -1.600   5.693  11.748  1.00  0.00     0.039 A 
ATOM     26  C   UNL     1      -2.111   4.901  12.778  1.00  0.00     0.014 A 
ATOM     27  C   UNL     1      -0.279   6.148  11.799  1.00  0.00     0.014 A 
ATOM     28  C   UNL     1      -1.280   4.521  13.832  1.00  0.00     0.010 A 
ATOM     29  C   UNL     1       0.570   5.697  12.804  1.00  0.00     0.010 A 
ATOM     30  C   UNL     1       0.077   4.887  13.837  1.00  0.00    -0.014 A 
BRANCH  30  31
ATOM     31  C   UNL     1       0.987   4.439  14.923  1.00  0.00     0.031 A 
ATOM     32  C   UNL     1       1.645   5.452  15.820  1.00  0.00     0.074 A 
ATOM     33  C   UNL     1       1.254   3.126  15.069  1.00  0.00     0.049 A 
ATOM     34  N   UNL     1       2.500   5.265  16.793  1.00  0.00    -0.248 NA
ATOM     35  C   UNL     1       1.320   6.865  15.572  1.00  0.00     0.031 C 
ATOM     36  C   UNL     1       0.710   2.056  14.229  1.00  0.00     0.029 A 
ATOM     37  N   UNL     1       2.051   2.466  15.970  1.00  0.00    -0.354 N 
ATOM     38  C   UNL     1       2.823   6.533  17.264  1.00  0.00     0.074 A 
ATOM     39  C   UNL     1       2.125   7.482  16.424  1.00  0.00     0.031 C 
ATOM     40  C   UNL     1       1.161   0.874  14.677  1.00  0.00     0.029 A 
ATOM     41  C   UNL     1       2.067   1.101  15.798  1.00  0.00     0.049 A 
ATOM     42  H   UNL     1       2.563   2.926  16.673  1.00  0.00     0.167 HD
ATOM     43  C   UNL     1       3.610   6.872  18.315  1.00  0.00     0.034 A 
ATOM     44  C   UNL     1       2.744   0.141  16.459  1.00  0.00     0.034 A 
ATOM     45  C   UNL     1       4.293   5.909  19.144  1.00  0.00     0.049 A 
ATOM     46  C   UNL     1       3.638   0.545  17.605  1.00  0.00     0.074 A 
ATOM     47  C   UNL     1       5.070   6.136  20.267  1.00  0.00     0.029 A 
ATOM     48  N   UNL     1       4.295   4.535  18.934  1.00  0.00    -0.354 N 
ATOM     49  N   UNL     1       3.887   1.746  18.077  1.00  0.00    -0.248 NA
ATOM     50  C   UNL     1       4.332  -0.536  18.315  1.00  0.00     0.031 C 
ATOM     51  C   UNL     1       5.607   4.914  20.684  1.00  0.00     0.029 A 
ATOM     52  C   UNL     1       5.090   3.908  19.883  1.00  0.00     0.049 A 
ATOM     53  H   UNL     1       3.803   4.073  18.217  1.00  0.00     0.167 HD
ATOM     54  C   UNL     1       4.741   1.558  19.161  1.00  0.00     0.074 A 
ATOM     55  C   UNL     1       4.948   0.129  19.281  1.00  0.00     0.031 C 
ATOM     56  C   UNL     1       5.300   2.482  19.985  1.00  0.00     0.034 A 
BRANCH  43  57
ATOM     57  C   UNL     1       3.792   8.345  18.603  1.00  0.00     0.023 A 
ATOM     58  C   UNL     1       2.708   9.176  18.937  1.00  0.00     0.031 A 
ATOM     59  C   UNL     1       5.066   8.934  18.517  1.00  0.00     0.131 A 
ATOM     60  C   UNL     1       2.903  10.556  19.093  1.00  0.00     0.055 A 
ATOM     61  C   UNL     1       5.268  10.294  18.763  1.00  0.00     0.041 A 
ATOM     62  F   UNL     1       6.138   8.200  18.180  1.00  0.00    -0.206 F 
ATOM     63  C   UNL     1       4.180  11.117  19.036  1.00  0.00     0.022 A 
BRANCH  60  64
ATOM     64  S   UNL     1       1.445  11.629  19.212  1.00  0.00     0.124 S 
ATOM     65  O   UNL     1       0.745  11.316  17.969  1.00  0.00    -0.237 OA
ATOM     66  O   UNL     1       0.809  11.162  20.439  1.00  0.00    -0.237 OA
ATOM     67  O   UNL     1       2.013  12.974  19.276  1.00  0.00    -0.744 OA
ENDBRANCH  60  64
ENDBRANCH  43  57
BRANCH  44  68
ATOM     68  C   UNL     1       2.619  -1.289  16.054  1.00  0.00     0.023 A 
ATOM     69  C   UNL     1       2.083  -2.248  16.929  1.00  0.00     0.031 A 
ATOM     70  C   UNL     1       3.075  -1.727  14.798  1.00  0.00     0.131 A 
ATOM     71  C   UNL     1       2.063  -3.602  16.557  1.00  0.00     0.055 A 
ATOM     72  C   UNL     1       2.996  -3.065  14.408  1.00  0.00     0.041 A 
ATOM     73  F   UNL     1       3.596  -0.854  13.921  1.00  0.00    -0.206 F 
ATOM     74  C   UNL     1       2.501  -4.014  15.296  1.00  0.00     0.022 A 
BRANCH  71  75
ATOM     75  S   UNL     1       1.544  -4.832  17.784  1.00  0.00     0.124 S 
ATOM     76  O   UNL     1       2.490  -4.588  18.867  1.00  0.00    -0.237 OA
ATOM     77  O   UNL     1       0.162  -4.442  18.040  1.00  0.00    -0.237 OA
ATOM     78  O   UNL     1       1.711  -6.104  17.083  1.00  0.00    -0.744 OA
ENDBRANCH  71  75
ENDBRANCH  44  68
BRANCH  56  79
ATOM     79  C   UNL     1       6.149   1.965  21.122  1.00  0.00     0.023 A 
ATOM     80  C   UNL     1       7.355   1.277  20.898  1.00  0.00     0.031 A 
ATOM     81  C   UNL     1       5.736   2.154  22.454  1.00  0.00     0.131 A 
ATOM     82  C   UNL     1       8.071   0.748  21.983  1.00  0.00     0.055 A 
ATOM     83  C   UNL     1       6.490   1.689  23.532  1.00  0.00     0.041 A 
ATOM     84  F   UNL     1       4.591   2.798  22.730  1.00  0.00    -0.206 F 
ATOM     85  C   UNL     1       7.657   0.968  23.299  1.00  0.00     0.022 A 
BRANCH  82  86
ATOM     86  S   UNL     1       9.492  -0.328  21.648  1.00  0.00     0.124 S 
ATOM     87  O   UNL     1       8.890  -1.379  20.833  1.00  0.00    -0.237 OA
ATOM     88  O   UNL     1      10.408   0.571  20.954  1.00  0.00    -0.237 OA
ATOM     89  O   UNL     1       9.926  -0.748  22.979  1.00  0.00    -0.744 OA
ENDBRANCH  82  86
ENDBRANCH  56  79
ENDBRANCH  30  31
ENDBRANCH  22  25
ENDBRANCH  20  21
ENDBRANCH  19  20
ENDBRANCH  18  19
ENDBRANCH   1  18
TORSDOF 19
