REMARK SMILES Cc1ccc(N2C(=O)C[C@H](Sc3ccccc3C(=O)NCCCCNC(=O)c3ccc(-c4c5nc(c(-c6cc(S(=O)(=O)[O-])ccc6F)c6ccc([nH]6)c(-c6cc(S(=O)(=O)[O-])ccc6F)c6nc(c(-c7cc(S(=O)(=O)[O-])ccc7F)c7ccc4[nH]7)C=C6)C=C5)cc3)C2=O)cc1
REMARK SMILES IDX 22 1 21 2 20 3 18 4 19 5 17 7 12 8 13 9 14 10 16 11 15 12
REMARK SMILES IDX 11 13 10 14 6 15 7 16 91 17 8 18 9 19 92 20 5 21 1 22 2 23
REMARK SMILES IDX 3 24 94 25 4 26 93 27 23 28 24 29 25 30 26 31 27 33 28 34
REMARK SMILES IDX 29 35 90 36 30 37 89 38 31 39 32 40 33 41 83 42 34 43 88 44
REMARK SMILES IDX 82 45 84 46 35 47 87 48 81 49 80 50 36 52 68 53 48 54 67 55
REMARK SMILES IDX 49 56 52 57 66 58 85 59 50 60 51 61 65 63 86 64 53 65 37 66
REMARK SMILES IDX 38 67 46 68 39 69 45 70 47 71 44 72 40 73 41 74 42 75 43 76
REMARK SMILES IDX 69 77 70 78 78 79 71 80 77 81 79 82 76 83 72 84 73 85 74 86
REMARK SMILES IDX 75 87 54 88 55 89 63 90 56 91 62 92 64 93 61 94 57 95 58 96
REMARK SMILES IDX 59 97 60 98
REMARK H PARENT 20 6 25 32 84 51 52 62
REMARK Flexibility Score: inf
ROOT
ATOM      1  C   UNL     1      -3.909   4.993  -1.703  1.00  0.00     0.023 C 
ENDROOT
BRANCH   1   2
ATOM      2  C   UNL     1      -5.155   5.252  -0.854  1.00  0.00     0.116 C 
BRANCH   2   3
ATOM      3  N   UNL     1      -6.163   4.188  -0.888  1.00  0.00    -0.352 N 
ATOM      4  C   UNL     1      -6.665   3.333   0.071  1.00  0.00     0.252 C 
ATOM      5  O   UNL     1      -7.632   2.636  -0.231  1.00  0.00    -0.269 OA
ATOM      6  H   UNL     1      -6.564   4.056  -1.778  1.00  0.00     0.163 HD
BRANCH   4   7
ATOM      7  C   UNL     1      -6.030   3.185   1.409  1.00  0.00     0.053 A 
ATOM      8  C   UNL     1      -5.794   1.924   2.009  1.00  0.00     0.021 A 
ATOM      9  C   UNL     1      -5.118   1.882   3.246  1.00  0.00     0.016 A 
ATOM     10  C   UNL     1      -4.726   3.053   3.897  1.00  0.00     0.001 A 
ATOM     11  C   UNL     1      -5.723   4.349   2.132  1.00  0.00     0.015 A 
ATOM     12  C   UNL     1      -5.054   4.287   3.353  1.00  0.00     0.001 A 
BRANCH   8  13
ATOM     13  S   UNL     1      -6.571   0.366   1.543  1.00  0.00    -0.111 SA
BRANCH  13  14
ATOM     14  C   UNL     1      -5.448  -0.421   0.350  1.00  0.00     0.151 C 
ATOM     15  N   UNL     1      -3.204   0.108  -0.001  1.00  0.00    -0.250 N 
ATOM     16  C   UNL     1      -3.890   0.709  -1.034  1.00  0.00     0.235 C 
ATOM     17  C   UNL     1      -4.038  -0.589   0.845  1.00  0.00     0.247 C 
ATOM     18  O   UNL     1      -3.442   1.371  -1.962  1.00  0.00    -0.274 OA
ATOM     19  C   UNL     1      -5.318   0.266  -0.987  1.00  0.00     0.126 C 
ATOM     20  O   UNL     1      -3.732  -1.248   1.832  1.00  0.00    -0.273 OA
BRANCH  15  21
ATOM     21  C   UNL     1      -1.790   0.113   0.090  1.00  0.00     0.052 A 
ATOM     22  C   UNL     1       2.532   0.015   0.035  1.00  0.00     0.044 C 
ATOM     23  C   UNL     1       1.035   0.065   0.098  1.00  0.00    -0.051 A 
ATOM     24  C   UNL     1       0.305  -1.072   0.457  1.00  0.00     0.005 A 
ATOM     25  C   UNL     1       0.345   1.225  -0.262  1.00  0.00     0.005 A 
ATOM     26  C   UNL     1      -1.094  -1.040   0.479  1.00  0.00     0.027 A 
ATOM     27  C   UNL     1      -1.052   1.244  -0.278  1.00  0.00     0.027 A 
ENDBRANCH  15  21
ENDBRANCH  13  14
ENDBRANCH   8  13
ENDBRANCH   4   7
ENDBRANCH   2   3
ENDBRANCH   1   2
BRANCH   1  28
ATOM     28  C   UNL     1      -4.140   4.764  -3.192  1.00  0.00     0.023 C 
BRANCH  28  29
ATOM     29  C   UNL     1      -4.856   5.889  -3.933  1.00  0.00     0.116 C 
BRANCH  29  30
ATOM     30  N   UNL     1      -3.995   6.940  -4.462  1.00  0.00    -0.352 N 
ATOM     31  C   UNL     1      -4.343   8.011  -5.285  1.00  0.00     0.251 C 
ATOM     32  H   UNL     1      -3.047   6.888  -4.205  1.00  0.00     0.163 HD
ATOM     33  O   UNL     1      -3.523   8.795  -5.705  1.00  0.00    -0.269 OA
BRANCH  31  34
ATOM     34  C   UNL     1      -5.790   8.245  -5.541  1.00  0.00     0.039 A 
ATOM     35  C   UNL     1      -6.321   9.474  -5.133  1.00  0.00     0.014 A 
ATOM     36  C   UNL     1      -6.630   7.200  -5.910  1.00  0.00     0.014 A 
ATOM     37  C   UNL     1      -7.680   9.565  -4.845  1.00  0.00     0.010 A 
ATOM     38  C   UNL     1      -7.957   7.255  -5.526  1.00  0.00     0.010 A 
ATOM     39  C   UNL     1      -8.464   8.414  -4.925  1.00  0.00    -0.014 A 
BRANCH  39  40
ATOM     40  C   UNL     1      -9.750   8.288  -4.241  1.00  0.00     0.031 A 
ATOM     41  C   UNL     1     -11.017   8.217  -4.994  1.00  0.00     0.074 A 
ATOM     42  C   UNL     1      -9.778   8.181  -2.894  1.00  0.00     0.049 A 
ATOM     43  N   UNL     1     -12.171   8.541  -4.516  1.00  0.00    -0.248 NA
ATOM     44  C   UNL     1     -11.069   7.815  -6.392  1.00  0.00     0.031 C 
ATOM     45  C   UNL     1     -10.909   7.799  -2.054  1.00  0.00     0.029 A 
ATOM     46  N   UNL     1      -8.823   8.654  -1.997  1.00  0.00    -0.354 N 
ATOM     47  C   UNL     1     -13.131   8.113  -5.405  1.00  0.00     0.074 A 
ATOM     48  C   UNL     1     -12.388   7.750  -6.590  1.00  0.00     0.031 C 
ATOM     49  C   UNL     1     -10.712   8.283  -0.818  1.00  0.00     0.029 A 
ATOM     50  C   UNL     1      -9.515   9.102  -0.858  1.00  0.00     0.049 A 
ATOM     51  H   UNL     1      -7.848   8.672  -2.134  1.00  0.00     0.167 HD
ATOM     52  C   UNL     1     -14.423   7.978  -4.983  1.00  0.00     0.034 A 
ATOM     53  C   UNL     1      -9.433  10.402  -0.451  1.00  0.00     0.034 A 
ATOM     54  C   UNL     1     -14.596   8.471  -3.612  1.00  0.00     0.049 A 
ATOM     55  C   UNL     1     -10.764  11.117  -0.440  1.00  0.00     0.074 A 
ATOM     56  C   UNL     1     -14.718   7.834  -2.387  1.00  0.00     0.029 A 
ATOM     57  N   UNL     1     -14.395   9.820  -3.330  1.00  0.00    -0.354 N 
ATOM     58  N   UNL     1     -11.839  10.675  -1.035  1.00  0.00    -0.248 NA
ATOM     59  C   UNL     1     -10.986  12.393   0.231  1.00  0.00     0.031 C 
ATOM     60  C   UNL     1     -14.523   8.801  -1.366  1.00  0.00     0.029 A 
ATOM     61  C   UNL     1     -14.315  10.031  -1.966  1.00  0.00     0.049 A 
ATOM     62  H   UNL     1     -14.319  10.527  -4.011  1.00  0.00     0.167 HD
ATOM     63  C   UNL     1     -12.866  11.570  -0.863  1.00  0.00     0.074 A 
ATOM     64  C   UNL     1     -12.285  12.615  -0.036  1.00  0.00     0.031 C 
ATOM     65  C   UNL     1     -14.098  11.370  -1.427  1.00  0.00     0.034 A 
BRANCH  52  66
ATOM     66  C   UNL     1     -15.461   7.116  -5.686  1.00  0.00     0.023 A 
ATOM     67  C   UNL     1     -16.505   6.534  -4.932  1.00  0.00     0.031 A 
ATOM     68  C   UNL     1     -15.457   6.771  -7.052  1.00  0.00     0.131 A 
ATOM     69  C   UNL     1     -17.386   5.587  -5.492  1.00  0.00     0.055 A 
ATOM     70  C   UNL     1     -16.290   5.783  -7.597  1.00  0.00     0.041 A 
ATOM     71  F   UNL     1     -14.699   7.420  -7.943  1.00  0.00    -0.206 F 
ATOM     72  C   UNL     1     -17.252   5.172  -6.812  1.00  0.00     0.022 A 
BRANCH  69  73
ATOM     73  S   UNL     1     -18.724   4.904  -4.474  1.00  0.00     0.124 S 
ATOM     74  O   UNL     1     -17.993   4.278  -3.378  1.00  0.00    -0.237 OA
ATOM     75  O   UNL     1     -19.497   6.095  -4.142  1.00  0.00    -0.237 OA
ATOM     76  O   UNL     1     -19.395   3.970  -5.379  1.00  0.00    -0.744 OA
ENDBRANCH  69  73
ENDBRANCH  52  66
BRANCH  53  77
ATOM     77  C   UNL     1      -8.102  11.015  -0.728  1.00  0.00     0.023 A 
ATOM     78  C   UNL     1      -6.977  10.365  -0.172  1.00  0.00     0.031 A 
ATOM     79  C   UNL     1      -7.890  11.899  -1.793  1.00  0.00     0.131 A 
ATOM     80  C   UNL     1      -5.726  10.457  -0.795  1.00  0.00     0.055 A 
ATOM     81  C   UNL     1      -6.618  12.052  -2.364  1.00  0.00     0.041 A 
ATOM     82  F   UNL     1      -8.921  12.524  -2.380  1.00  0.00    -0.206 F 
ATOM     83  C   UNL     1      -5.542  11.292  -1.898  1.00  0.00     0.022 A 
BRANCH  80  84
ATOM     84  S   UNL     1      -4.418   9.278  -0.335  1.00  0.00     0.124 S 
ATOM     85  O   UNL     1      -3.518  10.108   0.457  1.00  0.00    -0.237 OA
ATOM     86  O   UNL     1      -5.133   8.241   0.408  1.00  0.00    -0.237 OA
ATOM     87  O   UNL     1      -3.903   8.831  -1.627  1.00  0.00    -0.744 OA
ENDBRANCH  80  84
ENDBRANCH  53  77
BRANCH  65  88
ATOM     88  C   UNL     1     -15.243  12.368  -1.451  1.00  0.00     0.023 A 
ATOM     89  C   UNL     1     -15.096  13.734  -1.168  1.00  0.00     0.031 A 
ATOM     90  C   UNL     1     -16.548  11.968  -1.838  1.00  0.00     0.131 A 
ATOM     91  C   UNL     1     -16.199  14.610  -1.181  1.00  0.00     0.055 A 
ATOM     92  C   UNL     1     -17.627  12.855  -1.927  1.00  0.00     0.041 A 
ATOM     93  F   UNL     1     -16.835  10.697  -2.157  1.00  0.00    -0.206 F 
ATOM     94  C   UNL     1     -17.462  14.184  -1.580  1.00  0.00     0.022 A 
BRANCH  91  95
ATOM     95  S   UNL     1     -15.953  16.311  -0.603  1.00  0.00     0.124 S 
ATOM     96  O   UNL     1     -15.573  16.102   0.792  1.00  0.00    -0.237 OA
ATOM     97  O   UNL     1     -14.892  16.791  -1.482  1.00  0.00    -0.237 OA
ATOM     98  O   UNL     1     -17.258  16.937  -0.803  1.00  0.00    -0.744 OA
ENDBRANCH  91  95
ENDBRANCH  65  88
ENDBRANCH  39  40
ENDBRANCH  31  34
ENDBRANCH  29  30
ENDBRANCH  28  29
ENDBRANCH   1  28
TORSDOF 17
