REMARK SMILES CC(C)(C)c1ccc(C(=O)N/C(=C/c2ccc(O)cc2)C(=O)NCCCCNC(=O)c2ccc(-c3c4nc(c(-c5cc(S(=O)(=O)[O-])ccc5F)c5ccc([nH]5)c(-c5cc(S(=O)(=O)[O-])ccc5F)c5nc(c(-c6cc(S(=O)(=O)[O-])ccc6F)c6ccc3[nH]6)C=C5)C=C4)cc2)cc1
REMARK SMILES IDX 25 1 24 2 23 3 21 4 22 5 12 7 13 8 11 9 9 10 10 11 8 13 5 14
REMARK SMILES IDX 6 15 95 16 7 17 94 18 2 19 1 20 3 21 4 22 14 23 15 24 20 25
REMARK SMILES IDX 16 26 19 27 17 28 18 29 26 31 27 32 28 33 29 34 30 36 31 37
REMARK SMILES IDX 32 38 93 39 33 40 92 41 34 42 35 43 36 44 86 45 37 46 91 47
REMARK SMILES IDX 85 48 87 49 38 50 90 51 84 52 83 53 39 55 71 56 51 57 70 58
REMARK SMILES IDX 52 59 55 60 69 61 88 62 53 63 54 64 68 66 89 67 56 68 40 69
REMARK SMILES IDX 41 70 49 71 42 72 48 73 50 74 47 75 43 76 44 77 45 78 46 79
REMARK SMILES IDX 72 80 73 81 81 82 74 83 80 84 82 85 79 86 75 87 76 88 77 89
REMARK SMILES IDX 78 90 57 91 58 92 66 93 59 94 65 95 67 96 64 97 60 98 61 99
REMARK SMILES IDX 62 100 63 101
REMARK H PARENT 23 6 11 12 18 30 28 35 87 54 55 65
REMARK Flexibility Score: inf
ROOT
ATOM      1  C   UNL     1       2.248   7.500  -3.210  1.00  0.00     0.023 C 
ENDROOT
BRANCH   1   2
ATOM      2  C   UNL     1       1.422   7.629  -1.933  1.00  0.00     0.116 C 
BRANCH   2   3
ATOM      3  N   UNL     1       1.687   6.604  -0.955  1.00  0.00    -0.351 N 
ATOM      4  C   UNL     1       2.141   6.826   0.313  1.00  0.00     0.267 C 
ATOM      5  O   UNL     1       3.161   6.218   0.655  1.00  0.00    -0.268 OA
ATOM      6  H   UNL     1       1.529   5.670  -1.222  1.00  0.00     0.163 HD
BRANCH   4   7
ATOM      7  C   UNL     1       1.358   7.616   1.370  1.00  0.00     0.107 C 
ATOM      8  C   UNL     1       0.676   8.781   1.285  1.00  0.00     0.040 C 
BRANCH   7   9
ATOM      9  N   UNL     1       1.413   7.090   2.664  1.00  0.00    -0.317 N 
ATOM     10  C   UNL     1       1.551   5.792   3.119  1.00  0.00     0.255 C 
ATOM     11  O   UNL     1       1.855   5.600   4.297  1.00  0.00    -0.269 OA
ATOM     12  H   UNL     1       1.340   7.763   3.378  1.00  0.00     0.170 HD
BRANCH  10  13
ATOM     13  C   UNL     1       1.200   4.625   2.266  1.00  0.00     0.040 A 
ATOM     14  C   UNL     1       0.632   2.382   0.624  1.00  0.00    -0.043 A 
ATOM     15  C   UNL     1       1.635   2.332   1.608  1.00  0.00     0.005 A 
ATOM     16  C   UNL     1      -0.114   3.572   0.525  1.00  0.00     0.005 A 
ATOM     17  C   UNL     1       1.915   3.437   2.421  1.00  0.00     0.014 A 
ATOM     18  C   UNL     1       0.144   4.668   1.353  1.00  0.00     0.014 A 
BRANCH  14  19
ATOM     19  C   UNL     1       0.386   1.228  -0.365  1.00  0.00    -0.013 C 
ATOM     20  C   UNL     1       1.023  -0.110   0.075  1.00  0.00     0.016 C 
ATOM     21  C   UNL     1       1.003   1.623  -1.723  1.00  0.00     0.016 C 
ATOM     22  C   UNL     1      -1.124   0.959  -0.557  1.00  0.00     0.016 C 
ENDBRANCH  14  19
ENDBRANCH  10  13
ENDBRANCH   7   9
BRANCH   8  23
ATOM     23  C   UNL     1       0.291   9.619   0.152  1.00  0.00    -0.023 A 
ATOM     24  C   UNL     1       1.133  10.620  -0.344  1.00  0.00     0.012 A 
ATOM     25  C   UNL     1      -0.956   9.399  -0.455  1.00  0.00     0.012 A 
ATOM     26  C   UNL     1       0.773  11.315  -1.503  1.00  0.00     0.047 A 
ATOM     27  C   UNL     1      -1.314  10.096  -1.613  1.00  0.00     0.047 A 
ATOM     28  C   UNL     1      -0.429  11.025  -2.144  1.00  0.00     0.115 A 
BRANCH  28  29
ATOM     29  O   UNL     1      -0.689  11.674  -3.312  1.00  0.00    -0.508 OA
ATOM     30  H   UNL     1      -0.075  12.297  -3.648  1.00  0.00     0.293 HD
ENDBRANCH  28  29
ENDBRANCH   8  23
ENDBRANCH   4   7
ENDBRANCH   2   3
ENDBRANCH   1   2
BRANCH   1  31
ATOM     31  C   UNL     1       1.639   6.632  -4.303  1.00  0.00     0.023 C 
BRANCH  31  32
ATOM     32  C   UNL     1       0.225   6.996  -4.744  1.00  0.00     0.116 C 
BRANCH  32  33
ATOM     33  N   UNL     1       0.012   8.409  -5.044  1.00  0.00    -0.352 N 
ATOM     34  C   UNL     1      -0.763   8.949  -6.049  1.00  0.00     0.251 C 
ATOM     35  H   UNL     1       0.477   9.052  -4.461  1.00  0.00     0.163 HD
ATOM     36  O   UNL     1      -0.953  10.159  -6.115  1.00  0.00    -0.269 OA
BRANCH  34  37
ATOM     37  C   UNL     1      -1.346   8.026  -7.044  1.00  0.00     0.039 A 
ATOM     38  C   UNL     1      -0.878   8.047  -8.360  1.00  0.00     0.014 A 
ATOM     39  C   UNL     1      -2.224   7.031  -6.610  1.00  0.00     0.014 A 
ATOM     40  C   UNL     1      -1.210   6.996  -9.221  1.00  0.00     0.010 A 
ATOM     41  C   UNL     1      -2.491   5.954  -7.446  1.00  0.00     0.010 A 
ATOM     42  C   UNL     1      -1.966   5.910  -8.749  1.00  0.00    -0.014 A 
BRANCH  42  43
ATOM     43  C   UNL     1      -2.202   4.690  -9.568  1.00  0.00     0.031 A 
ATOM     44  C   UNL     1      -3.610   4.294  -9.910  1.00  0.00     0.074 A 
ATOM     45  C   UNL     1      -1.173   3.876  -9.879  1.00  0.00     0.049 A 
ATOM     46  N   UNL     1      -4.061   3.172 -10.407  1.00  0.00    -0.248 NA
ATOM     47  C   UNL     1      -4.653   5.284  -9.605  1.00  0.00     0.031 C 
ATOM     48  C   UNL     1       0.236   4.132  -9.571  1.00  0.00     0.029 A 
ATOM     49  N   UNL     1      -1.154   2.650 -10.500  1.00  0.00    -0.354 N 
ATOM     50  C   UNL     1      -5.445   3.306 -10.442  1.00  0.00     0.074 A 
ATOM     51  C   UNL     1      -5.755   4.600  -9.869  1.00  0.00     0.031 C 
ATOM     52  C   UNL     1       0.979   3.103 -10.009  1.00  0.00     0.029 A 
ATOM     53  C   UNL     1       0.100   2.088 -10.581  1.00  0.00     0.049 A 
ATOM     54  H   UNL     1      -1.963   2.215 -10.854  1.00  0.00     0.167 HD
ATOM     55  C   UNL     1      -6.369   2.436 -10.921  1.00  0.00     0.034 A 
ATOM     56  C   UNL     1       0.494   0.883 -11.040  1.00  0.00     0.034 A 
ATOM     57  C   UNL     1      -6.037   1.162 -11.510  1.00  0.00     0.049 A 
ATOM     58  C   UNL     1      -0.548  -0.068 -11.575  1.00  0.00     0.074 A 
ATOM     59  C   UNL     1      -6.884   0.219 -12.065  1.00  0.00     0.029 A 
ATOM     60  N   UNL     1      -4.748   0.654 -11.625  1.00  0.00    -0.354 N 
ATOM     61  N   UNL     1      -1.852   0.080 -11.620  1.00  0.00    -0.248 NA
ATOM     62  C   UNL     1      -0.068  -1.342 -12.127  1.00  0.00     0.031 C 
ATOM     63  C   UNL     1      -6.115  -0.878 -12.470  1.00  0.00     0.029 A 
ATOM     64  C   UNL     1      -4.780  -0.592 -12.228  1.00  0.00     0.049 A 
ATOM     65  H   UNL     1      -3.932   1.113 -11.322  1.00  0.00     0.167 HD
ATOM     66  C   UNL     1      -2.342  -1.065 -12.242  1.00  0.00     0.074 A 
ATOM     67  C   UNL     1      -1.196  -1.894 -12.551  1.00  0.00     0.031 C 
ATOM     68  C   UNL     1      -3.623  -1.396 -12.540  1.00  0.00     0.034 A 
BRANCH  55  69
ATOM     69  C   UNL     1      -7.820   2.831 -10.793  1.00  0.00     0.023 A 
ATOM     70  C   UNL     1      -8.331   3.971 -11.437  1.00  0.00     0.031 A 
ATOM     71  C   UNL     1      -8.693   2.092  -9.976  1.00  0.00     0.131 A 
ATOM     72  C   UNL     1      -9.644   4.392 -11.179  1.00  0.00     0.055 A 
ATOM     73  C   UNL     1     -10.026   2.465  -9.795  1.00  0.00     0.041 A 
ATOM     74  F   UNL     1      -8.258   1.005  -9.319  1.00  0.00    -0.206 F 
ATOM     75  C   UNL     1     -10.504   3.633 -10.383  1.00  0.00     0.022 A 
BRANCH  72  76
ATOM     76  S   UNL     1     -10.154   6.030 -11.766  1.00  0.00     0.124 S 
ATOM     77  O   UNL     1      -9.196   6.897 -11.082  1.00  0.00    -0.237 OA
ATOM     78  O   UNL     1      -9.991   5.914 -13.210  1.00  0.00    -0.237 OA
ATOM     79  O   UNL     1     -11.534   6.148 -11.299  1.00  0.00    -0.744 OA
ENDBRANCH  72  76
ENDBRANCH  55  69
BRANCH  56  80
ATOM     80  C   UNL     1       1.932   0.493 -11.008  1.00  0.00     0.023 A 
ATOM     81  C   UNL     1       2.655   0.305 -12.196  1.00  0.00     0.031 A 
ATOM     82  C   UNL     1       2.598   0.268  -9.789  1.00  0.00     0.131 A 
ATOM     83  C   UNL     1       3.987  -0.136 -12.145  1.00  0.00     0.055 A 
ATOM     84  C   UNL     1       3.937  -0.125  -9.742  1.00  0.00     0.041 A 
ATOM     85  F   UNL     1       1.956   0.442  -8.623  1.00  0.00    -0.206 F 
ATOM     86  C   UNL     1       4.636  -0.341 -10.925  1.00  0.00     0.022 A 
BRANCH  83  87
ATOM     87  S   UNL     1       4.838  -0.511 -13.702  1.00  0.00     0.124 S 
ATOM     88  O   UNL     1       3.966  -1.528 -14.279  1.00  0.00    -0.237 OA
ATOM     89  O   UNL     1       4.837   0.788 -14.367  1.00  0.00    -0.237 OA
ATOM     90  O   UNL     1       6.150  -0.986 -13.267  1.00  0.00    -0.744 OA
ENDBRANCH  83  87
ENDBRANCH  56  80
BRANCH  68  91
ATOM     91  C   UNL     1      -3.844  -2.675 -13.304  1.00  0.00     0.023 A 
ATOM     92  C   UNL     1      -3.674  -3.936 -12.710  1.00  0.00     0.031 A 
ATOM     93  C   UNL     1      -4.253  -2.620 -14.649  1.00  0.00     0.131 A 
ATOM     94  C   UNL     1      -3.881  -5.096 -13.472  1.00  0.00     0.055 A 
ATOM     95  C   UNL     1      -4.500  -3.777 -15.387  1.00  0.00     0.041 A 
ATOM     96  F   UNL     1      -4.430  -1.438 -15.260  1.00  0.00    -0.206 F 
ATOM     97  C   UNL     1      -4.307  -5.024 -14.801  1.00  0.00     0.022 A 
BRANCH  94  98
ATOM     98  S   UNL     1      -3.541  -6.710 -12.716  1.00  0.00     0.124 S 
ATOM     99  O   UNL     1      -2.113  -6.616 -12.429  1.00  0.00    -0.237 OA
ATOM    100  O   UNL     1      -4.426  -6.705 -11.555  1.00  0.00    -0.237 OA
ATOM    101  O   UNL     1      -3.902  -7.663 -13.764  1.00  0.00    -0.744 OA
ENDBRANCH  94  98
ENDBRANCH  68  91
ENDBRANCH  42  43
ENDBRANCH  34  37
ENDBRANCH  32  33
ENDBRANCH  31  32
ENDBRANCH   1  31
TORSDOF 19
