REMARK SMILES O=C(CCC(=O)N1N=C(c2ccc(F)cc2)C[C@@H]1c1ccc2nccnc2c1)NCCCCNC(=O)c1ccc(-c2c3nc(c(-c4cc(S(=O)(=O)[O-])ccc4F)c4ccc([nH]4)c(-c4cc(S(=O)(=O)[O-])ccc4F)c4nc(c(-c5cc(S(=O)(=O)[O-])ccc5F)c5ccc2[nH]5)C=C4)C=C3)cc1
REMARK SMILES IDX 31 1 30 2 29 3 1 4 2 5 3 7 4 8 5 9 6 10 7 11 8 12 18 13 9 14
REMARK SMILES IDX 17 15 19 16 20 17 28 18 21 19 27 20 22 21 26 22 23 23 25 24
REMARK SMILES IDX 24 25 10 26 11 27 16 28 12 29 15 30 13 31 14 32 32 33 33 34
REMARK SMILES IDX 34 35 35 36 36 38 37 39 38 40 99 41 39 42 98 43 40 44 41 45
REMARK SMILES IDX 42 46 92 47 43 48 97 49 91 50 93 51 44 52 96 53 90 54 89 55
REMARK SMILES IDX 45 57 77 58 57 59 76 60 58 61 61 62 75 63 94 64 59 65 60 66
REMARK SMILES IDX 74 68 95 69 62 70 46 71 47 72 55 73 48 74 54 75 56 76 53 77
REMARK SMILES IDX 49 78 50 79 51 80 52 81 78 82 79 83 87 84 80 85 86 86 88 87
REMARK SMILES IDX 85 88 81 89 82 90 83 91 84 92 63 93 64 94 72 95 65 96 71 97
REMARK SMILES IDX 73 98 70 99 66 100 67 101 68 102 69 103
REMARK H PARENT 29 6 34 37 93 56 61 67
REMARK Flexibility Score: inf
ROOT
ATOM      1  C   UNL     1       1.209  -2.593  -3.283  1.00  0.00     0.023 C 
ENDROOT
BRANCH   1   2
ATOM      2  C   UNL     1       0.794  -2.088  -1.835  1.00  0.00     0.116 C 
BRANCH   2   3
ATOM      3  N   UNL     1       1.210  -0.811  -1.221  1.00  0.00    -0.356 N 
ATOM      4  O   UNL     1       0.738  -1.446   0.942  1.00  0.00    -0.275 OA
ATOM      5  C   UNL     1       1.253  -0.651   0.182  1.00  0.00     0.220 C 
ATOM      6  H   UNL     1       1.462  -0.057  -1.801  1.00  0.00     0.163 HD
BRANCH   5   7
ATOM      7  C   UNL     1       2.139   0.527   0.709  1.00  0.00     0.110 C 
BRANCH   7   8
ATOM      8  C   UNL     1       3.078   0.118   1.887  1.00  0.00     0.112 C 
BRANCH   8   9
ATOM      9  C   UNL     1       4.543  -0.434   1.779  1.00  0.00     0.243 C 
ATOM     10  O   UNL     1       5.354  -0.120   2.657  1.00  0.00    -0.273 OA
BRANCH   9  11
ATOM     11  N   UNL     1       4.835  -1.424   0.848  1.00  0.00    -0.225 N 
ATOM     12  N   UNL     1       5.093  -2.735   1.323  1.00  0.00    -0.174 NA
ATOM     13  C   UNL     1       4.271  -1.452  -0.469  1.00  0.00     0.147 C 
ATOM     14  C   UNL     1       4.555  -3.557   0.465  1.00  0.00     0.071 C 
ATOM     15  C   UNL     1       3.792  -2.870  -0.614  1.00  0.00     0.091 C 
BRANCH  13  16
ATOM     16  C   UNL     1       4.774  -0.496  -1.546  1.00  0.00    -0.021 A 
ATOM     17  C   UNL     1       3.873  -0.153  -2.559  1.00  0.00     0.008 A 
ATOM     18  C   UNL     1       5.920   0.303  -1.482  1.00  0.00     0.036 A 
ATOM     19  C   UNL     1       4.026   0.923  -3.424  1.00  0.00     0.031 A 
ATOM     20  C   UNL     1       6.120   1.399  -2.357  1.00  0.00     0.089 A 
ATOM     21  C   UNL     1       5.135   1.712  -3.331  1.00  0.00     0.089 A 
ATOM     22  N   UNL     1       7.208   2.186  -2.259  1.00  0.00    -0.253 NA
ATOM     23  N   UNL     1       5.210   2.764  -4.165  1.00  0.00    -0.253 NA
ATOM     24  C   UNL     1       7.295   3.231  -3.122  1.00  0.00     0.132 A 
ATOM     25  C   UNL     1       6.316   3.518  -4.051  1.00  0.00     0.132 A 
ENDBRANCH  13  16
BRANCH  14  26
ATOM     26  C   UNL     1       4.436  -5.042   0.563  1.00  0.00    -0.002 A 
ATOM     27  C   UNL     1       4.197  -5.811  -0.591  1.00  0.00     0.013 A 
ATOM     28  C   UNL     1       4.427  -5.685   1.801  1.00  0.00     0.013 A 
ATOM     29  C   UNL     1       4.014  -7.193  -0.533  1.00  0.00     0.040 A 
ATOM     30  C   UNL     1       4.205  -7.071   1.867  1.00  0.00     0.040 A 
ATOM     31  C   UNL     1       4.015  -7.813   0.702  1.00  0.00     0.123 A 
ATOM     32  F   UNL     1       3.804  -9.133   0.776  1.00  0.00    -0.207 F 
ENDBRANCH  14  26
ENDBRANCH   9  11
ENDBRANCH   8   9
ENDBRANCH   7   8
ENDBRANCH   5   7
ENDBRANCH   2   3
ENDBRANCH   1   2
BRANCH   1  33
ATOM     33  C   UNL     1       2.511  -2.574  -4.176  1.00  0.00     0.023 C 
BRANCH  33  34
ATOM     34  C   UNL     1       3.809  -3.434  -4.058  1.00  0.00     0.116 C 
BRANCH  34  35
ATOM     35  N   UNL     1       3.578  -4.867  -4.043  1.00  0.00    -0.352 N 
ATOM     36  C   UNL     1       4.436  -5.931  -4.255  1.00  0.00     0.251 C 
ATOM     37  H   UNL     1       2.648  -5.127  -3.849  1.00  0.00     0.163 HD
ATOM     38  O   UNL     1       3.916  -7.020  -4.504  1.00  0.00    -0.269 OA
BRANCH  36  39
ATOM     39  C   UNL     1       5.927  -5.864  -4.175  1.00  0.00     0.039 A 
ATOM     40  C   UNL     1       6.669  -6.629  -5.092  1.00  0.00     0.014 A 
ATOM     41  C   UNL     1       6.612  -5.252  -3.121  1.00  0.00     0.014 A 
ATOM     42  C   UNL     1       8.064  -6.752  -4.975  1.00  0.00     0.010 A 
ATOM     43  C   UNL     1       8.007  -5.390  -2.991  1.00  0.00     0.010 A 
ATOM     44  C   UNL     1       8.750  -6.130  -3.922  1.00  0.00    -0.014 A 
BRANCH  44  45
ATOM     45  C   UNL     1      10.240  -6.130  -3.872  1.00  0.00     0.031 A 
ATOM     46  C   UNL     1      11.015  -7.007  -2.924  1.00  0.00     0.074 A 
ATOM     47  C   UNL     1      10.899  -5.277  -4.683  1.00  0.00     0.049 A 
ATOM     48  N   UNL     1      12.312  -7.107  -2.769  1.00  0.00    -0.248 NA
ATOM     49  C   UNL     1      10.236  -7.875  -2.030  1.00  0.00     0.031 C 
ATOM     50  C   UNL     1      10.253  -4.360  -5.625  1.00  0.00     0.029 A 
ATOM     51  N   UNL     1      12.239  -5.032  -4.847  1.00  0.00    -0.354 N 
ATOM     52  C   UNL     1      12.511  -8.056  -1.770  1.00  0.00     0.074 A 
ATOM     53  C   UNL     1      11.195  -8.473  -1.331  1.00  0.00     0.031 C 
ATOM     54  C   UNL     1      11.196  -3.661  -6.274  1.00  0.00     0.029 A 
ATOM     55  C   UNL     1      12.511  -4.058  -5.779  1.00  0.00     0.049 A 
ATOM     56  H   UNL     1      12.939  -5.508  -4.345  1.00  0.00     0.167 HD
ATOM     57  C   UNL     1      13.682  -8.537  -1.278  1.00  0.00     0.034 A 
ATOM     58  C   UNL     1      13.682  -3.535  -6.192  1.00  0.00     0.034 A 
ATOM     59  C   UNL     1      14.987  -8.097  -1.716  1.00  0.00     0.049 A 
ATOM     60  C   UNL     1      14.964  -4.061  -5.609  1.00  0.00     0.074 A 
ATOM     61  C   UNL     1      16.231  -8.553  -1.310  1.00  0.00     0.029 A 
ATOM     62  N   UNL     1      15.221  -7.093  -2.646  1.00  0.00    -0.354 N 
ATOM     63  N   UNL     1      15.130  -4.986  -4.694  1.00  0.00    -0.248 NA
ATOM     64  C   UNL     1      16.215  -3.484  -6.119  1.00  0.00     0.031 C 
ATOM     65  C   UNL     1      17.212  -7.785  -1.947  1.00  0.00     0.029 A 
ATOM     66  C   UNL     1      16.584  -6.896  -2.804  1.00  0.00     0.049 A 
ATOM     67  H   UNL     1      14.520  -6.593  -3.123  1.00  0.00     0.167 HD
ATOM     68  C   UNL     1      16.505  -5.117  -4.532  1.00  0.00     0.074 A 
ATOM     69  C   UNL     1      17.123  -4.180  -5.448  1.00  0.00     0.031 C 
ATOM     70  C   UNL     1      17.190  -5.945  -3.705  1.00  0.00     0.034 A 
BRANCH  57  71
ATOM     71  C   UNL     1      13.620  -9.591  -0.198  1.00  0.00     0.023 A 
ATOM     72  C   UNL     1      13.163 -10.892  -0.469  1.00  0.00     0.031 A 
ATOM     73  C   UNL     1      14.084  -9.312   1.101  1.00  0.00     0.131 A 
ATOM     74  C   UNL     1      13.146 -11.856   0.552  1.00  0.00     0.055 A 
ATOM     75  C   UNL     1      14.116 -10.290   2.098  1.00  0.00     0.041 A 
ATOM     76  F   UNL     1      14.528  -8.086   1.419  1.00  0.00    -0.206 F 
ATOM     77  C   UNL     1      13.640 -11.570   1.827  1.00  0.00     0.022 A 
BRANCH  74  78
ATOM     78  S   UNL     1      12.418 -13.481   0.206  1.00  0.00     0.124 S 
ATOM     79  O   UNL     1      11.020 -13.133  -0.031  1.00  0.00    -0.237 OA
ATOM     80  O   UNL     1      13.171 -13.925  -0.962  1.00  0.00    -0.237 OA
ATOM     81  O   UNL     1      12.668 -14.237   1.431  1.00  0.00    -0.744 OA
ENDBRANCH  74  78
ENDBRANCH  57  71
BRANCH  58  82
ATOM     82  C   UNL     1      13.686  -2.457  -7.219  1.00  0.00     0.023 A 
ATOM     83  C   UNL     1      14.144  -2.704  -8.522  1.00  0.00     0.031 A 
ATOM     84  C   UNL     1      13.199  -1.173  -6.918  1.00  0.00     0.131 A 
ATOM     85  C   UNL     1      14.120  -1.674  -9.475  1.00  0.00     0.055 A 
ATOM     86  C   UNL     1      13.144  -0.163  -7.879  1.00  0.00     0.041 A 
ATOM     87  F   UNL     1      12.735  -0.894  -5.689  1.00  0.00    -0.206 F 
ATOM     88  C   UNL     1      13.611  -0.410  -9.166  1.00  0.00     0.022 A 
BRANCH  85  89
ATOM     89  S   UNL     1      14.781  -2.005 -11.131  1.00  0.00     0.124 S 
ATOM     90  O   UNL     1      16.184  -2.279 -10.843  1.00  0.00    -0.237 OA
ATOM     91  O   UNL     1      13.977  -3.145 -11.558  1.00  0.00    -0.237 OA
ATOM     92  O   UNL     1      14.523  -0.761 -11.854  1.00  0.00    -0.744 OA
ENDBRANCH  85  89
ENDBRANCH  58  82
BRANCH  70  93
ATOM     93  C   UNL     1      18.694  -5.894  -3.768  1.00  0.00     0.023 A 
ATOM     94  C   UNL     1      19.415  -4.803  -3.257  1.00  0.00     0.031 A 
ATOM     95  C   UNL     1      19.414  -6.972  -4.314  1.00  0.00     0.131 A 
ATOM     96  C   UNL     1      20.816  -4.800  -3.326  1.00  0.00     0.055 A 
ATOM     97  C   UNL     1      20.809  -6.984  -4.338  1.00  0.00     0.041 A 
ATOM     98  F   UNL     1      18.771  -8.038  -4.816  1.00  0.00    -0.206 F 
ATOM     99  C   UNL     1      21.518  -5.891  -3.846  1.00  0.00     0.022 A 
BRANCH  96 100
ATOM    100  S   UNL     1      21.716  -3.332  -2.756  1.00  0.00     0.124 S 
ATOM    101  O   UNL     1      21.282  -2.321  -3.715  1.00  0.00    -0.237 OA
ATOM    102  O   UNL     1      21.226  -3.170  -1.391  1.00  0.00    -0.237 OA
ATOM    103  O   UNL     1      23.120  -3.727  -2.865  1.00  0.00    -0.744 OA
ENDBRANCH  96 100
ENDBRANCH  70  93
ENDBRANCH  44  45
ENDBRANCH  36  39
ENDBRANCH  34  35
ENDBRANCH  33  34
ENDBRANCH   1  33
TORSDOF 19
