REMARK SMILES CC[C@H](C)[C@@H](NC(=O)[C@@H]1CCCN1C(=O)C1CC1)C(=O)NCCCCNC(=O)c1ccc(-c2c3nc(c(-c4cc(S(=O)(=O)[O-])ccc4F)c4ccc([nH]4)c(-c4cc(S(=O)(=O)[O-])ccc4F)c4nc(c(-c5cc(S(=O)(=O)[O-])ccc5F)c5ccc2[nH]5)C=C4)C=C3)cc1
REMARK SMILES IDX 23 1 22 2 21 3 19 4 20 5 5 7 3 8 4 9 2 10 1 11 6 12 7 13
REMARK SMILES IDX 8 15 9 16 10 17 13 18 11 19 12 20 14 21 15 22 16 23 17 24
REMARK SMILES IDX 18 25 24 26 25 27 26 28 27 29 28 31 29 32 30 33 91 34 31 35
REMARK SMILES IDX 90 36 32 37 33 38 34 39 84 40 35 41 89 42 83 43 85 44 36 45
REMARK SMILES IDX 88 46 82 47 81 48 37 50 69 51 49 52 68 53 50 54 53 55 67 56
REMARK SMILES IDX 86 57 51 58 52 59 66 61 87 62 54 63 38 64 39 65 47 66 40 67
REMARK SMILES IDX 46 68 48 69 45 70 41 71 42 72 43 73 44 74 70 75 71 76 79 77
REMARK SMILES IDX 72 78 78 79 80 80 77 81 73 82 74 83 75 84 76 85 55 86 56 87
REMARK SMILES IDX 64 88 57 89 63 90 65 91 62 92 58 93 59 94 60 95 61 96
REMARK H PARENT 21 6 6 14 26 30 85 49 53 60
REMARK Flexibility Score: inf
ROOT
ATOM      1  C   UNL     1       4.202   1.885   4.172  1.00  0.00     0.023 C 
ENDROOT
BRANCH   1   2
ATOM      2  C   UNL     1       3.069   1.582   5.175  1.00  0.00     0.116 C 
BRANCH   2   3
ATOM      3  N   UNL     1       1.787   1.356   4.508  1.00  0.00    -0.354 N 
ATOM      4  C   UNL     1       0.847   0.429   4.924  1.00  0.00     0.242 C 
ATOM      5  O   UNL     1       0.529   0.329   6.111  1.00  0.00    -0.273 OA
ATOM      6  H   UNL     1       1.579   1.898   3.712  1.00  0.00     0.163 HD
BRANCH   4   7
ATOM      7  C   UNL     1       0.077  -0.380   3.819  1.00  0.00     0.174 C 
BRANCH   7   8
ATOM      8  C   UNL     1       0.325   0.093   2.346  1.00  0.00     0.018 C 
ATOM      9  C   UNL     1      -0.021  -0.932   1.253  1.00  0.00     0.010 C 
BRANCH   8  10
ATOM     10  C   UNL     1      -0.435   1.419   2.029  1.00  0.00     0.002 C 
ATOM     11  C   UNL     1      -1.941   1.409   2.297  1.00  0.00     0.004 C 
ENDBRANCH   8  10
ENDBRANCH   7   8
BRANCH   7  12
ATOM     12  N   UNL     1      -0.292  -1.826   3.936  1.00  0.00    -0.342 N 
ATOM     13  C   UNL     1       0.254  -3.049   4.130  1.00  0.00     0.243 C 
ATOM     14  H   UNL     1      -1.267  -1.919   3.839  1.00  0.00     0.164 HD
ATOM     15  O   UNL     1      -0.426  -3.983   3.670  1.00  0.00    -0.273 OA
BRANCH  13  16
ATOM     16  C   UNL     1       1.410  -3.414   5.074  1.00  0.00     0.174 C 
ATOM     17  C   UNL     1       0.853  -3.486   6.508  1.00  0.00     0.037 C 
ATOM     18  N   UNL     1       2.510  -2.491   5.113  1.00  0.00    -0.330 N 
ATOM     19  C   UNL     1       1.788  -2.671   7.383  1.00  0.00     0.024 C 
ATOM     20  C   UNL     1       2.647  -1.883   6.422  1.00  0.00     0.120 C 
BRANCH  18  21
ATOM     21  C   UNL     1       3.308  -2.120   4.063  1.00  0.00     0.226 C 
ATOM     22  O   UNL     1       3.734  -0.962   3.994  1.00  0.00    -0.275 OA
BRANCH  21  23
ATOM     23  C   UNL     1       3.798  -3.011   2.987  1.00  0.00     0.079 C 
ATOM     24  C   UNL     1       3.664  -4.490   2.806  1.00  0.00     0.014 C 
ATOM     25  C   UNL     1       2.915  -3.553   1.899  1.00  0.00     0.014 C 
ENDBRANCH  21  23
ENDBRANCH  18  21
ENDBRANCH  13  16
ENDBRANCH   7  12
ENDBRANCH   4   7
ENDBRANCH   2   3
ENDBRANCH   1   2
BRANCH   1  26
ATOM     26  C   UNL     1       5.601   1.936   4.808  1.00  0.00     0.023 C 
BRANCH  26  27
ATOM     27  C   UNL     1       6.134   0.632   5.417  1.00  0.00     0.116 C 
BRANCH  27  28
ATOM     28  N   UNL     1       6.968  -0.145   4.507  1.00  0.00    -0.352 N 
ATOM     29  C   UNL     1       8.265  -0.587   4.681  1.00  0.00     0.251 C 
ATOM     30  H   UNL     1       6.548  -0.390   3.651  1.00  0.00     0.163 HD
ATOM     31  O   UNL     1       8.858  -1.157   3.770  1.00  0.00    -0.269 OA
BRANCH  29  32
ATOM     32  C   UNL     1       8.953  -0.335   5.971  1.00  0.00     0.039 A 
ATOM     33  C   UNL     1      10.185   0.325   5.974  1.00  0.00     0.014 A 
ATOM     34  C   UNL     1       8.359  -0.713   7.178  1.00  0.00     0.014 A 
ATOM     35  C   UNL     1      10.776   0.686   7.191  1.00  0.00     0.010 A 
ATOM     36  C   UNL     1       8.915  -0.291   8.386  1.00  0.00     0.010 A 
ATOM     37  C   UNL     1      10.127   0.420   8.409  1.00  0.00    -0.014 A 
BRANCH  37  38
ATOM     38  C   UNL     1      10.702   0.878   9.707  1.00  0.00     0.031 A 
ATOM     39  C   UNL     1      11.124  -0.127  10.746  1.00  0.00     0.074 A 
ATOM     40  C   UNL     1      10.794   2.197   9.976  1.00  0.00     0.049 A 
ATOM     41  N   UNL     1      11.617   0.072  11.943  1.00  0.00    -0.248 NA
ATOM     42  C   UNL     1      10.932  -1.543  10.405  1.00  0.00     0.031 C 
ATOM     43  C   UNL     1      10.369   3.275   9.079  1.00  0.00     0.029 A 
ATOM     44  N   UNL     1      11.275   2.861  11.079  1.00  0.00    -0.354 N 
ATOM     45  C   UNL     1      11.777  -1.192  12.503  1.00  0.00     0.074 A 
ATOM     46  C   UNL     1      11.260  -2.141  11.540  1.00  0.00     0.031 C 
ATOM     47  C   UNL     1      10.645   4.459   9.650  1.00  0.00     0.029 A 
ATOM     48  C   UNL     1      11.231   4.232  10.967  1.00  0.00     0.049 A 
ATOM     49  H   UNL     1      11.619   2.397  11.877  1.00  0.00     0.167 HD
ATOM     50  C   UNL     1      12.331  -1.535  13.695  1.00  0.00     0.034 A 
ATOM     51  C   UNL     1      11.624   5.197  11.824  1.00  0.00     0.034 A 
ATOM     52  C   UNL     1      12.860  -0.578  14.638  1.00  0.00     0.049 A 
ATOM     53  C   UNL     1      12.234   4.795  13.145  1.00  0.00     0.074 A 
ATOM     54  C   UNL     1      13.500  -0.815  15.842  1.00  0.00     0.029 A 
ATOM     55  N   UNL     1      12.803   0.802  14.486  1.00  0.00    -0.354 N 
ATOM     56  N   UNL     1      12.445   3.592  13.628  1.00  0.00    -0.248 NA
ATOM     57  C   UNL     1      12.674   5.883  14.027  1.00  0.00     0.031 C 
ATOM     58  C   UNL     1      13.769   0.418  16.448  1.00  0.00     0.029 A 
ATOM     59  C   UNL     1      13.369   1.428  15.587  1.00  0.00     0.049 A 
ATOM     60  H   UNL     1      12.417   1.269  13.710  1.00  0.00     0.167 HD
ATOM     61  C   UNL     1      13.078   3.782  14.854  1.00  0.00     0.074 A 
ATOM     62  C   UNL     1      13.226   5.212  15.027  1.00  0.00     0.031 C 
ATOM     63  C   UNL     1      13.505   2.857  15.753  1.00  0.00     0.034 A 
BRANCH  50  64
ATOM     64  C   UNL     1      12.364  -3.006  14.044  1.00  0.00     0.023 A 
ATOM     65  C   UNL     1      13.056  -3.938  13.249  1.00  0.00     0.031 A 
ATOM     66  C   UNL     1      11.655  -3.494  15.156  1.00  0.00     0.131 A 
ATOM     67  C   UNL     1      12.939  -5.311  13.515  1.00  0.00     0.055 A 
ATOM     68  C   UNL     1      11.622  -4.855  15.471  1.00  0.00     0.041 A 
ATOM     69  F   UNL     1      10.961  -2.659  15.946  1.00  0.00    -0.206 F 
ATOM     70  C   UNL     1      12.249  -5.775  14.636  1.00  0.00     0.022 A 
BRANCH  67  71
ATOM     71  S   UNL     1      13.553  -6.485  12.275  1.00  0.00     0.124 S 
ATOM     72  O   UNL     1      12.789  -6.091  11.094  1.00  0.00    -0.237 OA
ATOM     73  O   UNL     1      14.981  -6.190  12.241  1.00  0.00    -0.237 OA
ATOM     74  O   UNL     1      13.197  -7.788  12.831  1.00  0.00    -0.744 OA
ENDBRANCH  67  71
ENDBRANCH  50  64
BRANCH  51  75
ATOM     75  C   UNL     1      11.481   6.639  11.466  1.00  0.00     0.023 A 
ATOM     76  C   UNL     1      12.611   7.456  11.301  1.00  0.00     0.031 A 
ATOM     77  C   UNL     1      10.214   7.235  11.335  1.00  0.00     0.131 A 
ATOM     78  C   UNL     1      12.455   8.831  11.063  1.00  0.00     0.055 A 
ATOM     79  C   UNL     1      10.064   8.593  11.046  1.00  0.00     0.041 A 
ATOM     80  F   UNL     1       9.100   6.500  11.478  1.00  0.00    -0.206 F 
ATOM     81  C   UNL     1      11.189   9.403  10.923  1.00  0.00     0.022 A 
BRANCH  78  82
ATOM     82  S   UNL     1      13.935   9.880  11.023  1.00  0.00     0.124 S 
ATOM     83  O   UNL     1      14.505   9.642  12.345  1.00  0.00    -0.237 OA
ATOM     84  O   UNL     1      14.672   9.321   9.895  1.00  0.00    -0.237 OA
ATOM     85  O   UNL     1      13.395  11.221  10.808  1.00  0.00    -0.744 OA
ENDBRANCH  78  82
ENDBRANCH  51  75
BRANCH  63  86
ATOM     86  C   UNL     1      14.220   3.373  16.979  1.00  0.00     0.023 A 
ATOM     87  C   UNL     1      13.566   4.151  17.949  1.00  0.00     0.031 A 
ATOM     88  C   UNL     1      15.587   3.097  17.166  1.00  0.00     0.131 A 
ATOM     89  C   UNL     1      14.292   4.681  19.027  1.00  0.00     0.055 A 
ATOM     90  C   UNL     1      16.289   3.573  18.274  1.00  0.00     0.041 A 
ATOM     91  F   UNL     1      16.265   2.361  16.270  1.00  0.00    -0.206 F 
ATOM     92  C   UNL     1      15.645   4.383  19.205  1.00  0.00     0.022 A 
BRANCH  89  93
ATOM     93  S   UNL     1      13.468   5.855  20.139  1.00  0.00     0.124 S 
ATOM     94  O   UNL     1      13.029   6.894  19.213  1.00  0.00    -0.237 OA
ATOM     95  O   UNL     1      12.412   5.038  20.728  1.00  0.00    -0.237 OA
ATOM     96  O   UNL     1      14.529   6.255  21.062  1.00  0.00    -0.744 OA
ENDBRANCH  89  93
ENDBRANCH  63  86
ENDBRANCH  37  38
ENDBRANCH  29  32
ENDBRANCH  27  28
ENDBRANCH  26  27
ENDBRANCH   1  26
TORSDOF 20
