REMARK SMILES O=C(NCCCCNC(=O)c1ccc(-c2ccc(Cl)cc2)cc1F)c1ccc(-c2c3nc(c(-c4cc(S(=O)(=O)[O-])ccc4F)c4ccc([nH]4)c(-c4cc(S(=O)(=O)[O-])ccc4F)c4nc(c(-c5cc(S(=O)(=O)[O-])ccc5F)c5ccc2[nH]5)C=C4)C=C3)cc1
REMARK SMILES IDX 4 1 3 2 1 3 2 4 25 6 26 7 87 8 27 9 86 10 28 11 29 12 30 13
REMARK SMILES IDX 80 14 31 15 85 16 79 17 81 18 32 19 84 20 78 21 77 22 33 24
REMARK SMILES IDX 65 25 45 26 64 27 46 28 49 29 63 30 82 31 47 32 48 33 62 35
REMARK SMILES IDX 83 36 50 37 34 38 35 39 43 40 36 41 42 42 44 43 41 44 37 45
REMARK SMILES IDX 38 46 39 47 40 48 66 49 67 50 75 51 68 52 74 53 76 54 73 55
REMARK SMILES IDX 69 56 70 57 71 58 72 59 51 60 52 61 60 62 53 63 59 64 61 65
REMARK SMILES IDX 58 66 54 67 55 68 56 69 57 70 5 71 6 72 7 73 8 74 9 75 10 77
REMARK SMILES IDX 11 78 12 79 23 80 13 81 22 82 24 83 14 84 15 85 16 86 21 87
REMARK SMILES IDX 17 88 20 89 18 90 19 91
REMARK H PARENT 3 5 81 23 49 34 8 76
REMARK Flexibility Score: inf
ROOT
ATOM      1  C   UNL     1       4.593  -1.368  -0.042  1.00  0.00     0.116 C 
ENDROOT
BRANCH   1   2
ATOM      2  N   UNL     1       3.165  -1.173  -0.248  1.00  0.00    -0.352 N 
ATOM      3  O   UNL     1       1.186  -0.093  -0.184  1.00  0.00    -0.269 OA
ATOM      4  C   UNL     1       2.409  -0.036  -0.080  1.00  0.00     0.251 C 
ATOM      5  H   UNL     1       2.670  -1.968  -0.551  1.00  0.00     0.163 HD
BRANCH   4   6
ATOM      6  C   UNL     1       3.068   1.246   0.256  1.00  0.00     0.039 A 
ATOM      7  C   UNL     1       4.211   1.662  -0.430  1.00  0.00     0.014 A 
ATOM      8  C   UNL     1       2.543   2.034   1.285  1.00  0.00     0.014 A 
ATOM      9  C   UNL     1       4.913   2.778   0.012  1.00  0.00     0.010 A 
ATOM     10  C   UNL     1       3.208   3.201   1.675  1.00  0.00     0.010 A 
ATOM     11  C   UNL     1       4.420   3.563   1.067  1.00  0.00    -0.014 A 
BRANCH  11  12
ATOM     12  C   UNL     1       5.177   4.769   1.494  1.00  0.00     0.031 A 
ATOM     13  C   UNL     1       5.806   4.843   2.861  1.00  0.00     0.074 A 
ATOM     14  C   UNL     1       5.338   5.781   0.619  1.00  0.00     0.049 A 
ATOM     15  N   UNL     1       6.496   5.819   3.394  1.00  0.00    -0.248 NA
ATOM     16  C   UNL     1       5.639   3.677   3.743  1.00  0.00     0.031 C 
ATOM     17  C   UNL     1       4.785   5.814  -0.738  1.00  0.00     0.029 A 
ATOM     18  N   UNL     1       6.031   6.960   0.722  1.00  0.00    -0.354 N 
ATOM     19  C   UNL     1       6.831   5.396   4.676  1.00  0.00     0.074 A 
ATOM     20  C   UNL     1       6.253   4.080   4.848  1.00  0.00     0.031 C 
ATOM     21  C   UNL     1       5.202   6.929  -1.356  1.00  0.00     0.029 A 
ATOM     22  C   UNL     1       5.993   7.723  -0.422  1.00  0.00     0.049 A 
ATOM     23  H   UNL     1       6.509   7.234   1.537  1.00  0.00     0.167 HD
ATOM     24  C   UNL     1       7.560   6.045   5.616  1.00  0.00     0.034 A 
ATOM     25  C   UNL     1       6.516   8.935  -0.687  1.00  0.00     0.034 A 
ATOM     26  C   UNL     1       8.155   7.343   5.425  1.00  0.00     0.049 A 
ATOM     27  C   UNL     1       7.285   9.648   0.390  1.00  0.00     0.074 A 
ATOM     28  C   UNL     1       8.938   8.068   6.309  1.00  0.00     0.029 A 
ATOM     29  N   UNL     1       8.035   8.113   4.277  1.00  0.00    -0.354 N 
ATOM     30  N   UNL     1       7.567   9.239   1.605  1.00  0.00    -0.248 NA
ATOM     31  C   UNL     1       7.792  10.988   0.069  1.00  0.00     0.031 C 
ATOM     32  C   UNL     1       9.248   9.295   5.715  1.00  0.00     0.029 A 
ATOM     33  C   UNL     1       8.706   9.314   4.440  1.00  0.00     0.049 A 
ATOM     34  H   UNL     1       7.545   7.845   3.466  1.00  0.00     0.167 HD
ATOM     35  C   UNL     1       8.286  10.273   2.192  1.00  0.00     0.074 A 
ATOM     36  C   UNL     1       8.411  11.317   1.195  1.00  0.00     0.031 C 
ATOM     37  C   UNL     1       8.797  10.352   3.445  1.00  0.00     0.034 A 
BRANCH  24  38
ATOM     38  C   UNL     1       7.736   5.382   6.956  1.00  0.00     0.023 A 
ATOM     39  C   UNL     1       8.593   4.282   7.128  1.00  0.00     0.031 A 
ATOM     40  C   UNL     1       7.080   5.899   8.087  1.00  0.00     0.131 A 
ATOM     41  C   UNL     1       8.754   3.720   8.404  1.00  0.00     0.055 A 
ATOM     42  C   UNL     1       7.283   5.367   9.361  1.00  0.00     0.041 A 
ATOM     43  F   UNL     1       6.241   6.941   7.971  1.00  0.00    -0.206 F 
ATOM     44  C   UNL     1       8.123   4.269   9.524  1.00  0.00     0.022 A 
BRANCH  41  45
ATOM     45  S   UNL     1       9.773   2.230   8.582  1.00  0.00     0.124 S 
ATOM     46  O   UNL     1       8.956   1.232   7.896  1.00  0.00    -0.237 OA
ATOM     47  O   UNL     1      11.013   2.608   7.914  1.00  0.00    -0.237 OA
ATOM     48  O   UNL     1       9.875   2.057  10.030  1.00  0.00    -0.744 OA
ENDBRANCH  41  45
ENDBRANCH  24  38
BRANCH  25  49
ATOM     49  C   UNL     1       6.285   9.571  -2.013  1.00  0.00     0.023 A 
ATOM     50  C   UNL     1       7.340   9.773  -2.915  1.00  0.00     0.031 A 
ATOM     51  C   UNL     1       4.997   9.990  -2.391  1.00  0.00     0.131 A 
ATOM     52  C   UNL     1       7.091  10.399  -4.146  1.00  0.00     0.055 A 
ATOM     53  C   UNL     1       4.748  10.574  -3.633  1.00  0.00     0.041 A 
ATOM     54  F   UNL     1       3.955   9.812  -1.563  1.00  0.00    -0.206 F 
ATOM     55  C   UNL     1       5.801  10.789  -4.516  1.00  0.00     0.022 A 
BRANCH  52  56
ATOM     56  S   UNL     1       8.490  10.736  -5.249  1.00  0.00     0.124 S 
ATOM     57  O   UNL     1       9.290  11.652  -4.443  1.00  0.00    -0.237 OA
ATOM     58  O   UNL     1       9.048   9.403  -5.451  1.00  0.00    -0.237 OA
ATOM     59  O   UNL     1       7.859  11.329  -6.427  1.00  0.00    -0.744 OA
ENDBRANCH  52  56
ENDBRANCH  25  49
BRANCH  37  60
ATOM     60  C   UNL     1       9.544  11.606   3.802  1.00  0.00     0.023 A 
ATOM     61  C   UNL     1       8.866  12.811   4.048  1.00  0.00     0.031 A 
ATOM     62  C   UNL     1      10.944  11.587   3.926  1.00  0.00     0.131 A 
ATOM     63  C   UNL     1       9.594  13.962   4.380  1.00  0.00     0.055 A 
ATOM     64  C   UNL     1      11.659  12.725   4.296  1.00  0.00     0.041 A 
ATOM     65  F   UNL     1      11.633  10.457   3.703  1.00  0.00    -0.206 F 
ATOM     66  C   UNL     1      10.985  13.923   4.521  1.00  0.00     0.022 A 
BRANCH  63  67
ATOM     67  S   UNL     1       8.703  15.525   4.606  1.00  0.00     0.124 S 
ATOM     68  O   UNL     1       8.233  15.802   3.252  1.00  0.00    -0.237 OA
ATOM     69  O   UNL     1       7.674  15.167   5.576  1.00  0.00    -0.237 OA
ATOM     70  O   UNL     1       9.731  16.436   5.105  1.00  0.00    -0.744 OA
ENDBRANCH  63  67
ENDBRANCH  37  60
ENDBRANCH  11  12
ENDBRANCH   4   6
ENDBRANCH   1   2
BRANCH   1  71
ATOM     71  C   UNL     1       4.909  -2.530   0.893  1.00  0.00     0.023 C 
BRANCH  71  72
ATOM     72  C   UNL     1       4.426  -3.901   0.426  1.00  0.00     0.023 C 
BRANCH  72  73
ATOM     73  C   UNL     1       4.838  -4.292  -0.991  1.00  0.00     0.116 C 
BRANCH  73  74
ATOM     74  N   UNL     1       6.280  -4.345  -1.165  1.00  0.00    -0.352 N 
ATOM     75  C   UNL     1       7.059  -5.387  -1.602  1.00  0.00     0.254 C 
ATOM     76  H   UNL     1       6.766  -3.519  -0.937  1.00  0.00     0.163 HD
ATOM     77  O   UNL     1       8.283  -5.296  -1.627  1.00  0.00    -0.269 OA
BRANCH  75  78
ATOM     78  C   UNL     1       6.431  -6.657  -1.984  1.00  0.00     0.075 A 
ATOM     79  C   UNL     1       6.783  -7.815  -1.288  1.00  0.00     0.017 A 
ATOM     80  C   UNL     1       5.497  -6.721  -3.011  1.00  0.00     0.136 A 
ATOM     81  C   UNL     1       6.134  -9.018  -1.579  1.00  0.00     0.010 A 
ATOM     82  C   UNL     1       4.845  -7.917  -3.297  1.00  0.00     0.048 A 
ATOM     83  F   UNL     1       5.167  -5.628  -3.714  1.00  0.00    -0.206 F 
ATOM     84  C   UNL     1       5.136  -9.084  -2.571  1.00  0.00    -0.015 A 
BRANCH  84  85
ATOM     85  C   UNL     1       4.394 -10.329  -2.822  1.00  0.00    -0.018 A 
ATOM     86  C   UNL     1       4.238 -10.835  -4.124  1.00  0.00     0.010 A 
ATOM     87  C   UNL     1       3.792 -11.033  -1.763  1.00  0.00     0.010 A 
ATOM     88  C   UNL     1       3.504 -12.001  -4.361  1.00  0.00     0.021 A 
ATOM     89  C   UNL     1       3.058 -12.200  -1.996  1.00  0.00     0.021 A 
ATOM     90  C   UNL     1       2.917 -12.678  -3.295  1.00  0.00     0.041 A 
ATOM     91  Cl  UNL     1       2.009 -14.109  -3.587  1.00  0.00    -0.084 Cl
ENDBRANCH  84  85
ENDBRANCH  75  78
ENDBRANCH  73  74
ENDBRANCH  72  73
ENDBRANCH  71  72
ENDBRANCH   1  71
TORSDOF 15
