REMARK SMILES Cc1ccccc1/[NH+]=C1\S[C@@H](CC(=O)Nc2ccc(C(=O)NCCCCNC(=O)c3ccc(-c4c5nc(c(-c6cc(S(=O)(=O)[O-])ccc6F)c6ccc([nH]6)c(-c6cc(S(=O)(=O)[O-])ccc6F)c6nc(c(-c7cc(S(=O)(=O)[O-])ccc7F)c7ccc4[nH]7)C=C6)C=C5)cc3)cc2)C(=O)N1C
REMARK SMILES IDX 24 1 23 2 22 3 20 4 21 5 19 7 16 8 17 9 94 10 18 11 93 12
REMARK SMILES IDX 15 13 13 14 14 15 12 17 11 18 8 19 9 20 10 22 97 23 95 24
REMARK SMILES IDX 98 25 96 26 7 27 1 28 2 29 3 30 4 31 6 32 5 33 25 34 26 35
REMARK SMILES IDX 27 36 28 37 29 39 30 40 31 41 92 42 32 43 91 44 33 45 34 46
REMARK SMILES IDX 35 47 85 48 36 49 90 50 84 51 86 52 37 53 89 54 83 55 82 56
REMARK SMILES IDX 38 58 70 59 50 60 69 61 51 62 54 63 68 64 87 65 52 66 53 67
REMARK SMILES IDX 67 69 88 70 55 71 39 72 40 73 48 74 41 75 47 76 49 77 46 78
REMARK SMILES IDX 42 79 43 80 44 81 45 82 71 83 72 84 80 85 73 86 79 87 81 88
REMARK SMILES IDX 78 89 74 90 75 91 76 92 77 93 56 94 57 95 65 96 58 97 64 98
REMARK SMILES IDX 66 99 63 100 59 101 60 102 61 103 62 104
REMARK H PARENT 22 6 15 16 8 21 27 38 86 57 54 68
REMARK Flexibility Score: inf
ROOT
ATOM      1  C   UNL     1       2.351   6.851  -1.911  1.00  0.00     0.023 C 
ENDROOT
BRANCH   1   2
ATOM      2  C   UNL     1       2.966   5.937  -2.982  1.00  0.00     0.116 C 
BRANCH   2   3
ATOM      3  N   UNL     1       4.165   6.525  -3.577  1.00  0.00    -0.352 N 
ATOM      4  C   UNL     1       5.508   6.412  -3.304  1.00  0.00     0.251 C 
ATOM      5  O   UNL     1       6.293   6.985  -4.064  1.00  0.00    -0.269 OA
ATOM      6  H   UNL     1       3.970   7.127  -4.331  1.00  0.00     0.163 HD
BRANCH   4   7
ATOM      7  C   UNL     1       6.080   5.639  -2.160  1.00  0.00     0.039 A 
ATOM      8  C   UNL     1       7.287   4.125  -0.096  1.00  0.00     0.041 A 
ATOM      9  C   UNL     1       5.961   4.534  -0.020  1.00  0.00     0.027 A 
ATOM     10  C   UNL     1       8.062   4.586  -1.151  1.00  0.00     0.027 A 
ATOM     11  C   UNL     1       5.359   5.278  -1.032  1.00  0.00     0.016 A 
ATOM     12  C   UNL     1       7.454   5.317  -2.186  1.00  0.00     0.016 A 
BRANCH   8  13
ATOM     13  N   UNL     1       7.851   3.296   0.887  1.00  0.00    -0.326 N 
ATOM     14  C   UNL     1       7.292   2.175   1.458  1.00  0.00     0.226 C 
ATOM     15  O   UNL     1       7.805   1.664   2.455  1.00  0.00    -0.275 OA
ATOM     16  H   UNL     1       8.749   3.545   1.204  1.00  0.00     0.169 HD
BRANCH  14  17
ATOM     17  C   UNL     1       6.184   1.464   0.702  1.00  0.00     0.128 C 
BRANCH  17  18
ATOM     18  C   UNL     1       4.847   1.395   1.404  1.00  0.00     0.183 C 
ATOM     19  N   UNL     1       1.233   1.373   1.687  1.00  0.00    -0.234 N 
ATOM     20  C   UNL     1       2.387   1.784   1.303  1.00  0.00     0.319 C 
ATOM     21  H   UNL     1       0.844   1.875   2.439  1.00  0.00     0.313 HD
ATOM     22  S   UNL     1       3.518   1.122   0.169  1.00  0.00    -0.022 SA
ATOM     23  N   UNL     1       3.015   2.824   1.924  1.00  0.00    -0.193 N 
ATOM     24  C   UNL     1       4.362   2.631   2.155  1.00  0.00     0.324 C 
ATOM     25  C   UNL     1       2.335   4.052   2.281  1.00  0.00     0.301 C 
ATOM     26  O   UNL     1       5.051   3.294   2.902  1.00  0.00    -0.245 OA
BRANCH  19  27
ATOM     27  C   UNL     1       0.439   0.323   1.204  1.00  0.00     0.128 A 
ATOM     28  C   UNL     1       2.184  -1.560   0.896  1.00  0.00     0.049 C 
ATOM     29  C   UNL     1       0.803  -0.981   0.820  1.00  0.00    -0.004 A 
ATOM     30  C   UNL     1      -0.191  -1.863   0.335  1.00  0.00     0.008 A 
ATOM     31  C   UNL     1      -1.539  -1.519   0.339  1.00  0.00     0.001 A 
ATOM     32  C   UNL     1      -0.937   0.616   1.248  1.00  0.00     0.052 A 
ATOM     33  C   UNL     1      -1.918  -0.281   0.826  1.00  0.00     0.004 A 
ENDBRANCH  19  27
ENDBRANCH  17  18
ENDBRANCH  14  17
ENDBRANCH   8  13
ENDBRANCH   4   7
ENDBRANCH   2   3
ENDBRANCH   1   2
BRANCH   1  34
ATOM     34  C   UNL     1       1.260   7.819  -2.383  1.00  0.00     0.023 C 
BRANCH  34  35
ATOM     35  C   UNL     1       0.077   7.133  -3.067  1.00  0.00     0.116 C 
BRANCH  35  36
ATOM     36  N   UNL     1      -1.218   7.741  -2.733  1.00  0.00    -0.352 N 
ATOM     37  C   UNL     1      -2.452   7.512  -3.319  1.00  0.00     0.251 C 
ATOM     38  H   UNL     1      -1.207   8.397  -1.999  1.00  0.00     0.163 HD
ATOM     39  O   UNL     1      -3.496   7.960  -2.858  1.00  0.00    -0.269 OA
BRANCH  37  40
ATOM     40  C   UNL     1      -2.493   6.616  -4.489  1.00  0.00     0.039 A 
ATOM     41  C   UNL     1      -3.179   5.403  -4.370  1.00  0.00     0.014 A 
ATOM     42  C   UNL     1      -1.612   6.851  -5.539  1.00  0.00     0.014 A 
ATOM     43  C   UNL     1      -2.790   4.333  -5.167  1.00  0.00     0.010 A 
ATOM     44  C   UNL     1      -1.154   5.766  -6.255  1.00  0.00     0.010 A 
ATOM     45  C   UNL     1      -1.700   4.497  -6.023  1.00  0.00    -0.014 A 
BRANCH  45  46
ATOM     46  C   UNL     1      -1.013   3.374  -6.648  1.00  0.00     0.031 A 
ATOM     47  C   UNL     1      -1.266   3.067  -8.063  1.00  0.00     0.074 A 
ATOM     48  C   UNL     1      -0.137   2.633  -5.937  1.00  0.00     0.049 A 
ATOM     49  N   UNL     1      -1.190   1.892  -8.587  1.00  0.00    -0.248 NA
ATOM     50  C   UNL     1      -1.674   4.102  -9.005  1.00  0.00     0.031 C 
ATOM     51  C   UNL     1       0.750   1.578  -6.419  1.00  0.00     0.029 A 
ATOM     52  N   UNL     1      -0.098   2.514  -4.550  1.00  0.00    -0.354 N 
ATOM     53  C   UNL     1      -1.237   2.053  -9.953  1.00  0.00     0.074 A 
ATOM     54  C   UNL     1      -1.611   3.434 -10.158  1.00  0.00     0.031 C 
ATOM     55  C   UNL     1       1.011   0.742  -5.400  1.00  0.00     0.029 A 
ATOM     56  C   UNL     1       0.190   1.165  -4.277  1.00  0.00     0.049 A 
ATOM     57  H   UNL     1      -0.243   3.232  -3.892  1.00  0.00     0.167 HD
ATOM     58  C   UNL     1      -0.797   1.054 -10.768  1.00  0.00     0.034 A 
ATOM     59  C   UNL     1      -0.719   0.388  -3.619  1.00  0.00     0.034 A 
ATOM     60  C   UNL     1      -0.429  -0.141 -10.010  1.00  0.00     0.049 A 
ATOM     61  C   UNL     1      -1.163  -0.814  -4.423  1.00  0.00     0.074 A 
ATOM     62  C   UNL     1       0.790  -0.637  -9.575  1.00  0.00     0.029 A 
ATOM     63  N   UNL     1      -1.409  -0.842  -9.309  1.00  0.00    -0.354 N 
ATOM     64  N   UNL     1      -1.052  -0.912  -5.721  1.00  0.00    -0.248 NA
ATOM     65  C   UNL     1      -1.780  -1.992  -3.822  1.00  0.00     0.031 C 
ATOM     66  C   UNL     1       0.537  -1.569  -8.535  1.00  0.00     0.029 A 
ATOM     67  C   UNL     1      -0.833  -1.669  -8.362  1.00  0.00     0.049 A 
ATOM     68  H   UNL     1      -2.377  -0.760  -9.467  1.00  0.00     0.167 HD
ATOM     69  C   UNL     1      -1.585  -2.107  -6.135  1.00  0.00     0.074 A 
ATOM     70  C   UNL     1      -2.001  -2.759  -4.904  1.00  0.00     0.031 C 
ATOM     71  C   UNL     1      -1.653  -2.461  -7.455  1.00  0.00     0.034 A 
BRANCH  58  72
ATOM     72  C   UNL     1      -0.362   1.335 -12.188  1.00  0.00     0.023 A 
ATOM     73  C   UNL     1       0.773   0.685 -12.712  1.00  0.00     0.031 A 
ATOM     74  C   UNL     1      -0.962   2.284 -13.038  1.00  0.00     0.131 A 
ATOM     75  C   UNL     1       1.333   1.070 -13.944  1.00  0.00     0.055 A 
ATOM     76  C   UNL     1      -0.365   2.723 -14.227  1.00  0.00     0.041 A 
ATOM     77  F   UNL     1      -2.171   2.797 -12.765  1.00  0.00    -0.206 F 
ATOM     78  C   UNL     1       0.802   2.126 -14.679  1.00  0.00     0.022 A 
BRANCH  75  79
ATOM     79  S   UNL     1       2.760   0.152 -14.587  1.00  0.00     0.124 S 
ATOM     80  O   UNL     1       3.758   0.354 -13.542  1.00  0.00    -0.237 OA
ATOM     81  O   UNL     1       2.223  -1.198 -14.715  1.00  0.00    -0.237 OA
ATOM     82  O   UNL     1       3.049   0.821 -15.855  1.00  0.00    -0.744 OA
ENDBRANCH  75  79
ENDBRANCH  58  72
BRANCH  59  83
ATOM     83  C   UNL     1      -1.574   1.155  -2.660  1.00  0.00     0.023 A 
ATOM     84  C   UNL     1      -0.918   1.998  -1.731  1.00  0.00     0.031 A 
ATOM     85  C   UNL     1      -2.947   1.345  -2.843  1.00  0.00     0.131 A 
ATOM     86  C   UNL     1      -1.585   3.080  -1.141  1.00  0.00     0.055 A 
ATOM     87  C   UNL     1      -3.628   2.394  -2.206  1.00  0.00     0.041 A 
ATOM     88  F   UNL     1      -3.633   0.600  -3.722  1.00  0.00    -0.206 F 
ATOM     89  C   UNL     1      -2.939   3.292  -1.386  1.00  0.00     0.022 A 
BRANCH  86  90
ATOM     90  S   UNL     1      -0.623   4.335  -0.249  1.00  0.00     0.124 S 
ATOM     91  O   UNL     1      -0.854   4.004   1.150  1.00  0.00    -0.237 OA
ATOM     92  O   UNL     1       0.742   4.125  -0.734  1.00  0.00    -0.237 OA
ATOM     93  O   UNL     1      -1.219   5.596  -0.678  1.00  0.00    -0.744 OA
ENDBRANCH  86  90
ENDBRANCH  59  83
BRANCH  71  94
ATOM     94  C   UNL     1      -2.417  -3.655  -7.983  1.00  0.00     0.023 A 
ATOM     95  C   UNL     1      -3.469  -4.259  -7.277  1.00  0.00     0.031 A 
ATOM     96  C   UNL     1      -2.151  -4.191  -9.264  1.00  0.00     0.131 A 
ATOM     97  C   UNL     1      -4.114  -5.405  -7.771  1.00  0.00     0.055 A 
ATOM     98  C   UNL     1      -2.859  -5.275  -9.796  1.00  0.00     0.041 A 
ATOM     99  F   UNL     1      -1.194  -3.683 -10.056  1.00  0.00    -0.206 F 
ATOM    100  C   UNL     1      -3.832  -5.907  -9.038  1.00  0.00     0.022 A 
BRANCH  97 101
ATOM    101  S   UNL     1      -5.262  -6.277  -6.673  1.00  0.00     0.124 S 
ATOM    102  O   UNL     1      -4.385  -6.658  -5.569  1.00  0.00    -0.237 OA
ATOM    103  O   UNL     1      -6.250  -5.247  -6.369  1.00  0.00    -0.237 OA
ATOM    104  O   UNL     1      -5.747  -7.386  -7.490  1.00  0.00    -0.744 OA
ENDBRANCH  97 101
ENDBRANCH  71  94
ENDBRANCH  45  46
ENDBRANCH  37  40
ENDBRANCH  35  36
ENDBRANCH  34  35
ENDBRANCH   1  34
TORSDOF 18
