REMARK SMILES C[C@]([NH3+])(C(=O)N[C@H]1CCCCC[C@@H]1C(=O)NCCCCNC(=O)c1ccc(-c2c3nc(c(-c4cc(S(=O)(=O)[O-])ccc4F)c4ccc([nH]4)c(-c4cc(S(=O)(=O)[O-])ccc4F)c4nc(c(-c5cc(S(=O)(=O)[O-])ccc5F)c5ccc2[nH]5)C=C4)C=C3)cc1)C(F)(F)F
REMARK SMILES IDX 18 1 17 2 16 3 14 4 15 5 13 7 7 8 6 9 4 10 5 11 2 13 1 14
REMARK SMILES IDX 87 15 88 16 89 17 90 18 3 19 8 23 12 25 11 26 10 27 9 28
REMARK SMILES IDX 19 30 20 31 21 32 22 33 23 35 24 36 25 37 86 38 26 39 85 40
REMARK SMILES IDX 27 41 28 42 29 43 79 44 30 45 84 46 78 47 80 48 31 49 83 50
REMARK SMILES IDX 77 51 76 52 32 54 64 55 44 56 63 57 45 58 48 59 62 60 81 61
REMARK SMILES IDX 46 62 47 63 61 65 82 66 49 67 33 68 34 69 42 70 35 71 41 72
REMARK SMILES IDX 43 73 40 74 36 75 37 76 38 77 39 78 65 79 66 80 74 81 67 82
REMARK SMILES IDX 73 83 75 84 72 85 68 86 69 87 70 88 71 89 50 90 51 91 59 92
REMARK SMILES IDX 52 93 58 94 60 95 57 96 53 97 54 98 55 99 56 100
REMARK H PARENT 16 6 6 12 3 20 3 21 3 22 21 34 80 53 48 64
REMARK Flexibility Score: 100.00
ROOT
ATOM      1  C   UNL     1       3.827   1.948  -1.884  1.00  0.00     0.023 C 
ENDROOT
BRANCH   1   2
ATOM      2  C   UNL     1       2.949   1.258  -0.845  1.00  0.00     0.116 C 
BRANCH   2   3
ATOM      3  N   UNL     1       1.560   1.679  -0.888  1.00  0.00    -0.356 N 
ATOM      4  C   UNL     1       0.418   0.935  -0.951  1.00  0.00     0.225 C 
ATOM      5  O   UNL     1      -0.653   1.532  -0.837  1.00  0.00    -0.275 OA
ATOM      6  H   UNL     1       1.420   2.654  -0.869  1.00  0.00     0.163 HD
BRANCH   4   7
ATOM      7  C   UNL     1       0.504  -0.577  -1.165  1.00  0.00     0.101 C 
BRANCH   7   8
ATOM      8  C   UNL     1      -0.825  -1.141  -1.757  1.00  0.00     0.094 C 
BRANCH   8   9
ATOM      9  N   UNL     1      -0.757  -1.317  -3.230  1.00  0.00    -0.347 N 
ATOM     10  C   UNL     1      -1.072  -0.556  -4.320  1.00  0.00     0.290 C 
ATOM     11  O   UNL     1      -1.054  -1.182  -5.387  1.00  0.00    -0.267 OA
ATOM     12  H   UNL     1      -0.397  -2.198  -3.483  1.00  0.00     0.164 HD
BRANCH  10  13
ATOM     13  C   UNL     1      -1.295   0.969  -4.285  1.00  0.00     0.266 C 
ATOM     14  C   UNL     1       0.066   1.663  -4.099  1.00  0.00     0.100 C 
BRANCH  13  15
ATOM     15  C   UNL     1      -1.853   1.387  -5.678  1.00  0.00     0.453 C 
ATOM     16  F   UNL     1      -3.043   0.813  -5.964  1.00  0.00    -0.164 F 
ATOM     17  F   UNL     1      -2.068   2.735  -5.684  1.00  0.00    -0.164 F 
ATOM     18  F   UNL     1      -1.004   1.138  -6.699  1.00  0.00    -0.164 F 
ENDBRANCH  13  15
BRANCH  13  19
ATOM     19  N   UNL     1      -2.232   1.344  -3.174  1.00  0.00    -0.337 N 
ATOM     20  H   UNL     1      -3.128   0.877  -3.312  1.00  0.00     0.345 HD
ATOM     21  H   UNL     1      -2.372   2.355  -3.173  1.00  0.00     0.345 HD
ATOM     22  H   UNL     1      -1.833   1.056  -2.281  1.00  0.00     0.345 HD
ENDBRANCH  13  19
ENDBRANCH  10  13
ENDBRANCH   8   9
BRANCH   8  23
ATOM     23  C   UNL     1      -1.278  -2.497  -1.158  1.00  0.00     0.026 CG0
ATOM     24  G   UNL     1      -0.260  -3.639  -1.256  1.00  0.00     0.000 G0
ENDBRANCH   8  23
ENDBRANCH   7   8
BRANCH   7  25
ATOM     25  C   UNL     1       0.928  -1.185   0.190  1.00  0.00     0.015 C 
BRANCH  25  26
ATOM     26  C   UNL     1       1.647  -2.522   0.039  1.00  0.00     0.001 C 
BRANCH  26  27
ATOM     27  C   UNL     1       0.707  -3.711  -0.081  1.00  0.00     0.000 C 
BRANCH  27  28
ATOM     28  C   UNL     1      -0.260  -3.639  -1.256  1.00  0.00     0.002 CG0
ATOM     29  G   UNL     1      -1.278  -2.497  -1.158  1.00  0.00     0.000 G0
ENDBRANCH  27  28
ENDBRANCH  26  27
ENDBRANCH  25  26
ENDBRANCH   7  25
ENDBRANCH   4   7
ENDBRANCH   2   3
ENDBRANCH   1   2
BRANCH   1  30
ATOM     30  C   UNL     1       3.780   3.476  -1.904  1.00  0.00     0.023 C 
BRANCH  30  31
ATOM     31  C   UNL     1       3.900   4.181  -0.556  1.00  0.00     0.116 C 
BRANCH  31  32
ATOM     32  N   UNL     1       5.137   3.890   0.148  1.00  0.00    -0.352 N 
ATOM     33  C   UNL     1       6.066   4.752   0.689  1.00  0.00     0.251 C 
ATOM     34  H   UNL     1       5.342   2.933   0.254  1.00  0.00     0.163 HD
ATOM     35  O   UNL     1       7.093   4.297   1.178  1.00  0.00    -0.269 OA
BRANCH  33  36
ATOM     36  C   UNL     1       5.852   6.218   0.630  1.00  0.00     0.039 A 
ATOM     37  C   UNL     1       6.903   7.028   0.191  1.00  0.00     0.014 A 
ATOM     38  C   UNL     1       4.626   6.793   0.974  1.00  0.00     0.014 A 
ATOM     39  C   UNL     1       6.693   8.396  -0.002  1.00  0.00     0.010 A 
ATOM     40  C   UNL     1       4.398   8.145   0.716  1.00  0.00     0.010 A 
ATOM     41  C   UNL     1       5.422   8.956   0.203  1.00  0.00    -0.014 A 
BRANCH  41  42
ATOM     42  C   UNL     1       5.129  10.369  -0.159  1.00  0.00     0.031 A 
ATOM     43  C   UNL     1       4.729  11.361   0.897  1.00  0.00     0.074 A 
ATOM     44  C   UNL     1       5.135  10.735  -1.457  1.00  0.00     0.049 A 
ATOM     45  N   UNL     1       4.319  12.595   0.761  1.00  0.00    -0.248 NA
ATOM     46  C   UNL     1       4.774  10.889   2.289  1.00  0.00     0.031 C 
ATOM     47  C   UNL     1       5.474   9.858  -2.581  1.00  0.00     0.029 A 
ATOM     48  N   UNL     1       4.831  11.933  -2.055  1.00  0.00    -0.354 N 
ATOM     49  C   UNL     1       4.044  13.049   2.047  1.00  0.00     0.074 A 
ATOM     50  C   UNL     1       4.286  11.934   2.941  1.00  0.00     0.031 C 
ATOM     51  C   UNL     1       5.370  10.550  -3.727  1.00  0.00     0.029 A 
ATOM     52  C   UNL     1       4.908  11.902  -3.429  1.00  0.00     0.049 A 
ATOM     53  H   UNL     1       4.581  12.739  -1.548  1.00  0.00     0.167 HD
ATOM     54  C   UNL     1       3.643  14.283   2.445  1.00  0.00     0.034 A 
ATOM     55  C   UNL     1       4.616  12.843  -4.348  1.00  0.00     0.034 A 
ATOM     56  C   UNL     1       3.413  15.386   1.543  1.00  0.00     0.049 A 
ATOM     57  C   UNL     1       4.125  14.190  -3.886  1.00  0.00     0.074 A 
ATOM     58  C   UNL     1       3.072  16.693   1.848  1.00  0.00     0.029 A 
ATOM     59  N   UNL     1       3.485  15.310   0.157  1.00  0.00    -0.354 N 
ATOM     60  N   UNL     1       3.913  14.616  -2.663  1.00  0.00    -0.248 NA
ATOM     61  C   UNL     1       3.833  15.183  -4.929  1.00  0.00     0.031 C 
ATOM     62  C   UNL     1       2.873  17.387   0.649  1.00  0.00     0.029 A 
ATOM     63  C   UNL     1       3.158  16.535  -0.406  1.00  0.00     0.049 A 
ATOM     64  H   UNL     1       3.733  14.505  -0.351  1.00  0.00     0.167 HD
ATOM     65  C   UNL     1       3.485  15.934  -2.790  1.00  0.00     0.074 A 
ATOM     66  C   UNL     1       3.480  16.236  -4.207  1.00  0.00     0.031 C 
ATOM     67  C   UNL     1       3.134  16.818  -1.821  1.00  0.00     0.034 A 
BRANCH  54  68
ATOM     68  C   UNL     1       3.403  14.489   3.921  1.00  0.00     0.023 A 
ATOM     69  C   UNL     1       4.442  14.374   4.861  1.00  0.00     0.031 A 
ATOM     70  C   UNL     1       2.112  14.779   4.399  1.00  0.00     0.131 A 
ATOM     71  C   UNL     1       4.160  14.468   6.232  1.00  0.00     0.055 A 
ATOM     72  C   UNL     1       1.853  14.952   5.761  1.00  0.00     0.041 A 
ATOM     73  F   UNL     1       1.077  14.883   3.552  1.00  0.00    -0.206 F 
ATOM     74  C   UNL     1       2.877  14.780   6.688  1.00  0.00     0.022 A 
BRANCH  71  75
ATOM     75  S   UNL     1       5.464  14.031   7.415  1.00  0.00     0.124 S 
ATOM     76  O   UNL     1       5.771  12.658   7.020  1.00  0.00    -0.237 OA
ATOM     77  O   UNL     1       6.493  15.023   7.130  1.00  0.00    -0.237 OA
ATOM     78  O   UNL     1       4.808  14.165   8.714  1.00  0.00    -0.744 OA
ENDBRANCH  71  75
ENDBRANCH  54  68
BRANCH  55  79
ATOM     79  C   UNL     1       4.750  12.542  -5.801  1.00  0.00     0.023 A 
ATOM     80  C   UNL     1       5.708  13.199  -6.589  1.00  0.00     0.031 A 
ATOM     81  C   UNL     1       3.899  11.616  -6.429  1.00  0.00     0.131 A 
ATOM     82  C   UNL     1       5.767  12.949  -7.969  1.00  0.00     0.055 A 
ATOM     83  C   UNL     1       3.993  11.336  -7.794  1.00  0.00     0.041 A 
ATOM     84  F   UNL     1       2.970  10.956  -5.718  1.00  0.00    -0.206 F 
ATOM     85  C   UNL     1       4.925  12.013  -8.574  1.00  0.00     0.022 A 
BRANCH  82  86
ATOM     86  S   UNL     1       6.922  13.918  -8.977  1.00  0.00     0.124 S 
ATOM     87  O   UNL     1       6.464  15.280  -8.727  1.00  0.00    -0.237 OA
ATOM     88  O   UNL     1       8.210  13.556  -8.394  1.00  0.00    -0.237 OA
ATOM     89  O   UNL     1       6.692  13.419 -10.332  1.00  0.00    -0.744 OA
ENDBRANCH  82  86
ENDBRANCH  55  79
BRANCH  67  90
ATOM     90  C   UNL     1       2.747  18.205  -2.269  1.00  0.00     0.023 A 
ATOM     91  C   UNL     1       1.557  18.447  -2.976  1.00  0.00     0.031 A 
ATOM     92  C   UNL     1       3.587  19.297  -1.991  1.00  0.00     0.131 A 
ATOM     93  C   UNL     1       1.260  19.745  -3.420  1.00  0.00     0.055 A 
ATOM     94  C   UNL     1       3.262  20.594  -2.390  1.00  0.00     0.041 A 
ATOM     95  F   UNL     1       4.738  19.121  -1.322  1.00  0.00    -0.206 F 
ATOM     96  C   UNL     1       2.097  20.822  -3.118  1.00  0.00     0.022 A 
BRANCH  93  97
ATOM     97  S   UNL     1      -0.204  19.998  -4.461  1.00  0.00     0.124 S 
ATOM     98  O   UNL     1       0.103  19.171  -5.623  1.00  0.00    -0.237 OA
ATOM     99  O   UNL     1      -1.284  19.519  -3.604  1.00  0.00    -0.237 OA
ATOM    100  O   UNL     1      -0.204  21.439  -4.708  1.00  0.00    -0.744 OA
ENDBRANCH  93  97
ENDBRANCH  67  90
ENDBRANCH  41  42
ENDBRANCH  33  36
ENDBRANCH  31  32
ENDBRANCH  30  31
ENDBRANCH   1  30
TORSDOF 18
