REMARK SMILES C[C@H]1C[NH2+]C[C@@H](CC(=O)NCCCCNC(=O)c2ccc(-c3c4nc(c(-c5cc(S(=O)(=O)[O-])ccc5F)c5ccc([nH]5)c(-c5cc(S(=O)(=O)[O-])ccc5F)c5nc(c(-c6cc(S(=O)(=O)[O-])ccc6F)c6ccc3[nH]6)C=C5)C=C4)cc2)C1
REMARK SMILES IDX 13 1 12 2 11 3 10 4 8 5 9 6 7 8 6 9 1 10 2 11 3 12 81 13
REMARK SMILES IDX 4 14 5 15 14 18 15 19 16 20 17 22 18 23 19 24 80 25 20 26
REMARK SMILES IDX 79 27 21 28 22 29 23 30 73 31 24 32 78 33 72 34 74 35 25 36
REMARK SMILES IDX 77 37 71 38 70 39 26 41 58 42 38 43 57 44 39 45 42 46 56 47
REMARK SMILES IDX 75 48 40 49 41 50 55 52 76 53 43 54 27 55 28 56 36 57 29 58
REMARK SMILES IDX 35 59 37 60 34 61 30 62 31 63 32 64 33 65 59 66 60 67 68 68
REMARK SMILES IDX 61 69 67 70 69 71 66 72 62 73 63 74 64 75 65 76 44 77 45 78
REMARK SMILES IDX 53 79 46 80 52 81 54 82 51 83 47 84 48 85 49 86 50 87
REMARK H PARENT 10 7 4 16 4 17 15 21 74 40 42 51
REMARK Flexibility Score: inf
ROOT
ATOM      1  C   UNL     1      -3.263  -3.985  -0.201  1.00  0.00     0.023 C 
ENDROOT
BRANCH   1   2
ATOM      2  C   UNL     1      -2.174  -3.008   0.206  1.00  0.00     0.023 C 
BRANCH   2   3
ATOM      3  C   UNL     1      -0.989  -3.622   0.958  1.00  0.00     0.116 C 
BRANCH   3   4
ATOM      4  N   UNL     1       0.068  -4.016   0.039  1.00  0.00    -0.356 N 
ATOM      5  C   UNL     1       1.244  -3.402  -0.276  1.00  0.00     0.220 C 
ATOM      6  O   UNL     1       1.935  -3.882  -1.176  1.00  0.00    -0.275 OA
ATOM      7  H   UNL     1      -0.093  -4.864  -0.433  1.00  0.00     0.163 HD
BRANCH   5   8
ATOM      8  C   UNL     1       1.706  -2.161   0.469  1.00  0.00     0.109 C 
BRANCH   8   9
ATOM      9  C   UNL     1       1.402  -0.837  -0.265  1.00  0.00     0.054 C 
ATOM     10  C   UNL     1      -2.027   1.006  -0.368  1.00  0.00     0.013 C 
ATOM     11  C   UNL     1      -0.532   0.841  -0.664  1.00  0.00     0.041 C 
ATOM     12  C   UNL     1       0.300   1.860   0.111  1.00  0.00     0.263 C 
ATOM     13  C   UNL     1      -0.104  -0.583  -0.319  1.00  0.00     0.019 C 
ATOM     14  N   UNL     1       1.732   1.632  -0.101  1.00  0.00    -0.346 N 
ATOM     15  C   UNL     1       2.126   0.324   0.430  1.00  0.00     0.264 C 
ATOM     16  H   UNL     1       2.262   2.362   0.374  1.00  0.00     0.346 HD
ATOM     17  H   UNL     1       1.924   1.654  -1.103  1.00  0.00     0.346 HD
ENDBRANCH   8   9
ENDBRANCH   5   8
ENDBRANCH   3   4
ENDBRANCH   2   3
ENDBRANCH   1   2
BRANCH   1  18
ATOM     18  C   UNL     1      -4.086  -4.510   0.958  1.00  0.00     0.116 C 
BRANCH  18  19
ATOM     19  N   UNL     1      -4.832  -3.473   1.662  1.00  0.00    -0.352 N 
ATOM     20  C   UNL     1      -6.153  -3.488   2.057  1.00  0.00     0.251 C 
ATOM     21  H   UNL     1      -4.327  -2.657   1.883  1.00  0.00     0.163 HD
ATOM     22  O   UNL     1      -6.665  -2.496   2.557  1.00  0.00    -0.269 OA
BRANCH  20  23
ATOM     23  C   UNL     1      -6.942  -4.714   1.812  1.00  0.00     0.039 A 
ATOM     24  C   UNL     1      -8.164  -4.619   1.144  1.00  0.00     0.014 A 
ATOM     25  C   UNL     1      -6.403  -5.959   2.137  1.00  0.00     0.014 A 
ATOM     26  C   UNL     1      -8.802  -5.786   0.715  1.00  0.00     0.010 A 
ATOM     27  C   UNL     1      -6.977  -7.105   1.609  1.00  0.00     0.010 A 
ATOM     28  C   UNL     1      -8.186  -7.035   0.898  1.00  0.00    -0.014 A 
BRANCH  28  29
ATOM     29  C   UNL     1      -8.791  -8.301   0.411  1.00  0.00     0.031 A 
ATOM     30  C   UNL     1      -9.092  -9.389   1.409  1.00  0.00     0.074 A 
ATOM     31  C   UNL     1      -8.961  -8.519  -0.908  1.00  0.00     0.049 A 
ATOM     32  N   UNL     1      -9.405 -10.641   1.206  1.00  0.00    -0.248 NA
ATOM     33  C   UNL     1      -8.956  -9.024   2.828  1.00  0.00     0.031 C 
ATOM     34  C   UNL     1      -8.662  -7.562  -1.975  1.00  0.00     0.029 A 
ATOM     35  N   UNL     1      -9.410  -9.630  -1.578  1.00  0.00    -0.354 N 
ATOM     36  C   UNL     1      -9.450 -11.224   2.469  1.00  0.00     0.074 A 
ATOM     37  C   UNL     1      -9.063 -10.203   3.418  1.00  0.00     0.031 C 
ATOM     38  C   UNL     1      -8.959  -8.118  -3.162  1.00  0.00     0.029 A 
ATOM     39  C   UNL     1      -9.419  -9.486  -2.946  1.00  0.00     0.049 A 
ATOM     40  H   UNL     1      -9.698 -10.453  -1.122  1.00  0.00     0.167 HD
ATOM     41  C   UNL     1      -9.810 -12.486   2.809  1.00  0.00     0.034 A 
ATOM     42  C   UNL     1      -9.749 -10.364  -3.914  1.00  0.00     0.034 A 
ATOM     43  C   UNL     1     -10.249 -13.469   1.851  1.00  0.00     0.049 A 
ATOM     44  C   UNL     1     -10.190 -11.750  -3.514  1.00  0.00     0.074 A 
ATOM     45  C   UNL     1     -10.695 -14.759   2.077  1.00  0.00     0.029 A 
ATOM     46  N   UNL     1     -10.310 -13.262   0.479  1.00  0.00    -0.354 N 
ATOM     47  N   UNL     1     -10.251 -12.283  -2.315  1.00  0.00    -0.248 NA
ATOM     48  C   UNL     1     -10.617 -12.649  -4.594  1.00  0.00     0.031 C 
ATOM     49  C   UNL     1     -10.987 -15.344   0.840  1.00  0.00     0.029 A 
ATOM     50  C   UNL     1     -10.781 -14.400  -0.154  1.00  0.00     0.049 A 
ATOM     51  H   UNL     1     -10.056 -12.427   0.022  1.00  0.00     0.167 HD
ATOM     52  C   UNL     1     -10.757 -13.567  -2.495  1.00  0.00     0.074 A 
ATOM     53  C   UNL     1     -10.989 -13.726  -3.917  1.00  0.00     0.031 C 
ATOM     54  C   UNL     1     -11.014 -14.527  -1.572  1.00  0.00     0.034 A 
BRANCH  41  55
ATOM     55  C   UNL     1      -9.724 -12.858   4.270  1.00  0.00     0.023 A 
ATOM     56  C   UNL     1     -10.482 -12.188   5.247  1.00  0.00     0.031 A 
ATOM     57  C   UNL     1      -8.826 -13.849   4.703  1.00  0.00     0.131 A 
ATOM     58  C   UNL     1     -10.252 -12.438   6.607  1.00  0.00     0.055 A 
ATOM     59  C   UNL     1      -8.672 -14.163   6.056  1.00  0.00     0.041 A 
ATOM     60  F   UNL     1      -8.060 -14.511   3.822  1.00  0.00    -0.206 F 
ATOM     61  C   UNL     1      -9.372 -13.441   7.019  1.00  0.00     0.022 A 
BRANCH  58  62
ATOM     62  S   UNL     1     -10.988 -11.315   7.826  1.00  0.00     0.124 S 
ATOM     63  O   UNL     1     -10.387 -10.038   7.446  1.00  0.00    -0.237 OA
ATOM     64  O   UNL     1     -12.415 -11.453   7.562  1.00  0.00    -0.237 OA
ATOM     65  O   UNL     1     -10.534 -11.853   9.106  1.00  0.00    -0.744 OA
ENDBRANCH  58  62
ENDBRANCH  41  55
BRANCH  42  66
ATOM     66  C   UNL     1      -9.684  -9.972  -5.351  1.00  0.00     0.023 A 
ATOM     67  C   UNL     1     -10.852  -9.873  -6.123  1.00  0.00     0.031 A 
ATOM     68  C   UNL     1      -8.452  -9.726  -5.982  1.00  0.00     0.131 A 
ATOM     69  C   UNL     1     -10.763  -9.584  -7.494  1.00  0.00     0.055 A 
ATOM     70  C   UNL     1      -8.372  -9.393  -7.336  1.00  0.00     0.041 A 
ATOM     71  F   UNL     1      -7.306  -9.797  -5.287  1.00  0.00    -0.206 F 
ATOM     72  C   UNL     1      -9.532  -9.333  -8.103  1.00  0.00     0.022 A 
BRANCH  69  73
ATOM     73  S   UNL     1     -12.281  -9.616  -8.487  1.00  0.00     0.124 S 
ATOM     74  O   UNL     1     -12.754 -10.977  -8.263  1.00  0.00    -0.237 OA
ATOM     75  O   UNL     1     -13.068  -8.553  -7.871  1.00  0.00    -0.237 OA
ATOM     76  O   UNL     1     -11.807  -9.334  -9.840  1.00  0.00    -0.744 OA
ENDBRANCH  69  73
ENDBRANCH  42  66
BRANCH  54  77
ATOM     77  C   UNL     1     -11.639 -15.805  -2.068  1.00  0.00     0.023 A 
ATOM     78  C   UNL     1     -10.923 -16.727  -2.848  1.00  0.00     0.031 A 
ATOM     79  C   UNL     1     -12.975 -16.101  -1.743  1.00  0.00     0.131 A 
ATOM     80  C   UNL     1     -11.560 -17.886  -3.314  1.00  0.00     0.055 A 
ATOM     81  C   UNL     1     -13.589 -17.278  -2.168  1.00  0.00     0.041 A 
ATOM     82  F   UNL     1     -13.701 -15.251  -0.999  1.00  0.00    -0.206 F 
ATOM     83  C   UNL     1     -12.884 -18.175  -2.967  1.00  0.00     0.022 A 
BRANCH  80  84
ATOM     84  S   UNL     1     -10.656 -18.986  -4.437  1.00  0.00     0.124 S 
ATOM     85  O   UNL     1     -10.370 -18.102  -5.562  1.00  0.00    -0.237 OA
ATOM     86  O   UNL     1      -9.508 -19.383  -3.629  1.00  0.00    -0.237 OA
ATOM     87  O   UNL     1     -11.615 -20.054  -4.716  1.00  0.00    -0.744 OA
ENDBRANCH  80  84
ENDBRANCH  54  77
ENDBRANCH  28  29
ENDBRANCH  20  23
ENDBRANCH  18  19
ENDBRANCH   1  18
TORSDOF 15
