REMARK SMILES O=C1[NH+]=C(Nc2ccc(C(=O)NCCCCNC(=O)c3ccc(-c4c5nc(c(-c6cc(S(=O)(=O)[O-])ccc6F)c6ccc([nH]6)c(-c6cc(S(=O)(=O)[O-])ccc6F)c6nc(c(-c7cc(S(=O)(=O)[O-])ccc7F)c7ccc4[nH]7)C=C6)C=C5)cc3)c(O)c2)S/C1=C\c1ccc[nH]1
REMARK SMILES IDX 15 1 14 2 13 3 12 4 10 5 11 6 9 8 6 9 7 10 85 11 8 12 83 13
REMARK SMILES IDX 5 14 1 15 2 16 3 17 87 18 4 19 86 21 88 22 89 24 90 25 93 26
REMARK SMILES IDX 91 27 92 28 84 30 16 32 17 33 18 34 19 36 20 37 21 38 82 39
REMARK SMILES IDX 22 40 81 41 23 42 24 43 25 44 75 45 26 46 80 47 74 48 76 49
REMARK SMILES IDX 27 50 79 51 73 52 72 53 28 55 60 56 40 57 59 58 41 59 44 60
REMARK SMILES IDX 58 61 77 62 42 63 43 64 57 66 78 67 45 68 29 69 30 70 38 71
REMARK SMILES IDX 31 72 37 73 39 74 36 75 32 76 33 77 34 78 35 79 61 80 62 81
REMARK SMILES IDX 70 82 63 83 69 84 71 85 68 86 64 87 65 88 66 89 67 90 46 91
REMARK SMILES IDX 47 92 55 93 48 94 54 95 56 96 53 97 49 98 50 99 51 100
REMARK SMILES IDX 52 101
REMARK H PARENT 12 7 3 20 5 23 93 29 84 31 17 35 76 54 44 65
REMARK Flexibility Score: inf
ROOT
ATOM      1  C   UNL     1      -1.554   9.986  -3.753  1.00  0.00     0.023 C 
ENDROOT
BRANCH   1   2
ATOM      2  C   UNL     1      -1.257   8.493  -3.625  1.00  0.00     0.023 C 
BRANCH   2   3
ATOM      3  C   UNL     1      -0.327   8.080  -2.489  1.00  0.00     0.116 C 
BRANCH   3   4
ATOM      4  N   UNL     1      -0.776   8.459  -1.158  1.00  0.00    -0.352 N 
ATOM      5  C   UNL     1      -0.614   7.814   0.047  1.00  0.00     0.255 C 
ATOM      6  O   UNL     1      -1.081   8.320   1.065  1.00  0.00    -0.269 OA
ATOM      7  H   UNL     1      -1.272   9.307  -1.113  1.00  0.00     0.163 HD
BRANCH   5   8
ATOM      8  C   UNL     1       0.056   6.494   0.144  1.00  0.00     0.081 A 
ATOM      9  C   UNL     1       1.028   3.843   0.258  1.00  0.00     0.129 A 
ATOM     10  C   UNL     1      -0.095   4.224   0.999  1.00  0.00     0.053 A 
ATOM     11  C   UNL     1       1.700   4.824  -0.480  1.00  0.00     0.098 A 
ATOM     12  C   UNL     1      -0.574   5.536   0.949  1.00  0.00     0.022 A 
ATOM     13  C   UNL     1       1.244   6.144  -0.501  1.00  0.00     0.132 A 
BRANCH   9  14
ATOM     14  N   UNL     1       1.449   2.511   0.164  1.00  0.00    -0.234 N 
ATOM     15  O   UNL     1      -2.276  -0.296  -0.022  1.00  0.00    -0.240 OA
ATOM     16  C   UNL     1      -1.097   0.029   0.056  1.00  0.00     0.346 C 
ATOM     17  N   UNL     1      -0.637   1.322   0.126  1.00  0.00    -0.199 N 
ATOM     18  C   UNL     1       0.019  -0.958   0.082  1.00  0.00     0.111 C 
ATOM     19  C   UNL     1       0.651   1.406   0.156  1.00  0.00     0.322 C 
ATOM     20  H   UNL     1      -1.230   2.107   0.150  1.00  0.00     0.316 HD
ATOM     21  S   UNL     1       1.516  -0.115   0.137  1.00  0.00     0.006 SA
ATOM     22  C   UNL     1      -0.197  -2.280   0.042  1.00  0.00     0.050 C 
ATOM     23  H   UNL     1       2.419   2.357   0.097  1.00  0.00     0.313 HD
BRANCH  22  24
ATOM     24  C   UNL     1       0.851  -3.226   0.136  1.00  0.00     0.039 A 
ATOM     25  C   UNL     1       1.853  -3.449   1.060  1.00  0.00     0.027 A 
ATOM     26  N   UNL     1       0.984  -4.168  -0.855  1.00  0.00    -0.362 N 
ATOM     27  C   UNL     1       2.633  -4.533   0.594  1.00  0.00     0.020 A 
ATOM     28  C   UNL     1       2.080  -4.952  -0.595  1.00  0.00     0.083 A 
ATOM     29  H   UNL     1       0.386  -4.265  -1.631  1.00  0.00     0.166 HD
ENDBRANCH  22  24
ENDBRANCH   9  14
BRANCH  13  30
ATOM     30  O   UNL     1       2.046   7.032  -1.161  1.00  0.00    -0.507 OA
ATOM     31  H   UNL     1       1.802   7.934  -1.215  1.00  0.00     0.293 HD
ENDBRANCH  13  30
ENDBRANCH   5   8
ENDBRANCH   3   4
ENDBRANCH   2   3
ENDBRANCH   1   2
BRANCH   1  32
ATOM     32  C   UNL     1      -0.352  10.922  -3.686  1.00  0.00     0.116 C 
BRANCH  32  33
ATOM     33  N   UNL     1       0.625  10.694  -4.742  1.00  0.00    -0.352 N 
ATOM     34  C   UNL     1       1.048  11.529  -5.752  1.00  0.00     0.251 C 
ATOM     35  H   UNL     1       1.049   9.805  -4.732  1.00  0.00     0.163 HD
ATOM     36  O   UNL     1       1.801  11.097  -6.620  1.00  0.00    -0.269 OA
BRANCH  34  37
ATOM     37  C   UNL     1       0.560  12.925  -5.816  1.00  0.00     0.039 A 
ATOM     38  C   UNL     1       0.100  13.428  -7.035  1.00  0.00     0.014 A 
ATOM     39  C   UNL     1       0.521  13.726  -4.673  1.00  0.00     0.014 A 
ATOM     40  C   UNL     1      -0.489  14.695  -7.085  1.00  0.00     0.010 A 
ATOM     41  C   UNL     1      -0.155  14.943  -4.704  1.00  0.00     0.010 A 
ATOM     42  C   UNL     1      -0.674  15.441  -5.909  1.00  0.00    -0.014 A 
BRANCH  42  43
ATOM     43  C   UNL     1      -1.411  16.735  -5.917  1.00  0.00     0.031 A 
ATOM     44  C   UNL     1      -0.724  18.000  -5.473  1.00  0.00     0.074 A 
ATOM     45  C   UNL     1      -2.716  16.762  -6.259  1.00  0.00     0.049 A 
ATOM     46  N   UNL     1      -1.215  19.204  -5.333  1.00  0.00    -0.248 NA
ATOM     47  C   UNL     1       0.696  17.885  -5.106  1.00  0.00     0.031 C 
ATOM     48  C   UNL     1      -3.507  15.598  -6.665  1.00  0.00     0.029 A 
ATOM     49  N   UNL     1      -3.612  17.802  -6.312  1.00  0.00    -0.354 N 
ATOM     50  C   UNL     1      -0.172  19.986  -4.849  1.00  0.00     0.074 A 
ATOM     51  C   UNL     1       0.957  19.102  -4.655  1.00  0.00     0.031 C 
ATOM     52  C   UNL     1      -4.757  15.994  -6.956  1.00  0.00     0.029 A 
ATOM     53  C   UNL     1      -4.878  17.426  -6.703  1.00  0.00     0.049 A 
ATOM     54  H   UNL     1      -3.372  18.731  -6.091  1.00  0.00     0.167 HD
ATOM     55  C   UNL     1      -0.149  21.322  -4.613  1.00  0.00     0.034 A 
ATOM     56  C   UNL     1      -6.012  18.145  -6.828  1.00  0.00     0.034 A 
ATOM     57  C   UNL     1      -1.282  22.191  -4.821  1.00  0.00     0.049 A 
ATOM     58  C   UNL     1      -5.972  19.623  -6.525  1.00  0.00     0.074 A 
ATOM     59  C   UNL     1      -1.352  23.564  -4.669  1.00  0.00     0.029 A 
ATOM     60  N   UNL     1      -2.548  21.771  -5.211  1.00  0.00    -0.354 N 
ATOM     61  N   UNL     1      -4.961  20.358  -6.122  1.00  0.00    -0.248 NA
ATOM     62  C   UNL     1      -7.224  20.370  -6.703  1.00  0.00     0.031 C 
ATOM     63  C   UNL     1      -2.675  23.963  -4.881  1.00  0.00     0.029 A 
ATOM     64  C   UNL     1      -3.413  22.854  -5.265  1.00  0.00     0.049 A 
ATOM     65  H   UNL     1      -2.796  20.841  -5.419  1.00  0.00     0.167 HD
ATOM     66  C   UNL     1      -5.448  21.659  -6.035  1.00  0.00     0.074 A 
ATOM     67  C   UNL     1      -6.837  21.610  -6.439  1.00  0.00     0.031 C 
ATOM     68  C   UNL     1      -4.802  22.794  -5.660  1.00  0.00     0.034 A 
BRANCH  55  69
ATOM     69  C   UNL     1       1.134  21.914  -4.076  1.00  0.00     0.023 A 
ATOM     70  C   UNL     1       2.338  21.855  -4.800  1.00  0.00     0.031 A 
ATOM     71  C   UNL     1       1.160  22.526  -2.810  1.00  0.00     0.131 A 
ATOM     72  C   UNL     1       3.529  22.321  -4.221  1.00  0.00     0.055 A 
ATOM     73  C   UNL     1       2.331  23.071  -2.278  1.00  0.00     0.041 A 
ATOM     74  F   UNL     1       0.049  22.593  -2.059  1.00  0.00    -0.206 F 
ATOM     75  C   UNL     1       3.528  22.956  -2.977  1.00  0.00     0.022 A 
BRANCH  72  76
ATOM     76  S   UNL     1       5.098  21.940  -5.046  1.00  0.00     0.124 S 
ATOM     77  O   UNL     1       5.053  20.481  -5.107  1.00  0.00    -0.237 OA
ATOM     78  O   UNL     1       4.963  22.637  -6.320  1.00  0.00    -0.237 OA
ATOM     79  O   UNL     1       6.104  22.486  -4.138  1.00  0.00    -0.744 OA
ENDBRANCH  72  76
ENDBRANCH  55  69
BRANCH  56  80
ATOM     80  C   UNL     1      -7.286  17.486  -7.242  1.00  0.00     0.023 A 
ATOM     81  C   UNL     1      -7.935  17.841  -8.436  1.00  0.00     0.031 A 
ATOM     82  C   UNL     1      -7.899  16.519  -6.424  1.00  0.00     0.131 A 
ATOM     83  C   UNL     1      -9.178  17.272  -8.754  1.00  0.00     0.055 A 
ATOM     84  C   UNL     1      -9.105  15.910  -6.775  1.00  0.00     0.041 A 
ATOM     85  F   UNL     1      -7.324  16.141  -5.271  1.00  0.00    -0.206 F 
ATOM     86  C   UNL     1      -9.759  16.297  -7.940  1.00  0.00     0.022 A 
BRANCH  83  87
ATOM     87  S   UNL     1     -10.077  17.897 -10.201  1.00  0.00     0.124 S 
ATOM     88  O   UNL     1     -10.205  19.314  -9.880  1.00  0.00    -0.237 OA
ATOM     89  O   UNL     1      -9.165  17.565 -11.290  1.00  0.00    -0.237 OA
ATOM     90  O   UNL     1     -11.324  17.137 -10.181  1.00  0.00    -0.744 OA
ENDBRANCH  83  87
ENDBRANCH  56  80
BRANCH  68  91
ATOM     91  C   UNL     1      -5.580  24.087  -5.725  1.00  0.00     0.023 A 
ATOM     92  C   UNL     1      -6.691  24.332  -4.899  1.00  0.00     0.031 A 
ATOM     93  C   UNL     1      -5.202  25.092  -6.635  1.00  0.00     0.131 A 
ATOM     94  C   UNL     1      -7.417  25.525  -5.038  1.00  0.00     0.055 A 
ATOM     95  C   UNL     1      -5.885  26.305  -6.719  1.00  0.00     0.041 A 
ATOM     96  F   UNL     1      -4.153  24.912  -7.454  1.00  0.00    -0.206 F 
ATOM     97  C   UNL     1      -7.008  26.522  -5.928  1.00  0.00     0.022 A 
BRANCH  94  98
ATOM     98  S   UNL     1      -8.967  25.715  -4.115  1.00  0.00     0.124 S 
ATOM     99  O   UNL     1      -9.737  24.565  -4.577  1.00  0.00    -0.237 OA
ATOM    100  O   UNL     1      -8.514  25.664  -2.729  1.00  0.00    -0.237 OA
ATOM    101  O   UNL     1      -9.470  27.016  -4.555  1.00  0.00    -0.744 OA
ENDBRANCH  94  98
ENDBRANCH  68  91
ENDBRANCH  42  43
ENDBRANCH  34  37
ENDBRANCH  32  33
ENDBRANCH   1  32
TORSDOF 17
