REMARK SMILES O=C(CCCN1C(=O)C(=O)/C(=C(/[O-])c2ccccc2)[C@@H]1/C=C/c1ccccc1)NCCCCNC(=O)c1ccc(-c2c3nc(c(-c4cc(S(=O)(=O)[O-])ccc4F)c4ccc([nH]4)c(-c4cc(S(=O)(=O)[O-])ccc4F)c4nc(c(-c5cc(S(=O)(=O)[O-])ccc5F)c5ccc2[nH]5)C=C4)C=C3)cc1
REMARK SMILES IDX 30 1 29 2 1 3 2 4 3 6 4 7 5 8 6 9 7 10 20 11 8 12 9 13 11 14
REMARK SMILES IDX 10 15 12 16 13 17 21 18 22 19 23 20 24 21 28 22 25 23 27 24
REMARK SMILES IDX 26 25 14 26 15 27 19 28 16 29 18 30 17 31 31 32 32 33 33 34
REMARK SMILES IDX 34 35 35 36 36 38 37 39 38 40 99 41 39 42 98 43 40 44 41 45
REMARK SMILES IDX 42 46 92 47 43 48 97 49 91 50 93 51 44 52 96 53 90 54 89 55
REMARK SMILES IDX 45 57 77 58 57 59 76 60 58 61 61 62 75 63 94 64 59 65 60 66
REMARK SMILES IDX 74 68 95 69 62 70 46 71 47 72 55 73 48 74 54 75 56 76 53 77
REMARK SMILES IDX 49 78 50 79 51 80 52 81 78 82 79 83 87 84 80 85 86 86 88 87
REMARK SMILES IDX 85 88 81 89 82 90 83 91 84 92 63 93 64 94 72 95 65 96 71 97
REMARK SMILES IDX 73 98 70 99 66 100 67 101 68 102 69 103
REMARK H PARENT 29 5 34 37 93 56 61 67
REMARK Flexibility Score: inf
ROOT
ATOM      1  C   UNL     1       2.474   0.742   3.152  1.00  0.00     0.116 C 
ENDROOT
BRANCH   1   2
ATOM      2  N   UNL     1       2.828   0.713   1.746  1.00  0.00    -0.356 N 
ATOM      3  O   UNL     1       1.218   2.181   1.040  1.00  0.00    -0.275 OA
ATOM      4  C   UNL     1       2.189   1.473   0.793  1.00  0.00     0.220 C 
ATOM      5  H   UNL     1       3.562   0.122   1.460  1.00  0.00     0.163 HD
BRANCH   4   6
ATOM      6  C   UNL     1       2.725   1.320  -0.618  1.00  0.00     0.102 C 
BRANCH   6   7
ATOM      7  C   UNL     1       4.122   1.896  -0.815  1.00  0.00     0.031 C 
BRANCH   7   8
ATOM      8  C   UNL     1       5.284   1.115  -0.192  1.00  0.00     0.121 C 
BRANCH   8   9
ATOM      9  N   UNL     1       5.578  -0.148  -0.858  1.00  0.00    -0.325 N 
ATOM     10  C   UNL     1       6.415  -0.154  -1.962  1.00  0.00     0.295 C 
ATOM     11  C   UNL     1       5.346  -1.477  -0.300  1.00  0.00     0.143 C 
ATOM     12  O   UNL     1       6.852   0.785  -2.576  1.00  0.00    -0.265 OA
ATOM     13  C   UNL     1       6.768  -1.612  -2.233  1.00  0.00     0.248 C 
ATOM     14  C   UNL     1       6.277  -2.391  -1.058  1.00  0.00     0.024 C 
ATOM     15  O   UNL     1       7.285  -1.998  -3.250  1.00  0.00    -0.283 OA
ATOM     16  C   UNL     1       6.634  -3.655  -0.765  1.00  0.00    -0.092 C 
ATOM     17  O   UNL     1       6.156  -4.358   0.323  1.00  0.00    -0.872 OA
BRANCH  11  18
ATOM     18  C   UNL     1       3.893  -1.891  -0.475  1.00  0.00     0.003 C 
ATOM     19  C   UNL     1       3.136  -2.383   0.523  1.00  0.00     0.006 C 
BRANCH  19  20
ATOM     20  C   UNL     1       1.712  -2.768   0.524  1.00  0.00    -0.026 A 
ATOM     21  C   UNL     1       0.732  -1.868   0.964  1.00  0.00     0.008 A 
ATOM     22  C   UNL     1       1.349  -4.104   0.350  1.00  0.00     0.008 A 
ATOM     23  C   UNL     1      -0.539  -2.303   1.347  1.00  0.00     0.001 A 
ATOM     24  C   UNL     1       0.061  -4.538   0.695  1.00  0.00     0.001 A 
ATOM     25  C   UNL     1      -0.871  -3.646   1.227  1.00  0.00     0.000 A 
ENDBRANCH  19  20
ENDBRANCH  11  18
BRANCH  16  26
ATOM     26  C   UNL     1       7.526  -4.470  -1.605  1.00  0.00    -0.033 A 
ATOM     27  C   UNL     1       7.015  -5.620  -2.221  1.00  0.00     0.007 A 
ATOM     28  C   UNL     1       8.866  -4.120  -1.821  1.00  0.00     0.007 A 
ATOM     29  C   UNL     1       7.813  -6.379  -3.078  1.00  0.00     0.001 A 
ATOM     30  C   UNL     1       9.660  -4.874  -2.687  1.00  0.00     0.001 A 
ATOM     31  C   UNL     1       9.132  -5.998  -3.320  1.00  0.00     0.000 A 
ENDBRANCH  16  26
ENDBRANCH   8   9
ENDBRANCH   7   8
ENDBRANCH   6   7
ENDBRANCH   4   6
ENDBRANCH   1   2
BRANCH   1  32
ATOM     32  C   UNL     1       2.474  -0.650   3.785  1.00  0.00     0.023 C 
BRANCH  32  33
ATOM     33  C   UNL     1       3.853  -1.287   3.942  1.00  0.00     0.023 C 
BRANCH  33  34
ATOM     34  C   UNL     1       4.704  -0.647   5.018  1.00  0.00     0.116 C 
BRANCH  34  35
ATOM     35  N   UNL     1       4.113  -0.769   6.339  1.00  0.00    -0.352 N 
ATOM     36  C   UNL     1       4.748  -1.030   7.529  1.00  0.00     0.251 C 
ATOM     37  H   UNL     1       3.136  -0.651   6.388  1.00  0.00     0.163 HD
ATOM     38  O   UNL     1       4.096  -1.270   8.538  1.00  0.00    -0.269 OA
BRANCH  36  39
ATOM     39  C   UNL     1       6.224  -1.056   7.546  1.00  0.00     0.039 A 
ATOM     40  C   UNL     1       6.880  -2.108   8.186  1.00  0.00     0.014 A 
ATOM     41  C   UNL     1       6.947  -0.072   6.866  1.00  0.00     0.014 A 
ATOM     42  C   UNL     1       8.269  -2.193   8.104  1.00  0.00     0.010 A 
ATOM     43  C   UNL     1       8.311  -0.228   6.684  1.00  0.00     0.010 A 
ATOM     44  C   UNL     1       8.991  -1.269   7.330  1.00  0.00    -0.014 A 
BRANCH  44  45
ATOM     45  C   UNL     1      10.470  -1.319   7.243  1.00  0.00     0.031 A 
ATOM     46  C   UNL     1      11.271  -0.146   7.744  1.00  0.00     0.074 A 
ATOM     47  C   UNL     1      11.075  -2.378   6.671  1.00  0.00     0.049 A 
ATOM     48  N   UNL     1      12.559   0.065   7.683  1.00  0.00    -0.248 NA
ATOM     49  C   UNL     1      10.512   0.962   8.347  1.00  0.00     0.031 C 
ATOM     50  C   UNL     1      10.389  -3.542   6.105  1.00  0.00     0.029 A 
ATOM     51  N   UNL     1      12.403  -2.647   6.468  1.00  0.00    -0.354 N 
ATOM     52  C   UNL     1      12.757   1.333   8.220  1.00  0.00     0.074 A 
ATOM     53  C   UNL     1      11.451   1.878   8.509  1.00  0.00     0.031 C 
ATOM     54  C   UNL     1      11.304  -4.416   5.655  1.00  0.00     0.029 A 
ATOM     55  C   UNL     1      12.636  -3.856   5.856  1.00  0.00     0.049 A 
ATOM     56  H   UNL     1      13.124  -2.031   6.736  1.00  0.00     0.167 HD
ATOM     57  C   UNL     1      13.925   1.967   8.487  1.00  0.00     0.034 A 
ATOM     58  C   UNL     1      13.796  -4.441   5.497  1.00  0.00     0.034 A 
ATOM     59  C   UNL     1      15.214   1.385   8.219  1.00  0.00     0.049 A 
ATOM     60  C   UNL     1      15.085  -3.720   5.804  1.00  0.00     0.074 A 
ATOM     61  C   UNL     1      16.468   1.900   8.490  1.00  0.00     0.029 A 
ATOM     62  N   UNL     1      15.413   0.147   7.617  1.00  0.00    -0.354 N 
ATOM     63  N   UNL     1      15.260  -2.541   6.360  1.00  0.00    -0.248 NA
ATOM     64  C   UNL     1      16.330  -4.411   5.452  1.00  0.00     0.031 C 
ATOM     65  C   UNL     1      17.423   1.006   7.994  1.00  0.00     0.029 A 
ATOM     66  C   UNL     1      16.768  -0.105   7.486  1.00  0.00     0.049 A 
ATOM     67  H   UNL     1      14.695  -0.461   7.326  1.00  0.00     0.167 HD
ATOM     68  C   UNL     1      16.638  -2.365   6.449  1.00  0.00     0.074 A 
ATOM     69  C   UNL     1      17.242  -3.566   5.909  1.00  0.00     0.031 C 
ATOM     70  C   UNL     1      17.343  -1.311   6.935  1.00  0.00     0.034 A 
BRANCH  57  71
ATOM     71  C   UNL     1      13.841   3.354   9.082  1.00  0.00     0.023 A 
ATOM     72  C   UNL     1      13.215   3.590  10.320  1.00  0.00     0.031 A 
ATOM     73  C   UNL     1      14.345   4.464   8.382  1.00  0.00     0.131 A 
ATOM     74  C   UNL     1      13.024   4.903  10.772  1.00  0.00     0.055 A 
ATOM     75  C   UNL     1      14.236   5.763   8.885  1.00  0.00     0.041 A 
ATOM     76  F   UNL     1      14.931   4.309   7.185  1.00  0.00    -0.206 F 
ATOM     77  C   UNL     1      13.555   5.991  10.077  1.00  0.00     0.022 A 
BRANCH  74  78
ATOM     78  S   UNL     1      11.925   5.177  12.189  1.00  0.00     0.124 S 
ATOM     79  O   UNL     1      10.670   4.608  11.701  1.00  0.00    -0.237 OA
ATOM     80  O   UNL     1      12.591   4.436  13.254  1.00  0.00    -0.237 OA
ATOM     81  O   UNL     1      11.922   6.630  12.346  1.00  0.00    -0.744 OA
ENDBRANCH  74  78
ENDBRANCH  57  71
BRANCH  58  82
ATOM     82  C   UNL     1      13.797  -5.769   4.819  1.00  0.00     0.023 A 
ATOM     83  C   UNL     1      14.374  -6.895   5.429  1.00  0.00     0.031 A 
ATOM     84  C   UNL     1      13.247  -5.928   3.534  1.00  0.00     0.131 A 
ATOM     85  C   UNL     1      14.431  -8.115   4.738  1.00  0.00     0.055 A 
ATOM     86  C   UNL     1      13.258  -7.157   2.872  1.00  0.00     0.041 A 
ATOM     87  F   UNL     1      12.675  -4.887   2.908  1.00  0.00    -0.206 F 
ATOM     88  C   UNL     1      13.865  -8.257   3.469  1.00  0.00     0.022 A 
BRANCH  85  89
ATOM     89  S   UNL     1      15.336  -9.497   5.488  1.00  0.00     0.124 S 
ATOM     90  O   UNL     1      16.659  -8.915   5.682  1.00  0.00    -0.237 OA
ATOM     91  O   UNL     1      14.560  -9.744   6.699  1.00  0.00    -0.237 OA
ATOM     92  O   UNL     1      15.258 -10.546   4.474  1.00  0.00    -0.744 OA
ENDBRANCH  85  89
ENDBRANCH  58  82
BRANCH  70  93
ATOM     93  C   UNL     1      18.846  -1.438   6.939  1.00  0.00     0.023 A 
ATOM     94  C   UNL     1      19.585  -1.492   5.745  1.00  0.00     0.031 A 
ATOM     95  C   UNL     1      19.545  -1.508   8.157  1.00  0.00     0.131 A 
ATOM     96  C   UNL     1      20.975  -1.672   5.795  1.00  0.00     0.055 A 
ATOM     97  C   UNL     1      20.934  -1.619   8.200  1.00  0.00     0.041 A 
ATOM     98  F   UNL     1      18.887  -1.462   9.327  1.00  0.00    -0.206 F 
ATOM     99  C   UNL     1      21.656  -1.716   7.014  1.00  0.00     0.022 A 
BRANCH  96 100
ATOM    100  S   UNL     1      21.870  -1.946   4.242  1.00  0.00     0.124 S 
ATOM    101  O   UNL     1      21.205  -3.134   3.716  1.00  0.00    -0.237 OA
ATOM    102  O   UNL     1      21.623  -0.704   3.517  1.00  0.00    -0.237 OA
ATOM    103  O   UNL     1      23.251  -2.148   4.674  1.00  0.00    -0.744 OA
ENDBRANCH  96 100
ENDBRANCH  70  93
ENDBRANCH  44  45
ENDBRANCH  36  39
ENDBRANCH  34  35
ENDBRANCH  33  34
ENDBRANCH  32  33
ENDBRANCH   1  32
TORSDOF 20
