REMARK SMILES O=C(NCCCCNC(=O)[C@H]1[C@@H](c2ccccc2)[C@@H](C(=O)N2CCCCC2)[C@@H]1c1ccccc1)c1ccc(-c2c3nc(c(-c4cc(S(=O)(=O)[O-])ccc4F)c4ccc([nH]4)c(-c4cc(S(=O)(=O)[O-])ccc4F)c4nc(c(-c5cc(S(=O)(=O)[O-])ccc5F)c5ccc2[nH]5)C=C4)C=C3)cc1
REMARK SMILES IDX 4 1 3 2 1 3 2 4 35 6 36 7 97 8 37 9 96 10 38 11 39 12 40 13
REMARK SMILES IDX 90 14 41 15 95 16 89 17 91 18 42 19 94 20 88 21 87 22 43 24
REMARK SMILES IDX 75 25 55 26 74 27 56 28 59 29 73 30 92 31 57 32 58 33 72 35
REMARK SMILES IDX 93 36 60 37 44 38 45 39 53 40 46 41 52 42 54 43 51 44 47 45
REMARK SMILES IDX 48 46 49 47 50 48 76 49 77 50 85 51 78 52 84 53 86 54 83 55
REMARK SMILES IDX 79 56 80 57 81 58 82 59 61 60 62 61 70 62 63 63 69 64 71 65
REMARK SMILES IDX 68 66 64 67 65 68 66 69 67 70 5 71 6 72 7 73 8 74 9 75 10 77
REMARK SMILES IDX 11 78 12 79 28 80 19 81 13 82 14 83 18 84 15 85 17 86 16 87
REMARK SMILES IDX 29 88 30 89 34 90 31 91 33 92 32 93 20 94 21 95 22 96 23 97
REMARK SMILES IDX 27 98 24 99 26 100 25 101
REMARK H PARENT 3 5 91 23 59 34 8 76
REMARK Flexibility Score: inf
ROOT
ATOM      1  C   UNL     1       4.475  -1.082  -0.254  1.00  0.00     0.116 C 
ENDROOT
BRANCH   1   2
ATOM      2  N   UNL     1       3.074  -0.779  -0.529  1.00  0.00    -0.352 N 
ATOM      3  O   UNL     1       1.117   0.324  -0.240  1.00  0.00    -0.269 OA
ATOM      4  C   UNL     1       2.316   0.237   0.005  1.00  0.00     0.251 C 
ATOM      5  H   UNL     1       2.619  -1.370  -1.171  1.00  0.00     0.163 HD
BRANCH   4   6
ATOM      6  C   UNL     1       2.978   1.191   0.912  1.00  0.00     0.039 A 
ATOM      7  C   UNL     1       4.180   1.787   0.524  1.00  0.00     0.014 A 
ATOM      8  C   UNL     1       2.459   1.393   2.192  1.00  0.00     0.014 A 
ATOM      9  C   UNL     1       4.951   2.438   1.473  1.00  0.00     0.010 A 
ATOM     10  C   UNL     1       3.194   2.138   3.117  1.00  0.00     0.010 A 
ATOM     11  C   UNL     1       4.467   2.624   2.779  1.00  0.00    -0.014 A 
BRANCH  11  12
ATOM     12  C   UNL     1       5.317   3.345   3.758  1.00  0.00     0.031 A 
ATOM     13  C   UNL     1       5.851   2.651   4.981  1.00  0.00     0.074 A 
ATOM     14  C   UNL     1       5.653   4.622   3.493  1.00  0.00     0.049 A 
ATOM     15  N   UNL     1       6.632   3.122   5.920  1.00  0.00    -0.248 NA
ATOM     16  C   UNL     1       5.447   1.253   5.184  1.00  0.00     0.031 C 
ATOM     17  C   UNL     1       5.188   5.388   2.332  1.00  0.00     0.029 A 
ATOM     18  N   UNL     1       6.484   5.489   4.150  1.00  0.00    -0.354 N 
ATOM     19  C   UNL     1       6.786   2.093   6.843  1.00  0.00     0.074 A 
ATOM     20  C   UNL     1       5.997   0.979   6.359  1.00  0.00     0.031 C 
ATOM     21  C   UNL     1       5.794   6.583   2.322  1.00  0.00     0.029 A 
ATOM     22  C   UNL     1       6.628   6.699   3.512  1.00  0.00     0.049 A 
ATOM     23  H   UNL     1       6.934   5.269   4.997  1.00  0.00     0.167 HD
ATOM     24  C   UNL     1       7.519   2.083   7.986  1.00  0.00     0.034 A 
ATOM     25  C   UNL     1       7.344   7.786   3.851  1.00  0.00     0.034 A 
ATOM     26  C   UNL     1       8.315   3.201   8.436  1.00  0.00     0.049 A 
ATOM     27  C   UNL     1       8.152   7.745   5.117  1.00  0.00     0.074 A 
ATOM     28  C   UNL     1       9.114   3.295   9.563  1.00  0.00     0.029 A 
ATOM     29  N   UNL     1       8.413   4.423   7.781  1.00  0.00    -0.354 N 
ATOM     30  N   UNL     1       8.281   6.766   5.982  1.00  0.00    -0.248 NA
ATOM     31  C   UNL     1       8.912   8.955   5.450  1.00  0.00     0.031 C 
ATOM     32  C   UNL     1       9.650   4.588   9.617  1.00  0.00     0.029 A 
ATOM     33  C   UNL     1       9.240   5.282   8.490  1.00  0.00     0.049 A 
ATOM     34  H   UNL     1       7.961   4.647   6.936  1.00  0.00     0.167 HD
ATOM     35  C   UNL     1       9.150   7.239   6.959  1.00  0.00     0.074 A 
ATOM     36  C   UNL     1       9.531   8.579   6.559  1.00  0.00     0.031 C 
ATOM     37  C   UNL     1       9.591   6.623   8.085  1.00  0.00     0.034 A 
BRANCH  24  38
ATOM     38  C   UNL     1       7.444   0.845   8.850  1.00  0.00     0.023 A 
ATOM     39  C   UNL     1       7.925  -0.402   8.413  1.00  0.00     0.031 A 
ATOM     40  C   UNL     1       6.853   0.910  10.125  1.00  0.00     0.131 A 
ATOM     41  C   UNL     1       7.742  -1.543   9.212  1.00  0.00     0.055 A 
ATOM     42  C   UNL     1       6.744  -0.213  10.947  1.00  0.00     0.041 A 
ATOM     43  F   UNL     1       6.356   2.068  10.589  1.00  0.00    -0.206 F 
ATOM     44  C   UNL     1       7.176  -1.453  10.486  1.00  0.00     0.022 A 
BRANCH  41  45
ATOM     45  S   UNL     1       8.126  -3.169   8.504  1.00  0.00     0.124 S 
ATOM     46  O   UNL     1       7.272  -3.186   7.318  1.00  0.00    -0.237 OA
ATOM     47  O   UNL     1       9.560  -3.076   8.257  1.00  0.00    -0.237 OA
ATOM     48  O   UNL     1       7.732  -4.104   9.556  1.00  0.00    -0.744 OA
ENDBRANCH  41  45
ENDBRANCH  24  38
BRANCH  25  49
ATOM     49  C   UNL     1       7.308   9.001   2.993  1.00  0.00     0.023 A 
ATOM     50  C   UNL     1       8.455   9.447   2.320  1.00  0.00     0.031 A 
ATOM     51  C   UNL     1       6.120   9.739   2.838  1.00  0.00     0.131 A 
ATOM     52  C   UNL     1       8.399  10.616   1.546  1.00  0.00     0.055 A 
ATOM     53  C   UNL     1       6.057  10.873   2.028  1.00  0.00     0.041 A 
ATOM     54  F   UNL     1       4.993   9.348   3.454  1.00  0.00    -0.206 F 
ATOM     55  C   UNL     1       7.205  11.324   1.385  1.00  0.00     0.022 A 
BRANCH  52  56
ATOM     56  S   UNL     1       9.930  11.237   0.800  1.00  0.00     0.124 S 
ATOM     57  O   UNL     1      10.783  11.412   1.971  1.00  0.00    -0.237 OA
ATOM     58  O   UNL     1      10.292  10.146  -0.099  1.00  0.00    -0.237 OA
ATOM     59  O   UNL     1       9.511  12.472   0.142  1.00  0.00    -0.744 OA
ENDBRANCH  52  56
ENDBRANCH  25  49
BRANCH  37  60
ATOM     60  C   UNL     1      10.563   7.401   8.935  1.00  0.00     0.023 A 
ATOM     61  C   UNL     1      10.170   8.559   9.628  1.00  0.00     0.031 A 
ATOM     62  C   UNL     1      11.909   7.004   9.012  1.00  0.00     0.131 A 
ATOM     63  C   UNL     1      11.128   9.319  10.314  1.00  0.00     0.055 A 
ATOM     64  C   UNL     1      12.847   7.733   9.743  1.00  0.00     0.041 A 
ATOM     65  F   UNL     1      12.336   5.907   8.366  1.00  0.00    -0.206 F 
ATOM     66  C   UNL     1      12.461   8.907  10.386  1.00  0.00     0.022 A 
BRANCH  63  67
ATOM     67  S   UNL     1      10.630  10.914  11.019  1.00  0.00     0.124 S 
ATOM     68  O   UNL     1      10.103  11.613   9.851  1.00  0.00    -0.237 OA
ATOM     69  O   UNL     1       9.646  10.517  12.021  1.00  0.00    -0.237 OA
ATOM     70  O   UNL     1      11.877  11.457  11.555  1.00  0.00    -0.744 OA
ENDBRANCH  63  67
ENDBRANCH  37  60
ENDBRANCH  11  12
ENDBRANCH   4   6
ENDBRANCH   1   2
BRANCH   1  71
ATOM     71  C   UNL     1       4.801  -2.563  -0.332  1.00  0.00     0.023 C 
BRANCH  71  72
ATOM     72  C   UNL     1       4.436  -3.211  -1.661  1.00  0.00     0.023 C 
BRANCH  72  73
ATOM     73  C   UNL     1       5.183  -2.658  -2.872  1.00  0.00     0.116 C 
BRANCH  73  74
ATOM     74  N   UNL     1       6.564  -3.083  -2.956  1.00  0.00    -0.356 N 
ATOM     75  C   UNL     1       7.178  -4.065  -3.698  1.00  0.00     0.224 C 
ATOM     76  H   UNL     1       7.176  -2.577  -2.374  1.00  0.00     0.163 HD
ATOM     77  O   UNL     1       8.418  -4.005  -3.729  1.00  0.00    -0.275 OA
BRANCH  75  78
ATOM     78  C   UNL     1       6.423  -5.165  -4.468  1.00  0.00     0.095 C 
ATOM     79  C   UNL     1       6.750  -6.646  -4.082  1.00  0.00     0.045 C 
ATOM     80  C   UNL     1       4.912  -5.511  -4.293  1.00  0.00     0.045 C 
ATOM     81  C   UNL     1       5.271  -7.005  -4.450  1.00  0.00     0.095 C 
BRANCH  79  82
ATOM     82  C   UNL     1       7.367  -6.973  -2.629  1.00  0.00    -0.043 A 
ATOM     83  C   UNL     1       6.954  -6.342  -1.441  1.00  0.00     0.004 A 
ATOM     84  C   UNL     1       8.431  -7.886  -2.482  1.00  0.00     0.004 A 
ATOM     85  C   UNL     1       7.542  -6.591  -0.197  1.00  0.00     0.000 A 
ATOM     86  C   UNL     1       9.040  -8.137  -1.245  1.00  0.00     0.000 A 
ATOM     87  C   UNL     1       8.593  -7.489  -0.100  1.00  0.00     0.000 A 
ENDBRANCH  79  82
BRANCH  80  88
ATOM     88  C   UNL     1       3.868  -4.849  -5.335  1.00  0.00    -0.043 A 
ATOM     89  C   UNL     1       2.522  -5.255  -5.395  1.00  0.00     0.004 A 
ATOM     90  C   UNL     1       4.221  -3.772  -6.185  1.00  0.00     0.004 A 
ATOM     91  C   UNL     1       1.585  -4.607  -6.210  1.00  0.00     0.000 A 
ATOM     92  C   UNL     1       3.292  -3.114  -6.994  1.00  0.00     0.000 A 
ATOM     93  C   UNL     1       1.968  -3.529  -7.000  1.00  0.00     0.000 A 
ENDBRANCH  80  88
BRANCH  81  94
ATOM     94  C   UNL     1       4.652  -8.223  -3.745  1.00  0.00     0.226 C 
ATOM     95  O   UNL     1       4.665  -9.319  -4.337  1.00  0.00    -0.275 OA
ATOM     96  N   UNL     1       4.178  -8.191  -2.431  1.00  0.00    -0.342 N 
ATOM     97  C   UNL     1       4.534  -9.322  -1.573  1.00  0.00     0.119 C 
ATOM     98  C   UNL     1       3.463  -7.100  -1.780  1.00  0.00     0.119 C 
ATOM     99  C   UNL     1       3.339  -9.857  -0.799  1.00  0.00     0.022 C 
ATOM    100  C   UNL     1       2.274  -7.600  -0.955  1.00  0.00     0.022 C 
ATOM    101  C   UNL     1       2.666  -8.737  -0.015  1.00  0.00     0.004 C 
ENDBRANCH  81  94
ENDBRANCH  75  78
ENDBRANCH  73  74
ENDBRANCH  72  73
ENDBRANCH  71  72
ENDBRANCH   1  71
TORSDOF 17
