REMARK SMILES COc1cc2c(cc1OC)-c1c(c(C(=O)Nc3ccc(C(=O)NCCCCNC(=O)c4ccc(-c5c6nc(c(-c7cc(S(=O)(=O)[O-])ccc7F)c7ccc([nH]7)c(-c7cc(S(=O)(=O)[O-])ccc7F)c7nc(c(-c8cc(S(=O)(=O)[O-])ccc8F)c8ccc5[nH]8)C=C7)C=C6)cc4)cc3)nn1-c1ccc(F)cc1)C2
REMARK SMILES IDX 25 1 24 2 23 3 21 4 22 5 20 7 17 8 18 9 95 10 19 11 94 12
REMARK SMILES IDX 16 13 14 14 15 15 13 17 3 18 4 19 8 20 5 21 7 22 6 23 105 24
REMARK SMILES IDX 11 25 12 26 97 27 96 28 2 29 1 30 9 31 10 32 98 33 99 34
REMARK SMILES IDX 104 35 100 36 103 37 101 38 102 39 26 40 27 41 28 42 29 43
REMARK SMILES IDX 30 45 31 46 32 47 93 48 33 49 92 50 34 51 35 52 36 53 86 54
REMARK SMILES IDX 37 55 91 56 85 57 87 58 38 59 90 60 84 61 83 62 39 64 71 65
REMARK SMILES IDX 51 66 70 67 52 68 55 69 69 70 88 71 53 72 54 73 68 75 89 76
REMARK SMILES IDX 56 77 40 78 41 79 49 80 42 81 48 82 50 83 47 84 43 85 44 86
REMARK SMILES IDX 45 87 46 88 72 89 73 90 81 91 74 92 80 93 82 94 79 95 75 96
REMARK SMILES IDX 76 97 77 98 78 99 57 100 58 101 66 102 59 103 65 104 67 105
REMARK SMILES IDX 64 106 60 107 61 108 62 109 63 110
REMARK H PARENT 23 6 16 16 28 44 87 63 55 74
REMARK Flexibility Score: inf
ROOT
ATOM      1  C   UNL     1      -3.146   0.181   7.504  1.00  0.00     0.023 C 
ENDROOT
BRANCH   1   2
ATOM      2  C   UNL     1      -3.783  -1.058   6.885  1.00  0.00     0.116 C 
BRANCH   2   3
ATOM      3  N   UNL     1      -3.720  -1.168   5.439  1.00  0.00    -0.352 N 
ATOM      4  C   UNL     1      -3.862  -2.263   4.608  1.00  0.00     0.251 C 
ATOM      5  O   UNL     1      -3.905  -2.058   3.394  1.00  0.00    -0.269 OA
ATOM      6  H   UNL     1      -3.546  -0.319   4.971  1.00  0.00     0.163 HD
BRANCH   4   7
ATOM      7  C   UNL     1      -3.776  -3.680   5.096  1.00  0.00     0.039 A 
ATOM      8  C   UNL     1      -2.391  -5.885   6.047  1.00  0.00     0.041 A 
ATOM      9  C   UNL     1      -2.541  -5.729   4.680  1.00  0.00     0.027 A 
ATOM     10  C   UNL     1      -3.232  -5.176   6.904  1.00  0.00     0.027 A 
ATOM     11  C   UNL     1      -3.254  -4.623   4.199  1.00  0.00     0.016 A 
ATOM     12  C   UNL     1      -3.941  -4.074   6.420  1.00  0.00     0.016 A 
BRANCH   8  13
ATOM     13  N   UNL     1      -1.440  -6.725   6.616  1.00  0.00    -0.321 N 
ATOM     14  C   UNL     1      -0.149  -7.074   6.262  1.00  0.00     0.276 C 
ATOM     15  O   UNL     1       0.266  -8.091   6.836  1.00  0.00    -0.267 OA
ATOM     16  H   UNL     1      -1.749  -7.161   7.442  1.00  0.00     0.170 HD
BRANCH  14  17
ATOM     17  C   UNL     1       0.772  -6.245   5.417  1.00  0.00     0.155 A 
ATOM     18  C   UNL     1       1.412  -1.249   2.082  1.00  0.00     0.161 A 
ATOM     19  C   UNL     1       0.442  -1.794   2.944  1.00  0.00     0.055 A 
ATOM     20  C   UNL     1       2.671  -1.866   1.924  1.00  0.00     0.161 A 
ATOM     21  C   UNL     1       0.751  -2.952   3.648  1.00  0.00    -0.030 A 
ATOM     22  C   UNL     1       2.949  -3.049   2.622  1.00  0.00     0.061 A 
ATOM     23  C   UNL     1       2.009  -3.553   3.493  1.00  0.00     0.008 A 
ATOM     24  C   UNL     1      -0.194  -3.792   4.519  1.00  0.00     0.076 C 
ATOM     25  C   UNL     1       1.953  -4.738   4.285  1.00  0.00     0.079 A 
ATOM     26  C   UNL     1       0.708  -4.951   4.816  1.00  0.00     0.016 A 
ATOM     27  N   UNL     1       2.752  -5.773   4.620  1.00  0.00    -0.232 N 
ATOM     28  N   UNL     1       2.012  -6.772   5.162  1.00  0.00    -0.162 NA
BRANCH  18  29
ATOM     29  O   UNL     1       1.109  -0.057   1.479  1.00  0.00    -0.493 OA
ATOM     30  C   UNL     1       0.375  -0.235   0.269  1.00  0.00     0.278 C 
ENDBRANCH  18  29
BRANCH  20  31
ATOM     31  O   UNL     1       3.732  -1.486   1.148  1.00  0.00    -0.493 OA
ATOM     32  C   UNL     1       3.658  -0.283   0.405  1.00  0.00     0.278 C 
ENDBRANCH  20  31
BRANCH  27  33
ATOM     33  C   UNL     1       4.144  -5.862   4.402  1.00  0.00     0.065 A 
ATOM     34  C   UNL     1       4.697  -7.044   3.905  1.00  0.00     0.031 A 
ATOM     35  C   UNL     1       4.944  -4.719   4.579  1.00  0.00     0.031 A 
ATOM     36  C   UNL     1       6.025  -7.037   3.470  1.00  0.00     0.041 A 
ATOM     37  C   UNL     1       6.273  -4.728   4.166  1.00  0.00     0.041 A 
ATOM     38  C   UNL     1       6.793  -5.879   3.589  1.00  0.00     0.123 A 
ATOM     39  F   UNL     1       8.050  -5.870   3.126  1.00  0.00    -0.207 F 
ENDBRANCH  27  33
ENDBRANCH  14  17
ENDBRANCH   8  13
ENDBRANCH   4   7
ENDBRANCH   2   3
ENDBRANCH   1   2
BRANCH   1  40
ATOM     40  C   UNL     1      -3.597   1.555   7.018  1.00  0.00     0.023 C 
BRANCH  40  41
ATOM     41  C   UNL     1      -5.092   1.760   6.786  1.00  0.00     0.116 C 
BRANCH  41  42
ATOM     42  N   UNL     1      -5.961   1.369   7.876  1.00  0.00    -0.352 N 
ATOM     43  C   UNL     1      -6.459   1.995   8.986  1.00  0.00     0.251 C 
ATOM     44  H   UNL     1      -6.263   0.436   7.801  1.00  0.00     0.163 HD
ATOM     45  O   UNL     1      -7.381   1.405   9.557  1.00  0.00    -0.269 OA
BRANCH  43  46
ATOM     46  C   UNL     1      -5.928   3.252   9.579  1.00  0.00     0.039 A 
ATOM     47  C   UNL     1      -4.943   4.060   9.012  1.00  0.00     0.014 A 
ATOM     48  C   UNL     1      -6.421   3.589  10.855  1.00  0.00     0.014 A 
ATOM     49  C   UNL     1      -4.363   5.085   9.752  1.00  0.00     0.010 A 
ATOM     50  C   UNL     1      -5.869   4.635  11.586  1.00  0.00     0.010 A 
ATOM     51  C   UNL     1      -4.794   5.341  11.056  1.00  0.00    -0.014 A 
BRANCH  51  52
ATOM     52  C   UNL     1      -4.131   6.415  11.794  1.00  0.00     0.031 A 
ATOM     53  C   UNL     1      -4.279   7.774  11.196  1.00  0.00     0.074 A 
ATOM     54  C   UNL     1      -3.526   6.223  12.983  1.00  0.00     0.049 A 
ATOM     55  N   UNL     1      -3.357   8.568  10.752  1.00  0.00    -0.248 NA
ATOM     56  C   UNL     1      -5.647   8.251  10.945  1.00  0.00     0.031 C 
ATOM     57  C   UNL     1      -3.578   5.027  13.831  1.00  0.00     0.029 A 
ATOM     58  N   UNL     1      -2.832   7.110  13.751  1.00  0.00    -0.354 N 
ATOM     59  C   UNL     1      -4.015   9.730  10.337  1.00  0.00     0.074 A 
ATOM     60  C   UNL     1      -5.420   9.413  10.334  1.00  0.00     0.031 C 
ATOM     61  C   UNL     1      -3.176   5.351  15.080  1.00  0.00     0.029 A 
ATOM     62  C   UNL     1      -2.700   6.723  15.078  1.00  0.00     0.049 A 
ATOM     63  H   UNL     1      -2.459   7.950  13.397  1.00  0.00     0.167 HD
ATOM     64  C   UNL     1      -3.371  10.927  10.214  1.00  0.00     0.034 A 
ATOM     65  C   UNL     1      -2.328   7.505  16.122  1.00  0.00     0.034 A 
ATOM     66  C   UNL     1      -1.946  10.755  10.207  1.00  0.00     0.049 A 
ATOM     67  C   UNL     1      -1.661   8.714  15.586  1.00  0.00     0.074 A 
ATOM     68  C   UNL     1      -1.030  10.162   9.366  1.00  0.00     0.029 A 
ATOM     69  N   UNL     1      -1.283  10.996  11.385  1.00  0.00    -0.354 N 
ATOM     70  N   UNL     1      -0.494   8.718  15.008  1.00  0.00    -0.248 NA
ATOM     71  C   UNL     1      -2.493   9.879  15.325  1.00  0.00     0.031 C 
ATOM     72  C   UNL     1      -0.006   9.670  10.222  1.00  0.00     0.029 A 
ATOM     73  C   UNL     1      -0.330  10.027  11.534  1.00  0.00     0.049 A 
ATOM     74  H   UNL     1      -1.462  11.734  12.010  1.00  0.00     0.167 HD
ATOM     75  C   UNL     1      -0.626   9.628  13.971  1.00  0.00     0.074 A 
ATOM     76  C   UNL     1      -1.829  10.394  14.288  1.00  0.00     0.031 C 
ATOM     77  C   UNL     1       0.083   9.487  12.813  1.00  0.00     0.034 A 
BRANCH  64  78
ATOM     78  C   UNL     1      -4.008  12.278  10.468  1.00  0.00     0.023 A 
ATOM     79  C   UNL     1      -5.287  12.430  11.032  1.00  0.00     0.031 A 
ATOM     80  C   UNL     1      -3.232  13.456  10.391  1.00  0.00     0.131 A 
ATOM     81  C   UNL     1      -5.740  13.668  11.509  1.00  0.00     0.055 A 
ATOM     82  C   UNL     1      -3.657  14.679  10.926  1.00  0.00     0.041 A 
ATOM     83  F   UNL     1      -2.001  13.442   9.855  1.00  0.00    -0.206 F 
ATOM     84  C   UNL     1      -4.916  14.788  11.498  1.00  0.00     0.022 A 
BRANCH  81  85
ATOM     85  S   UNL     1      -7.416  13.824  12.184  1.00  0.00     0.124 S 
ATOM     86  O   UNL     1      -7.143  14.225  13.566  1.00  0.00    -0.237 OA
ATOM     87  O   UNL     1      -7.981  14.868  11.328  1.00  0.00    -0.237 OA
ATOM     88  O   UNL     1      -7.984  12.501  12.004  1.00  0.00    -0.744 OA
ENDBRANCH  81  85
ENDBRANCH  64  78
BRANCH  65  89
ATOM     89  C   UNL     1      -2.942   7.499  17.471  1.00  0.00     0.023 A 
ATOM     90  C   UNL     1      -4.296   7.139  17.615  1.00  0.00     0.031 A 
ATOM     91  C   UNL     1      -2.322   8.134  18.560  1.00  0.00     0.131 A 
ATOM     92  C   UNL     1      -4.997   7.454  18.785  1.00  0.00     0.055 A 
ATOM     93  C   UNL     1      -3.021   8.434  19.736  1.00  0.00     0.041 A 
ATOM     94  F   UNL     1      -1.045   8.537  18.476  1.00  0.00    -0.206 F 
ATOM     95  C   UNL     1      -4.370   8.107  19.847  1.00  0.00     0.022 A 
BRANCH  92  96
ATOM     96  S   UNL     1      -6.770   7.095  18.910  1.00  0.00     0.124 S 
ATOM     97  O   UNL     1      -6.862   6.449  20.218  1.00  0.00    -0.237 OA
ATOM     98  O   UNL     1      -7.351   8.430  18.825  1.00  0.00    -0.237 OA
ATOM     99  O   UNL     1      -7.023   6.217  17.771  1.00  0.00    -0.744 OA
ENDBRANCH  92  96
ENDBRANCH  65  89
BRANCH  77 100
ATOM    100  C   UNL     1       1.229   8.505  12.767  1.00  0.00     0.023 A 
ATOM    101  C   UNL     1       2.442   8.972  12.230  1.00  0.00     0.031 A 
ATOM    102  C   UNL     1       1.103   7.121  12.991  1.00  0.00     0.131 A 
ATOM    103  C   UNL     1       3.454   8.072  11.883  1.00  0.00     0.055 A 
ATOM    104  C   UNL     1       2.149   6.234  12.714  1.00  0.00     0.041 A 
ATOM    105  F   UNL     1      -0.053   6.576  13.390  1.00  0.00    -0.206 F 
ATOM    106  C   UNL     1       3.324   6.705  12.138  1.00  0.00     0.022 A 
BRANCH 103 107
ATOM    107  S   UNL     1       4.884   8.639  10.927  1.00  0.00     0.124 S 
ATOM    108  O   UNL     1       5.986   8.411  11.857  1.00  0.00    -0.237 OA
ATOM    109  O   UNL     1       4.851   7.752   9.765  1.00  0.00    -0.237 OA
ATOM    110  O   UNL     1       4.587  10.039  10.640  1.00  0.00    -0.744 OA
ENDBRANCH 103 107
ENDBRANCH  77 100
ENDBRANCH  51  52
ENDBRANCH  43  46
ENDBRANCH  41  42
ENDBRANCH  40  41
ENDBRANCH   1  40
TORSDOF 19
