REMARK SMILES CC1=C(CC(=O)NCCCCNC(=O)c2ccc(-c3c4nc(c(-c5cc(S(=O)(=O)[O-])ccc5F)c5ccc([nH]5)c(-c5cc(S(=O)(=O)[O-])ccc5F)c5nc(c(-c6cc(S(=O)(=O)[O-])ccc6F)c6ccc3[nH]6)C=C5)C=C4)cc2)c2cc(F)ccc2/C1=C\c1ccc([S@@+](C)[O-])cc1
REMARK SMILES IDX 9 1 8 2 7 3 5 4 6 5 4 7 3 8 1 9 2 10 85 11 78 12 84 13 86 14
REMARK SMILES IDX 79 15 83 16 80 17 82 18 81 19 87 20 88 21 95 22 89 23 94 24
REMARK SMILES IDX 90 25 91 26 92 27 93 28 10 29 11 30 12 31 13 32 14 34 15 35
REMARK SMILES IDX 16 36 77 37 17 38 76 39 18 40 19 41 20 42 70 43 21 44 75 45
REMARK SMILES IDX 69 46 71 47 22 48 74 49 68 50 67 51 23 53 55 54 35 55 54 56
REMARK SMILES IDX 36 57 39 58 53 59 72 60 37 61 38 62 52 64 73 65 40 66 24 67
REMARK SMILES IDX 25 68 33 69 26 70 32 71 34 72 31 73 27 74 28 75 29 76 30 77
REMARK SMILES IDX 56 78 57 79 65 80 58 81 64 82 66 83 63 84 59 85 60 86 61 87
REMARK SMILES IDX 62 88 41 89 42 90 50 91 43 92 49 93 51 94 48 95 44 96 45 97
REMARK SMILES IDX 46 98 47 99
REMARK H PARENT 7 6 12 33 71 52 39 63
REMARK Flexibility Score: inf
ROOT
ATOM      1  C   UNL     1      -1.939  -2.135   1.311  1.00  0.00     0.023 C 
ENDROOT
BRANCH   1   2
ATOM      2  C   UNL     1      -0.734  -2.127   2.253  1.00  0.00     0.116 C 
BRANCH   2   3
ATOM      3  N   UNL     1      -0.069  -3.413   2.313  1.00  0.00    -0.356 N 
ATOM      4  C   UNL     1       1.057  -3.825   1.662  1.00  0.00     0.224 C 
ATOM      5  O   UNL     1       1.464  -4.973   1.860  1.00  0.00    -0.275 OA
ATOM      6  H   UNL     1      -0.487  -4.080   2.904  1.00  0.00     0.163 HD
BRANCH   4   7
ATOM      7  C   UNL     1       1.815  -2.872   0.739  1.00  0.00     0.136 C 
BRANCH   7   8
ATOM      8  C   UNL     1       1.069  -2.528  -0.510  1.00  0.00    -0.027 C 
ATOM      9  C   UNL     1       1.086   0.017  -0.395  1.00  0.00     0.045 C 
ATOM     10  C   UNL     1       0.715  -1.307  -0.979  1.00  0.00    -0.039 C 
ATOM     11  C   UNL     1      -0.093  -1.462  -2.198  1.00  0.00    -0.014 C 
ATOM     12  C   UNL     1       0.598  -3.535  -1.476  1.00  0.00    -0.011 A 
ATOM     13  C   UNL     1      -0.065  -2.899  -2.542  1.00  0.00    -0.010 A 
ATOM     14  C   UNL     1      -0.778  -0.465  -2.793  1.00  0.00     0.017 C 
ATOM     15  C   UNL     1       0.754  -4.916  -1.463  1.00  0.00     0.048 A 
ATOM     16  C   UNL     1      -0.520  -3.635  -3.628  1.00  0.00     0.012 A 
ATOM     17  C   UNL     1       0.247  -5.648  -2.532  1.00  0.00     0.123 A 
ATOM     18  C   UNL     1      -0.376  -5.023  -3.612  1.00  0.00     0.040 A 
ATOM     19  F   UNL     1       0.378  -6.981  -2.539  1.00  0.00    -0.207 F 
BRANCH  14  20
ATOM     20  C   UNL     1      -1.623  -0.608  -3.981  1.00  0.00    -0.025 A 
ATOM     21  C   UNL     1      -2.836  -1.306  -3.929  1.00  0.00     0.013 A 
ATOM     22  C   UNL     1      -1.151  -0.140  -5.209  1.00  0.00     0.013 A 
ATOM     23  C   UNL     1      -3.503  -1.643  -5.112  1.00  0.00     0.061 A 
ATOM     24  C   UNL     1      -1.831  -0.458  -6.387  1.00  0.00     0.061 A 
ATOM     25  C   UNL     1      -2.990  -1.245  -6.352  1.00  0.00     0.152 A 
BRANCH  25  26
ATOM     26  S   UNL     1      -3.679  -1.878  -7.903  1.00  0.00    -0.018 S 
ATOM     27  C   UNL     1      -5.420  -1.489  -7.651  1.00  0.00     0.346 C 
ATOM     28  O   UNL     1      -3.138  -0.958  -9.056  1.00  0.00    -0.612 OA
ENDBRANCH  25  26
ENDBRANCH  14  20
ENDBRANCH   7   8
ENDBRANCH   4   7
ENDBRANCH   2   3
ENDBRANCH   1   2
BRANCH   1  29
ATOM     29  C   UNL     1      -3.147  -2.932   1.806  1.00  0.00     0.023 C 
BRANCH  29  30
ATOM     30  C   UNL     1      -3.718  -2.487   3.146  1.00  0.00     0.116 C 
BRANCH  30  31
ATOM     31  N   UNL     1      -4.157  -1.098   3.172  1.00  0.00    -0.352 N 
ATOM     32  C   UNL     1      -5.151  -0.537   3.946  1.00  0.00     0.251 C 
ATOM     33  H   UNL     1      -3.686  -0.485   2.562  1.00  0.00     0.163 HD
ATOM     34  O   UNL     1      -5.465   0.640   3.789  1.00  0.00    -0.269 OA
BRANCH  32  35
ATOM     35  C   UNL     1      -5.873  -1.390   4.917  1.00  0.00     0.039 A 
ATOM     36  C   UNL     1      -5.168  -2.237   5.773  1.00  0.00     0.014 A 
ATOM     37  C   UNL     1      -7.270  -1.409   4.904  1.00  0.00     0.014 A 
ATOM     38  C   UNL     1      -5.847  -3.237   6.459  1.00  0.00     0.010 A 
ATOM     39  C   UNL     1      -7.957  -2.360   5.666  1.00  0.00     0.010 A 
ATOM     40  C   UNL     1      -7.248  -3.328   6.394  1.00  0.00    -0.014 A 
BRANCH  40  41
ATOM     41  C   UNL     1      -7.930  -4.467   7.066  1.00  0.00     0.031 A 
ATOM     42  C   UNL     1      -8.663  -5.510   6.261  1.00  0.00     0.074 A 
ATOM     43  C   UNL     1      -7.814  -4.609   8.402  1.00  0.00     0.049 A 
ATOM     44  N   UNL     1      -9.237  -6.612   6.672  1.00  0.00    -0.248 NA
ATOM     45  C   UNL     1      -8.770  -5.292   4.809  1.00  0.00     0.031 C 
ATOM     46  C   UNL     1      -7.131  -3.662   9.283  1.00  0.00     0.029 A 
ATOM     47  N   UNL     1      -8.231  -5.609   9.245  1.00  0.00    -0.354 N 
ATOM     48  C   UNL     1      -9.785  -7.206   5.541  1.00  0.00     0.074 A 
ATOM     49  C   UNL     1      -9.506  -6.327   4.428  1.00  0.00     0.031 C 
ATOM     50  C   UNL     1      -7.120  -4.153  10.530  1.00  0.00     0.029 A 
ATOM     51  C   UNL     1      -7.846  -5.421  10.554  1.00  0.00     0.049 A 
ATOM     52  H   UNL     1      -8.755  -6.386   8.944  1.00  0.00     0.167 HD
ATOM     53  C   UNL     1     -10.445  -8.385   5.438  1.00  0.00     0.034 A 
ATOM     54  C   UNL     1      -8.049  -6.180  11.651  1.00  0.00     0.034 A 
ATOM     55  C   UNL     1     -10.692  -9.268   6.549  1.00  0.00     0.049 A 
ATOM     56  C   UNL     1      -8.770  -7.495  11.504  1.00  0.00     0.074 A 
ATOM     57  C   UNL     1     -11.346 -10.488   6.541  1.00  0.00     0.029 A 
ATOM     58  N   UNL     1     -10.284  -9.043   7.855  1.00  0.00    -0.354 N 
ATOM     59  N   UNL     1      -9.244  -8.057  10.417  1.00  0.00    -0.248 NA
ATOM     60  C   UNL     1      -8.976  -8.288  12.724  1.00  0.00     0.031 C 
ATOM     61  C   UNL     1     -11.375 -10.978   7.846  1.00  0.00     0.029 A 
ATOM     62  C   UNL     1     -10.681 -10.097   8.661  1.00  0.00     0.049 A 
ATOM     63  H   UNL     1      -9.787  -8.251   8.164  1.00  0.00     0.167 HD
ATOM     64  C   UNL     1      -9.778  -9.279  10.818  1.00  0.00     0.074 A 
ATOM     65  C   UNL     1      -9.546  -9.386  12.243  1.00  0.00     0.031 C 
ATOM     66  C   UNL     1     -10.410 -10.219  10.072  1.00  0.00     0.034 A 
BRANCH  53  67
ATOM     67  C   UNL     1     -10.942  -8.825   4.083  1.00  0.00     0.023 A 
ATOM     68  C   UNL     1     -12.324  -8.969   3.853  1.00  0.00     0.031 A 
ATOM     69  C   UNL     1     -10.052  -9.241   3.078  1.00  0.00     0.131 A 
ATOM     70  C   UNL     1     -12.773  -9.556   2.663  1.00  0.00     0.055 A 
ATOM     71  C   UNL     1     -10.507  -9.789   1.877  1.00  0.00     0.041 A 
ATOM     72  F   UNL     1      -8.726  -9.119   3.249  1.00  0.00    -0.206 F 
ATOM     73  C   UNL     1     -11.873  -9.961   1.672  1.00  0.00     0.022 A 
BRANCH  70  74
ATOM     74  S   UNL     1     -14.537  -9.873   2.381  1.00  0.00     0.124 S 
ATOM     75  O   UNL     1     -14.777  -9.146   1.136  1.00  0.00    -0.237 OA
ATOM     76  O   UNL     1     -14.572 -11.328   2.271  1.00  0.00    -0.237 OA
ATOM     77  O   UNL     1     -15.187  -9.312   3.560  1.00  0.00    -0.744 OA
ENDBRANCH  70  74
ENDBRANCH  53  67
BRANCH  54  78
ATOM     78  C   UNL     1      -7.497  -5.725  12.961  1.00  0.00     0.023 A 
ATOM     79  C   UNL     1      -7.908  -4.507  13.533  1.00  0.00     0.031 A 
ATOM     80  C   UNL     1      -6.478  -6.446  13.606  1.00  0.00     0.131 A 
ATOM     81  C   UNL     1      -7.256  -4.015  14.671  1.00  0.00     0.055 A 
ATOM     82  C   UNL     1      -5.883  -5.988  14.782  1.00  0.00     0.041 A 
ATOM     83  F   UNL     1      -6.040  -7.606  13.091  1.00  0.00    -0.206 F 
ATOM     84  C   UNL     1      -6.258  -4.757  15.310  1.00  0.00     0.022 A 
BRANCH  81  85
ATOM     85  S   UNL     1      -7.576  -2.330  15.265  1.00  0.00     0.124 S 
ATOM     86  O   UNL     1      -8.184  -2.579  16.568  1.00  0.00    -0.237 OA
ATOM     87  O   UNL     1      -6.230  -1.760  15.294  1.00  0.00    -0.237 OA
ATOM     88  O   UNL     1      -8.460  -1.771  14.248  1.00  0.00    -0.744 OA
ENDBRANCH  81  85
ENDBRANCH  54  78
BRANCH  66  89
ATOM     89  C   UNL     1     -10.889 -11.482  10.747  1.00  0.00     0.023 A 
ATOM     90  C   UNL     1     -10.361 -12.727  10.355  1.00  0.00     0.031 A 
ATOM     91  C   UNL     1     -11.970 -11.469  11.644  1.00  0.00     0.131 A 
ATOM     92  C   UNL     1     -10.938 -13.910  10.831  1.00  0.00     0.055 A 
ATOM     93  C   UNL     1     -12.514 -12.651  12.150  1.00  0.00     0.041 A 
ATOM     94  F   UNL     1     -12.518 -10.308  12.035  1.00  0.00    -0.206 F 
ATOM     95  C   UNL     1     -12.008 -13.878  11.732  1.00  0.00     0.022 A 
BRANCH  92  96
ATOM     96  S   UNL     1     -10.387 -15.530  10.229  1.00  0.00     0.124 S 
ATOM     97  O   UNL     1      -9.882 -16.150  11.452  1.00  0.00    -0.237 OA
ATOM     98  O   UNL     1     -11.624 -16.102   9.705  1.00  0.00    -0.237 OA
ATOM     99  O   UNL     1      -9.373 -15.209   9.230  1.00  0.00    -0.744 OA
ENDBRANCH  92  96
ENDBRANCH  66  89
ENDBRANCH  40  41
ENDBRANCH  32  35
ENDBRANCH  30  31
ENDBRANCH  29  30
ENDBRANCH   1  29
TORSDOF 17
