REMARK SMILES COC(=O)C1=C(C)N(c2ccc(Br)cc2)C(=O)/C1=C\c1ccc(C(=O)NCCCCNC(=O)c2ccc(-c3c4nc(c(-c5cc(S(=O)(=O)[O-])ccc5F)c5ccc([nH]5)c(-c5cc(S(=O)(=O)[O-])ccc5F)c5nc(c(-c6cc(S(=O)(=O)[O-])ccc6F)c6ccc3[nH]6)C=C5)C=C4)cc2)cc1
REMARK SMILES IDX 28 1 27 2 26 3 24 4 25 5 23 7 20 8 21 9 98 10 22 11 97 12
REMARK SMILES IDX 19 13 5 14 6 15 18 16 7 17 8 18 16 19 17 20 3 21 4 22 2 23
REMARK SMILES IDX 1 24 9 25 10 26 15 27 11 28 14 29 12 30 13 31 29 32 30 33
REMARK SMILES IDX 31 34 32 35 33 37 34 38 35 39 96 40 36 41 95 42 37 43 38 44
REMARK SMILES IDX 39 45 89 46 40 47 94 48 88 49 90 50 41 51 93 52 87 53 86 54
REMARK SMILES IDX 42 56 74 57 54 58 73 59 55 60 58 61 72 62 91 63 56 64 57 65
REMARK SMILES IDX 71 67 92 68 59 69 43 70 44 71 52 72 45 73 51 74 53 75 50 76
REMARK SMILES IDX 46 77 47 78 48 79 49 80 75 81 76 82 84 83 77 84 83 85 85 86
REMARK SMILES IDX 82 87 78 88 79 89 80 90 81 91 60 92 61 93 69 94 62 95 68 96
REMARK SMILES IDX 70 97 67 98 63 99 64 100 65 101 66 102
REMARK H PARENT 26 6 31 36 90 55 58 66
REMARK Flexibility Score: inf
ROOT
ATOM      1  C   UNL     1       4.539  -4.091  10.734  1.00  0.00     0.023 C 
ENDROOT
BRANCH   1   2
ATOM      2  C   UNL     1       3.947  -2.700  10.973  1.00  0.00     0.116 C 
BRANCH   2   3
ATOM      3  N   UNL     1       4.980  -1.687  10.866  1.00  0.00    -0.352 N 
ATOM      4  C   UNL     1       5.335  -0.848   9.840  1.00  0.00     0.251 C 
ATOM      5  O   UNL     1       6.258  -0.055  10.033  1.00  0.00    -0.269 OA
ATOM      6  H   UNL     1       5.527  -1.582  11.678  1.00  0.00     0.163 HD
BRANCH   4   7
ATOM      7  C   UNL     1       4.623  -0.818   8.531  1.00  0.00     0.039 A 
ATOM      8  C   UNL     1       3.217  -0.568   6.108  1.00  0.00    -0.025 A 
ATOM      9  C   UNL     1       3.906   0.529   6.628  1.00  0.00     0.009 A 
ATOM     10  C   UNL     1       3.281  -1.797   6.766  1.00  0.00     0.009 A 
ATOM     11  C   UNL     1       4.601   0.402   7.836  1.00  0.00     0.014 A 
ATOM     12  C   UNL     1       4.006  -1.927   7.950  1.00  0.00     0.014 A 
BRANCH   8  13
ATOM     13  C   UNL     1       2.442  -0.491   4.874  1.00  0.00     0.023 C 
ATOM     14  C   UNL     1       0.292  -0.333   3.616  1.00  0.00     0.092 C 
ATOM     15  C   UNL     1      -0.975  -0.001   3.948  1.00  0.00     0.039 C 
ATOM     16  C   UNL     1       1.117  -0.285   4.807  1.00  0.00     0.057 C 
ATOM     17  C   UNL     1      -2.106   0.137   2.980  1.00  0.00     0.066 C 
ATOM     18  N   UNL     1      -1.056   0.286   5.315  1.00  0.00    -0.280 N 
ATOM     19  C   UNL     1       0.204   0.087   5.940  1.00  0.00     0.263 C 
ATOM     20  O   UNL     1       0.509   0.187   7.112  1.00  0.00    -0.268 OA
BRANCH  14  21
ATOM     21  C   UNL     1       0.798  -0.707   2.285  1.00  0.00     0.340 C 
ATOM     22  O   UNL     1       1.538  -1.657   2.083  1.00  0.00    -0.246 OA
BRANCH  21  23
ATOM     23  O   UNL     1       0.388   0.189   1.354  1.00  0.00    -0.465 OA
ATOM     24  C   UNL     1       0.904  -0.066   0.048  1.00  0.00     0.282 C 
ENDBRANCH  21  23
ENDBRANCH  14  21
BRANCH  18  25
ATOM     25  C   UNL     1      -2.156   0.806   6.052  1.00  0.00     0.049 A 
ATOM     26  C   UNL     1      -1.941   1.855   6.960  1.00  0.00     0.028 A 
ATOM     27  C   UNL     1      -3.466   0.347   5.865  1.00  0.00     0.028 A 
ATOM     28  C   UNL     1      -3.011   2.486   7.600  1.00  0.00     0.018 A 
ATOM     29  C   UNL     1      -4.541   0.968   6.514  1.00  0.00     0.018 A 
ATOM     30  C   UNL     1      -4.309   2.049   7.362  1.00  0.00     0.018 A 
ATOM     31  Br  UNL     1      -5.763   2.934   8.182  1.00  0.00    -0.051 Br
ENDBRANCH  18  25
ENDBRANCH   8  13
ENDBRANCH   4   7
ENDBRANCH   2   3
ENDBRANCH   1   2
BRANCH   1  32
ATOM     32  C   UNL     1       5.281  -4.664  11.943  1.00  0.00     0.023 C 
BRANCH  32  33
ATOM     33  C   UNL     1       4.410  -4.890  13.173  1.00  0.00     0.116 C 
BRANCH  33  34
ATOM     34  N   UNL     1       3.291  -5.785  12.920  1.00  0.00    -0.352 N 
ATOM     35  C   UNL     1       2.753  -6.731  13.758  1.00  0.00     0.251 C 
ATOM     36  H   UNL     1       2.866  -5.702  12.036  1.00  0.00     0.163 HD
ATOM     37  O   UNL     1       1.897  -7.506  13.344  1.00  0.00    -0.269 OA
BRANCH  35  38
ATOM     38  C   UNL     1       3.252  -6.826  15.145  1.00  0.00     0.039 A 
ATOM     39  C   UNL     1       3.636  -8.072  15.642  1.00  0.00     0.014 A 
ATOM     40  C   UNL     1       3.394  -5.676  15.927  1.00  0.00     0.014 A 
ATOM     41  C   UNL     1       4.226  -8.155  16.904  1.00  0.00     0.010 A 
ATOM     42  C   UNL     1       4.055  -5.751  17.148  1.00  0.00     0.010 A 
ATOM     43  C   UNL     1       4.479  -6.991  17.650  1.00  0.00    -0.014 A 
BRANCH  43  44
ATOM     44  C   UNL     1       5.184  -7.055  18.956  1.00  0.00     0.031 A 
ATOM     45  C   UNL     1       4.483  -6.613  20.212  1.00  0.00     0.074 A 
ATOM     46  C   UNL     1       6.470  -7.459  19.001  1.00  0.00     0.049 A 
ATOM     47  N   UNL     1       4.946  -6.536  21.433  1.00  0.00    -0.248 NA
ATOM     48  C   UNL     1       3.086  -6.175  20.071  1.00  0.00     0.031 C 
ATOM     49  C   UNL     1       7.266  -7.872  17.843  1.00  0.00     0.029 A 
ATOM     50  N   UNL     1       7.338  -7.583  20.058  1.00  0.00    -0.354 N 
ATOM     51  C   UNL     1       3.903  -6.031  22.203  1.00  0.00     0.074 A 
ATOM     52  C   UNL     1       2.807  -5.761  21.297  1.00  0.00     0.031 C 
ATOM     53  C   UNL     1       8.492  -8.232  18.256  1.00  0.00     0.029 A 
ATOM     54  C   UNL     1       8.592  -8.024  19.697  1.00  0.00     0.049 A 
ATOM     55  H   UNL     1       7.087  -7.376  20.987  1.00  0.00     0.167 HD
ATOM     56  C   UNL     1       3.857  -5.834  23.543  1.00  0.00     0.034 A 
ATOM     57  C   UNL     1       9.700  -8.221  20.440  1.00  0.00     0.034 A 
ATOM     58  C   UNL     1       4.958  -6.117  24.431  1.00  0.00     0.049 A 
ATOM     59  C   UNL     1       9.634  -7.959  21.925  1.00  0.00     0.074 A 
ATOM     60  C   UNL     1       5.001  -6.007  25.810  1.00  0.00     0.029 A 
ATOM     61  N   UNL     1       6.215  -6.553  24.029  1.00  0.00    -0.354 N 
ATOM     62  N   UNL     1       8.620  -7.536  22.645  1.00  0.00    -0.248 NA
ATOM     63  C   UNL     1      10.857  -8.210  22.698  1.00  0.00     0.031 C 
ATOM     64  C   UNL     1       6.302  -6.294  26.232  1.00  0.00     0.029 A 
ATOM     65  C   UNL     1       7.049  -6.678  25.130  1.00  0.00     0.049 A 
ATOM     66  H   UNL     1       6.475  -6.746  23.100  1.00  0.00     0.167 HD
ATOM     67  C   UNL     1       9.076  -7.507  23.961  1.00  0.00     0.074 A 
ATOM     68  C   UNL     1      10.447  -7.970  23.934  1.00  0.00     0.031 C 
ATOM     69  C   UNL     1       8.419  -7.135  25.090  1.00  0.00     0.034 A 
BRANCH  56  70
ATOM     70  C   UNL     1       2.586  -5.260  24.123  1.00  0.00     0.023 A 
ATOM     71  C   UNL     1       1.358  -5.941  24.038  1.00  0.00     0.031 A 
ATOM     72  C   UNL     1       2.599  -4.008  24.764  1.00  0.00     0.131 A 
ATOM     73  C   UNL     1       0.187  -5.338  24.522  1.00  0.00     0.055 A 
ATOM     74  C   UNL     1       1.445  -3.451  25.319  1.00  0.00     0.041 A 
ATOM     75  F   UNL     1       3.735  -3.299  24.855  1.00  0.00    -0.206 F 
ATOM     76  C   UNL     1       0.227  -4.111  25.187  1.00  0.00     0.022 A 
BRANCH  73  77
ATOM     77  S   UNL     1      -1.407  -6.115  24.143  1.00  0.00     0.124 S 
ATOM     78  O   UNL     1      -1.386  -6.134  22.682  1.00  0.00    -0.237 OA
ATOM     79  O   UNL     1      -1.291  -7.411  24.801  1.00  0.00    -0.237 OA
ATOM     80  O   UNL     1      -2.383  -5.200  24.732  1.00  0.00    -0.744 OA
ENDBRANCH  73  77
ENDBRANCH  56  70
BRANCH  57  81
ATOM     81  C   UNL     1      10.973  -8.670  19.802  1.00  0.00     0.023 A 
ATOM     82  C   UNL     1      11.572  -9.890  20.155  1.00  0.00     0.031 A 
ATOM     83  C   UNL     1      11.643  -7.855  18.871  1.00  0.00     0.131 A 
ATOM     84  C   UNL     1      12.828 -10.232  19.629  1.00  0.00     0.055 A 
ATOM     85  C   UNL     1      12.861  -8.231  18.300  1.00  0.00     0.041 A 
ATOM     86  F   UNL     1      11.118  -6.678  18.496  1.00  0.00    -0.206 F 
ATOM     87  C   UNL     1      13.468  -9.419  18.692  1.00  0.00     0.022 A 
BRANCH  84  88
ATOM     88  S   UNL     1      13.667 -11.706  20.274  1.00  0.00     0.124 S 
ATOM     89  O   UNL     1      13.726 -11.411  21.701  1.00  0.00    -0.237 OA
ATOM     90  O   UNL     1      12.755 -12.773  19.876  1.00  0.00    -0.237 OA
ATOM     91  O   UNL     1      14.953 -11.696  19.581  1.00  0.00    -0.744 OA
ENDBRANCH  84  88
ENDBRANCH  57  81
BRANCH  69  92
ATOM     92  C   UNL     1       9.164  -7.266  26.397  1.00  0.00     0.023 A 
ATOM     93  C   UNL     1      10.303  -6.495  26.686  1.00  0.00     0.031 A 
ATOM     94  C   UNL     1       8.727  -8.187  27.367  1.00  0.00     0.131 A 
ATOM     95  C   UNL     1      11.000  -6.700  27.886  1.00  0.00     0.055 A 
ATOM     96  C   UNL     1       9.383  -8.335  28.590  1.00  0.00     0.041 A 
ATOM     97  F   UNL     1       7.649  -8.955  27.145  1.00  0.00    -0.206 F 
ATOM     98  C   UNL     1      10.536  -7.600  28.849  1.00  0.00     0.022 A 
BRANCH  95  99
ATOM     99  S   UNL     1      12.584  -5.850  28.130  1.00  0.00     0.124 S 
ATOM    100  O   UNL     1      13.356  -6.313  26.982  1.00  0.00    -0.237 OA
ATOM    101  O   UNL     1      12.191  -4.445  28.110  1.00  0.00    -0.237 OA
ATOM    102  O   UNL     1      13.043  -6.346  29.427  1.00  0.00    -0.744 OA
ENDBRANCH  95  99
ENDBRANCH  69  92
ENDBRANCH  43  44
ENDBRANCH  35  38
ENDBRANCH  33  34
ENDBRANCH  32  33
ENDBRANCH   1  32
TORSDOF 18
