REMARK SMILES Cn1cc(C[C@@H](NC(=O)OCC2c3ccccc3-c3ccccc32)C(=O)NCCCCNC(=O)c2ccc(-c3c4nc(c(-c5cc(S(=O)(=O)[O-])ccc5F)c5ccc([nH]5)c(-c5cc(S(=O)(=O)[O-])ccc5F)c5nc(c(-c6cc(S(=O)(=O)[O-])ccc6F)c6ccc3[nH]6)C=C5)C=C4)cc2)c2ccccc21
REMARK SMILES IDX 29 1 28 2 27 3 25 4 26 5 6 7 5 8 4 9 1 10 2 11 3 12 103 13
REMARK SMILES IDX 98 14 102 15 99 16 101 17 100 18 7 19 8 20 9 22 10 23 11 24
REMARK SMILES IDX 12 25 13 26 24 27 14 28 18 29 19 30 23 31 15 32 17 33 20 34
REMARK SMILES IDX 22 35 16 36 21 37 30 38 31 39 32 40 33 41 34 43 35 44 36 45
REMARK SMILES IDX 97 46 37 47 96 48 38 49 39 50 40 51 90 52 41 53 95 54 89 55
REMARK SMILES IDX 91 56 42 57 94 58 88 59 87 60 43 62 75 63 55 64 74 65 56 66
REMARK SMILES IDX 59 67 73 68 92 69 57 70 58 71 72 73 93 74 60 75 44 76 45 77
REMARK SMILES IDX 53 78 46 79 52 80 54 81 51 82 47 83 48 84 49 85 50 86 76 87
REMARK SMILES IDX 77 88 85 89 78 90 84 91 86 92 83 93 79 94 80 95 81 96 82 97
REMARK SMILES IDX 61 98 62 99 70 100 63 101 69 102 71 103 68 104 64 105 65 106
REMARK SMILES IDX 66 107 67 108
REMARK H PARENT 27 6 7 21 32 42 91 61 59 72
REMARK Flexibility Score: inf
ROOT
ATOM      1  C   UNL     1      -0.114  -5.768  -2.610  1.00  0.00     0.023 C 
ENDROOT
BRANCH   1   2
ATOM      2  C   UNL     1      -0.737  -5.602  -1.230  1.00  0.00     0.116 C 
BRANCH   2   3
ATOM      3  N   UNL     1       0.154  -6.055  -0.176  1.00  0.00    -0.354 N 
ATOM      4  C   UNL     1       0.615  -5.393   0.931  1.00  0.00     0.243 C 
ATOM      5  O   UNL     1       1.380  -5.999   1.687  1.00  0.00    -0.273 OA
ATOM      6  H   UNL     1       0.477  -6.981  -0.272  1.00  0.00     0.163 HD
BRANCH   4   7
ATOM      7  C   UNL     1       0.308  -3.897   1.154  1.00  0.00     0.179 C 
BRANCH   7   8
ATOM      8  C   UNL     1       1.006  -3.088   0.027  1.00  0.00     0.073 C 
BRANCH   8   9
ATOM      9  C   UNL     1       0.958  -1.586   0.127  1.00  0.00    -0.020 A 
ATOM     10  C   UNL     1       2.517   1.683   0.303  1.00  0.00     0.149 C 
ATOM     11  N   UNL     1       1.636   0.537   0.279  1.00  0.00    -0.350 N 
ATOM     12  C   UNL     1       2.045  -0.765   0.366  1.00  0.00     0.090 A 
ATOM     13  C   UNL     1       0.275   0.599   0.079  1.00  0.00     0.048 A 
ATOM     14  C   UNL     1      -0.163  -0.716  -0.109  1.00  0.00     0.003 A 
ATOM     15  C   UNL     1      -0.597   1.699   0.009  1.00  0.00     0.027 A 
ATOM     16  C   UNL     1      -1.515  -0.916  -0.464  1.00  0.00     0.010 A 
ATOM     17  C   UNL     1      -1.946   1.456  -0.263  1.00  0.00     0.002 A 
ATOM     18  C   UNL     1      -2.399   0.166  -0.509  1.00  0.00     0.001 A 
ENDBRANCH   8   9
ENDBRANCH   7   8
BRANCH   7  19
ATOM     19  N   UNL     1      -1.093  -3.516   1.356  1.00  0.00    -0.309 N 
ATOM     20  C   UNL     1      -2.240  -4.214   1.168  1.00  0.00     0.407 C 
ATOM     21  H   UNL     1      -1.223  -2.597   1.685  1.00  0.00     0.167 HD
ATOM     22  O   UNL     1      -3.240  -3.638   0.745  1.00  0.00    -0.225 OA
BRANCH  20  23
ATOM     23  O   UNL     1      -2.179  -5.524   1.502  1.00  0.00    -0.449 OA
BRANCH  23  24
ATOM     24  C   UNL     1      -3.431  -6.246   1.417  1.00  0.00     0.248 C 
BRANCH  24  25
ATOM     25  C   UNL     1      -4.198  -6.329   2.756  1.00  0.00     0.088 C 
ATOM     26  C   UNL     1      -3.596  -7.346   3.721  1.00  0.00    -0.029 A 
ATOM     27  C   UNL     1      -4.152  -5.055   3.590  1.00  0.00    -0.029 A 
ATOM     28  C   UNL     1      -3.521  -8.724   3.582  1.00  0.00     0.005 A 
ATOM     29  C   UNL     1      -3.158  -6.701   4.897  1.00  0.00    -0.014 A 
ATOM     30  C   UNL     1      -3.455  -5.288   4.795  1.00  0.00    -0.014 A 
ATOM     31  C   UNL     1      -4.648  -3.799   3.279  1.00  0.00     0.005 A 
ATOM     32  C   UNL     1      -2.986  -9.463   4.638  1.00  0.00     0.000 A 
ATOM     33  C   UNL     1      -2.617  -7.435   5.940  1.00  0.00     0.009 A 
ATOM     34  C   UNL     1      -3.173  -4.240   5.654  1.00  0.00     0.009 A 
ATOM     35  C   UNL     1      -4.352  -2.741   4.138  1.00  0.00     0.000 A 
ATOM     36  C   UNL     1      -2.534  -8.825   5.804  1.00  0.00     0.001 A 
ATOM     37  C   UNL     1      -3.608  -2.957   5.309  1.00  0.00     0.001 A 
ENDBRANCH  24  25
ENDBRANCH  23  24
ENDBRANCH  20  23
ENDBRANCH   7  19
ENDBRANCH   4   7
ENDBRANCH   2   3
ENDBRANCH   1   2
BRANCH   1  38
ATOM     38  C   UNL     1      -0.088  -7.211  -3.113  1.00  0.00     0.023 C 
BRANCH  38  39
ATOM     39  C   UNL     1      -1.449  -7.899  -3.172  1.00  0.00     0.116 C 
BRANCH  39  40
ATOM     40  N   UNL     1      -2.418  -7.190  -3.996  1.00  0.00    -0.352 N 
ATOM     41  C   UNL     1      -3.366  -7.729  -4.835  1.00  0.00     0.251 C 
ATOM     42  H   UNL     1      -2.391  -6.207  -3.946  1.00  0.00     0.163 HD
ATOM     43  O   UNL     1      -4.044  -7.008  -5.557  1.00  0.00    -0.269 OA
BRANCH  41  44
ATOM     44  C   UNL     1      -3.515  -9.197  -4.873  1.00  0.00     0.039 A 
ATOM     45  C   UNL     1      -3.366  -9.861  -6.091  1.00  0.00     0.014 A 
ATOM     46  C   UNL     1      -3.711  -9.910  -3.687  1.00  0.00     0.014 A 
ATOM     47  C   UNL     1      -3.335 -11.257  -6.110  1.00  0.00     0.010 A 
ATOM     48  C   UNL     1      -3.619 -11.297  -3.701  1.00  0.00     0.010 A 
ATOM     49  C   UNL     1      -3.420 -11.983  -4.910  1.00  0.00    -0.014 A 
BRANCH  49  50
ATOM     50  C   UNL     1      -3.289 -13.461  -4.893  1.00  0.00     0.031 A 
ATOM     51  C   UNL     1      -4.456 -14.310  -4.474  1.00  0.00     0.074 A 
ATOM     52  C   UNL     1      -2.099 -14.029  -5.170  1.00  0.00     0.049 A 
ATOM     53  N   UNL     1      -4.517 -15.603  -4.294  1.00  0.00    -0.248 NA
ATOM     54  C   UNL     1      -5.711 -13.600  -4.184  1.00  0.00     0.031 C 
ATOM     55  C   UNL     1      -0.880 -13.303  -5.537  1.00  0.00     0.029 A 
ATOM     56  N   UNL     1      -1.712 -15.345  -5.170  1.00  0.00    -0.354 N 
ATOM     57  C   UNL     1      -5.809 -15.862  -3.851  1.00  0.00     0.074 A 
ATOM     58  C   UNL     1      -6.477 -14.583  -3.737  1.00  0.00     0.031 C 
ATOM     59  C   UNL     1       0.112 -14.185  -5.740  1.00  0.00     0.029 A 
ATOM     60  C   UNL     1      -0.386 -15.532  -5.483  1.00  0.00     0.049 A 
ATOM     61  H   UNL     1      -2.327 -16.086  -4.964  1.00  0.00     0.167 HD
ATOM     62  C   UNL     1      -6.391 -17.059  -3.586  1.00  0.00     0.034 A 
ATOM     63  C   UNL     1       0.346 -16.662  -5.545  1.00  0.00     0.034 A 
ATOM     64  C   UNL     1      -5.717 -18.326  -3.727  1.00  0.00     0.049 A 
ATOM     65  C   UNL     1      -0.321 -17.980  -5.251  1.00  0.00     0.074 A 
ATOM     66  C   UNL     1      -6.229 -19.600  -3.555  1.00  0.00     0.029 A 
ATOM     67  N   UNL     1      -4.380 -18.479  -4.071  1.00  0.00    -0.354 N 
ATOM     68  N   UNL     1      -1.560 -18.214  -4.886  1.00  0.00    -0.248 NA
ATOM     69  C   UNL     1       0.507 -19.186  -5.385  1.00  0.00     0.031 C 
ATOM     70  C   UNL     1      -5.190 -20.520  -3.744  1.00  0.00     0.029 A 
ATOM     71  C   UNL     1      -4.043 -19.823  -4.092  1.00  0.00     0.049 A 
ATOM     72  H   UNL     1      -3.760 -17.740  -4.270  1.00  0.00     0.167 HD
ATOM     73  C   UNL     1      -1.666 -19.596  -4.774  1.00  0.00     0.074 A 
ATOM     74  C   UNL     1      -0.369 -20.143  -5.116  1.00  0.00     0.031 C 
ATOM     75  C   UNL     1      -2.741 -20.348  -4.425  1.00  0.00     0.034 A 
BRANCH  62  76
ATOM     76  C   UNL     1      -7.817 -17.038  -3.096  1.00  0.00     0.023 A 
ATOM     77  C   UNL     1      -8.864 -16.551  -3.899  1.00  0.00     0.031 A 
ATOM     78  C   UNL     1      -8.131 -17.469  -1.795  1.00  0.00     0.131 A 
ATOM     79  C   UNL     1     -10.155 -16.427  -3.367  1.00  0.00     0.055 A 
ATOM     80  C   UNL     1      -9.435 -17.420  -1.299  1.00  0.00     0.041 A 
ATOM     81  F   UNL     1      -7.171 -17.926  -0.976  1.00  0.00    -0.206 F 
ATOM     82  C   UNL     1     -10.454 -16.880  -2.080  1.00  0.00     0.022 A 
BRANCH  79  83
ATOM     83  S   UNL     1     -11.403 -15.528  -4.329  1.00  0.00     0.124 S 
ATOM     84  O   UNL     1     -10.781 -14.212  -4.459  1.00  0.00    -0.237 OA
ATOM     85  O   UNL     1     -11.488 -16.318  -5.551  1.00  0.00    -0.237 OA
ATOM     86  O   UNL     1     -12.588 -15.569  -3.475  1.00  0.00    -0.744 OA
ENDBRANCH  79  83
ENDBRANCH  62  76
BRANCH  63  87
ATOM     87  C   UNL     1       1.793 -16.602  -5.893  1.00  0.00     0.023 A 
ATOM     88  C   UNL     1       2.266 -17.133  -7.103  1.00  0.00     0.031 A 
ATOM     89  C   UNL     1       2.727 -16.041  -5.006  1.00  0.00     0.131 A 
ATOM     90  C   UNL     1       3.642 -17.129  -7.377  1.00  0.00     0.055 A 
ATOM     91  C   UNL     1       4.091 -16.002  -5.301  1.00  0.00     0.041 A 
ATOM     92  F   UNL     1       2.323 -15.511  -3.840  1.00  0.00    -0.206 F 
ATOM     93  C   UNL     1       4.557 -16.558  -6.489  1.00  0.00     0.022 A 
BRANCH  90  94
ATOM     94  S   UNL     1       4.228 -17.941  -8.889  1.00  0.00     0.124 S 
ATOM     95  O   UNL     1       3.738 -19.302  -8.706  1.00  0.00    -0.237 OA
ATOM     96  O   UNL     1       3.571 -17.156  -9.928  1.00  0.00    -0.237 OA
ATOM     97  O   UNL     1       5.680 -17.785  -8.818  1.00  0.00    -0.744 OA
ENDBRANCH  90  94
ENDBRANCH  63  87
BRANCH  75  98
ATOM     98  C   UNL     1      -2.560 -21.843  -4.442  1.00  0.00     0.023 A 
ATOM     99  C   UNL     1      -1.773 -22.501  -3.482  1.00  0.00     0.031 A 
ATOM    100  C   UNL     1      -3.184 -22.616  -5.437  1.00  0.00     0.131 A 
ATOM    101  C   UNL     1      -1.594 -23.890  -3.563  1.00  0.00     0.055 A 
ATOM    102  C   UNL     1      -3.040 -24.003  -5.484  1.00  0.00     0.041 A 
ATOM    103  F   UNL     1      -3.945 -22.034  -6.376  1.00  0.00    -0.206 F 
ATOM    104  C   UNL     1      -2.233 -24.646  -4.549  1.00  0.00     0.022 A 
BRANCH 101 105
ATOM    105  S   UNL     1      -0.461 -24.692  -2.396  1.00  0.00     0.124 S 
ATOM    106  O   UNL     1       0.809 -24.048  -2.714  1.00  0.00    -0.237 OA
ATOM    107  O   UNL     1      -1.045 -24.347  -1.104  1.00  0.00    -0.237 OA
ATOM    108  O   UNL     1      -0.545 -26.107  -2.753  1.00  0.00    -0.744 OA
ENDBRANCH 101 105
ENDBRANCH  75  98
ENDBRANCH  49  50
ENDBRANCH  41  44
ENDBRANCH  39  40
ENDBRANCH  38  39
ENDBRANCH   1  38
TORSDOF 20
