REMARK SMILES O=C(NCCCCNC(=O)[C@@H]1CCCC[C@H]1C(=O)Nc1sc2c(c1C(=O)NC1CCCC1)CCC2)c1ccc(-c2c3nc(c(-c4cc(S(=O)(=O)[O-])ccc4F)c4ccc([nH]4)c(-c4cc(S(=O)(=O)[O-])ccc4F)c4nc(c(-c5cc(S(=O)(=O)[O-])ccc5F)c5ccc2[nH]5)C=C4)C=C3)cc1
REMARK SMILES IDX 6 1 5 2 4 3 3 4 1 5 2 6 36 8 37 9 98 10 38 11 97 12 39 13
REMARK SMILES IDX 40 14 41 15 91 16 42 17 96 18 90 19 92 20 43 21 95 22 89 23
REMARK SMILES IDX 88 24 44 26 76 27 56 28 75 29 57 30 60 31 74 32 93 33 58 34
REMARK SMILES IDX 59 35 73 37 94 38 61 39 45 40 46 41 54 42 47 43 53 44 55 45
REMARK SMILES IDX 52 46 48 47 49 48 50 49 51 50 77 51 78 52 86 53 79 54 85 55
REMARK SMILES IDX 87 56 84 57 80 58 81 59 82 60 83 61 62 62 63 63 71 64 64 65
REMARK SMILES IDX 70 66 72 67 69 68 65 69 66 70 67 71 68 72 7 73 8 74 9 75
REMARK SMILES IDX 10 77 11 78 12 79 16 80 13 81 15 82 14 83 17 84 18 85 19 86
REMARK SMILES IDX 20 88 21 89 24 90 22 91 23 92 35 93 33 94 34 95 25 96 26 97
REMARK SMILES IDX 27 98 28 100 29 101 32 102 30 103 31 104
REMARK H PARENT 3 7 92 25 60 36 8 76 19 87 27 99
REMARK Flexibility Score: inf
ROOT
ATOM      1  C   UNL     1       4.614   1.407  -2.836  1.00  0.00     0.023 C 
ENDROOT
BRANCH   1   2
ATOM      2  C   UNL     1       5.150   0.359  -1.857  1.00  0.00     0.023 C 
BRANCH   2   3
ATOM      3  C   UNL     1       4.800   0.612  -0.388  1.00  0.00     0.116 C 
BRANCH   3   4
ATOM      4  N   UNL     1       3.397   0.879  -0.146  1.00  0.00    -0.352 N 
ATOM      5  O   UNL     1       1.291   0.711   0.481  1.00  0.00    -0.269 OA
ATOM      6  C   UNL     1       2.310   0.102   0.141  1.00  0.00     0.251 C 
ATOM      7  H   UNL     1       3.176   1.837  -0.202  1.00  0.00     0.163 HD
BRANCH   6   8
ATOM      8  C   UNL     1       2.261  -1.379   0.016  1.00  0.00     0.039 A 
ATOM      9  C   UNL     1       3.336  -2.202  -0.319  1.00  0.00     0.014 A 
ATOM     10  C   UNL     1       0.994  -1.968   0.193  1.00  0.00     0.014 A 
ATOM     11  C   UNL     1       3.138  -3.555  -0.565  1.00  0.00     0.010 A 
ATOM     12  C   UNL     1       0.791  -3.323  -0.037  1.00  0.00     0.010 A 
ATOM     13  C   UNL     1       1.860  -4.108  -0.454  1.00  0.00    -0.014 A 
BRANCH  13  14
ATOM     14  C   UNL     1       1.734  -5.559  -0.565  1.00  0.00     0.031 A 
ATOM     15  C   UNL     1       2.480  -6.288   0.503  1.00  0.00     0.074 A 
ATOM     16  C   UNL     1       0.924  -6.184  -1.446  1.00  0.00     0.049 A 
ATOM     17  N   UNL     1       3.475  -7.101   0.367  1.00  0.00    -0.248 NA
ATOM     18  C   UNL     1       2.202  -5.927   1.905  1.00  0.00     0.031 C 
ATOM     19  C   UNL     1      -0.032  -5.578  -2.373  1.00  0.00     0.029 A 
ATOM     20  N   UNL     1       0.714  -7.519  -1.631  1.00  0.00    -0.354 N 
ATOM     21  C   UNL     1       3.794  -7.538   1.651  1.00  0.00     0.074 A 
ATOM     22  C   UNL     1       3.123  -6.642   2.550  1.00  0.00     0.031 C 
ATOM     23  C   UNL     1      -0.874  -6.531  -2.837  1.00  0.00     0.029 A 
ATOM     24  C   UNL     1      -0.445  -7.831  -2.342  1.00  0.00     0.049 A 
ATOM     25  H   UNL     1       1.331  -8.207  -1.290  1.00  0.00     0.167 HD
ATOM     26  C   UNL     1       4.383  -8.750   1.856  1.00  0.00     0.034 A 
ATOM     27  C   UNL     1      -1.042  -9.052  -2.464  1.00  0.00     0.034 A 
ATOM     28  C   UNL     1       5.028  -9.215   0.647  1.00  0.00     0.049 A 
ATOM     29  C   UNL     1       0.000 -10.067  -2.165  1.00  0.00     0.074 A 
ATOM     30  C   UNL     1       6.029  -8.717  -0.166  1.00  0.00     0.029 A 
ATOM     31  N   UNL     1       4.392 -10.177  -0.107  1.00  0.00    -0.354 N 
ATOM     32  N   UNL     1       1.049 -10.253  -2.920  1.00  0.00    -0.248 NA
ATOM     33  C   UNL     1       0.146 -10.505  -0.784  1.00  0.00     0.031 C 
ATOM     34  C   UNL     1       5.603  -9.017  -1.494  1.00  0.00     0.029 A 
ATOM     35  C   UNL     1       4.423  -9.758  -1.414  1.00  0.00     0.049 A 
ATOM     36  H   UNL     1       3.990 -11.010   0.229  1.00  0.00     0.167 HD
ATOM     37  C   UNL     1       2.104 -10.404  -2.034  1.00  0.00     0.074 A 
ATOM     38  C   UNL     1       1.475 -10.635  -0.732  1.00  0.00     0.031 C 
ATOM     39  C   UNL     1       3.378 -10.046  -2.377  1.00  0.00     0.034 A 
BRANCH  26  40
ATOM     40  C   UNL     1       4.008  -9.695   2.986  1.00  0.00     0.023 A 
ATOM     41  C   UNL     1       4.564 -10.988   2.932  1.00  0.00     0.031 A 
ATOM     42  C   UNL     1       2.930  -9.536   3.885  1.00  0.00     0.131 A 
ATOM     43  C   UNL     1       3.951 -12.068   3.587  1.00  0.00     0.055 A 
ATOM     44  C   UNL     1       2.363 -10.604   4.588  1.00  0.00     0.041 A 
ATOM     45  F   UNL     1       2.310  -8.370   4.088  1.00  0.00    -0.206 F 
ATOM     46  C   UNL     1       2.842 -11.888   4.405  1.00  0.00     0.022 A 
BRANCH  43  47
ATOM     47  S   UNL     1       4.503 -13.739   3.165  1.00  0.00     0.124 S 
ATOM     48  O   UNL     1       4.404 -13.715   1.709  1.00  0.00    -0.237 OA
ATOM     49  O   UNL     1       5.853 -13.755   3.719  1.00  0.00    -0.237 OA
ATOM     50  O   UNL     1       3.537 -14.597   3.846  1.00  0.00    -0.744 OA
ENDBRANCH  43  47
ENDBRANCH  26  40
BRANCH  27  51
ATOM     51  C   UNL     1      -2.509  -9.353  -2.443  1.00  0.00     0.023 A 
ATOM     52  C   UNL     1      -3.075 -10.567  -2.903  1.00  0.00     0.031 A 
ATOM     53  C   UNL     1      -3.371  -8.499  -1.717  1.00  0.00     0.131 A 
ATOM     54  C   UNL     1      -4.437 -10.871  -2.638  1.00  0.00     0.055 A 
ATOM     55  C   UNL     1      -4.709  -8.805  -1.457  1.00  0.00     0.041 A 
ATOM     56  F   UNL     1      -2.918  -7.368  -1.155  1.00  0.00    -0.206 F 
ATOM     57  C   UNL     1      -5.247  -9.997  -1.910  1.00  0.00     0.022 A 
BRANCH  54  58
ATOM     58  S   UNL     1      -5.179 -12.454  -3.175  1.00  0.00     0.124 S 
ATOM     59  O   UNL     1      -5.165 -12.329  -4.628  1.00  0.00    -0.237 OA
ATOM     60  O   UNL     1      -4.274 -13.441  -2.599  1.00  0.00    -0.237 OA
ATOM     61  O   UNL     1      -6.514 -12.429  -2.574  1.00  0.00    -0.744 OA
ENDBRANCH  54  58
ENDBRANCH  27  51
BRANCH  39  62
ATOM     62  C   UNL     1       3.682  -9.740  -3.830  1.00  0.00     0.023 A 
ATOM     63  C   UNL     1       3.042  -8.746  -4.607  1.00  0.00     0.031 A 
ATOM     64  C   UNL     1       4.766 -10.422  -4.410  1.00  0.00     0.131 A 
ATOM     65  C   UNL     1       3.493  -8.478  -5.917  1.00  0.00     0.055 A 
ATOM     66  C   UNL     1       5.223 -10.138  -5.694  1.00  0.00     0.041 A 
ATOM     67  F   UNL     1       5.431 -11.360  -3.714  1.00  0.00    -0.206 F 
ATOM     68  C   UNL     1       4.584  -9.168  -6.456  1.00  0.00     0.022 A 
BRANCH  65  69
ATOM     69  S   UNL     1       2.659  -7.237  -6.960  1.00  0.00     0.124 S 
ATOM     70  O   UNL     1       1.246  -7.569  -6.825  1.00  0.00    -0.237 OA
ATOM     71  O   UNL     1       3.083  -5.978  -6.353  1.00  0.00    -0.237 OA
ATOM     72  O   UNL     1       3.217  -7.483  -8.292  1.00  0.00    -0.744 OA
ENDBRANCH  65  69
ENDBRANCH  39  62
ENDBRANCH  13  14
ENDBRANCH   6   8
ENDBRANCH   3   4
ENDBRANCH   2   3
ENDBRANCH   1   2
BRANCH   1  73
ATOM     73  C   UNL     1       4.901   2.856  -2.447  1.00  0.00     0.116 C 
BRANCH  73  74
ATOM     74  N   UNL     1       6.257   3.255  -2.770  1.00  0.00    -0.356 N 
ATOM     75  C   UNL     1       6.789   4.284  -3.465  1.00  0.00     0.223 C 
ATOM     76  H   UNL     1       6.936   2.643  -2.404  1.00  0.00     0.163 HD
ATOM     77  O   UNL     1       8.019   4.418  -3.374  1.00  0.00    -0.275 OA
BRANCH  75  78
ATOM     78  C   UNL     1       6.002   5.344  -4.243  1.00  0.00     0.091 C 
ATOM     79  C   UNL     1       5.999   6.650  -3.429  1.00  0.00     0.014 C 
ATOM     80  C   UNL     1       4.626   5.049  -4.837  1.00  0.00     0.091 C 
ATOM     81  C   UNL     1       5.406   7.827  -4.202  1.00  0.00     0.001 C 
ATOM     82  C   UNL     1       4.086   6.226  -5.655  1.00  0.00     0.014 C 
ATOM     83  C   UNL     1       4.047   7.499  -4.808  1.00  0.00     0.001 C 
BRANCH  80  84
ATOM     84  C   UNL     1       4.503   3.714  -5.571  1.00  0.00     0.228 C 
ATOM     85  O   UNL     1       3.515   3.002  -5.365  1.00  0.00    -0.274 OA
ATOM     86  N   UNL     1       5.469   3.256  -6.424  1.00  0.00    -0.317 N 
ATOM     87  H   UNL     1       5.807   2.339  -6.307  1.00  0.00     0.170 HD
BRANCH  86  88
ATOM     88  C   UNL     1       5.990   4.028  -7.445  1.00  0.00     0.108 A 
ATOM     89  S   UNL     1       4.887   4.324  -8.728  1.00  0.00    -0.122 S 
ATOM     90  C   UNL     1       7.287   4.490  -7.685  1.00  0.00     0.078 A 
ATOM     91  C   UNL     1       6.070   5.150  -9.553  1.00  0.00     0.011 A 
ATOM     92  C   UNL     1       7.321   5.061  -8.994  1.00  0.00    -0.019 A 
ATOM     93  C   UNL     1       6.001   5.980 -10.779  1.00  0.00     0.047 C 
ATOM     94  C   UNL     1       8.305   5.728  -9.900  1.00  0.00     0.038 C 
ATOM     95  C   UNL     1       7.370   6.716 -10.680  1.00  0.00     0.010 C 
BRANCH  90  96
ATOM     96  C   UNL     1       8.355   4.312  -6.704  1.00  0.00     0.254 C 
ATOM     97  O   UNL     1       8.650   3.202  -6.288  1.00  0.00    -0.269 OA
ATOM     98  N   UNL     1       8.949   5.409  -6.107  1.00  0.00    -0.349 N 
ATOM     99  H   UNL     1       9.337   5.202  -5.226  1.00  0.00     0.164 HD
BRANCH  98 100
ATOM    100  C   UNL     1       9.128   6.800  -6.492  1.00  0.00     0.082 C 
ATOM    101  C   UNL     1       7.933   7.527  -7.078  1.00  0.00     0.025 C 
ATOM    102  C   UNL     1       9.453   7.717  -5.303  1.00  0.00     0.025 C 
ATOM    103  C   UNL     1       8.278   9.002  -7.003  1.00  0.00     0.002 C 
ATOM    104  C   UNL     1       9.250   9.135  -5.841  1.00  0.00     0.002 C 
ENDBRANCH  98 100
ENDBRANCH  90  96
ENDBRANCH  86  88
ENDBRANCH  80  84
ENDBRANCH  75  78
ENDBRANCH  73  74
ENDBRANCH   1  73
TORSDOF 18
