REMARK SMILES CC[N@@H+](C[C@@H](C)C(=O)NCCCCNC(=O)c1ccc(-c2c3nc(c(-c4cc(S(=O)(=O)[O-])ccc4F)c4ccc([nH]4)c(-c4cc(S(=O)(=O)[O-])ccc4F)c4nc(c(-c5cc(S(=O)(=O)[O-])ccc5F)c5ccc2[nH]5)C=C4)C=C3)cc1)[C@@H](C)c1ccoc1
REMARK SMILES IDX 11 1 10 2 9 3 7 4 8 5 5 7 6 8 4 9 3 10 2 12 1 13 80 14 81 15
REMARK SMILES IDX 82 16 83 17 86 18 84 19 85 20 12 21 13 22 14 23 15 24 16 26
REMARK SMILES IDX 17 27 18 28 79 29 19 30 78 31 20 32 21 33 22 34 72 35 23 36
REMARK SMILES IDX 77 37 71 38 73 39 24 40 76 41 70 42 69 43 25 45 57 46 37 47
REMARK SMILES IDX 56 48 38 49 41 50 55 51 74 52 39 53 40 54 54 56 75 57 42 58
REMARK SMILES IDX 26 59 27 60 35 61 28 62 34 63 36 64 33 65 29 66 30 67 31 68
REMARK SMILES IDX 32 69 58 70 59 71 67 72 60 73 66 74 68 75 65 76 61 77 62 78
REMARK SMILES IDX 63 79 64 80 43 81 44 82 52 83 45 84 51 85 53 86 50 87 46 88
REMARK SMILES IDX 47 89 48 90 49 91
REMARK H PARENT 9 6 3 11 14 25 73 44 41 55
REMARK Flexibility Score: inf
ROOT
ATOM      1  C   UNL     1       0.789  -6.808   2.417  1.00  0.00     0.023 C 
ENDROOT
BRANCH   1   2
ATOM      2  C   UNL     1       1.550  -6.545   1.124  1.00  0.00     0.116 C 
BRANCH   2   3
ATOM      3  N   UNL     1       0.648  -6.473  -0.010  1.00  0.00    -0.356 N 
ATOM      4  C   UNL     1       0.468  -5.488  -0.929  1.00  0.00     0.228 C 
ATOM      5  O   UNL     1      -0.399  -5.651  -1.792  1.00  0.00    -0.275 OA
ATOM      6  H   UNL     1       0.075  -7.264  -0.134  1.00  0.00     0.163 HD
BRANCH   4   7
ATOM      7  C   UNL     1       1.325  -4.226  -0.926  1.00  0.00     0.130 C 
ATOM      8  C   UNL     1       2.780  -4.611  -1.217  1.00  0.00     0.024 C 
BRANCH   7   9
ATOM      9  C   UNL     1       1.026  -3.346   0.323  1.00  0.00     0.275 C 
BRANCH   9  10
ATOM     10  N   UNL     1       1.249  -1.869   0.241  1.00  0.00    -0.328 N 
ATOM     11  H   UNL     1       0.992  -1.400   1.110  1.00  0.00     0.348 HD
BRANCH  10  12
ATOM     12  C   UNL     1       0.334  -1.291  -0.758  1.00  0.00     0.259 C 
ATOM     13  C   UNL     1       0.122   0.212  -0.688  1.00  0.00     0.071 C 
ENDBRANCH  10  12
BRANCH  10  14
ATOM     14  C   UNL     1       2.686  -1.534   0.157  1.00  0.00     0.215 C 
ATOM     15  C   UNL     1       3.238  -1.180  -1.229  1.00  0.00     0.081 C 
BRANCH  14  16
ATOM     16  C   UNL     1       3.115  -0.506   1.183  1.00  0.00     0.047 A 
ATOM     17  C   UNL     1       2.662   0.823   1.422  1.00  0.00     0.052 A 
ATOM     18  C   UNL     1       4.186  -0.661   2.052  1.00  0.00     0.204 A 
ATOM     19  C   UNL     1       3.499   1.375   2.363  1.00  0.00     0.195 A 
ATOM     20  O   UNL     1       4.427   0.472   2.756  1.00  0.00    -0.472 OA
ENDBRANCH  14  16
ENDBRANCH  10  14
ENDBRANCH   9  10
ENDBRANCH   7   9
ENDBRANCH   4   7
ENDBRANCH   2   3
ENDBRANCH   1   2
BRANCH   1  21
ATOM     21  C   UNL     1       0.283  -8.243   2.553  1.00  0.00     0.023 C 
BRANCH  21  22
ATOM     22  C   UNL     1       1.359  -9.316   2.421  1.00  0.00     0.116 C 
BRANCH  22  23
ATOM     23  N   UNL     1       2.461  -9.132   3.354  1.00  0.00    -0.352 N 
ATOM     24  C   UNL     1       3.140 -10.098   4.060  1.00  0.00     0.251 C 
ATOM     25  H   UNL     1       2.757  -8.203   3.497  1.00  0.00     0.163 HD
ATOM     26  O   UNL     1       3.962  -9.789   4.909  1.00  0.00    -0.269 OA
BRANCH  24  27
ATOM     27  C   UNL     1       2.820 -11.512   3.784  1.00  0.00     0.039 A 
ATOM     28  C   UNL     1       2.416 -12.335   4.836  1.00  0.00     0.014 A 
ATOM     29  C   UNL     1       2.838 -11.984   2.469  1.00  0.00     0.014 A 
ATOM     30  C   UNL     1       1.967 -13.627   4.558  1.00  0.00     0.010 A 
ATOM     31  C   UNL     1       2.323 -13.244   2.189  1.00  0.00     0.010 A 
ATOM     32  C   UNL     1       1.886 -14.079   3.231  1.00  0.00    -0.014 A 
BRANCH  32  33
ATOM     33  C   UNL     1       1.380 -15.434   2.900  1.00  0.00     0.031 A 
ATOM     34  C   UNL     1       2.307 -16.427   2.254  1.00  0.00     0.074 A 
ATOM     35  C   UNL     1       0.085 -15.742   3.106  1.00  0.00     0.049 A 
ATOM     36  N   UNL     1       2.044 -17.610   1.764  1.00  0.00    -0.248 NA
ATOM     37  C   UNL     1       3.710 -16.011   2.107  1.00  0.00     0.031 C 
ATOM     38  C   UNL     1      -0.915 -14.848   3.696  1.00  0.00     0.029 A 
ATOM     39  N   UNL     1      -0.619 -16.886   2.826  1.00  0.00    -0.354 N 
ATOM     40  C   UNL     1       3.243 -18.071   1.231  1.00  0.00     0.074 A 
ATOM     41  C   UNL     1       4.214 -17.011   1.402  1.00  0.00     0.031 C 
ATOM     42  C   UNL     1      -2.096 -15.485   3.751  1.00  0.00     0.029 A 
ATOM     43  C   UNL     1      -1.953 -16.811   3.157  1.00  0.00     0.049 A 
ATOM     44  H   UNL     1      -0.208 -17.686   2.427  1.00  0.00     0.167 HD
ATOM     45  C   UNL     1       3.514 -19.276   0.672  1.00  0.00     0.034 A 
ATOM     46  C   UNL     1      -2.948 -17.705   2.986  1.00  0.00     0.034 A 
ATOM     47  C   UNL     1       2.537 -20.326   0.530  1.00  0.00     0.049 A 
ATOM     48  C   UNL     1      -2.627 -19.035   2.348  1.00  0.00     0.074 A 
ATOM     49  C   UNL     1       2.708 -21.602   0.022  1.00  0.00     0.029 A 
ATOM     50  N   UNL     1       1.201 -20.222   0.898  1.00  0.00    -0.354 N 
ATOM     51  N   UNL     1      -1.480 -19.471   1.879  1.00  0.00    -0.248 NA
ATOM     52  C   UNL     1      -3.731 -19.997   2.228  1.00  0.00     0.031 C 
ATOM     53  C   UNL     1       1.466 -22.246   0.026  1.00  0.00     0.029 A 
ATOM     54  C   UNL     1       0.534 -21.402   0.608  1.00  0.00     0.049 A 
ATOM     55  H   UNL     1       0.788 -19.426   1.305  1.00  0.00     0.167 HD
ATOM     56  C   UNL     1      -1.718 -20.773   1.447  1.00  0.00     0.074 A 
ATOM     57  C   UNL     1      -3.114 -21.051   1.714  1.00  0.00     0.031 C 
ATOM     58  C   UNL     1      -0.858 -21.662   0.889  1.00  0.00     0.034 A 
BRANCH  45  59
ATOM     59  C   UNL     1       4.916 -19.501   0.157  1.00  0.00     0.023 A 
ATOM     60  C   UNL     1       6.031 -19.470   1.013  1.00  0.00     0.031 A 
ATOM     61  C   UNL     1       5.147 -19.709  -1.214  1.00  0.00     0.131 A 
ATOM     62  C   UNL     1       7.326 -19.556   0.482  1.00  0.00     0.055 A 
ATOM     63  C   UNL     1       6.434 -19.884  -1.726  1.00  0.00     0.041 A 
ATOM     64  F   UNL     1       4.125 -19.727  -2.085  1.00  0.00    -0.206 F 
ATOM     65  C   UNL     1       7.535 -19.790  -0.879  1.00  0.00     0.022 A 
BRANCH  62  66
ATOM     66  S   UNL     1       8.732 -19.202   1.571  1.00  0.00     0.124 S 
ATOM     67  O   UNL     1       8.438 -17.835   1.994  1.00  0.00    -0.237 OA
ATOM     68  O   UNL     1       8.603 -20.230   2.598  1.00  0.00    -0.237 OA
ATOM     69  O   UNL     1       9.890 -19.339   0.691  1.00  0.00    -0.744 OA
ENDBRANCH  62  66
ENDBRANCH  45  59
BRANCH  46  70
ATOM     70  C   UNL     1      -4.339 -17.382   3.414  1.00  0.00     0.023 A 
ATOM     71  C   UNL     1      -4.965 -18.108   4.440  1.00  0.00     0.031 A 
ATOM     72  C   UNL     1      -5.080 -16.373   2.775  1.00  0.00     0.131 A 
ATOM     73  C   UNL     1      -6.307 -17.849   4.763  1.00  0.00     0.055 A 
ATOM     74  C   UNL     1      -6.398 -16.083   3.136  1.00  0.00     0.041 A 
ATOM     75  F   UNL     1      -4.528 -15.644   1.792  1.00  0.00    -0.206 F 
ATOM     76  C   UNL     1      -7.023 -16.834   4.126  1.00  0.00     0.022 A 
BRANCH  73  77
ATOM     77  S   UNL     1      -7.131 -18.923   5.970  1.00  0.00     0.124 S 
ATOM     78  O   UNL     1      -6.970 -20.237   5.357  1.00  0.00    -0.237 OA
ATOM     79  O   UNL     1      -6.349 -18.677   7.177  1.00  0.00    -0.237 OA
ATOM     80  O   UNL     1      -8.500 -18.412   6.001  1.00  0.00    -0.744 OA
ENDBRANCH  73  77
ENDBRANCH  46  70
BRANCH  58  81
ATOM     81  C   UNL     1      -1.388 -23.044   0.597  1.00  0.00     0.023 A 
ATOM     82  C   UNL     1      -2.343 -23.279  -0.407  1.00  0.00     0.031 A 
ATOM     83  C   UNL     1      -0.915 -24.144   1.335  1.00  0.00     0.131 A 
ATOM     84  C   UNL     1      -2.828 -24.580  -0.616  1.00  0.00     0.055 A 
ATOM     85  C   UNL     1      -1.360 -25.442   1.086  1.00  0.00     0.041 A 
ATOM     86  F   UNL     1      -0.004 -23.974   2.306  1.00  0.00    -0.206 F 
ATOM     87  C   UNL     1      -2.330 -25.664   0.113  1.00  0.00     0.022 A 
BRANCH  84  88
ATOM     88  S   UNL     1      -4.174 -24.829  -1.805  1.00  0.00     0.124 S 
ATOM     89  O   UNL     1      -5.229 -23.987  -1.250  1.00  0.00    -0.237 OA
ATOM     90  O   UNL     1      -3.578 -24.363  -3.054  1.00  0.00    -0.237 OA
ATOM     91  O   UNL     1      -4.429 -26.267  -1.740  1.00  0.00    -0.744 OA
ENDBRANCH  84  88
ENDBRANCH  58  81
ENDBRANCH  32  33
ENDBRANCH  24  27
ENDBRANCH  22  23
ENDBRANCH  21  22
ENDBRANCH   1  21
TORSDOF 19
