REMARK SMILES CC[C@@H]1CCCN1C(=O)N1CC[C@@H](C(=O)NCCCCNC(=O)c2ccc(-c3c4nc(c(-c5cc(S(=O)(=O)[O-])ccc5F)c5ccc([nH]5)c(-c5cc(S(=O)(=O)[O-])ccc5F)c5nc(c(-c6cc(S(=O)(=O)[O-])ccc6F)c6ccc3[nH]6)C=C5)C=C4)cc2)[C@@H]1C
REMARK SMILES IDX 18 1 17 2 16 3 14 4 15 5 13 7 10 8 11 9 87 10 12 11 88 12
REMARK SMILES IDX 8 13 9 14 7 15 3 16 4 17 5 18 6 19 2 20 1 21 19 22 20 23
REMARK SMILES IDX 21 24 22 25 23 27 24 28 25 29 86 30 26 31 85 32 27 33 28 34
REMARK SMILES IDX 29 35 79 36 30 37 84 38 78 39 80 40 31 41 83 42 77 43 76 44
REMARK SMILES IDX 32 46 64 47 44 48 63 49 45 50 48 51 62 52 81 53 46 54 47 55
REMARK SMILES IDX 61 57 82 58 49 59 33 60 34 61 42 62 35 63 41 64 43 65 40 66
REMARK SMILES IDX 36 67 37 68 38 69 39 70 65 71 66 72 74 73 67 74 73 75 75 76
REMARK SMILES IDX 72 77 68 78 69 79 70 80 71 81 50 82 51 83 59 84 52 85 58 86
REMARK SMILES IDX 60 87 57 88 53 89 54 90 55 91 56 92
REMARK H PARENT 16 6 21 26 80 45 48 56
REMARK Flexibility Score: inf
ROOT
ATOM      1  C   UNL     1       2.938   1.664   4.263  1.00  0.00     0.023 C 
ENDROOT
BRANCH   1   2
ATOM      2  C   UNL     1       2.459   1.994   2.857  1.00  0.00     0.116 C 
BRANCH   2   3
ATOM      3  N   UNL     1       3.083   3.161   2.269  1.00  0.00    -0.356 N 
ATOM      4  C   UNL     1       3.278   3.480   0.959  1.00  0.00     0.225 C 
ATOM      5  O   UNL     1       3.808   4.569   0.715  1.00  0.00    -0.275 OA
ATOM      6  H   UNL     1       3.417   3.825   2.914  1.00  0.00     0.163 HD
BRANCH   4   7
ATOM      7  C   UNL     1       2.850   2.582  -0.198  1.00  0.00     0.102 C 
ATOM      8  N   UNL     1       2.359   0.238  -0.314  1.00  0.00    -0.321 N 
ATOM      9  C   UNL     1       1.131   0.908   0.060  1.00  0.00     0.122 C 
ATOM     10  C   UNL     1       3.481   1.183  -0.205  1.00  0.00     0.096 C 
ATOM     11  C   UNL     1       1.340   2.365  -0.289  1.00  0.00     0.037 C 
ATOM     12  C   UNL     1       4.480   0.985  -1.341  1.00  0.00     0.032 C 
BRANCH   8  13
ATOM     13  C   UNL     1       2.555  -1.067   0.070  1.00  0.00     0.320 C 
ATOM     14  O   UNL     1       3.435  -1.342   0.890  1.00  0.00    -0.248 OA
BRANCH  13  15
ATOM     15  N   UNL     1       1.725  -2.041  -0.446  1.00  0.00    -0.322 N 
ATOM     16  C   UNL     1       1.132  -2.180  -1.789  1.00  0.00     0.086 C 
ATOM     17  C   UNL     1       0.314  -3.473  -1.653  1.00  0.00     0.027 C 
ATOM     18  C   UNL     1       1.231  -4.352  -0.822  1.00  0.00     0.024 C 
ATOM     19  C   UNL     1       1.873  -3.371   0.147  1.00  0.00     0.122 C 
BRANCH  16  20
ATOM     20  C   UNL     1       0.346  -1.057  -2.474  1.00  0.00     0.022 C 
ATOM     21  C   UNL     1      -1.056  -0.767  -1.948  1.00  0.00     0.006 C 
ENDBRANCH  16  20
ENDBRANCH  13  15
ENDBRANCH   8  13
ENDBRANCH   4   7
ENDBRANCH   2   3
ENDBRANCH   1   2
BRANCH   1  22
ATOM     22  C   UNL     1       2.386   2.554   5.369  1.00  0.00     0.023 C 
BRANCH  22  23
ATOM     23  C   UNL     1       0.869   2.704   5.393  1.00  0.00     0.116 C 
BRANCH  23  24
ATOM     24  N   UNL     1       0.152   1.444   5.556  1.00  0.00    -0.352 N 
ATOM     25  C   UNL     1      -0.688   1.041   6.579  1.00  0.00     0.251 C 
ATOM     26  H   UNL     1       0.285   0.786   4.836  1.00  0.00     0.163 HD
ATOM     27  O   UNL     1      -1.153  -0.081   6.601  1.00  0.00    -0.269 OA
BRANCH  25  28
ATOM     28  C   UNL     1      -0.959   1.998   7.674  1.00  0.00     0.039 A 
ATOM     29  C   UNL     1      -0.624   1.645   8.982  1.00  0.00     0.014 A 
ATOM     30  C   UNL     1      -1.412   3.283   7.375  1.00  0.00     0.014 A 
ATOM     31  C   UNL     1      -0.624   2.626   9.977  1.00  0.00     0.010 A 
ATOM     32  C   UNL     1      -1.317   4.274   8.343  1.00  0.00     0.010 A 
ATOM     33  C   UNL     1      -0.903   3.962   9.650  1.00  0.00    -0.014 A 
BRANCH  33  34
ATOM     34  C   UNL     1      -0.768   5.068  10.637  1.00  0.00     0.031 A 
ATOM     35  C   UNL     1      -1.965   5.922  10.949  1.00  0.00     0.074 A 
ATOM     36  C   UNL     1       0.439   5.378  11.154  1.00  0.00     0.049 A 
ATOM     37  N   UNL     1      -2.032   7.056  11.596  1.00  0.00    -0.248 NA
ATOM     38  C   UNL     1      -3.253   5.455  10.414  1.00  0.00     0.031 C 
ATOM     39  C   UNL     1       1.685   4.648  10.905  1.00  0.00     0.029 A 
ATOM     40  N   UNL     1       0.823   6.408  11.979  1.00  0.00    -0.354 N 
ATOM     41  C   UNL     1      -3.361   7.458  11.513  1.00  0.00     0.074 A 
ATOM     42  C   UNL     1      -4.047   6.475  10.701  1.00  0.00     0.031 C 
ATOM     43  C   UNL     1       2.686   5.242  11.576  1.00  0.00     0.029 A 
ATOM     44  C   UNL     1       2.172   6.427  12.254  1.00  0.00     0.049 A 
ATOM     45  H   UNL     1       0.191   7.070  12.341  1.00  0.00     0.167 HD
ATOM     46  C   UNL     1      -3.958   8.536  12.079  1.00  0.00     0.034 A 
ATOM     47  C   UNL     1       2.914   7.313  12.950  1.00  0.00     0.034 A 
ATOM     48  C   UNL     1      -3.265   9.484  12.913  1.00  0.00     0.049 A 
ATOM     49  C   UNL     1       2.232   8.511  13.565  1.00  0.00     0.074 A 
ATOM     50  C   UNL     1      -3.780  10.580  13.583  1.00  0.00     0.029 A 
ATOM     51  N   UNL     1      -1.905   9.449  13.195  1.00  0.00    -0.354 N 
ATOM     52  N   UNL     1       0.970   8.866  13.498  1.00  0.00    -0.248 NA
ATOM     53  C   UNL     1       3.072   9.426  14.350  1.00  0.00     0.031 C 
ATOM     54  C   UNL     1      -2.724  11.239  14.222  1.00  0.00     0.029 A 
ATOM     55  C   UNL     1      -1.562  10.514  14.012  1.00  0.00     0.049 A 
ATOM     56  H   UNL     1      -1.277   8.767  12.863  1.00  0.00     0.167 HD
ATOM     57  C   UNL     1       0.858  10.021  14.267  1.00  0.00     0.074 A 
ATOM     58  C   UNL     1       2.180  10.305  14.786  1.00  0.00     0.031 C 
ATOM     59  C   UNL     1      -0.240  10.773  14.530  1.00  0.00     0.034 A 
BRANCH  46  60
ATOM     60  C   UNL     1      -5.424   8.746  11.788  1.00  0.00     0.023 A 
ATOM     61  C   UNL     1      -6.395   7.805  12.172  1.00  0.00     0.031 A 
ATOM     62  C   UNL     1      -5.854   9.881  11.077  1.00  0.00     0.131 A 
ATOM     63  C   UNL     1      -7.727   7.967  11.765  1.00  0.00     0.055 A 
ATOM     64  C   UNL     1      -7.197  10.082  10.754  1.00  0.00     0.041 A 
ATOM     65  F   UNL     1      -4.971  10.805  10.665  1.00  0.00    -0.206 F 
ATOM     66  C   UNL     1      -8.140   9.112  11.082  1.00  0.00     0.022 A 
BRANCH  63  67
ATOM     67  S   UNL     1      -8.873   6.582  12.001  1.00  0.00     0.124 S 
ATOM     68  O   UNL     1      -8.222   5.527  11.227  1.00  0.00    -0.237 OA
ATOM     69  O   UNL     1      -8.867   6.409  13.448  1.00  0.00    -0.237 OA
ATOM     70  O   UNL     1     -10.127   7.075  11.435  1.00  0.00    -0.744 OA
ENDBRANCH  63  67
ENDBRANCH  46  60
BRANCH  47  71
ATOM     71  C   UNL     1       4.386   7.121  13.098  1.00  0.00     0.023 A 
ATOM     72  C   UNL     1       4.960   6.883  14.357  1.00  0.00     0.031 A 
ATOM     73  C   UNL     1       5.248   7.218  11.990  1.00  0.00     0.131 A 
ATOM     74  C   UNL     1       6.355   6.797  14.487  1.00  0.00     0.055 A 
ATOM     75  C   UNL     1       6.632   7.080  12.117  1.00  0.00     0.041 A 
ATOM     76  F   UNL     1       4.752   7.440  10.762  1.00  0.00    -0.206 F 
ATOM     77  C   UNL     1       7.194   6.882  13.374  1.00  0.00     0.022 A 
BRANCH  74  78
ATOM     78  S   UNL     1       7.065   6.659  16.151  1.00  0.00     0.124 S 
ATOM     79  O   UNL     1       6.548   7.862  16.795  1.00  0.00    -0.237 OA
ATOM     80  O   UNL     1       6.508   5.393  16.614  1.00  0.00    -0.237 OA
ATOM     81  O   UNL     1       8.506   6.652  15.907  1.00  0.00    -0.744 OA
ENDBRANCH  74  78
ENDBRANCH  47  71
BRANCH  59  82
ATOM     82  C   UNL     1      -0.076  11.930  15.482  1.00  0.00     0.023 A 
ATOM     83  C   UNL     1       0.629  13.093  15.129  1.00  0.00     0.031 A 
ATOM     84  C   UNL     1      -0.671  11.873  16.755  1.00  0.00     0.131 A 
ATOM     85  C   UNL     1       0.749  14.141  16.054  1.00  0.00     0.055 A 
ATOM     86  C   UNL     1      -0.590  12.938  17.652  1.00  0.00     0.041 A 
ATOM     87  F   UNL     1      -1.356  10.784  17.140  1.00  0.00    -0.206 F 
ATOM     88  C   UNL     1       0.129  14.078  17.306  1.00  0.00     0.022 A 
BRANCH  85  89
ATOM     89  S   UNL     1       1.766  15.579  15.620  1.00  0.00     0.124 S 
ATOM     90  O   UNL     1       3.084  14.977  15.449  1.00  0.00    -0.237 OA
ATOM     91  O   UNL     1       1.123  16.063  14.403  1.00  0.00    -0.237 OA
ATOM     92  O   UNL     1       1.632  16.458  16.781  1.00  0.00    -0.744 OA
ENDBRANCH  85  89
ENDBRANCH  59  82
ENDBRANCH  33  34
ENDBRANCH  25  28
ENDBRANCH  23  24
ENDBRANCH  22  23
ENDBRANCH   1  22
TORSDOF 17
