REMARK SMILES COc1ccccc1C(=O)N/C(=C/c1ccc2c(c1)OCO2)C(=O)Nc1ccc(C(=O)NCCCCNC(=O)c2ccc(-c3c4nc(c(-c5cc(S(=O)(=O)[O-])ccc5F)c5ccc([nH]5)c(-c5cc(S(=O)(=O)[O-])ccc5F)c5nc(c(-c6cc(S(=O)(=O)[O-])ccc6F)c6ccc3[nH]6)C=C5)C=C4)cc2)cc1
REMARK SMILES IDX 33 1 32 2 30 3 31 4 29 6 26 7 27 8 104 9 28 10 103 11 25 12
REMARK SMILES IDX 23 13 24 14 12 16 13 17 11 18 9 19 10 20 8 22 3 23 4 24 5 25
REMARK SMILES IDX 7 26 6 27 2 28 1 29 14 30 15 31 19 32 16 33 18 34 17 35
REMARK SMILES IDX 20 36 22 37 21 38 34 39 35 40 36 41 37 42 38 43 39 45 40 46
REMARK SMILES IDX 41 47 102 48 42 49 101 50 43 51 44 52 45 53 95 54 46 55
REMARK SMILES IDX 100 56 94 57 96 58 47 59 99 60 93 61 92 62 48 64 80 65 60 66
REMARK SMILES IDX 79 67 61 68 64 69 78 70 97 71 62 72 63 73 77 75 98 76 65 77
REMARK SMILES IDX 49 78 50 79 58 80 51 81 57 82 59 83 56 84 52 85 53 86 54 87
REMARK SMILES IDX 55 88 81 89 82 90 90 91 83 92 89 93 91 94 88 95 84 96 85 97
REMARK SMILES IDX 86 98 87 99 66 100 67 101 75 102 68 103 74 104 76 105 73 106
REMARK SMILES IDX 69 107 70 108 71 109 72 110
REMARK H PARENT 32 5 25 15 11 21 37 44 96 63 64 74
REMARK Flexibility Score: inf
ROOT
ATOM      1  C   UNL     1      -1.500   3.645   4.265  1.00  0.00     0.116 C 
ENDROOT
BRANCH   1   2
ATOM      2  N   UNL     1      -2.811   3.059   4.458  1.00  0.00    -0.352 N 
ATOM      3  C   UNL     1      -3.557   2.200   3.689  1.00  0.00     0.251 C 
ATOM      4  O   UNL     1      -4.709   1.962   4.052  1.00  0.00    -0.269 OA
ATOM      5  H   UNL     1      -3.249   3.326   5.298  1.00  0.00     0.163 HD
BRANCH   3   6
ATOM      6  C   UNL     1      -2.983   1.442   2.537  1.00  0.00     0.039 A 
ATOM      7  C   UNL     1      -1.587  -0.413   0.946  1.00  0.00     0.041 A 
ATOM      8  C   UNL     1      -2.825  -0.747   1.508  1.00  0.00     0.027 A 
ATOM      9  C   UNL     1      -1.175   0.913   0.996  1.00  0.00     0.027 A 
ATOM     10  C   UNL     1      -3.498   0.159   2.331  1.00  0.00     0.016 A 
ATOM     11  C   UNL     1      -1.908   1.852   1.744  1.00  0.00     0.016 A 
BRANCH   7  12
ATOM     12  N   UNL     1      -0.847  -1.490   0.433  1.00  0.00    -0.321 N 
ATOM     13  C   UNL     1       0.481  -1.802   0.331  1.00  0.00     0.272 C 
ATOM     14  O   UNL     1       0.753  -2.933  -0.093  1.00  0.00    -0.267 OA
ATOM     15  H   UNL     1      -1.425  -2.192   0.055  1.00  0.00     0.170 HD
BRANCH  13  16
ATOM     16  C   UNL     1       1.622  -0.944   0.819  1.00  0.00     0.108 C 
ATOM     17  C   UNL     1       1.733  -0.590   2.121  1.00  0.00     0.040 C 
BRANCH  16  18
ATOM     18  N   UNL     1       2.737  -0.723   0.019  1.00  0.00    -0.317 N 
ATOM     19  C   UNL     1       3.082  -1.038  -1.278  1.00  0.00     0.259 C 
ATOM     20  O   UNL     1       4.253  -0.852  -1.623  1.00  0.00    -0.269 OA
ATOM     21  H   UNL     1       3.446  -0.226   0.489  1.00  0.00     0.170 HD
BRANCH  19  22
ATOM     22  C   UNL     1       2.150  -1.578  -2.287  1.00  0.00     0.082 A 
ATOM     23  C   UNL     1       0.879  -1.058  -2.552  1.00  0.00     0.131 A 
ATOM     24  C   UNL     1       0.011  -1.780  -3.382  1.00  0.00     0.047 A 
ATOM     25  C   UNL     1       0.447  -2.925  -4.053  1.00  0.00     0.004 A 
ATOM     26  C   UNL     1       2.608  -2.689  -3.021  1.00  0.00     0.018 A 
ATOM     27  C   UNL     1       1.762  -3.353  -3.908  1.00  0.00     0.001 A 
BRANCH  23  28
ATOM     28  O   UNL     1       0.337   0.080  -2.020  1.00  0.00    -0.496 OA
ATOM     29  C   UNL     1       1.194   1.219  -1.997  1.00  0.00     0.278 C 
ENDBRANCH  23  28
ENDBRANCH  19  22
ENDBRANCH  16  18
BRANCH  17  30
ATOM     30  C   UNL     1       0.785  -0.910   3.196  1.00  0.00    -0.019 A 
ATOM     31  C   UNL     1       0.292   0.131   4.012  1.00  0.00     0.012 A 
ATOM     32  C   UNL     1       0.282  -2.210   3.334  1.00  0.00     0.058 A 
ATOM     33  C   UNL     1      -0.813  -0.082   4.842  1.00  0.00     0.051 A 
ATOM     34  C   UNL     1      -0.853  -2.366   4.090  1.00  0.00     0.166 A 
ATOM     35  C   UNL     1      -1.401  -1.326   4.804  1.00  0.00     0.165 A 
ATOM     36  O   UNL     1      -1.630  -3.483   4.119  1.00  0.00    -0.454 OA
ATOM     37  O   UNL     1      -2.598  -1.665   5.355  1.00  0.00    -0.454 OA
ATOM     38  C   UNL     1      -2.828  -2.929   4.700  1.00  0.00     0.468 C 
ENDBRANCH  17  30
ENDBRANCH  13  16
ENDBRANCH   7  12
ENDBRANCH   3   6
ENDBRANCH   1   2
BRANCH   1  39
ATOM     39  C   UNL     1      -1.649   5.008   3.593  1.00  0.00     0.023 C 
BRANCH  39  40
ATOM     40  C   UNL     1      -1.942   6.126   4.596  1.00  0.00     0.023 C 
BRANCH  40  41
ATOM     41  C   UNL     1      -0.772   6.456   5.516  1.00  0.00     0.116 C 
BRANCH  41  42
ATOM     42  N   UNL     1       0.398   6.911   4.781  1.00  0.00    -0.352 N 
ATOM     43  C   UNL     1       1.174   8.022   4.984  1.00  0.00     0.251 C 
ATOM     44  H   UNL     1       0.671   6.338   4.029  1.00  0.00     0.163 HD
ATOM     45  O   UNL     1       2.008   8.336   4.134  1.00  0.00    -0.269 OA
BRANCH  43  46
ATOM     46  C   UNL     1       0.989   8.846   6.197  1.00  0.00     0.039 A 
ATOM     47  C   UNL     1       1.021  10.236   6.075  1.00  0.00     0.014 A 
ATOM     48  C   UNL     1       0.785   8.256   7.448  1.00  0.00     0.014 A 
ATOM     49  C   UNL     1       0.800  11.031   7.200  1.00  0.00     0.010 A 
ATOM     50  C   UNL     1       0.471   9.049   8.548  1.00  0.00     0.010 A 
ATOM     51  C   UNL     1       0.489  10.447   8.441  1.00  0.00    -0.014 A 
BRANCH  51  52
ATOM     52  C   UNL     1       0.199  11.297   9.625  1.00  0.00     0.031 A 
ATOM     53  C   UNL     1       1.088  11.244  10.838  1.00  0.00     0.074 A 
ATOM     54  C   UNL     1      -0.877  12.109   9.609  1.00  0.00     0.049 A 
ATOM     55  N   UNL     1       1.013  11.932  11.950  1.00  0.00    -0.248 NA
ATOM     56  C   UNL     1       2.189  10.270  10.812  1.00  0.00     0.031 C 
ATOM     57  C   UNL     1      -1.841  12.209   8.511  1.00  0.00     0.029 A 
ATOM     58  N   UNL     1      -1.335  13.014  10.534  1.00  0.00    -0.354 N 
ATOM     59  C   UNL     1       2.054  11.476  12.751  1.00  0.00     0.074 A 
ATOM     60  C   UNL     1       2.692  10.395  12.030  1.00  0.00     0.031 C 
ATOM     61  C   UNL     1      -2.741  13.161   8.802  1.00  0.00     0.029 A 
ATOM     62  C   UNL     1      -2.451  13.706  10.124  1.00  0.00     0.049 A 
ATOM     63  H   UNL     1      -0.905  13.154  11.408  1.00  0.00     0.167 HD
ATOM     64  C   UNL     1       2.463  11.936  13.960  1.00  0.00     0.034 A 
ATOM     65  C   UNL     1      -3.158  14.673  10.740  1.00  0.00     0.034 A 
ATOM     66  C   UNL     1       1.811  13.014  14.666  1.00  0.00     0.049 A 
ATOM     67  C   UNL     1      -2.705  15.149  12.098  1.00  0.00     0.074 A 
ATOM     68  C   UNL     1       2.158  13.585  15.878  1.00  0.00     0.029 A 
ATOM     69  N   UNL     1       0.670  13.677  14.229  1.00  0.00    -0.354 N 
ATOM     70  N   UNL     1      -1.684  14.745  12.818  1.00  0.00    -0.248 NA
ATOM     71  C   UNL     1      -3.490  16.225  12.714  1.00  0.00     0.031 C 
ATOM     72  C   UNL     1       1.185  14.534  16.211  1.00  0.00     0.029 A 
ATOM     73  C   UNL     1       0.284  14.628  15.163  1.00  0.00     0.049 A 
ATOM     74  H   UNL     1       0.204  13.499  13.381  1.00  0.00     0.167 HD
ATOM     75  C   UNL     1      -1.682  15.549  13.956  1.00  0.00     0.074 A 
ATOM     76  C   UNL     1      -2.793  16.467  13.813  1.00  0.00     0.031 C 
ATOM     77  C   UNL     1      -0.834  15.534  15.018  1.00  0.00     0.034 A 
BRANCH  64  78
ATOM     78  C   UNL     1       3.653  11.254  14.597  1.00  0.00     0.023 A 
ATOM     79  C   UNL     1       4.914  11.235  13.974  1.00  0.00     0.031 A 
ATOM     80  C   UNL     1       3.520  10.582  15.825  1.00  0.00     0.131 A 
ATOM     81  C   UNL     1       5.963  10.488  14.532  1.00  0.00     0.055 A 
ATOM     82  C   UNL     1       4.595   9.919  16.424  1.00  0.00     0.041 A 
ATOM     83  F   UNL     1       2.338  10.541  16.459  1.00  0.00    -0.206 F 
ATOM     84  C   UNL     1       5.821   9.854  15.768  1.00  0.00     0.022 A 
BRANCH  81  85
ATOM     85  S   UNL     1       7.456  10.216  13.538  1.00  0.00     0.124 S 
ATOM     86  O   UNL     1       6.902   9.582  12.343  1.00  0.00    -0.237 OA
ATOM     87  O   UNL     1       7.970  11.569  13.364  1.00  0.00    -0.237 OA
ATOM     88  O   UNL     1       8.271   9.340  14.377  1.00  0.00    -0.744 OA
ENDBRANCH  81  85
ENDBRANCH  64  78
BRANCH  65  89
ATOM     89  C   UNL     1      -4.359  15.268  10.083  1.00  0.00     0.023 A 
ATOM     90  C   UNL     1      -4.397  16.627   9.734  1.00  0.00     0.031 A 
ATOM     91  C   UNL     1      -5.505  14.492   9.831  1.00  0.00     0.131 A 
ATOM     92  C   UNL     1      -5.571  17.181   9.201  1.00  0.00     0.055 A 
ATOM     93  C   UNL     1      -6.649  15.034   9.243  1.00  0.00     0.041 A 
ATOM     94  F   UNL     1      -5.522  13.186  10.141  1.00  0.00    -0.206 F 
ATOM     95  C   UNL     1      -6.691  16.390   8.938  1.00  0.00     0.022 A 
BRANCH  92  96
ATOM     96  S   UNL     1      -5.646  18.975   8.941  1.00  0.00     0.124 S 
ATOM     97  O   UNL     1      -5.382  19.480  10.284  1.00  0.00    -0.237 OA
ATOM     98  O   UNL     1      -4.589  19.183   7.957  1.00  0.00    -0.237 OA
ATOM     99  O   UNL     1      -7.005  19.190   8.448  1.00  0.00    -0.744 OA
ENDBRANCH  92  96
ENDBRANCH  65  89
BRANCH  77 100
ATOM    100  C   UNL     1      -1.047  16.587  16.081  1.00  0.00     0.023 A 
ATOM    101  C   UNL     1      -2.222  16.643  16.852  1.00  0.00     0.031 A 
ATOM    102  C   UNL     1      -0.067  17.572  16.302  1.00  0.00     0.131 A 
ATOM    103  C   UNL     1      -2.421  17.705  17.747  1.00  0.00     0.055 A 
ATOM    104  C   UNL     1      -0.238  18.581  17.251  1.00  0.00     0.041 A 
ATOM    105  F   UNL     1       1.074  17.574  15.595  1.00  0.00    -0.206 F 
ATOM    106  C   UNL     1      -1.428  18.663  17.966  1.00  0.00     0.022 A 
BRANCH 103 107
ATOM    107  S   UNL     1      -4.051  17.894  18.522  1.00  0.00     0.124 S 
ATOM    108  O   UNL     1      -4.933  17.949  17.361  1.00  0.00    -0.237 OA
ATOM    109  O   UNL     1      -4.148  16.691  19.340  1.00  0.00    -0.237 OA
ATOM    110  O   UNL     1      -3.932  19.145  19.269  1.00  0.00    -0.744 OA
ENDBRANCH 103 107
ENDBRANCH  77 100
ENDBRANCH  51  52
ENDBRANCH  43  46
ENDBRANCH  41  42
ENDBRANCH  40  41
ENDBRANCH  39  40
ENDBRANCH   1  39
TORSDOF 20
