REMARK SMILES C[C@@H]([NH3+])CCC(=O)N[C@H]1C=C[C@@H](C(=O)NCCCCNC(=O)c2ccc(-c3c4nc(c(-c5cc(S(=O)(=O)[O-])ccc5F)c5ccc([nH]5)c(-c5cc(S(=O)(=O)[O-])ccc5F)c5nc(c(-c6cc(S(=O)(=O)[O-])ccc6F)c6ccc3[nH]6)C=C5)C=C4)cc2)C1
REMARK SMILES IDX 16 1 15 2 13 3 14 4 12 6 9 7 10 8 86 9 11 10 8 11 6 12 7 13
REMARK SMILES IDX 5 15 4 16 2 17 1 18 3 19 17 23 18 24 19 25 20 26 21 27 22 29
REMARK SMILES IDX 23 30 24 31 85 32 25 33 84 34 26 35 27 36 28 37 78 38 29 39
REMARK SMILES IDX 83 40 77 41 79 42 30 43 82 44 76 45 75 46 31 48 63 49 43 50
REMARK SMILES IDX 62 51 44 52 47 53 61 54 80 55 45 56 46 57 60 59 81 60 48 61
REMARK SMILES IDX 32 62 33 63 41 64 34 65 40 66 42 67 39 68 35 69 36 70 37 71
REMARK SMILES IDX 38 72 64 73 65 74 73 75 66 76 72 77 74 78 71 79 67 80 68 81
REMARK SMILES IDX 69 82 70 83 49 84 50 85 58 86 51 87 57 88 59 89 56 90 52 91
REMARK SMILES IDX 53 92 54 93 55 94
REMARK H PARENT 15 5 8 14 3 20 3 21 3 22 20 28 79 47 47 58
REMARK Flexibility Score: inf
ROOT
ATOM      1  C   UNL     1       1.514   0.781   4.940  1.00  0.00     0.116 C 
ENDROOT
BRANCH   1   2
ATOM      2  N   UNL     1       2.187  -0.493   4.785  1.00  0.00    -0.356 N 
ATOM      3  C   UNL     1       2.891  -0.995   3.734  1.00  0.00     0.227 C 
ATOM      4  O   UNL     1       3.419  -2.103   3.870  1.00  0.00    -0.274 OA
ATOM      5  H   UNL     1       2.123  -1.092   5.564  1.00  0.00     0.163 HD
BRANCH   3   6
ATOM      6  C   UNL     1       3.037  -0.239   2.413  1.00  0.00     0.103 C 
ATOM      7  C   UNL     1       1.804   1.550   1.269  1.00  0.00     0.106 C 
ATOM      8  C   UNL     1       3.061   2.051   1.907  1.00  0.00    -0.006 C 
ATOM      9  C   UNL     1       1.706   0.094   1.735  1.00  0.00     0.047 C 
ATOM     10  C   UNL     1       3.737   1.078   2.528  1.00  0.00    -0.016 C 
BRANCH   7  11
ATOM     11  N   UNL     1       0.709   2.410   1.666  1.00  0.00    -0.350 N 
ATOM     12  C   UNL     1      -0.593   2.445   1.273  1.00  0.00     0.220 C 
ATOM     13  O   UNL     1      -1.265   3.427   1.594  1.00  0.00    -0.275 OA
ATOM     14  H   UNL     1       0.949   3.089   2.339  1.00  0.00     0.164 HD
BRANCH  12  15
ATOM     15  C   UNL     1      -1.215   1.309   0.487  1.00  0.00     0.106 C 
BRANCH  15  16
ATOM     16  C   UNL     1      -1.301   1.574  -1.020  1.00  0.00     0.074 C 
BRANCH  16  17
ATOM     17  C   UNL     1       0.014   1.356  -1.778  1.00  0.00     0.178 C 
ATOM     18  C   UNL     1       0.473  -0.104  -1.779  1.00  0.00     0.075 C 
BRANCH  17  19
ATOM     19  N   UNL     1      -0.109   1.794  -3.169  1.00  0.00    -0.355 N 
ATOM     20  H   UNL     1      -0.810   1.225  -3.644  1.00  0.00     0.344 HD
ATOM     21  H   UNL     1       0.789   1.688  -3.640  1.00  0.00     0.344 HD
ATOM     22  H   UNL     1      -0.393   2.773  -3.193  1.00  0.00     0.344 HD
ENDBRANCH  17  19
ENDBRANCH  16  17
ENDBRANCH  15  16
ENDBRANCH  12  15
ENDBRANCH   7  11
ENDBRANCH   3   6
ENDBRANCH   1   2
BRANCH   1  23
ATOM     23  C   UNL     1      -0.004   0.634   4.991  1.00  0.00     0.023 C 
BRANCH  23  24
ATOM     24  C   UNL     1      -0.535  -0.011   6.269  1.00  0.00     0.023 C 
BRANCH  24  25
ATOM     25  C   UNL     1      -0.034   0.622   7.559  1.00  0.00     0.116 C 
BRANCH  25  26
ATOM     26  N   UNL     1      -0.244   2.062   7.616  1.00  0.00    -0.352 N 
ATOM     27  C   UNL     1      -0.500   2.832   8.725  1.00  0.00     0.251 C 
ATOM     28  H   UNL     1      -0.197   2.541   6.757  1.00  0.00     0.163 HD
ATOM     29  O   UNL     1      -0.747   4.028   8.609  1.00  0.00    -0.269 OA
BRANCH  27  30
ATOM     30  C   UNL     1      -0.521   2.176  10.046  1.00  0.00     0.039 A 
ATOM     31  C   UNL     1      -1.652   2.318  10.850  1.00  0.00     0.014 A 
ATOM     32  C   UNL     1       0.537   1.351  10.439  1.00  0.00     0.014 A 
ATOM     33  C   UNL     1      -1.751   1.575  12.025  1.00  0.00     0.010 A 
ATOM     34  C   UNL     1       0.400   0.553  11.567  1.00  0.00     0.010 A 
ATOM     35  C   UNL     1      -0.745   0.659  12.373  1.00  0.00    -0.014 A 
BRANCH  35  36
ATOM     36  C   UNL     1      -0.870  -0.190  13.584  1.00  0.00     0.031 A 
ATOM     37  C   UNL     1       0.114  -0.035  14.710  1.00  0.00     0.074 A 
ATOM     38  C   UNL     1      -1.828  -1.135  13.638  1.00  0.00     0.049 A 
ATOM     39  N   UNL     1       0.206  -0.707  15.828  1.00  0.00    -0.248 NA
ATOM     40  C   UNL     1       1.155   0.990  14.538  1.00  0.00     0.031 C 
ATOM     41  C   UNL     1      -2.798  -1.419  12.577  1.00  0.00     0.029 A 
ATOM     42  N   UNL     1      -2.142  -2.038  14.622  1.00  0.00    -0.354 N 
ATOM     43  C   UNL     1       1.322  -0.199  16.484  1.00  0.00     0.074 A 
ATOM     44  C   UNL     1       1.912   0.787  15.604  1.00  0.00     0.031 C 
ATOM     45  C   UNL     1      -3.615  -2.406  12.979  1.00  0.00     0.029 A 
ATOM     46  C   UNL     1      -3.206  -2.852  14.307  1.00  0.00     0.049 A 
ATOM     47  H   UNL     1      -1.652  -2.099  15.473  1.00  0.00     0.167 HD
ATOM     48  C   UNL     1       1.794  -0.507  17.718  1.00  0.00     0.034 A 
ATOM     49  C   UNL     1      -3.782  -3.847  15.009  1.00  0.00     0.034 A 
ATOM     50  C   UNL     1       1.179  -1.482  18.585  1.00  0.00     0.049 A 
ATOM     51  C   UNL     1      -3.247  -4.167  16.381  1.00  0.00     0.074 A 
ATOM     52  C   UNL     1       1.525  -1.826  19.879  1.00  0.00     0.029 A 
ATOM     53  N   UNL     1       0.091  -2.277  18.241  1.00  0.00    -0.354 N 
ATOM     54  N   UNL     1      -2.233  -3.628  17.020  1.00  0.00    -0.248 NA
ATOM     55  C   UNL     1      -3.943  -5.218  17.132  1.00  0.00     0.031 C 
ATOM     56  C   UNL     1       0.693  -2.873  20.293  1.00  0.00     0.029 A 
ATOM     57  C   UNL     1      -0.224  -3.132  19.286  1.00  0.00     0.049 A 
ATOM     58  H   UNL     1      -0.385  -2.239  17.381  1.00  0.00     0.167 HD
ATOM     59  C   UNL     1      -2.186  -4.261  18.259  1.00  0.00     0.074 A 
ATOM     60  C   UNL     1      -3.288  -5.202  18.284  1.00  0.00     0.031 C 
ATOM     61  C   UNL     1      -1.314  -4.082  19.284  1.00  0.00     0.034 A 
BRANCH  48  62
ATOM     62  C   UNL     1       3.044   0.205  18.178  1.00  0.00     0.023 A 
ATOM     63  C   UNL     1       3.087   1.603  18.328  1.00  0.00     0.031 A 
ATOM     64  C   UNL     1       4.225  -0.516  18.427  1.00  0.00     0.131 A 
ATOM     65  C   UNL     1       4.300   2.241  18.627  1.00  0.00     0.055 A 
ATOM     66  C   UNL     1       5.409   0.117  18.811  1.00  0.00     0.041 A 
ATOM     67  F   UNL     1       4.255  -1.851  18.280  1.00  0.00    -0.206 F 
ATOM     68  C   UNL     1       5.456   1.506  18.896  1.00  0.00     0.022 A 
BRANCH  65  69
ATOM     69  S   UNL     1       4.381   4.049  18.503  1.00  0.00     0.124 S 
ATOM     70  O   UNL     1       3.998   4.266  17.109  1.00  0.00    -0.237 OA
ATOM     71  O   UNL     1       3.414   4.478  19.505  1.00  0.00    -0.237 OA
ATOM     72  O   UNL     1       5.777   4.352  18.811  1.00  0.00    -0.744 OA
ENDBRANCH  65  69
ENDBRANCH  48  62
BRANCH  49  73
ATOM     73  C   UNL     1      -4.924  -4.614  14.435  1.00  0.00     0.023 A 
ATOM     74  C   UNL     1      -6.203  -4.549  15.010  1.00  0.00     0.031 A 
ATOM     75  C   UNL     1      -4.744  -5.451  13.320  1.00  0.00     0.131 A 
ATOM     76  C   UNL     1      -7.242  -5.342  14.497  1.00  0.00     0.055 A 
ATOM     77  C   UNL     1      -5.793  -6.200  12.782  1.00  0.00     0.041 A 
ATOM     78  F   UNL     1      -3.543  -5.543  12.726  1.00  0.00    -0.206 F 
ATOM     79  C   UNL     1      -7.049  -6.157  13.380  1.00  0.00     0.022 A 
BRANCH  76  80
ATOM     80  S   UNL     1      -8.838  -5.348  15.361  1.00  0.00     0.124 S 
ATOM     81  O   UNL     1      -8.453  -5.795  16.695  1.00  0.00    -0.237 OA
ATOM     82  O   UNL     1      -9.250  -3.954  15.245  1.00  0.00    -0.237 OA
ATOM     83  O   UNL     1      -9.638  -6.298  14.590  1.00  0.00    -0.744 OA
ENDBRANCH  76  80
ENDBRANCH  49  73
BRANCH  61  84
ATOM     84  C   UNL     1      -1.546  -4.909  20.526  1.00  0.00     0.023 A 
ATOM     85  C   UNL     1      -1.409  -6.308  20.515  1.00  0.00     0.031 A 
ATOM     86  C   UNL     1      -1.937  -4.292  21.727  1.00  0.00     0.131 A 
ATOM     87  C   UNL     1      -1.726  -7.050  21.662  1.00  0.00     0.055 A 
ATOM     88  C   UNL     1      -2.187  -5.030  22.884  1.00  0.00     0.041 A 
ATOM     89  F   UNL     1      -2.086  -2.959  21.794  1.00  0.00    -0.206 F 
ATOM     90  C   UNL     1      -2.098  -6.419  22.852  1.00  0.00     0.022 A 
BRANCH  87  91
ATOM     91  S   UNL     1      -1.754  -8.860  21.547  1.00  0.00     0.124 S 
ATOM     92  O   UNL     1      -2.716  -9.080  20.471  1.00  0.00    -0.237 OA
ATOM     93  O   UNL     1      -0.364  -9.174  21.234  1.00  0.00    -0.237 OA
ATOM     94  O   UNL     1      -2.201  -9.281  22.874  1.00  0.00    -0.744 OA
ENDBRANCH  87  91
ENDBRANCH  61  84
ENDBRANCH  35  36
ENDBRANCH  27  30
ENDBRANCH  25  26
ENDBRANCH  24  25
ENDBRANCH  23  24
ENDBRANCH   1  23
TORSDOF 19
