REMARK SMILES C[C@H](C(=O)NCCCCNC(=O)c1ccc(-c2c3nc(c(-c4cc(S(=O)(=O)[O-])ccc4F)c4ccc([nH]4)c(-c4cc(S(=O)(=O)[O-])ccc4F)c4nc(c(-c5cc(S(=O)(=O)[O-])ccc5F)c5ccc2[nH]5)C=C4)C=C3)cc1)c1ccc(C[C@@H]2CCC[C@H]2O)cc1
REMARK SMILES IDX 7 1 6 2 5 3 3 4 4 5 2 7 1 8 76 9 77 10 88 11 78 12 87 13
REMARK SMILES IDX 79 14 80 15 81 16 82 17 85 18 83 19 84 20 86 21 8 23 9 24
REMARK SMILES IDX 10 25 11 26 12 28 13 29 14 30 75 31 15 32 74 33 16 34 17 35
REMARK SMILES IDX 18 36 68 37 19 38 73 39 67 40 69 41 20 42 72 43 66 44 65 45
REMARK SMILES IDX 21 47 53 48 33 49 52 50 34 51 37 52 51 53 70 54 35 55 36 56
REMARK SMILES IDX 50 58 71 59 38 60 22 61 23 62 31 63 24 64 30 65 32 66 29 67
REMARK SMILES IDX 25 68 26 69 27 70 28 71 54 72 55 73 63 74 56 75 62 76 64 77
REMARK SMILES IDX 61 78 57 79 58 80 59 81 60 82 39 83 40 84 48 85 41 86 47 87
REMARK SMILES IDX 49 88 46 89 42 90 43 91 44 92 45 93
REMARK H PARENT 5 6 86 22 10 27 69 46 37 57
REMARK Flexibility Score: inf
ROOT
ATOM      1  C   UNL     1     -11.568   4.380   3.445  1.00  0.00     0.023 C 
ENDROOT
BRANCH   1   2
ATOM      2  C   UNL     1     -11.055   5.280   4.592  1.00  0.00     0.116 C 
BRANCH   2   3
ATOM      3  N   UNL     1     -11.535   4.767   5.872  1.00  0.00    -0.356 N 
ATOM      4  C   UNL     1     -11.060   3.880   6.795  1.00  0.00     0.227 C 
ATOM      5  O   UNL     1     -11.929   3.481   7.585  1.00  0.00    -0.274 OA
ATOM      6  H   UNL     1     -12.404   5.150   6.129  1.00  0.00     0.163 HD
BRANCH   4   7
ATOM      7  C   UNL     1      -9.564   3.482   7.004  1.00  0.00     0.105 C 
ATOM      8  C   UNL     1      -9.472   2.927   8.445  1.00  0.00     0.023 C 
BRANCH   7   9
ATOM      9  C   UNL     1      -8.874   2.532   6.008  1.00  0.00    -0.036 A 
ATOM     10  C   UNL     1      -7.786   1.700   6.304  1.00  0.00     0.005 A 
ATOM     11  C   UNL     1      -9.212   2.573   4.668  1.00  0.00     0.005 A 
ATOM     12  C   UNL     1      -7.068   1.033   5.285  1.00  0.00     0.004 A 
ATOM     13  C   UNL     1      -8.482   1.994   3.638  1.00  0.00     0.004 A 
ATOM     14  C   UNL     1      -7.364   1.238   3.934  1.00  0.00    -0.048 A 
BRANCH  14  15
ATOM     15  C   UNL     1      -6.549   0.687   2.795  1.00  0.00     0.041 C 
BRANCH  15  16
ATOM     16  C   UNL     1      -5.173   1.324   2.512  1.00  0.00     0.022 C 
ATOM     17  C   UNL     1      -4.118   0.988   3.569  1.00  0.00     0.007 C 
ATOM     18  C   UNL     1      -5.135   2.855   2.431  1.00  0.00     0.117 C 
ATOM     19  C   UNL     1      -3.997   2.208   4.481  1.00  0.00     0.003 C 
ATOM     20  C   UNL     1      -4.801   3.337   3.838  1.00  0.00     0.032 C 
BRANCH  18  21
ATOM     21  O   UNL     1      -4.082   3.256   1.548  1.00  0.00    -0.393 OA
ATOM     22  H   UNL     1      -3.239   2.896   1.866  1.00  0.00     0.210 HD
ENDBRANCH  18  21
ENDBRANCH  15  16
ENDBRANCH  14  15
ENDBRANCH   7   9
ENDBRANCH   4   7
ENDBRANCH   2   3
ENDBRANCH   1   2
BRANCH   1  23
ATOM     23  C   UNL     1     -12.729   4.872   2.615  1.00  0.00     0.023 C 
BRANCH  23  24
ATOM     24  C   UNL     1     -12.394   6.040   1.715  1.00  0.00     0.116 C 
BRANCH  24  25
ATOM     25  N   UNL     1     -11.299   5.801   0.775  1.00  0.00    -0.352 N 
ATOM     26  C   UNL     1     -11.232   6.146  -0.564  1.00  0.00     0.251 C 
ATOM     27  H   UNL     1     -10.511   5.336   1.140  1.00  0.00     0.163 HD
ATOM     28  O   UNL     1     -10.269   5.852  -1.247  1.00  0.00    -0.269 OA
BRANCH  26  29
ATOM     29  C   UNL     1     -12.408   6.830  -1.143  1.00  0.00     0.039 A 
ATOM     30  C   UNL     1     -13.080   6.239  -2.213  1.00  0.00     0.014 A 
ATOM     31  C   UNL     1     -12.951   7.919  -0.464  1.00  0.00     0.014 A 
ATOM     32  C   UNL     1     -14.373   6.667  -2.522  1.00  0.00     0.010 A 
ATOM     33  C   UNL     1     -14.281   8.238  -0.679  1.00  0.00     0.010 A 
ATOM     34  C   UNL     1     -15.010   7.618  -1.710  1.00  0.00    -0.014 A 
BRANCH  34  35
ATOM     35  C   UNL     1     -16.425   8.030  -1.909  1.00  0.00     0.031 A 
ATOM     36  C   UNL     1     -16.725   9.495  -2.085  1.00  0.00     0.074 A 
ATOM     37  C   UNL     1     -17.430   7.140  -1.792  1.00  0.00     0.049 A 
ATOM     38  N   UNL     1     -17.864  10.129  -2.002  1.00  0.00    -0.248 NA
ATOM     39  C   UNL     1     -15.561  10.370  -2.299  1.00  0.00     0.031 C 
ATOM     40  C   UNL     1     -17.277   5.701  -1.562  1.00  0.00     0.029 A 
ATOM     41  N   UNL     1     -18.791   7.322  -1.829  1.00  0.00    -0.354 N 
ATOM     42  C   UNL     1     -17.542  11.480  -2.084  1.00  0.00     0.074 A 
ATOM     43  C   UNL     1     -16.099  11.566  -2.137  1.00  0.00     0.031 C 
ATOM     44  C   UNL     1     -18.493   5.131  -1.505  1.00  0.00     0.029 A 
ATOM     45  C   UNL     1     -19.512   6.166  -1.638  1.00  0.00     0.049 A 
ATOM     46  H   UNL     1     -19.211   8.200  -1.978  1.00  0.00     0.167 HD
ATOM     47  C   UNL     1     -18.375  12.549  -2.144  1.00  0.00     0.034 A 
ATOM     48  C   UNL     1     -20.844   5.970  -1.562  1.00  0.00     0.034 A 
ATOM     49  C   UNL     1     -19.810  12.429  -2.162  1.00  0.00     0.049 A 
ATOM     50  C   UNL     1     -21.760   7.160  -1.693  1.00  0.00     0.074 A 
ATOM     51  C   UNL     1     -20.760  13.424  -2.302  1.00  0.00     0.029 A 
ATOM     52  N   UNL     1     -20.503  11.228  -2.051  1.00  0.00    -0.354 N 
ATOM     53  N   UNL     1     -21.450   8.431  -1.801  1.00  0.00    -0.248 NA
ATOM     54  C   UNL     1     -23.204   6.889  -1.702  1.00  0.00     0.031 C 
ATOM     55  C   UNL     1     -22.026  12.831  -2.231  1.00  0.00     0.029 A 
ATOM     56  C   UNL     1     -21.867  11.459  -2.112  1.00  0.00     0.049 A 
ATOM     57  H   UNL     1     -20.084  10.344  -1.945  1.00  0.00     0.167 HD
ATOM     58  C   UNL     1     -22.659   9.109  -1.925  1.00  0.00     0.074 A 
ATOM     59  C   UNL     1     -23.703   8.105  -1.879  1.00  0.00     0.031 C 
ATOM     60  C   UNL     1     -22.887  10.439  -2.072  1.00  0.00     0.034 A 
BRANCH  47  61
ATOM     61  C   UNL     1     -17.736  13.918  -2.176  1.00  0.00     0.023 A 
ATOM     62  C   UNL     1     -16.838  14.290  -3.194  1.00  0.00     0.031 A 
ATOM     63  C   UNL     1     -17.952  14.832  -1.131  1.00  0.00     0.131 A 
ATOM     64  C   UNL     1     -16.097  15.474  -3.078  1.00  0.00     0.055 A 
ATOM     65  C   UNL     1     -17.291  16.062  -1.079  1.00  0.00     0.041 A 
ATOM     66  F   UNL     1     -18.783  14.533  -0.120  1.00  0.00    -0.206 F 
ATOM     67  C   UNL     1     -16.337  16.378  -2.042  1.00  0.00     0.022 A 
BRANCH  64  68
ATOM     68  S   UNL     1     -14.675  15.707  -4.181  1.00  0.00     0.124 S 
ATOM     69  O   UNL     1     -13.866  14.531  -3.868  1.00  0.00    -0.237 OA
ATOM     70  O   UNL     1     -15.297  15.721  -5.499  1.00  0.00    -0.237 OA
ATOM     71  O   UNL     1     -14.107  16.980  -3.743  1.00  0.00    -0.744 OA
ENDBRANCH  64  68
ENDBRANCH  47  61
BRANCH  48  72
ATOM     72  C   UNL     1     -21.393   4.599  -1.355  1.00  0.00     0.023 A 
ATOM     73  C   UNL     1     -22.103   3.946  -2.375  1.00  0.00     0.031 A 
ATOM     74  C   UNL     1     -21.227   3.927  -0.132  1.00  0.00     0.131 A 
ATOM     75  C   UNL     1     -22.653   2.675  -2.143  1.00  0.00     0.055 A 
ATOM     76  C   UNL     1     -21.739   2.645   0.080  1.00  0.00     0.041 A 
ATOM     77  F   UNL     1     -20.545   4.502   0.871  1.00  0.00    -0.206 F 
ATOM     78  C   UNL     1     -22.466   2.016  -0.926  1.00  0.00     0.022 A 
BRANCH  75  79
ATOM     79  S   UNL     1     -23.662   1.913  -3.444  1.00  0.00     0.124 S 
ATOM     80  O   UNL     1     -24.746   2.880  -3.583  1.00  0.00    -0.237 OA
ATOM     81  O   UNL     1     -22.720   1.840  -4.556  1.00  0.00    -0.237 OA
ATOM     82  O   UNL     1     -24.044   0.625  -2.868  1.00  0.00    -0.744 OA
ENDBRANCH  75  79
ENDBRANCH  48  72
BRANCH  60  83
ATOM     83  C   UNL     1     -24.316  10.874  -2.264  1.00  0.00     0.023 A 
ATOM     84  C   UNL     1     -25.253  10.830  -1.219  1.00  0.00     0.031 A 
ATOM     85  C   UNL     1     -24.733  11.366  -3.514  1.00  0.00     0.131 A 
ATOM     86  C   UNL     1     -26.575  11.238  -1.453  1.00  0.00     0.055 A 
ATOM     87  C   UNL     1     -26.036  11.815  -3.727  1.00  0.00     0.041 A 
ATOM     88  F   UNL     1     -23.874  11.429  -4.543  1.00  0.00    -0.206 F 
ATOM     89  C   UNL     1     -26.968  11.745  -2.696  1.00  0.00     0.022 A 
BRANCH  86  90
ATOM     90  S   UNL     1     -27.796  11.046  -0.126  1.00  0.00     0.124 S 
ATOM     91  O   UNL     1     -27.776   9.604   0.098  1.00  0.00    -0.237 OA
ATOM     92  O   UNL     1     -27.231  11.865   0.941  1.00  0.00    -0.237 OA
ATOM     93  O   UNL     1     -29.029  11.565  -0.717  1.00  0.00    -0.744 OA
ENDBRANCH  86  90
ENDBRANCH  60  83
ENDBRANCH  34  35
ENDBRANCH  26  29
ENDBRANCH  24  25
ENDBRANCH  23  24
ENDBRANCH   1  23
TORSDOF 18
