REMARK SMILES Cc1ccc(C(=O)N[C@@H](CC(=O)NCCCCNC(=O)c2ccc(-c3c4nc(c(-c5cc(S(=O)(=O)[O-])ccc5F)c5ccc([nH]5)c(-c5cc(S(=O)(=O)[O-])ccc5F)c5nc(c(-c6cc(S(=O)(=O)[O-])ccc6F)c6ccc3[nH]6)C=C5)C=C4)cc2)c2cccs2)o1
REMARK SMILES IDX 15 1 14 2 13 3 11 4 12 5 10 7 9 8 8 9 6 10 7 11 5 13 1 14
REMARK SMILES IDX 2 15 3 16 89 17 4 18 84 19 85 20 88 21 86 22 87 23 16 24
REMARK SMILES IDX 17 25 18 26 19 27 20 29 21 30 22 31 83 32 23 33 82 34 24 35
REMARK SMILES IDX 25 36 26 37 76 38 27 39 81 40 75 41 77 42 28 43 80 44 74 45
REMARK SMILES IDX 73 46 29 48 61 49 41 50 60 51 42 52 45 53 59 54 78 55 43 56
REMARK SMILES IDX 44 57 58 59 79 60 46 61 30 62 31 63 39 64 32 65 38 66 40 67
REMARK SMILES IDX 37 68 33 69 34 70 35 71 36 72 62 73 63 74 71 75 64 76 70 77
REMARK SMILES IDX 72 78 69 79 65 80 66 81 67 82 68 83 47 84 48 85 56 86 49 87
REMARK SMILES IDX 55 88 57 89 54 90 50 91 51 92 52 93 53 94
REMARK H PARENT 13 6 8 12 18 28 77 47 45 58
REMARK Flexibility Score: inf
ROOT
ATOM      1  C   UNL     1      -5.004   3.414   0.239  1.00  0.00     0.023 C 
ENDROOT
BRANCH   1   2
ATOM      2  C   UNL     1      -5.101   2.554   1.498  1.00  0.00     0.116 C 
BRANCH   2   3
ATOM      3  N   UNL     1      -6.216   1.631   1.419  1.00  0.00    -0.356 N 
ATOM      4  C   UNL     1      -6.219   0.281   1.257  1.00  0.00     0.222 C 
ATOM      5  O   UNL     1      -7.304  -0.302   1.207  1.00  0.00    -0.275 OA
ATOM      6  H   UNL     1      -7.107   2.045   1.493  1.00  0.00     0.163 HD
BRANCH   4   7
ATOM      7  C   UNL     1      -4.923  -0.500   1.201  1.00  0.00     0.130 C 
BRANCH   7   8
ATOM      8  C   UNL     1      -4.199  -0.574  -0.149  1.00  0.00     0.132 C 
BRANCH   8   9
ATOM      9  N   UNL     1      -3.410   0.604  -0.454  1.00  0.00    -0.341 N 
ATOM     10  C   UNL     1      -2.108   0.983  -0.302  1.00  0.00     0.287 C 
ATOM     11  O   UNL     1      -1.913   2.197  -0.412  1.00  0.00    -0.266 OA
ATOM     12  H   UNL     1      -3.951   1.310  -0.877  1.00  0.00     0.164 HD
BRANCH  10  13
ATOM     13  C   UNL     1      -1.031   0.040  -0.093  1.00  0.00     0.191 A 
ATOM     14  C   UNL     1       2.546   0.020   0.130  1.00  0.00     0.087 C 
ATOM     15  C   UNL     1       1.134  -0.402   0.086  1.00  0.00     0.101 A 
ATOM     16  C   UNL     1       0.498  -1.618   0.041  1.00  0.00     0.046 A 
ATOM     17  O   UNL     1       0.220   0.598   0.039  1.00  0.00    -0.456 OA
ATOM     18  C   UNL     1      -0.888  -1.336  -0.079  1.00  0.00     0.056 A 
ENDBRANCH  10  13
ENDBRANCH   8   9
BRANCH   8  19
ATOM     19  C   UNL     1      -5.082  -0.869  -1.341  1.00  0.00     0.027 A 
ATOM     20  C   UNL     1      -5.298  -2.093  -1.946  1.00  0.00     0.017 A 
ATOM     21  S   UNL     1      -5.925   0.379  -2.177  1.00  0.00    -0.147 S 
ATOM     22  C   UNL     1      -6.115  -1.995  -3.110  1.00  0.00     0.012 A 
ATOM     23  C   UNL     1      -6.518  -0.703  -3.352  1.00  0.00     0.065 A 
ENDBRANCH   8  19
ENDBRANCH   7   8
ENDBRANCH   4   7
ENDBRANCH   2   3
ENDBRANCH   1   2
BRANCH   1  24
ATOM     24  C   UNL     1      -6.076   4.484   0.104  1.00  0.00     0.023 C 
BRANCH  24  25
ATOM     25  C   UNL     1      -6.082   5.498   1.230  1.00  0.00     0.116 C 
BRANCH  25  26
ATOM     26  N   UNL     1      -4.804   6.177   1.391  1.00  0.00    -0.352 N 
ATOM     27  C   UNL     1      -4.568   7.526   1.531  1.00  0.00     0.251 C 
ATOM     28  H   UNL     1      -4.008   5.598   1.400  1.00  0.00     0.163 HD
ATOM     29  O   UNL     1      -3.429   7.968   1.512  1.00  0.00    -0.269 OA
BRANCH  27  30
ATOM     30  C   UNL     1      -5.731   8.425   1.659  1.00  0.00     0.039 A 
ATOM     31  C   UNL     1      -5.821   9.543   0.830  1.00  0.00     0.014 A 
ATOM     32  C   UNL     1      -6.775   8.092   2.526  1.00  0.00     0.014 A 
ATOM     33  C   UNL     1      -7.000  10.288   0.819  1.00  0.00     0.010 A 
ATOM     34  C   UNL     1      -7.984   8.763   2.425  1.00  0.00     0.010 A 
ATOM     35  C   UNL     1      -8.106   9.877   1.581  1.00  0.00    -0.014 A 
BRANCH  35  36
ATOM     36  C   UNL     1      -9.394  10.613   1.537  1.00  0.00     0.031 A 
ATOM     37  C   UNL     1      -9.941  11.224   2.798  1.00  0.00     0.074 A 
ATOM     38  C   UNL     1     -10.096  10.673   0.388  1.00  0.00     0.049 A 
ATOM     39  N   UNL     1     -11.079  11.837   2.996  1.00  0.00    -0.248 NA
ATOM     40  C   UNL     1      -9.114  11.088   4.007  1.00  0.00     0.031 C 
ATOM     41  C   UNL     1      -9.689  10.071  -0.885  1.00  0.00     0.029 A 
ATOM     42  N   UNL     1     -11.300  11.264   0.103  1.00  0.00    -0.354 N 
ATOM     43  C   UNL     1     -11.109  12.144   4.352  1.00  0.00     0.074 A 
ATOM     44  C   UNL     1      -9.919  11.571   4.940  1.00  0.00     0.031 C 
ATOM     45  C   UNL     1     -10.609  10.356  -1.820  1.00  0.00     0.029 A 
ATOM     46  C   UNL     1     -11.695  11.114  -1.206  1.00  0.00     0.049 A 
ATOM     47  H   UNL     1     -11.833  11.751   0.773  1.00  0.00     0.167 HD
ATOM     48  C   UNL     1     -12.028  12.867   5.038  1.00  0.00     0.034 A 
ATOM     49  C   UNL     1     -12.811  11.530  -1.837  1.00  0.00     0.034 A 
ATOM     50  C   UNL     1     -13.203  13.438   4.427  1.00  0.00     0.049 A 
ATOM     51  C   UNL     1     -13.835  12.310  -1.052  1.00  0.00     0.074 A 
ATOM     52  C   UNL     1     -14.175  14.234   5.006  1.00  0.00     0.029 A 
ATOM     53  N   UNL     1     -13.571  13.265   3.098  1.00  0.00    -0.354 N 
ATOM     54  N   UNL     1     -13.824  12.644   0.219  1.00  0.00    -0.248 NA
ATOM     55  C   UNL     1     -15.016  12.778  -1.787  1.00  0.00     0.031 C 
ATOM     56  C   UNL     1     -15.169  14.474   4.051  1.00  0.00     0.029 A 
ATOM     57  C   UNL     1     -14.774  13.908   2.849  1.00  0.00     0.049 A 
ATOM     58  H   UNL     1     -13.053  12.760   2.430  1.00  0.00     0.167 HD
ATOM     59  C   UNL     1     -14.982  13.388   0.426  1.00  0.00     0.074 A 
ATOM     60  C   UNL     1     -15.658  13.465  -0.854  1.00  0.00     0.031 C 
ATOM     61  C   UNL     1     -15.443  13.962   1.568  1.00  0.00     0.034 A 
BRANCH  48  62
ATOM     62  C   UNL     1     -11.799  13.048   6.521  1.00  0.00     0.023 A 
ATOM     63  C   UNL     1     -10.644  13.678   7.020  1.00  0.00     0.031 A 
ATOM     64  C   UNL     1     -12.718  12.536   7.454  1.00  0.00     0.131 A 
ATOM     65  C   UNL     1     -10.390  13.689   8.400  1.00  0.00     0.055 A 
ATOM     66  C   UNL     1     -12.507  12.640   8.831  1.00  0.00     0.041 A 
ATOM     67  F   UNL     1     -13.829  11.903   7.044  1.00  0.00    -0.206 F 
ATOM     68  C   UNL     1     -11.328  13.201   9.311  1.00  0.00     0.022 A 
BRANCH  65  69
ATOM     69  S   UNL     1      -8.740  14.185   8.970  1.00  0.00     0.124 S 
ATOM     70  O   UNL     1      -7.886  13.238   8.257  1.00  0.00    -0.237 OA
ATOM     71  O   UNL     1      -8.659  15.574   8.533  1.00  0.00    -0.237 OA
ATOM     72  O   UNL     1      -8.804  13.987  10.417  1.00  0.00    -0.744 OA
ENDBRANCH  65  69
ENDBRANCH  48  62
BRANCH  49  73
ATOM     73  C   UNL     1     -13.023  11.216  -3.280  1.00  0.00     0.023 A 
ATOM     74  C   UNL     1     -13.081  12.235  -4.244  1.00  0.00     0.031 A 
ATOM     75  C   UNL     1     -13.193   9.889  -3.714  1.00  0.00     0.131 A 
ATOM     76  C   UNL     1     -13.344  11.915  -5.586  1.00  0.00     0.055 A 
ATOM     77  C   UNL     1     -13.399   9.572  -5.058  1.00  0.00     0.041 A 
ATOM     78  F   UNL     1     -13.143   8.875  -2.835  1.00  0.00    -0.206 F 
ATOM     79  C   UNL     1     -13.488  10.590  -6.001  1.00  0.00     0.022 A 
BRANCH  76  80
ATOM     80  S   UNL     1     -13.574  13.267  -6.774  1.00  0.00     0.124 S 
ATOM     81  O   UNL     1     -14.697  13.989  -6.188  1.00  0.00    -0.237 OA
ATOM     82  O   UNL     1     -12.280  13.940  -6.723  1.00  0.00    -0.237 OA
ATOM     83  O   UNL     1     -13.863  12.573  -8.027  1.00  0.00    -0.744 OA
ENDBRANCH  76  80
ENDBRANCH  49  73
BRANCH  61  84
ATOM     84  C   UNL     1     -16.719  14.763   1.469  1.00  0.00     0.023 A 
ATOM     85  C   UNL     1     -17.952  14.162   1.163  1.00  0.00     0.031 A 
ATOM     86  C   UNL     1     -16.697  16.153   1.683  1.00  0.00     0.131 A 
ATOM     87  C   UNL     1     -19.100  14.956   1.021  1.00  0.00     0.055 A 
ATOM     88  C   UNL     1     -17.855  16.928   1.609  1.00  0.00     0.041 A 
ATOM     89  F   UNL     1     -15.547  16.782   1.974  1.00  0.00    -0.206 F 
ATOM     90  C   UNL     1     -19.063  16.331   1.263  1.00  0.00     0.022 A 
BRANCH  87  91
ATOM     91  S   UNL     1     -20.624  14.182   0.416  1.00  0.00     0.124 S 
ATOM     92  O   UNL     1     -20.197  13.634  -0.868  1.00  0.00    -0.237 OA
ATOM     93  O   UNL     1     -20.915  13.205   1.460  1.00  0.00    -0.237 OA
ATOM     94  O   UNL     1     -21.565  15.297   0.332  1.00  0.00    -0.744 OA
ENDBRANCH  87  91
ENDBRANCH  61  84
ENDBRANCH  35  36
ENDBRANCH  27  30
ENDBRANCH  25  26
ENDBRANCH  24  25
ENDBRANCH   1  24
TORSDOF 18
