REMARK SMILES CC(C)Cc1ccc(-c2cc(Cl)cc3c2O[C@H](C(F)(F)F)C(C(=O)NCCCCNC(=O)c2ccc(-c4c5nc(c(-c6cc(S(=O)(=O)[O-])ccc6F)c6ccc([nH]6)c(-c6cc(S(=O)(=O)[O-])ccc6F)c6nc(c(-c7cc(S(=O)(=O)[O-])ccc7F)c7ccc4[nH]7)C=C6)C=C5)cc2)=C3)cc1
REMARK SMILES IDX 27 1 26 2 25 3 23 4 24 5 22 7 9 8 10 9 15 10 11 11 14 12
REMARK SMILES IDX 16 13 12 14 13 15 96 16 17 17 8 18 5 19 6 20 98 21 7 22
REMARK SMILES IDX 97 23 4 24 2 25 1 26 3 27 18 28 19 29 20 30 21 31 28 32
REMARK SMILES IDX 29 33 30 34 31 35 32 37 33 38 34 39 95 40 35 41 94 42 36 43
REMARK SMILES IDX 37 44 38 45 88 46 39 47 93 48 87 49 89 50 40 51 92 52 86 53
REMARK SMILES IDX 85 54 41 56 73 57 53 58 72 59 54 60 57 61 71 62 90 63 55 64
REMARK SMILES IDX 56 65 70 67 91 68 58 69 42 70 43 71 51 72 44 73 50 74 52 75
REMARK SMILES IDX 49 76 45 77 46 78 47 79 48 80 74 81 75 82 83 83 76 84 82 85
REMARK SMILES IDX 84 86 81 87 77 88 78 89 79 90 80 91 59 92 60 93 68 94 61 95
REMARK SMILES IDX 67 96 69 97 66 98 62 99 63 100 64 101 65 102
REMARK H PARENT 25 6 30 36 89 55 57 66
REMARK Flexibility Score: inf
ROOT
ATOM      1  C   UNL     1      -6.590 -12.430  -2.479  1.00  0.00     0.023 C 
ENDROOT
BRANCH   1   2
ATOM      2  C   UNL     1      -5.200 -11.927  -2.061  1.00  0.00     0.116 C 
BRANCH   2   3
ATOM      3  N   UNL     1      -4.820 -10.802  -2.887  1.00  0.00    -0.352 N 
ATOM      4  C   UNL     1      -4.345  -9.592  -2.511  1.00  0.00     0.251 C 
ATOM      5  O   UNL     1      -4.650  -8.609  -3.179  1.00  0.00    -0.270 OA
ATOM      6  H   UNL     1      -4.920 -10.935  -3.858  1.00  0.00     0.163 HD
BRANCH   4   7
ATOM      7  C   UNL     1      -3.378  -9.525  -1.373  1.00  0.00     0.067 C 
ATOM      8  C   UNL     1      -2.794  -5.483  -1.176  1.00  0.00     0.026 A 
ATOM      9  C   UNL     1      -2.649  -5.030  -2.513  1.00  0.00     0.033 A 
ATOM     10  C   UNL     1      -2.733  -6.876  -0.985  1.00  0.00     0.135 A 
ATOM     11  C   UNL     1      -2.260  -5.874  -3.551  1.00  0.00     0.042 A 
ATOM     12  C   UNL     1      -2.216  -7.694  -2.019  1.00  0.00     0.019 A 
ATOM     13  O   UNL     1      -3.206  -7.509   0.156  1.00  0.00    -0.475 OA
ATOM     14  Cl  UNL     1      -2.108  -5.248  -5.145  1.00  0.00    -0.084 Cl
ATOM     15  C   UNL     1      -1.960  -7.197  -3.293  1.00  0.00     0.032 A 
ATOM     16  C   UNL     1      -2.146  -9.153  -1.775  1.00  0.00     0.025 C 
ATOM     17  C   UNL     1      -3.900  -8.804  -0.132  1.00  0.00     0.314 C 
BRANCH   8  18
ATOM     18  C   UNL     1      -2.708  -4.411  -0.144  1.00  0.00    -0.015 A 
ATOM     19  C   UNL     1      -1.722  -1.965   0.976  1.00  0.00    -0.048 A 
ATOM     20  C   UNL     1      -2.910  -1.994   0.231  1.00  0.00     0.004 A 
ATOM     21  C   UNL     1      -1.131  -3.194   1.290  1.00  0.00     0.004 A 
ATOM     22  C   UNL     1      -3.404  -3.197  -0.304  1.00  0.00     0.009 A 
ATOM     23  C   UNL     1      -1.617  -4.398   0.741  1.00  0.00     0.009 A 
BRANCH  19  24
ATOM     24  C   UNL     1      -1.166  -0.633   1.449  1.00  0.00     0.038 C 
BRANCH  24  25
ATOM     25  C   UNL     1       0.370  -0.428   1.401  1.00  0.00    -0.013 C 
ATOM     26  C   UNL     1       0.905  -0.298  -0.029  1.00  0.00     0.008 C 
ATOM     27  C   UNL     1       0.754   0.835   2.186  1.00  0.00     0.008 C 
ENDBRANCH  24  25
ENDBRANCH  19  24
ENDBRANCH   8  18
BRANCH  17  28
ATOM     28  C   UNL     1      -3.809  -9.770   1.070  1.00  0.00     0.429 C 
ATOM     29  F   UNL     1      -2.877  -9.393   1.975  1.00  0.00    -0.167 F 
ATOM     30  F   UNL     1      -4.996  -9.856   1.720  1.00  0.00    -0.167 F 
ATOM     31  F   UNL     1      -3.491 -11.039   0.699  1.00  0.00    -0.167 F 
ENDBRANCH  17  28
ENDBRANCH   4   7
ENDBRANCH   2   3
ENDBRANCH   1   2
BRANCH   1  32
ATOM     32  C   UNL     1      -6.703 -12.908  -3.934  1.00  0.00     0.023 C 
BRANCH  32  33
ATOM     33  C   UNL     1      -5.707 -13.990  -4.334  1.00  0.00     0.116 C 
BRANCH  33  34
ATOM     34  N   UNL     1      -5.928 -15.225  -3.601  1.00  0.00    -0.352 N 
ATOM     35  C   UNL     1      -6.202 -16.481  -4.085  1.00  0.00     0.251 C 
ATOM     36  H   UNL     1      -5.873 -15.152  -2.621  1.00  0.00     0.163 HD
ATOM     37  O   UNL     1      -6.572 -17.363  -3.313  1.00  0.00    -0.269 OA
BRANCH  35  38
ATOM     38  C   UNL     1      -6.082 -16.755  -5.534  1.00  0.00     0.039 A 
ATOM     39  C   UNL     1      -7.106 -17.449  -6.182  1.00  0.00     0.014 A 
ATOM     40  C   UNL     1      -4.968 -16.315  -6.255  1.00  0.00     0.014 A 
ATOM     41  C   UNL     1      -7.048 -17.637  -7.565  1.00  0.00     0.010 A 
ATOM     42  C   UNL     1      -4.947 -16.438  -7.642  1.00  0.00     0.010 A 
ATOM     43  C   UNL     1      -5.989 -17.097  -8.314  1.00  0.00    -0.014 A 
BRANCH  43  44
ATOM     44  C   UNL     1      -5.958 -17.201  -9.798  1.00  0.00     0.031 A 
ATOM     45  C   UNL     1      -4.848 -17.954 -10.480  1.00  0.00     0.074 A 
ATOM     46  C   UNL     1      -6.891 -16.561 -10.532  1.00  0.00     0.049 A 
ATOM     47  N   UNL     1      -4.598 -18.082 -11.758  1.00  0.00    -0.248 NA
ATOM     48  C   UNL     1      -3.876 -18.627  -9.607  1.00  0.00     0.031 C 
ATOM     49  C   UNL     1      -7.997 -15.769  -9.988  1.00  0.00     0.029 A 
ATOM     50  N   UNL     1      -7.054 -16.463 -11.892  1.00  0.00    -0.354 N 
ATOM     51  C   UNL     1      -3.434 -18.839 -11.843  1.00  0.00     0.074 A 
ATOM     52  C   UNL     1      -2.997 -19.086 -10.485  1.00  0.00     0.031 C 
ATOM     53  C   UNL     1      -8.735 -15.289 -11.002  1.00  0.00     0.029 A 
ATOM     54  C   UNL     1      -8.130 -15.690 -12.268  1.00  0.00     0.049 A 
ATOM     55  H   UNL     1      -6.458 -16.906 -12.539  1.00  0.00     0.167 HD
ATOM     56  C   UNL     1      -2.801 -19.303 -12.950  1.00  0.00     0.034 A 
ATOM     57  C   UNL     1      -8.569 -15.329 -13.490  1.00  0.00     0.034 A 
ATOM     58  C   UNL     1      -3.255 -19.054 -14.297  1.00  0.00     0.049 A 
ATOM     59  C   UNL     1      -7.825 -15.823 -14.706  1.00  0.00     0.074 A 
ATOM     60  C   UNL     1      -2.722 -19.521 -15.486  1.00  0.00     0.029 A 
ATOM     61  N   UNL     1      -4.344 -18.260 -14.638  1.00  0.00    -0.354 N 
ATOM     62  N   UNL     1      -6.755 -16.581 -14.769  1.00  0.00    -0.248 NA
ATOM     63  C   UNL     1      -8.355 -15.421 -16.016  1.00  0.00     0.031 C 
ATOM     64  C   UNL     1      -3.437 -18.950 -16.544  1.00  0.00     0.029 A 
ATOM     65  C   UNL     1      -4.473 -18.195 -16.017  1.00  0.00     0.049 A 
ATOM     66  H   UNL     1      -4.936 -17.809 -13.994  1.00  0.00     0.167 HD
ATOM     67  C   UNL     1      -6.504 -16.772 -16.125  1.00  0.00     0.074 A 
ATOM     68  C   UNL     1      -7.543 -16.063 -16.843  1.00  0.00     0.031 C 
ATOM     69  C   UNL     1      -5.508 -17.475 -16.724  1.00  0.00     0.034 A 
BRANCH  56  70
ATOM     70  C   UNL     1      -1.536 -20.103 -12.745  1.00  0.00     0.023 A 
ATOM     71  C   UNL     1      -1.537 -21.325 -12.048  1.00  0.00     0.031 A 
ATOM     72  C   UNL     1      -0.305 -19.629 -13.234  1.00  0.00     0.131 A 
ATOM     73  C   UNL     1      -0.328 -21.988 -11.792  1.00  0.00     0.055 A 
ATOM     74  C   UNL     1       0.884 -20.338 -13.051  1.00  0.00     0.041 A 
ATOM     75  F   UNL     1      -0.235 -18.459 -13.889  1.00  0.00    -0.206 F 
ATOM     76  C   UNL     1       0.880 -21.518 -12.312  1.00  0.00     0.022 A 
BRANCH  73  77
ATOM     77  S   UNL     1      -0.337 -23.391 -10.643  1.00  0.00     0.124 S 
ATOM     78  O   UNL     1      -0.879 -22.776  -9.433  1.00  0.00    -0.237 OA
ATOM     79  O   UNL     1      -1.207 -24.347 -11.318  1.00  0.00    -0.237 OA
ATOM     80  O   UNL     1       1.070 -23.776 -10.560  1.00  0.00    -0.744 OA
ENDBRANCH  73  77
ENDBRANCH  56  70
BRANCH  57  81
ATOM     81  C   UNL     1      -9.758 -14.439 -13.636  1.00  0.00     0.023 A 
ATOM     82  C   UNL     1     -10.925 -14.890 -14.273  1.00  0.00     0.031 A 
ATOM     83  C   UNL     1      -9.728 -13.108 -13.182  1.00  0.00     0.131 A 
ATOM     84  C   UNL     1     -11.995 -14.005 -14.483  1.00  0.00     0.055 A 
ATOM     85  C   UNL     1     -10.817 -12.249 -13.341  1.00  0.00     0.041 A 
ATOM     86  F   UNL     1      -8.639 -12.626 -12.563  1.00  0.00    -0.206 F 
ATOM     87  C   UNL     1     -11.954 -12.692 -14.008  1.00  0.00     0.022 A 
BRANCH  84  88
ATOM     88  S   UNL     1     -13.406 -14.568 -15.473  1.00  0.00     0.124 S 
ATOM     89  O   UNL     1     -12.761 -14.934 -16.728  1.00  0.00    -0.237 OA
ATOM     90  O   UNL     1     -13.918 -15.672 -14.668  1.00  0.00    -0.237 OA
ATOM     91  O   UNL     1     -14.270 -13.391 -15.534  1.00  0.00    -0.744 OA
ENDBRANCH  84  88
ENDBRANCH  57  81
BRANCH  69  92
ATOM     92  C   UNL     1      -5.527 -17.551 -18.232  1.00  0.00     0.023 A 
ATOM     93  C   UNL     1      -5.319 -16.416 -19.036  1.00  0.00     0.031 A 
ATOM     94  C   UNL     1      -5.762 -18.781 -18.873  1.00  0.00     0.131 A 
ATOM     95  C   UNL     1      -5.403 -16.525 -20.433  1.00  0.00     0.055 A 
ATOM     96  C   UNL     1      -5.779 -18.895 -20.264  1.00  0.00     0.041 A 
ATOM     97  F   UNL     1      -5.971 -19.897 -18.156  1.00  0.00    -0.206 F 
ATOM     98  C   UNL     1      -5.612 -17.760 -21.052  1.00  0.00     0.022 A 
BRANCH  95  99
ATOM     99  S   UNL     1      -5.324 -15.012 -21.431  1.00  0.00     0.124 S 
ATOM    100  O   UNL     1      -6.450 -14.245 -20.907  1.00  0.00    -0.237 OA
ATOM    101  O   UNL     1      -3.998 -14.496 -21.113  1.00  0.00    -0.237 OA
ATOM    102  O   UNL     1      -5.488 -15.497 -22.801  1.00  0.00    -0.744 OA
ENDBRANCH  95  99
ENDBRANCH  69  92
ENDBRANCH  43  44
ENDBRANCH  35  38
ENDBRANCH  33  34
ENDBRANCH  32  33
ENDBRANCH   1  32
TORSDOF 18
