REMARK SMILES O=C(CCCCc1nc(C[C@H]2CCCO2)no1)NCCCCNC(=O)c1ccc(-c2c3nc(c(-c4cc(S(=O)(=O)[O-])ccc4F)c4ccc([nH]4)c(-c4cc(S(=O)(=O)[O-])ccc4F)c4nc(c(-c5cc(S(=O)(=O)[O-])ccc5F)c5ccc2[nH]5)C=C4)C=C3)cc1
REMARK SMILES IDX 19 1 18 2 1 3 2 4 3 6 4 7 5 8 6 9 7 10 8 11 17 12 9 13 16 14
REMARK SMILES IDX 10 15 11 16 12 17 15 18 13 19 14 20 20 21 21 22 22 23 23 24
REMARK SMILES IDX 24 25 25 27 26 28 27 29 88 30 28 31 87 32 29 33 30 34 31 35
REMARK SMILES IDX 81 36 32 37 86 38 80 39 82 40 33 41 85 42 79 43 78 44 34 46
REMARK SMILES IDX 66 47 46 48 65 49 47 50 50 51 64 52 83 53 48 54 49 55 63 57
REMARK SMILES IDX 84 58 51 59 35 60 36 61 44 62 37 63 43 64 45 65 42 66 38 67
REMARK SMILES IDX 39 68 40 69 41 70 67 71 68 72 76 73 69 74 75 75 77 76 74 77
REMARK SMILES IDX 70 78 71 79 72 80 73 81 52 82 53 83 61 84 54 85 60 86 62 87
REMARK SMILES IDX 59 88 55 89 56 90 57 91 58 92
REMARK H PARENT 18 5 23 26 82 45 50 56
REMARK Flexibility Score: inf
ROOT
ATOM      1  C   UNL     1       3.388 -11.931   7.947  1.00  0.00     0.116 C 
ENDROOT
BRANCH   1   2
ATOM      2  N   UNL     1       4.467 -11.209   7.309  1.00  0.00    -0.356 N 
ATOM      3  O   UNL     1       5.093 -12.878   5.859  1.00  0.00    -0.275 OA
ATOM      4  C   UNL     1       5.208 -11.731   6.277  1.00  0.00     0.219 C 
ATOM      5  H   UNL     1       4.680 -10.303   7.629  1.00  0.00     0.163 HD
BRANCH   4   6
ATOM      6  C   UNL     1       6.181 -10.741   5.672  1.00  0.00     0.100 C 
BRANCH   6   7
ATOM      7  C   UNL     1       5.487  -9.764   4.721  1.00  0.00     0.010 C 
BRANCH   7   8
ATOM      8  C   UNL     1       4.676  -8.627   5.372  1.00  0.00     0.010 C 
BRANCH   8   9
ATOM      9  C   UNL     1       5.447  -7.718   6.340  1.00  0.00     0.100 C 
BRANCH   9  10
ATOM     10  C   UNL     1       6.601  -7.064   5.683  1.00  0.00     0.226 A 
ATOM     11  N   UNL     1       6.768  -6.759   4.418  1.00  0.00    -0.196 NA
ATOM     12  O   UNL     1       7.707  -6.838   6.448  1.00  0.00    -0.339 OA
ATOM     13  C   UNL     1       8.077  -6.369   4.389  1.00  0.00     0.174 A 
ATOM     14  N   UNL     1       8.700  -6.386   5.575  1.00  0.00    -0.062 NA
BRANCH  13  15
ATOM     15  C   UNL     1       8.772  -6.081   3.117  1.00  0.00     0.113 C 
BRANCH  15  16
ATOM     16  C   UNL     1       8.725  -4.609   2.708  1.00  0.00     0.126 C 
ATOM     17  C   UNL     1       9.560  -3.682   3.582  1.00  0.00     0.035 C 
ATOM     18  O   UNL     1       9.301  -4.509   1.383  1.00  0.00    -0.378 OA
ATOM     19  C   UNL     1      10.926  -3.786   2.952  1.00  0.00     0.031 C 
ATOM     20  C   UNL     1      10.584  -3.875   1.481  1.00  0.00     0.160 C 
ENDBRANCH  15  16
ENDBRANCH  13  15
ENDBRANCH   9  10
ENDBRANCH   8   9
ENDBRANCH   7   8
ENDBRANCH   6   7
ENDBRANCH   4   6
ENDBRANCH   1   2
BRANCH   1  21
ATOM     21  C   UNL     1       3.336 -11.657   9.448  1.00  0.00     0.023 C 
BRANCH  21  22
ATOM     22  C   UNL     1       3.124 -10.190   9.839  1.00  0.00     0.023 C 
BRANCH  22  23
ATOM     23  C   UNL     1       1.849  -9.544   9.302  1.00  0.00     0.116 C 
BRANCH  23  24
ATOM     24  N   UNL     1       0.648 -10.171   9.829  1.00  0.00    -0.352 N 
ATOM     25  C   UNL     1      -0.390  -9.621  10.541  1.00  0.00     0.251 C 
ATOM     26  H   UNL     1       0.567 -11.135   9.648  1.00  0.00     0.163 HD
ATOM     27  O   UNL     1      -1.218 -10.367  11.065  1.00  0.00    -0.269 OA
BRANCH  25  28
ATOM     28  C   UNL     1      -0.503  -8.154  10.707  1.00  0.00     0.039 A 
ATOM     29  C   UNL     1      -0.862  -7.643  11.958  1.00  0.00     0.014 A 
ATOM     30  C   UNL     1      -0.278  -7.280   9.640  1.00  0.00     0.014 A 
ATOM     31  C   UNL     1      -0.924  -6.260  12.155  1.00  0.00     0.010 A 
ATOM     32  C   UNL     1      -0.268  -5.902   9.857  1.00  0.00     0.010 A 
ATOM     33  C   UNL     1      -0.587  -5.375  11.118  1.00  0.00    -0.014 A 
BRANCH  33  34
ATOM     34  C   UNL     1      -0.556  -3.902  11.340  1.00  0.00     0.031 A 
ATOM     35  C   UNL     1      -1.484  -2.996  10.574  1.00  0.00     0.074 A 
ATOM     36  C   UNL     1       0.345  -3.373  12.193  1.00  0.00     0.049 A 
ATOM     37  N   UNL     1      -1.551  -1.689  10.573  1.00  0.00    -0.248 NA
ATOM     38  C   UNL     1      -2.443  -3.647   9.670  1.00  0.00     0.031 C 
ATOM     39  C   UNL     1       1.319  -4.140  12.973  1.00  0.00     0.029 A 
ATOM     40  N   UNL     1       0.597  -2.069  12.544  1.00  0.00    -0.354 N 
ATOM     41  C   UNL     1      -2.554  -1.360   9.667  1.00  0.00     0.074 A 
ATOM     42  C   UNL     1      -3.018  -2.604   9.091  1.00  0.00     0.031 C 
ATOM     43  C   UNL     1       2.044  -3.296  13.724  1.00  0.00     0.029 A 
ATOM     44  C   UNL     1       1.628  -1.926  13.444  1.00  0.00     0.049 A 
ATOM     45  H   UNL     1       0.086  -1.308  12.184  1.00  0.00     0.167 HD
ATOM     46  C   UNL     1      -3.059  -0.137   9.364  1.00  0.00     0.034 A 
ATOM     47  C   UNL     1       2.191  -0.819  13.971  1.00  0.00     0.034 A 
ATOM     48  C   UNL     1      -2.588   1.096   9.948  1.00  0.00     0.049 A 
ATOM     49  C   UNL     1       1.645   0.533  13.582  1.00  0.00     0.074 A 
ATOM     50  C   UNL     1      -3.056   2.382   9.740  1.00  0.00     0.029 A 
ATOM     51  N   UNL     1      -1.534   1.201  10.848  1.00  0.00    -0.354 N 
ATOM     52  N   UNL     1       0.667   0.822  12.755  1.00  0.00    -0.248 NA
ATOM     53  C   UNL     1       2.272   1.706  14.205  1.00  0.00     0.031 C 
ATOM     54  C   UNL     1      -2.239   3.269  10.449  1.00  0.00     0.029 A 
ATOM     55  C   UNL     1      -1.317   2.532  11.175  1.00  0.00     0.049 A 
ATOM     56  H   UNL     1      -1.017   0.442  11.203  1.00  0.00     0.167 HD
ATOM     57  C   UNL     1       0.541   2.209  12.787  1.00  0.00     0.074 A 
ATOM     58  C   UNL     1       1.531   2.693  13.726  1.00  0.00     0.031 C 
ATOM     59  C   UNL     1      -0.319   3.009  12.105  1.00  0.00     0.034 A 
BRANCH  46  60
ATOM     60  C   UNL     1      -4.163  -0.076   8.333  1.00  0.00     0.023 A 
ATOM     61  C   UNL     1      -5.402  -0.709   8.540  1.00  0.00     0.031 A 
ATOM     62  C   UNL     1      -3.972   0.607   7.119  1.00  0.00     0.131 A 
ATOM     63  C   UNL     1      -6.367  -0.714   7.522  1.00  0.00     0.055 A 
ATOM     64  C   UNL     1      -4.971   0.675   6.145  1.00  0.00     0.041 A 
ATOM     65  F   UNL     1      -2.805   1.214   6.852  1.00  0.00    -0.206 F 
ATOM     66  C   UNL     1      -6.172  -0.002   6.337  1.00  0.00     0.022 A 
BRANCH  63  67
ATOM     67  S   UNL     1      -7.815  -1.790   7.708  1.00  0.00     0.124 S 
ATOM     68  O   UNL     1      -7.188  -3.101   7.865  1.00  0.00    -0.237 OA
ATOM     69  O   UNL     1      -8.462  -1.246   8.896  1.00  0.00    -0.237 OA
ATOM     70  O   UNL     1      -8.545  -1.603   6.456  1.00  0.00    -0.744 OA
ENDBRANCH  63  67
ENDBRANCH  46  60
BRANCH  47  71
ATOM     71  C   UNL     1       3.350  -0.931  14.904  1.00  0.00     0.023 A 
ATOM     72  C   UNL     1       3.261  -0.482  16.232  1.00  0.00     0.031 A 
ATOM     73  C   UNL     1       4.585  -1.445  14.466  1.00  0.00     0.131 A 
ATOM     74  C   UNL     1       4.396  -0.506  17.057  1.00  0.00     0.055 A 
ATOM     75  C   UNL     1       5.694  -1.524  15.309  1.00  0.00     0.041 A 
ATOM     76  F   UNL     1       4.727  -1.889  13.207  1.00  0.00    -0.206 F 
ATOM     77  C   UNL     1       5.607  -1.039  16.610  1.00  0.00     0.022 A 
BRANCH  74  78
ATOM     78  S   UNL     1       4.295   0.265  18.696  1.00  0.00     0.124 S 
ATOM     79  O   UNL     1       3.901   1.627  18.358  1.00  0.00    -0.237 OA
ATOM     80  O   UNL     1       3.282  -0.554  19.353  1.00  0.00    -0.237 OA
ATOM     81  O   UNL     1       5.650   0.118  19.224  1.00  0.00    -0.744 OA
ENDBRANCH  74  78
ENDBRANCH  47  71
BRANCH  59  82
ATOM     82  C   UNL     1      -0.258   4.491  12.392  1.00  0.00     0.023 A 
ATOM     83  C   UNL     1       0.870   5.266  12.069  1.00  0.00     0.031 A 
ATOM     84  C   UNL     1      -1.346   5.136  13.007  1.00  0.00     0.131 A 
ATOM     85  C   UNL     1       0.908   6.625  12.416  1.00  0.00     0.055 A 
ATOM     86  C   UNL     1      -1.330   6.503  13.287  1.00  0.00     0.041 A 
ATOM     87  F   UNL     1      -2.449   4.447  13.343  1.00  0.00    -0.206 F 
ATOM     88  C   UNL     1      -0.193   7.253  13.005  1.00  0.00     0.022 A 
BRANCH  85  89
ATOM     89  S   UNL     1       2.455   7.542  12.180  1.00  0.00     0.124 S 
ATOM     90  O   UNL     1       3.393   6.764  12.983  1.00  0.00    -0.237 OA
ATOM     91  O   UNL     1       2.643   7.472  10.735  1.00  0.00    -0.237 OA
ATOM     92  O   UNL     1       2.148   8.873  12.701  1.00  0.00    -0.744 OA
ENDBRANCH  85  89
ENDBRANCH  59  82
ENDBRANCH  33  34
ENDBRANCH  25  28
ENDBRANCH  23  24
ENDBRANCH  22  23
ENDBRANCH  21  22
ENDBRANCH   1  21
TORSDOF 20
