REMARK SMILES Cc1cscc1-c1ncc(C(=O)NCCCCNC(=O)c2ccc(-c3c4nc(c(-c5cc(S(=O)(=O)[O-])ccc5F)c5ccc([nH]5)c(-c5cc(S(=O)(=O)[O-])ccc5F)c5nc(c(-c6cc(S(=O)(=O)[O-])ccc6F)c6ccc3[nH]6)C=C5)C=C4)cc2)c(=O)[nH]1
REMARK SMILES IDX 16 1 15 2 14 3 13 4 11 5 12 6 10 8 7 9 8 10 86 11 9 12 84 13
REMARK SMILES IDX 85 15 6 16 1 17 2 18 3 19 4 20 5 21 17 22 18 23 19 24 20 26
REMARK SMILES IDX 21 27 22 28 83 29 23 30 82 31 24 32 25 33 26 34 76 35 27 36
REMARK SMILES IDX 81 37 75 38 77 39 28 40 80 41 74 42 73 43 29 45 61 46 41 47
REMARK SMILES IDX 60 48 42 49 45 50 59 51 78 52 43 53 44 54 58 56 79 57 46 58
REMARK SMILES IDX 30 59 31 60 39 61 32 62 38 63 40 64 37 65 33 66 34 67 35 68
REMARK SMILES IDX 36 69 62 70 63 71 71 72 64 73 70 74 72 75 69 76 65 77 66 78
REMARK SMILES IDX 67 79 68 80 47 81 48 82 56 83 49 84 55 85 57 86 54 87 50 88
REMARK SMILES IDX 51 89 52 90 53 91
REMARK H PARENT 13 7 86 14 18 25 77 44 45 55
REMARK Flexibility Score: inf
ROOT
ATOM      1  C   UNL     1       3.857   8.270   3.607  1.00  0.00     0.023 C 
ENDROOT
BRANCH   1   2
ATOM      2  C   UNL     1       2.994   7.090   3.158  1.00  0.00     0.023 C 
BRANCH   2   3
ATOM      3  C   UNL     1       2.334   7.261   1.788  1.00  0.00     0.116 C 
BRANCH   3   4
ATOM      4  N   UNL     1       3.277   6.983   0.722  1.00  0.00    -0.352 N 
ATOM      5  C   UNL     1       3.513   5.867  -0.016  1.00  0.00     0.258 C 
ATOM      6  O   UNL     1       4.414   5.946  -0.858  1.00  0.00    -0.269 OA
ATOM      7  H   UNL     1       3.855   7.745   0.490  1.00  0.00     0.163 HD
BRANCH   5   8
ATOM      8  C   UNL     1       2.710   4.620   0.093  1.00  0.00     0.123 A 
ATOM      9  C   UNL     1       1.287   2.283  -0.123  1.00  0.00     0.141 A 
ATOM     10  N   UNL     1       1.996   2.648  -1.137  1.00  0.00    -0.237 NA
ATOM     11  N   UNL     1       1.214   2.981   1.041  1.00  0.00    -0.306 N 
ATOM     12  C   UNL     1       2.663   3.845  -1.008  1.00  0.00     0.133 A 
ATOM     13  C   UNL     1       2.009   4.064   1.271  1.00  0.00     0.264 A 
ATOM     14  H   UNL     1       0.574   2.698   1.733  1.00  0.00     0.171 HD
ATOM     15  O   UNL     1       2.144   4.463   2.421  1.00  0.00    -0.269 OA
BRANCH   9  16
ATOM     16  C   UNL     1       0.555   1.036  -0.154  1.00  0.00     0.031 A 
ATOM     17  C   UNL     1       2.616  -0.543  -0.167  1.00  0.00     0.046 C 
ATOM     18  C   UNL     1       1.145  -0.281  -0.171  1.00  0.00    -0.029 A 
ATOM     19  C   UNL     1       0.172  -1.262  -0.167  1.00  0.00     0.069 A 
ATOM     20  S   UNL     1      -1.413  -0.625  -0.144  1.00  0.00    -0.151 S 
ATOM     21  C   UNL     1      -0.826   0.978  -0.134  1.00  0.00     0.077 A 
ENDBRANCH   9  16
ENDBRANCH   5   8
ENDBRANCH   3   4
ENDBRANCH   2   3
ENDBRANCH   1   2
BRANCH   1  22
ATOM     22  C   UNL     1       3.106   9.580   3.815  1.00  0.00     0.116 C 
BRANCH  22  23
ATOM     23  N   UNL     1       2.015   9.475   4.771  1.00  0.00    -0.352 N 
ATOM     24  C   UNL     1       1.530  10.438   5.626  1.00  0.00     0.251 C 
ATOM     25  H   UNL     1       1.564   8.601   4.812  1.00  0.00     0.163 HD
ATOM     26  O   UNL     1       0.663  10.153   6.443  1.00  0.00    -0.269 OA
BRANCH  24  27
ATOM     27  C   UNL     1       2.103  11.800   5.579  1.00  0.00     0.039 A 
ATOM     28  C   UNL     1       2.523  12.393   6.772  1.00  0.00     0.014 A 
ATOM     29  C   UNL     1       2.262  12.470   4.363  1.00  0.00     0.014 A 
ATOM     30  C   UNL     1       3.168  13.631   6.738  1.00  0.00     0.010 A 
ATOM     31  C   UNL     1       2.961  13.673   4.324  1.00  0.00     0.010 A 
ATOM     32  C   UNL     1       3.426  14.262   5.510  1.00  0.00    -0.014 A 
BRANCH  32  33
ATOM     33  C   UNL     1       4.180  15.539   5.444  1.00  0.00     0.031 A 
ATOM     34  C   UNL     1       3.499  16.788   4.958  1.00  0.00     0.074 A 
ATOM     35  C   UNL     1       5.491  15.556   5.753  1.00  0.00     0.049 A 
ATOM     36  N   UNL     1       4.002  17.976   4.740  1.00  0.00    -0.248 NA
ATOM     37  C   UNL     1       2.067  16.674   4.645  1.00  0.00     0.031 C 
ATOM     38  C   UNL     1       6.270  14.397   6.197  1.00  0.00     0.029 A 
ATOM     39  N   UNL     1       6.405  16.579   5.731  1.00  0.00    -0.354 N 
ATOM     40  C   UNL     1       2.954  18.748   4.253  1.00  0.00     0.074 A 
ATOM     41  C   UNL     1       1.803  17.874   4.152  1.00  0.00     0.031 C 
ATOM     42  C   UNL     1       7.538  14.780   6.422  1.00  0.00     0.029 A 
ATOM     43  C   UNL     1       7.673  16.197   6.102  1.00  0.00     0.049 A 
ATOM     44  H   UNL     1       6.174  17.501   5.473  1.00  0.00     0.167 HD
ATOM     45  C   UNL     1       2.946  20.068   3.940  1.00  0.00     0.034 A 
ATOM     46  C   UNL     1       8.817  16.906   6.165  1.00  0.00     0.034 A 
ATOM     47  C   UNL     1       4.098  20.927   4.059  1.00  0.00     0.049 A 
ATOM     48  C   UNL     1       8.787  18.369   5.800  1.00  0.00     0.074 A 
ATOM     49  C   UNL     1       4.191  22.287   3.818  1.00  0.00     0.029 A 
ATOM     50  N   UNL     1       5.364  20.508   4.451  1.00  0.00    -0.354 N 
ATOM     51  N   UNL     1       7.777  19.095   5.382  1.00  0.00    -0.248 NA
ATOM     52  C   UNL     1      10.050  19.107   5.926  1.00  0.00     0.031 C 
ATOM     53  C   UNL     1       5.522  22.678   4.010  1.00  0.00     0.029 A 
ATOM     54  C   UNL     1       6.247  21.576   4.435  1.00  0.00     0.049 A 
ATOM     55  H   UNL     1       5.599  19.585   4.703  1.00  0.00     0.167 HD
ATOM     56  C   UNL     1       8.277  20.384   5.224  1.00  0.00     0.074 A 
ATOM     57  C   UNL     1       9.675  20.336   5.604  1.00  0.00     0.031 C 
ATOM     58  C   UNL     1       7.640  21.508   4.807  1.00  0.00     0.034 A 
BRANCH  45  59
ATOM     59  C   UNL     1       1.652  20.645   3.419  1.00  0.00     0.023 A 
ATOM     60  C   UNL     1       0.489  20.678   4.209  1.00  0.00     0.031 A 
ATOM     61  C   UNL     1       1.566  21.133   2.103  1.00  0.00     0.131 A 
ATOM     62  C   UNL     1      -0.724  21.109   3.654  1.00  0.00     0.055 A 
ATOM     63  C   UNL     1       0.373  21.638   1.582  1.00  0.00     0.041 A 
ATOM     64  F   UNL     1       2.637  21.110   1.294  1.00  0.00    -0.206 F 
ATOM     65  C   UNL     1      -0.786  21.613   2.353  1.00  0.00     0.022 A 
BRANCH  62  66
ATOM     66  S   UNL     1      -2.248  20.863   4.607  1.00  0.00     0.124 S 
ATOM     67  O   UNL     1      -2.256  19.412   4.777  1.00  0.00    -0.237 OA
ATOM     68  O   UNL     1      -1.997  21.646   5.811  1.00  0.00    -0.237 OA
ATOM     69  O   UNL     1      -3.291  21.386   3.727  1.00  0.00    -0.744 OA
ENDBRANCH  62  66
ENDBRANCH  45  59
BRANCH  46  70
ATOM     70  C   UNL     1      10.090  16.254   6.582  1.00  0.00     0.023 A 
ATOM     71  C   UNL     1      10.729  16.620   7.777  1.00  0.00     0.031 A 
ATOM     72  C   UNL     1      10.708  15.286   5.772  1.00  0.00     0.131 A 
ATOM     73  C   UNL     1      11.972  16.058   8.107  1.00  0.00     0.055 A 
ATOM     74  C   UNL     1      11.922  14.694   6.127  1.00  0.00     0.041 A 
ATOM     75  F   UNL     1      10.134  14.896   4.623  1.00  0.00    -0.206 F 
ATOM     76  C   UNL     1      12.567  15.090   7.295  1.00  0.00     0.022 A 
BRANCH  73  77
ATOM     77  S   UNL     1      12.839  16.672   9.576  1.00  0.00     0.124 S 
ATOM     78  O   UNL     1      12.957  18.095   9.280  1.00  0.00    -0.237 OA
ATOM     79  O   UNL     1      11.914  16.312  10.645  1.00  0.00    -0.237 OA
ATOM     80  O   UNL     1      14.096  15.926   9.565  1.00  0.00    -0.744 OA
ENDBRANCH  73  77
ENDBRANCH  46  70
BRANCH  58  81
ATOM     81  C   UNL     1       8.448  22.781   4.789  1.00  0.00     0.023 A 
ATOM     82  C   UNL     1       9.498  22.977   3.876  1.00  0.00     0.031 A 
ATOM     83  C   UNL     1       8.170  23.805   5.712  1.00  0.00     0.131 A 
ATOM     84  C   UNL     1      10.268  24.148   3.940  1.00  0.00     0.055 A 
ATOM     85  C   UNL     1       8.904  24.991   5.735  1.00  0.00     0.041 A 
ATOM     86  F   UNL     1       7.178  23.668   6.606  1.00  0.00    -0.206 F 
ATOM     87  C   UNL     1       9.968  25.162   4.854  1.00  0.00     0.022 A 
BRANCH  84  88
ATOM     88  S   UNL     1      11.722  24.295   2.865  1.00  0.00     0.124 S 
ATOM     89  O   UNL     1      12.520  23.145   3.275  1.00  0.00    -0.237 OA
ATOM     90  O   UNL     1      11.133  24.220   1.532  1.00  0.00    -0.237 OA
ATOM     91  O   UNL     1      12.282  25.598   3.221  1.00  0.00    -0.744 OA
ENDBRANCH  84  88
ENDBRANCH  58  81
ENDBRANCH  32  33
ENDBRANCH  24  27
ENDBRANCH  22  23
ENDBRANCH   1  22
TORSDOF 15
