REMARK SMILES C[C@H](O)[C@@H](C)C1(C(=O)NCCCCNC(=O)c2ccc(-c3c4nc(c(-c5cc(S(=O)(=O)[O-])ccc5F)c5ccc([nH]5)c(-c5cc(S(=O)(=O)[O-])ccc5F)c5nc(c(-c6cc(S(=O)(=O)[O-])ccc6F)c6ccc3[nH]6)C=C5)C=C4)cc2)CCCCC1
REMARK SMILES IDX 11 1 10 2 9 3 7 4 8 5 6 7 80 8 84 9 81 10 83 11 82 12 4 13
REMARK SMILES IDX 5 14 2 15 1 16 3 17 12 19 13 20 14 21 15 22 16 24 17 25
REMARK SMILES IDX 18 26 79 27 19 28 78 29 20 30 21 31 22 32 72 33 23 34 77 35
REMARK SMILES IDX 71 36 73 37 24 38 76 39 70 40 69 41 25 43 57 44 37 45 56 46
REMARK SMILES IDX 38 47 41 48 55 49 74 50 39 51 40 52 54 54 75 55 42 56 26 57
REMARK SMILES IDX 27 58 35 59 28 60 34 61 36 62 33 63 29 64 30 65 31 66 32 67
REMARK SMILES IDX 58 68 59 69 67 70 60 71 66 72 68 73 65 74 61 75 62 76 63 77
REMARK SMILES IDX 64 78 43 79 44 80 52 81 45 82 51 83 53 84 50 85 46 86 47 87
REMARK SMILES IDX 48 88 49 89
REMARK H PARENT 9 6 3 18 14 23 73 42 41 53
REMARK Flexibility Score: inf
ROOT
ATOM      1  C   UNL     1      -2.456   6.371  -2.202  1.00  0.00     0.023 C 
ENDROOT
BRANCH   1   2
ATOM      2  C   UNL     1      -3.244   5.443  -1.285  1.00  0.00     0.116 C 
BRANCH   2   3
ATOM      3  N   UNL     1      -3.116   4.052  -1.636  1.00  0.00    -0.356 N 
ATOM      4  C   UNL     1      -2.553   2.970  -1.055  1.00  0.00     0.226 C 
ATOM      5  O   UNL     1      -2.954   1.911  -1.563  1.00  0.00    -0.274 OA
ATOM      6  H   UNL     1      -3.537   3.840  -2.501  1.00  0.00     0.163 HD
BRANCH   4   7
ATOM      7  C   UNL     1      -1.546   2.948   0.163  1.00  0.00     0.054 C 
ATOM      8  C   UNL     1      -2.340   3.087   1.496  1.00  0.00     0.017 C 
ATOM      9  C   UNL     1      -0.442   4.035   0.072  1.00  0.00     0.017 C 
ATOM     10  C   UNL     1      -2.643   4.482   2.018  1.00  0.00     0.001 C 
ATOM     11  C   UNL     1      -0.622   5.388   0.763  1.00  0.00     0.001 C 
ATOM     12  C   UNL     1      -1.404   5.357   2.063  1.00  0.00     0.000 C 
BRANCH   7  13
ATOM     13  C   UNL     1      -0.872   1.421   0.081  1.00  0.00     0.030 C 
ATOM     14  C   UNL     1      -1.428   0.443   1.145  1.00  0.00     0.011 C 
BRANCH  13  15
ATOM     15  C   UNL     1       0.680   1.269  -0.017  1.00  0.00     0.115 C 
ATOM     16  C   UNL     1       1.284   1.756  -1.334  1.00  0.00     0.038 C 
BRANCH  15  17
ATOM     17  O   UNL     1       1.035  -0.123   0.067  1.00  0.00    -0.393 OA
ATOM     18  H   UNL     1       0.658  -0.599  -0.689  1.00  0.00     0.210 HD
ENDBRANCH  15  17
ENDBRANCH  13  15
ENDBRANCH   7  13
ENDBRANCH   4   7
ENDBRANCH   2   3
ENDBRANCH   1   2
BRANCH   1  19
ATOM     19  C   UNL     1      -3.237   6.902  -3.401  1.00  0.00     0.023 C 
BRANCH  19  20
ATOM     20  C   UNL     1      -4.554   7.602  -3.073  1.00  0.00     0.116 C 
BRANCH  20  21
ATOM     21  N   UNL     1      -4.458   8.620  -2.034  1.00  0.00    -0.352 N 
ATOM     22  C   UNL     1      -5.218   9.766  -1.900  1.00  0.00     0.251 C 
ATOM     23  H   UNL     1      -3.769   8.474  -1.346  1.00  0.00     0.163 HD
ATOM     24  O   UNL     1      -4.996  10.561  -1.005  1.00  0.00    -0.269 OA
BRANCH  22  25
ATOM     25  C   UNL     1      -6.268  10.021  -2.910  1.00  0.00     0.039 A 
ATOM     26  C   UNL     1      -6.213  11.201  -3.654  1.00  0.00     0.014 A 
ATOM     27  C   UNL     1      -7.213   9.036  -3.199  1.00  0.00     0.014 A 
ATOM     28  C   UNL     1      -7.051  11.350  -4.761  1.00  0.00     0.010 A 
ATOM     29  C   UNL     1      -7.989   9.152  -4.346  1.00  0.00     0.010 A 
ATOM     30  C   UNL     1      -7.906  10.304  -5.146  1.00  0.00    -0.014 A 
BRANCH  30  31
ATOM     31  C   UNL     1      -8.716  10.381  -6.389  1.00  0.00     0.031 A 
ATOM     32  C   UNL     1     -10.216  10.341  -6.304  1.00  0.00     0.074 A 
ATOM     33  C   UNL     1      -8.102  10.391  -7.589  1.00  0.00     0.049 A 
ATOM     34  N   UNL     1     -11.100  10.274  -7.265  1.00  0.00    -0.248 NA
ATOM     35  C   UNL     1     -10.794  10.328  -4.952  1.00  0.00     0.031 C 
ATOM     36  C   UNL     1      -6.652  10.369  -7.801  1.00  0.00     0.029 A 
ATOM     37  N   UNL     1      -8.619  10.406  -8.860  1.00  0.00    -0.354 N 
ATOM     38  C   UNL     1     -12.336  10.185  -6.635  1.00  0.00     0.074 A 
ATOM     39  C   UNL     1     -12.078  10.141  -5.211  1.00  0.00     0.031 C 
ATOM     40  C   UNL     1      -6.398  10.397  -9.119  1.00  0.00     0.029 A 
ATOM     41  C   UNL     1      -7.662  10.398  -9.849  1.00  0.00     0.049 A 
ATOM     42  H   UNL     1      -9.585  10.422  -9.047  1.00  0.00     0.167 HD
ATOM     43  C   UNL     1     -13.573  10.168  -7.191  1.00  0.00     0.034 A 
ATOM     44  C   UNL     1      -7.790  10.384 -11.190  1.00  0.00     0.034 A 
ATOM     45  C   UNL     1     -13.812  10.244  -8.611  1.00  0.00     0.049 A 
ATOM     46  C   UNL     1      -9.174  10.388 -11.787  1.00  0.00     0.074 A 
ATOM     47  C   UNL     1     -15.020  10.300  -9.283  1.00  0.00     0.029 A 
ATOM     48  N   UNL     1     -12.817  10.274  -9.581  1.00  0.00    -0.354 N 
ATOM     49  N   UNL     1     -10.336  10.356 -11.176  1.00  0.00    -0.248 NA
ATOM     50  C   UNL     1      -9.263  10.439 -13.252  1.00  0.00     0.031 C 
ATOM     51  C   UNL     1     -14.758  10.314 -10.658  1.00  0.00     0.029 A 
ATOM     52  C   UNL     1     -13.385  10.330 -10.844  1.00  0.00     0.049 A 
ATOM     53  H   UNL     1     -11.850  10.259  -9.397  1.00  0.00     0.167 HD
ATOM     54  C   UNL     1     -11.295  10.412 -12.184  1.00  0.00     0.074 A 
ATOM     55  C   UNL     1     -10.574  10.492 -13.438  1.00  0.00     0.031 C 
ATOM     56  C   UNL     1     -12.648  10.402 -12.083  1.00  0.00     0.034 A 
BRANCH  43  57
ATOM     57  C   UNL     1     -14.749  10.046  -6.251  1.00  0.00     0.023 A 
ATOM     58  C   UNL     1     -15.022  11.029  -5.284  1.00  0.00     0.031 A 
ATOM     59  C   UNL     1     -15.575   8.909  -6.285  1.00  0.00     0.131 A 
ATOM     60  C   UNL     1     -16.029  10.814  -4.332  1.00  0.00     0.055 A 
ATOM     61  C   UNL     1     -16.634   8.743  -5.390  1.00  0.00     0.041 A 
ATOM     62  F   UNL     1     -15.353   7.928  -7.173  1.00  0.00    -0.206 F 
ATOM     63  C   UNL     1     -16.855   9.690  -4.394  1.00  0.00     0.022 A 
BRANCH  60  64
ATOM     64  S   UNL     1     -16.138  11.948  -2.921  1.00  0.00     0.124 S 
ATOM     65  O   UNL     1     -14.822  11.780  -2.308  1.00  0.00    -0.237 OA
ATOM     66  O   UNL     1     -16.382  13.233  -3.566  1.00  0.00    -0.237 OA
ATOM     67  O   UNL     1     -17.254  11.418  -2.140  1.00  0.00    -0.744 OA
ENDBRANCH  60  64
ENDBRANCH  43  57
BRANCH  44  68
ATOM     68  C   UNL     1      -6.585  10.367 -12.066  1.00  0.00     0.023 A 
ATOM     69  C   UNL     1      -6.273  11.465 -12.883  1.00  0.00     0.031 A 
ATOM     70  C   UNL     1      -5.748   9.239 -12.127  1.00  0.00     0.131 A 
ATOM     71  C   UNL     1      -5.179  11.396 -13.760  1.00  0.00     0.055 A 
ATOM     72  C   UNL     1      -4.636   9.191 -12.969  1.00  0.00     0.041 A 
ATOM     73  F   UNL     1      -5.997   8.167 -11.358  1.00  0.00    -0.206 F 
ATOM     74  C   UNL     1      -4.353  10.270 -13.802  1.00  0.00     0.022 A 
BRANCH  71  75
ATOM     75  S   UNL     1      -4.895  12.775 -14.903  1.00  0.00     0.124 S 
ATOM     76  O   UNL     1      -6.155  12.820 -15.635  1.00  0.00    -0.237 OA
ATOM     77  O   UNL     1      -4.646  13.881 -13.984  1.00  0.00    -0.237 OA
ATOM     78  O   UNL     1      -3.736  12.340 -15.679  1.00  0.00    -0.744 OA
ENDBRANCH  71  75
ENDBRANCH  44  68
BRANCH  56  79
ATOM     79  C   UNL     1     -13.427  10.528 -13.367  1.00  0.00     0.023 A 
ATOM     80  C   UNL     1     -13.450   9.496 -14.321  1.00  0.00     0.031 A 
ATOM     81  C   UNL     1     -14.148  11.704 -13.641  1.00  0.00     0.131 A 
ATOM     82  C   UNL     1     -14.140   9.680 -15.528  1.00  0.00     0.055 A 
ATOM     83  C   UNL     1     -14.875  11.860 -14.821  1.00  0.00     0.041 A 
ATOM     84  F   UNL     1     -14.157  12.719 -12.762  1.00  0.00    -0.206 F 
ATOM     85  C   UNL     1     -14.864  10.849 -15.778  1.00  0.00     0.022 A 
BRANCH  82  86
ATOM     86  S   UNL     1     -14.015   8.398 -16.806  1.00  0.00     0.124 S 
ATOM     87  O   UNL     1     -12.577   8.354 -17.052  1.00  0.00    -0.237 OA
ATOM     88  O   UNL     1     -14.583   7.233 -16.136  1.00  0.00    -0.237 OA
ATOM     89  O   UNL     1     -14.817   8.931 -17.906  1.00  0.00    -0.744 OA
ENDBRANCH  82  86
ENDBRANCH  56  79
ENDBRANCH  30  31
ENDBRANCH  22  25
ENDBRANCH  20  21
ENDBRANCH  19  20
ENDBRANCH   1  19
TORSDOF 17
