REMARK SMILES N#Cc1ccc(C(=O)N2CCC(Oc3ccccc3)(C(=O)NCCCCNC(=O)c3ccc(-c4c5nc(c(-c6cc(S(=O)(=O)[O-])ccc6F)c6ccc([nH]6)c(-c6cc(S(=O)(=O)[O-])ccc6F)c6nc(c(-c7cc(S(=O)(=O)[O-])ccc7F)c7ccc4[nH]7)C=C6)C=C5)cc3)CC2)cc1
REMARK SMILES IDX 25 1 24 2 23 3 22 4 20 5 21 6 12 8 7 9 8 10 9 11 10 12 94 13
REMARK SMILES IDX 11 14 93 15 6 16 3 17 4 18 96 19 5 20 95 21 2 22 1 23 13 24
REMARK SMILES IDX 14 25 15 26 19 27 16 28 18 29 17 30 26 31 27 32 28 33 29 35
REMARK SMILES IDX 30 36 31 37 92 38 32 39 91 40 33 41 34 42 35 43 85 44 36 45
REMARK SMILES IDX 90 46 84 47 86 48 37 49 89 50 83 51 82 52 38 54 70 55 50 56
REMARK SMILES IDX 69 57 51 58 54 59 68 60 87 61 52 62 53 63 67 65 88 66 55 67
REMARK SMILES IDX 39 68 40 69 48 70 41 71 47 72 49 73 46 74 42 75 43 76 44 77
REMARK SMILES IDX 45 78 71 79 72 80 80 81 73 82 79 83 81 84 78 85 74 86 75 87
REMARK SMILES IDX 76 88 77 89 56 90 57 91 65 92 58 93 64 94 66 95 63 96 59 97
REMARK SMILES IDX 60 98 61 99 62 100
REMARK H PARENT 22 7 27 34 86 53 54 64
REMARK Flexibility Score: inf
ROOT
ATOM      1  C   UNL     1       6.571  -6.397   3.825  1.00  0.00     0.023 C 
ENDROOT
BRANCH   1   2
ATOM      2  C   UNL     1       7.189  -5.147   3.201  1.00  0.00     0.023 C 
BRANCH   2   3
ATOM      3  C   UNL     1       7.562  -5.304   1.729  1.00  0.00     0.116 C 
BRANCH   3   4
ATOM      4  N   UNL     1       6.378  -5.454   0.906  1.00  0.00    -0.353 N 
ATOM      5  C   UNL     1       5.853  -4.624  -0.042  1.00  0.00     0.264 C 
ATOM      6  O   UNL     1       4.841  -5.032  -0.622  1.00  0.00    -0.270 OA
ATOM      7  H   UNL     1       5.872  -6.285   1.054  1.00  0.00     0.163 HD
BRANCH   5   8
ATOM      8  C   UNL     1       6.489  -3.237  -0.353  1.00  0.00     0.190 C 
ATOM      9  C   UNL     1       3.671  -0.191   0.315  1.00  0.00     0.253 C 
ATOM     10  O   UNL     1       4.238   0.768   0.831  1.00  0.00    -0.269 OA
ATOM     11  N   UNL     1       4.291  -1.415   0.136  1.00  0.00    -0.338 N 
ATOM     12  C   UNL     1       4.999  -1.993   1.258  1.00  0.00     0.124 C 
ATOM     13  C   UNL     1       4.294  -2.149  -1.127  1.00  0.00     0.124 C 
ATOM     14  C   UNL     1       6.426  -2.309   0.875  1.00  0.00     0.080 C 
ATOM     15  C   UNL     1       5.714  -2.579  -1.524  1.00  0.00     0.080 C 
BRANCH   9  16
ATOM     16  C   UNL     1       2.206  -0.119   0.050  1.00  0.00     0.040 A 
ATOM     17  C   UNL     1      -0.588   0.083  -0.088  1.00  0.00     0.052 A 
ATOM     18  C   UNL     1       0.202   1.238  -0.107  1.00  0.00     0.020 A 
ATOM     19  C   UNL     1       0.019  -1.173  -0.007  1.00  0.00     0.020 A 
ATOM     20  C   UNL     1       1.596   1.138  -0.036  1.00  0.00     0.015 A 
ATOM     21  C   UNL     1       1.409  -1.272   0.073  1.00  0.00     0.015 A 
BRANCH  17  22
ATOM     22  C   UNL     1      -2.019   0.184  -0.120  1.00  0.00     0.099 C 
ATOM     23  N   UNL     1      -3.174   0.265  -0.142  1.00  0.00    -0.192 NA
ENDBRANCH  17  22
ENDBRANCH   9  16
BRANCH   8  24
ATOM     24  O   UNL     1       7.825  -3.628  -0.765  1.00  0.00    -0.477 OA
BRANCH  24  25
ATOM     25  C   UNL     1       8.732  -2.659  -1.069  1.00  0.00     0.120 A 
ATOM     26  C   UNL     1       9.191  -2.603  -2.383  1.00  0.00     0.046 A 
ATOM     27  C   UNL     1       9.314  -1.847  -0.098  1.00  0.00     0.046 A 
ATOM     28  C   UNL     1      10.160  -1.666  -2.743  1.00  0.00     0.004 A 
ATOM     29  C   UNL     1      10.259  -0.888  -0.461  1.00  0.00     0.004 A 
ATOM     30  C   UNL     1      10.676  -0.792  -1.786  1.00  0.00     0.000 A 
ENDBRANCH  24  25
ENDBRANCH   8  24
ENDBRANCH   5   8
ENDBRANCH   3   4
ENDBRANCH   2   3
ENDBRANCH   1   2
BRANCH   1  31
ATOM     31  C   UNL     1       7.429  -7.651   3.715  1.00  0.00     0.116 C 
BRANCH  31  32
ATOM     32  N   UNL     1       8.731  -7.492   4.343  1.00  0.00    -0.352 N 
ATOM     33  C   UNL     1       9.356  -8.317   5.247  1.00  0.00     0.251 C 
ATOM     34  H   UNL     1       9.232  -6.684   4.087  1.00  0.00     0.163 HD
ATOM     35  O   UNL     1      10.373  -7.937   5.819  1.00  0.00    -0.269 OA
BRANCH  33  36
ATOM     36  C   UNL     1       8.773  -9.643   5.541  1.00  0.00     0.039 A 
ATOM     37  C   UNL     1       8.673 -10.061   6.869  1.00  0.00     0.014 A 
ATOM     38  C   UNL     1       8.297 -10.457   4.508  1.00  0.00     0.014 A 
ATOM     39  C   UNL     1       8.036 -11.268   7.163  1.00  0.00     0.010 A 
ATOM     40  C   UNL     1       7.580 -11.609   4.811  1.00  0.00     0.010 A 
ATOM     41  C   UNL     1       7.448 -12.034   6.141  1.00  0.00    -0.014 A 
BRANCH  41  42
ATOM     42  C   UNL     1       6.711 -13.290   6.443  1.00  0.00     0.031 A 
ATOM     43  C   UNL     1       7.197 -14.598   5.878  1.00  0.00     0.074 A 
ATOM     44  C   UNL     1       5.588 -13.250   7.188  1.00  0.00     0.049 A 
ATOM     45  N   UNL     1       6.661 -15.788   5.969  1.00  0.00    -0.248 NA
ATOM     46  C   UNL     1       8.436 -14.559   5.085  1.00  0.00     0.031 C 
ATOM     47  C   UNL     1       5.004 -12.040   7.773  1.00  0.00     0.029 A 
ATOM     48  N   UNL     1       4.735 -14.250   7.584  1.00  0.00    -0.354 N 
ATOM     49  C   UNL     1       7.495 -16.636   5.249  1.00  0.00     0.074 A 
ATOM     50  C   UNL     1       8.528 -15.810   4.662  1.00  0.00     0.031 C 
ATOM     51  C   UNL     1       3.916 -12.376   8.483  1.00  0.00     0.029 A 
ATOM     52  C   UNL     1       3.683 -13.811   8.356  1.00  0.00     0.049 A 
ATOM     53  H   UNL     1       4.864 -15.195   7.338  1.00  0.00     0.167 HD
ATOM     54  C   UNL     1       7.426 -17.983   5.115  1.00  0.00     0.034 A 
ATOM     55  C   UNL     1       2.643 -14.484   8.887  1.00  0.00     0.034 A 
ATOM     56  C   UNL     1       6.391 -18.795   5.704  1.00  0.00     0.049 A 
ATOM     57  C   UNL     1       2.546 -15.974   8.655  1.00  0.00     0.074 A 
ATOM     58  C   UNL     1       6.240 -20.170   5.649  1.00  0.00     0.029 A 
ATOM     59  N   UNL     1       5.325 -18.310   6.450  1.00  0.00    -0.354 N 
ATOM     60  N   UNL     1       3.364 -16.764   7.997  1.00  0.00    -0.248 NA
ATOM     61  C   UNL     1       1.392 -16.664   9.245  1.00  0.00     0.031 C 
ATOM     62  C   UNL     1       5.043 -20.506   6.285  1.00  0.00     0.029 A 
ATOM     63  C   UNL     1       4.497 -19.355   6.830  1.00  0.00     0.049 A 
ATOM     64  H   UNL     1       5.178 -17.363   6.676  1.00  0.00     0.167 HD
ATOM     65  C   UNL     1       2.845 -18.049   8.139  1.00  0.00     0.074 A 
ATOM     66  C   UNL     1       1.655 -17.928   8.954  1.00  0.00     0.031 C 
ATOM     67  C   UNL     1       3.313 -19.225   7.647  1.00  0.00     0.034 A 
BRANCH  54  68
ATOM     68  C   UNL     1       8.491 -18.658   4.284  1.00  0.00     0.023 A 
ATOM     69  C   UNL     1       9.847 -18.612   4.649  1.00  0.00     0.031 A 
ATOM     70  C   UNL     1       8.149 -19.351   3.109  1.00  0.00     0.131 A 
ATOM     71  C   UNL     1      10.817 -19.186   3.814  1.00  0.00     0.055 A 
ATOM     72  C   UNL     1       9.110 -19.998   2.330  1.00  0.00     0.041 A 
ATOM     73  F   UNL     1       6.874 -19.407   2.694  1.00  0.00    -0.206 F 
ATOM     74  C   UNL     1      10.456 -19.906   2.674  1.00  0.00     0.022 A 
BRANCH  71  75
ATOM     75  S   UNL     1      12.565 -18.848   4.162  1.00  0.00     0.124 S 
ATOM     76  O   UNL     1      12.601 -17.389   4.094  1.00  0.00    -0.237 OA
ATOM     77  O   UNL     1      12.742 -19.431   5.486  1.00  0.00    -0.237 OA
ATOM     78  O   UNL     1      13.268 -19.532   3.078  1.00  0.00    -0.744 OA
ENDBRANCH  71  75
ENDBRANCH  54  68
BRANCH  55  79
ATOM     79  C   UNL     1       1.591 -13.775   9.676  1.00  0.00     0.023 A 
ATOM     80  C   UNL     1       1.331 -14.127  11.010  1.00  0.00     0.031 A 
ATOM     81  C   UNL     1       0.771 -12.797   9.085  1.00  0.00     0.131 A 
ATOM     82  C   UNL     1       0.234 -13.567  11.682  1.00  0.00     0.055 A 
ATOM     83  C   UNL     1      -0.272 -12.186   9.784  1.00  0.00     0.041 A 
ATOM     84  F   UNL     1       0.968 -12.422   7.811  1.00  0.00    -0.206 F 
ATOM     85  C   UNL     1      -0.559 -12.585  11.085  1.00  0.00     0.022 A 
BRANCH  82  86
ATOM     86  S   UNL     1      -0.231 -14.251  13.297  1.00  0.00     0.124 S 
ATOM     87  O   UNL     1      -0.421 -15.660  12.975  1.00  0.00    -0.237 OA
ATOM     88  O   UNL     1       0.936 -13.928  14.110  1.00  0.00    -0.237 OA
ATOM     89  O   UNL     1      -1.449 -13.518  13.637  1.00  0.00    -0.744 OA
ENDBRANCH  82  86
ENDBRANCH  55  79
BRANCH  67  90
ATOM     90  C   UNL     1       2.576 -20.485   8.037  1.00  0.00     0.023 A 
ATOM     91  C   UNL     1       1.247 -20.724   7.649  1.00  0.00     0.031 A 
ATOM     92  C   UNL     1       3.220 -21.461   8.820  1.00  0.00     0.131 A 
ATOM     93  C   UNL     1       0.585 -21.877   8.098  1.00  0.00     0.055 A 
ATOM     94  C   UNL     1       2.581 -22.642   9.198  1.00  0.00     0.041 A 
ATOM     95  F   UNL     1       4.487 -21.284   9.228  1.00  0.00    -0.206 F 
ATOM     96  C   UNL     1       1.250 -22.848   8.850  1.00  0.00     0.022 A 
BRANCH  93  97
ATOM     97  S   UNL     1      -1.195 -22.035   7.786  1.00  0.00     0.124 S 
ATOM     98  O   UNL     1      -1.720 -20.825   8.411  1.00  0.00    -0.237 OA
ATOM     99  O   UNL     1      -1.254 -22.076   6.329  1.00  0.00    -0.237 OA
ATOM    100  O   UNL     1      -1.551 -23.285   8.456  1.00  0.00    -0.744 OA
ENDBRANCH  93  97
ENDBRANCH  67  90
ENDBRANCH  41  42
ENDBRANCH  33  36
ENDBRANCH  31  32
ENDBRANCH   1  31
TORSDOF 18
