REMARK SMILES C[C@@](CC(=O)Nc1ccc(NC(=O)c2ccco2)cc1)(C(=O)NCCCCNC(=O)c1ccc(-c2c3nc(c(-c4cc(S(=O)(=O)[O-])ccc4F)c4ccc([nH]4)c(-c4cc(S(=O)(=O)[O-])ccc4F)c4nc(c(-c5cc(S(=O)(=O)[O-])ccc5F)c5ccc2[nH]5)C=C4)C=C3)cc1)c1ccccc1
REMARK SMILES IDX 24 1 23 2 21 3 22 4 2 6 1 7 3 8 4 9 5 10 6 11 7 13 8 14
REMARK SMILES IDX 20 15 9 16 19 17 10 18 11 19 12 20 13 22 14 23 15 24 18 25
REMARK SMILES IDX 16 26 17 27 94 28 95 29 99 30 96 31 98 32 97 33 25 34 26 35
REMARK SMILES IDX 27 36 28 37 29 38 30 40 31 41 32 42 93 43 33 44 92 45 34 46
REMARK SMILES IDX 35 47 36 48 86 49 37 50 91 51 85 52 87 53 38 54 90 55 84 56
REMARK SMILES IDX 83 57 39 59 71 60 51 61 70 62 52 63 55 64 69 65 88 66 53 67
REMARK SMILES IDX 54 68 68 70 89 71 56 72 40 73 41 74 49 75 42 76 48 77 50 78
REMARK SMILES IDX 47 79 43 80 44 81 45 82 46 83 72 84 73 85 81 86 74 87 80 88
REMARK SMILES IDX 82 89 79 90 75 91 76 92 77 93 78 94 57 95 58 96 66 97 59 98
REMARK SMILES IDX 65 99 67 100 64 101 60 102 61 103 62 104 63 105
REMARK H PARENT 23 5 6 12 11 21 28 39 87 58 55 69
REMARK Flexibility Score: inf
ROOT
ATOM      1  C   UNL     1      -1.444  -0.931  -1.747  1.00  0.00     0.116 C 
ENDROOT
BRANCH   1   2
ATOM      2  N   UNL     1      -1.970   0.418  -1.665  1.00  0.00    -0.355 N 
ATOM      3  C   UNL     1      -1.381   1.627  -1.383  1.00  0.00     0.230 C 
ATOM      4  O   UNL     1      -2.084   2.606  -1.650  1.00  0.00    -0.274 OA
ATOM      5  H   UNL     1      -2.936   0.479  -1.848  1.00  0.00     0.163 HD
BRANCH   3   6
ATOM      6  C   UNL     1       0.024   1.747  -0.682  1.00  0.00     0.080 C 
ATOM      7  C   UNL     1      -0.140   0.866   0.587  1.00  0.00     0.027 C 
BRANCH   6   8
ATOM      8  C   UNL     1       1.211   1.472  -1.659  1.00  0.00     0.121 C 
BRANCH   8   9
ATOM      9  C   UNL     1       1.262   0.274  -2.576  1.00  0.00     0.225 C 
ATOM     10  O   UNL     1       0.734   0.339  -3.693  1.00  0.00    -0.275 OA
ATOM     11  N   UNL     1       1.884  -0.900  -2.267  1.00  0.00    -0.326 N 
ATOM     12  H   UNL     1       1.918  -1.522  -3.030  1.00  0.00     0.169 HD
BRANCH  11  13
ATOM     13  C   UNL     1       2.488  -1.427  -1.114  1.00  0.00     0.041 A 
ATOM     14  C   UNL     1       2.945  -2.747  -1.179  1.00  0.00     0.028 A 
ATOM     15  C   UNL     1       2.629  -0.757   0.091  1.00  0.00     0.028 A 
ATOM     16  C   UNL     1       3.556  -3.356  -0.070  1.00  0.00     0.028 A 
ATOM     17  C   UNL     1       3.199  -1.368   1.209  1.00  0.00     0.028 A 
ATOM     18  C   UNL     1       3.727  -2.650   1.119  1.00  0.00     0.041 A 
BRANCH  18  19
ATOM     19  N   UNL     1       4.400  -3.116   2.256  1.00  0.00    -0.319 N 
ATOM     20  C   UNL     1       5.359  -4.091   2.422  1.00  0.00     0.291 C 
ATOM     21  H   UNL     1       4.140  -2.663   3.091  1.00  0.00     0.170 HD
ATOM     22  O   UNL     1       5.687  -4.369   3.579  1.00  0.00    -0.265 OA
BRANCH  20  23
ATOM     23  C   UNL     1       5.998  -4.670   1.267  1.00  0.00     0.191 A 
ATOM     24  C   UNL     1       6.651  -4.112   0.180  1.00  0.00     0.056 A 
ATOM     25  O   UNL     1       5.990  -6.031   1.142  1.00  0.00    -0.459 OA
ATOM     26  C   UNL     1       7.009  -5.185  -0.671  1.00  0.00     0.043 A 
ATOM     27  C   UNL     1       6.584  -6.330  -0.040  1.00  0.00     0.196 A 
ENDBRANCH  20  23
ENDBRANCH  18  19
ENDBRANCH  11  13
ENDBRANCH   8   9
ENDBRANCH   6   8
BRANCH   6  28
ATOM     28  C   UNL     1       0.401   3.202  -0.169  1.00  0.00    -0.032 A 
ATOM     29  C   UNL     1       1.339   3.377   0.880  1.00  0.00     0.005 A 
ATOM     30  C   UNL     1       0.004   4.370  -0.842  1.00  0.00     0.005 A 
ATOM     31  C   UNL     1       1.793   4.638   1.276  1.00  0.00     0.000 A 
ATOM     32  C   UNL     1       0.460   5.636  -0.448  1.00  0.00     0.000 A 
ATOM     33  C   UNL     1       1.347   5.772   0.615  1.00  0.00     0.000 A 
ENDBRANCH   6  28
ENDBRANCH   3   6
ENDBRANCH   1   2
BRANCH   1  34
ATOM     34  C   UNL     1      -2.048  -1.957  -0.796  1.00  0.00     0.023 C 
BRANCH  34  35
ATOM     35  C   UNL     1      -3.488  -2.364  -1.058  1.00  0.00     0.023 C 
BRANCH  35  36
ATOM     36  C   UNL     1      -3.845  -2.673  -2.504  1.00  0.00     0.116 C 
BRANCH  36  37
ATOM     37  N   UNL     1      -3.015  -3.694  -3.130  1.00  0.00    -0.352 N 
ATOM     38  C   UNL     1      -3.400  -4.718  -3.969  1.00  0.00     0.251 C 
ATOM     39  H   UNL     1      -2.053  -3.646  -2.927  1.00  0.00     0.163 HD
ATOM     40  O   UNL     1      -2.568  -5.516  -4.388  1.00  0.00    -0.269 OA
BRANCH  38  41
ATOM     41  C   UNL     1      -4.835  -4.879  -4.297  1.00  0.00     0.039 A 
ATOM     42  C   UNL     1      -5.437  -6.122  -4.092  1.00  0.00     0.014 A 
ATOM     43  C   UNL     1      -5.600  -3.782  -4.697  1.00  0.00     0.014 A 
ATOM     44  C   UNL     1      -6.827  -6.236  -4.175  1.00  0.00     0.010 A 
ATOM     45  C   UNL     1      -6.987  -3.876  -4.691  1.00  0.00     0.010 A 
ATOM     46  C   UNL     1      -7.617  -5.099  -4.413  1.00  0.00    -0.014 A 
BRANCH  46  47
ATOM     47  C   UNL     1      -9.102  -5.154  -4.356  1.00  0.00     0.031 A 
ATOM     48  C   UNL     1      -9.911  -4.808  -5.575  1.00  0.00     0.074 A 
ATOM     49  C   UNL     1      -9.720  -5.412  -3.185  1.00  0.00     0.049 A 
ATOM     50  N   UNL     1     -11.204  -4.657  -5.697  1.00  0.00    -0.248 NA
ATOM     51  C   UNL     1      -9.155  -4.556  -6.811  1.00  0.00     0.031 C 
ATOM     52  C   UNL     1      -9.048  -5.702  -1.915  1.00  0.00     0.029 A 
ATOM     53  N   UNL     1     -11.055  -5.454  -2.867  1.00  0.00    -0.354 N 
ATOM     54  C   UNL     1     -11.416  -4.266  -7.015  1.00  0.00     0.074 A 
ATOM     55  C   UNL     1     -10.110  -4.148  -7.631  1.00  0.00     0.031 C 
ATOM     56  C   UNL     1      -9.973  -5.906  -0.963  1.00  0.00     0.029 A 
ATOM     57  C   UNL     1     -11.300  -5.724  -1.540  1.00  0.00     0.049 A 
ATOM     58  H   UNL     1     -11.770  -5.304  -3.526  1.00  0.00     0.167 HD
ATOM     59  C   UNL     1     -12.589  -4.047  -7.659  1.00  0.00     0.034 A 
ATOM     60  C   UNL     1     -12.462  -5.802  -0.862  1.00  0.00     0.034 A 
ATOM     61  C   UNL     1     -13.884  -4.195  -7.041  1.00  0.00     0.049 A 
ATOM     62  C   UNL     1     -13.755  -5.583  -1.603  1.00  0.00     0.074 A 
ATOM     63  C   UNL     1     -15.136  -4.056  -7.614  1.00  0.00     0.029 A 
ATOM     64  N   UNL     1     -14.092  -4.520  -5.707  1.00  0.00    -0.354 N 
ATOM     65  N   UNL     1     -13.940  -5.255  -2.860  1.00  0.00    -0.248 NA
ATOM     66  C   UNL     1     -14.995  -5.757  -0.835  1.00  0.00     0.031 C 
ATOM     67  C   UNL     1     -16.100  -4.253  -6.617  1.00  0.00     0.029 A 
ATOM     68  C   UNL     1     -15.451  -4.571  -5.436  1.00  0.00     0.049 A 
ATOM     69  H   UNL     1     -13.379  -4.689  -5.050  1.00  0.00     0.167 HD
ATOM     70  C   UNL     1     -15.319  -5.206  -3.039  1.00  0.00     0.074 A 
ATOM     71  C   UNL     1     -15.917  -5.551  -1.765  1.00  0.00     0.031 C 
ATOM     72  C   UNL     1     -16.028  -4.908  -4.157  1.00  0.00     0.034 A 
BRANCH  59  73
ATOM     73  C   UNL     1     -12.509  -3.606  -9.100  1.00  0.00     0.023 A 
ATOM     74  C   UNL     1     -11.954  -4.435 -10.091  1.00  0.00     0.031 A 
ATOM     75  C   UNL     1     -12.944  -2.325  -9.480  1.00  0.00     0.131 A 
ATOM     76  C   UNL     1     -11.766  -3.943 -11.390  1.00  0.00     0.055 A 
ATOM     77  C   UNL     1     -12.831  -1.871 -10.796  1.00  0.00     0.041 A 
ATOM     78  F   UNL     1     -13.466  -1.483  -8.574  1.00  0.00    -0.206 F 
ATOM     79  C   UNL     1     -12.223  -2.675 -11.757  1.00  0.00     0.022 A 
BRANCH  76  80
ATOM     80  S   UNL     1     -10.781  -4.927 -12.552  1.00  0.00     0.124 S 
ATOM     81  O   UNL     1      -9.495  -4.996 -11.861  1.00  0.00    -0.237 OA
ATOM     82  O   UNL     1     -11.533  -6.174 -12.627  1.00  0.00    -0.237 OA
ATOM     83  O   UNL     1     -10.783  -4.122 -13.772  1.00  0.00    -0.744 OA
ENDBRANCH  76  80
ENDBRANCH  59  73
BRANCH  60  84
ATOM     84  C   UNL     1     -12.466  -6.094   0.598  1.00  0.00     0.023 A 
ATOM     85  C   UNL     1     -12.969  -7.308   1.090  1.00  0.00     0.031 A 
ATOM     86  C   UNL     1     -11.998  -5.146   1.526  1.00  0.00     0.131 A 
ATOM     87  C   UNL     1     -13.034  -7.528   2.475  1.00  0.00     0.055 A 
ATOM     88  C   UNL     1     -12.026  -5.386   2.901  1.00  0.00     0.041 A 
ATOM     89  F   UNL     1     -11.497  -3.975   1.104  1.00  0.00    -0.206 F 
ATOM     90  C   UNL     1     -12.558  -6.579   3.383  1.00  0.00     0.022 A 
BRANCH  87  91
ATOM     91  S   UNL     1     -13.815  -9.050   3.076  1.00  0.00     0.124 S 
ATOM     92  O   UNL     1     -15.149  -8.951   2.496  1.00  0.00    -0.237 OA
ATOM     93  O   UNL     1     -12.945 -10.078   2.513  1.00  0.00    -0.237 OA
ATOM     94  O   UNL     1     -13.754  -8.913   4.530  1.00  0.00    -0.744 OA
ENDBRANCH  87  91
ENDBRANCH  60  84
BRANCH  72  95
ATOM     95  C   UNL     1     -17.528  -4.991  -4.052  1.00  0.00     0.023 A 
ATOM     96  C   UNL     1     -18.268  -4.057  -3.306  1.00  0.00     0.031 A 
ATOM     97  C   UNL     1     -18.223  -6.029  -4.697  1.00  0.00     0.131 A 
ATOM     98  C   UNL     1     -19.658  -4.208  -3.185  1.00  0.00     0.055 A 
ATOM     99  C   UNL     1     -19.610  -6.146  -4.611  1.00  0.00     0.041 A 
ATOM    100  F   UNL     1     -17.561  -6.947  -5.420  1.00  0.00    -0.206 F 
ATOM    101  C   UNL     1     -20.334  -5.239  -3.843  1.00  0.00     0.022 A 
BRANCH  98 102
ATOM    102  S   UNL     1     -20.565  -3.079  -2.093  1.00  0.00     0.124 S 
ATOM    103  O   UNL     1     -19.926  -3.323  -0.804  1.00  0.00    -0.237 OA
ATOM    104  O   UNL     1     -20.300  -1.778  -2.700  1.00  0.00    -0.237 OA
ATOM    105  O   UNL     1     -21.948  -3.539  -2.196  1.00  0.00    -0.744 OA
ENDBRANCH  98 102
ENDBRANCH  72  95
ENDBRANCH  46  47
ENDBRANCH  38  41
ENDBRANCH  36  37
ENDBRANCH  35  36
ENDBRANCH  34  35
ENDBRANCH   1  34
TORSDOF 20
