REMARK SMILES CC[C@@H](C)[C@H](NC(=O)NCc1ccc(C)cc1)C(=O)NCCCCNC(=O)c1ccc(-c2c3nc(c(-c4cc(S(=O)(=O)[O-])ccc4F)c4ccc([nH]4)c(-c4cc(S(=O)(=O)[O-])ccc4F)c4nc(c(-c5cc(S(=O)(=O)[O-])ccc5F)c5ccc2[nH]5)C=C4)C=C3)cc1
REMARK SMILES IDX 22 1 21 2 20 3 18 4 19 5 5 7 3 8 4 9 2 10 1 11 6 12 7 13
REMARK SMILES IDX 8 15 9 16 10 18 11 19 12 20 17 21 13 22 16 23 14 24 15 25
REMARK SMILES IDX 23 26 24 27 25 28 26 29 27 31 28 32 29 33 90 34 30 35 89 36
REMARK SMILES IDX 31 37 32 38 33 39 83 40 34 41 88 42 82 43 84 44 35 45 87 46
REMARK SMILES IDX 81 47 80 48 36 50 68 51 48 52 67 53 49 54 52 55 66 56 85 57
REMARK SMILES IDX 50 58 51 59 65 61 86 62 53 63 37 64 38 65 46 66 39 67 45 68
REMARK SMILES IDX 47 69 44 70 40 71 41 72 42 73 43 74 69 75 70 76 78 77 71 78
REMARK SMILES IDX 77 79 79 80 76 81 72 82 73 83 74 84 75 85 54 86 55 87 63 88
REMARK SMILES IDX 56 89 62 90 64 91 61 92 57 93 58 94 59 95 60 96
REMARK H PARENT 20 6 6 14 9 17 25 30 84 49 52 60
REMARK Flexibility Score: inf
ROOT
ATOM      1  C   UNL     1       4.162   0.017  -3.576  1.00  0.00     0.023 C 
ENDROOT
BRANCH   1   2
ATOM      2  C   UNL     1       3.906   1.518  -3.685  1.00  0.00     0.116 C 
BRANCH   2   3
ATOM      3  N   UNL     1       3.058   1.936  -4.781  1.00  0.00    -0.354 N 
ATOM      4  C   UNL     1       1.770   2.376  -4.741  1.00  0.00     0.242 C 
ATOM      5  O   UNL     1       1.367   3.084  -5.675  1.00  0.00    -0.273 OA
ATOM      6  H   UNL     1       3.467   1.896  -5.676  1.00  0.00     0.163 HD
BRANCH   4   7
ATOM      7  C   UNL     1       0.833   2.166  -3.535  1.00  0.00     0.175 C 
BRANCH   7   8
ATOM      8  C   UNL     1       0.924   3.396  -2.527  1.00  0.00     0.018 C 
ATOM      9  C   UNL     1       1.472   4.672  -3.200  1.00  0.00     0.010 C 
BRANCH   8  10
ATOM     10  C   UNL     1       1.588   3.117  -1.149  1.00  0.00     0.002 C 
ATOM     11  C   UNL     1       2.299   4.295  -0.487  1.00  0.00     0.004 C 
ENDBRANCH   8  10
ENDBRANCH   7   8
BRANCH   7  12
ATOM     12  N   UNL     1       0.919   0.838  -2.919  1.00  0.00    -0.326 N 
ATOM     13  C   UNL     1       0.795  -0.420  -3.352  1.00  0.00     0.315 C 
ATOM     14  H   UNL     1       1.116   0.884  -1.956  1.00  0.00     0.166 HD
ATOM     15  O   UNL     1       0.887  -1.321  -2.511  1.00  0.00    -0.249 OA
ATOM     16  N   UNL     1       0.644  -0.811  -4.621  1.00  0.00    -0.334 N 
ATOM     17  H   UNL     1       0.907  -1.752  -4.747  1.00  0.00     0.165 HD
BRANCH  16  18
ATOM     18  C   UNL     1       0.194  -0.207  -5.860  1.00  0.00     0.153 C 
BRANCH  18  19
ATOM     19  C   UNL     1       1.265   0.151  -6.866  1.00  0.00    -0.029 A 
ATOM     20  C   UNL     1       1.001   1.216  -7.742  1.00  0.00     0.006 A 
ATOM     21  C   UNL     1       2.526  -0.454  -6.927  1.00  0.00     0.006 A 
ATOM     22  C   UNL     1       2.023   1.804  -8.485  1.00  0.00     0.004 A 
ATOM     23  C   UNL     1       3.550   0.119  -7.696  1.00  0.00     0.004 A 
ATOM     24  C   UNL     1       3.317   1.289  -8.429  1.00  0.00    -0.051 A 
ATOM     25  C   UNL     1       4.436   2.092  -9.015  1.00  0.00     0.044 C 
ENDBRANCH  18  19
ENDBRANCH  16  18
ENDBRANCH   7  12
ENDBRANCH   4   7
ENDBRANCH   2   3
ENDBRANCH   1   2
BRANCH   1  26
ATOM     26  C   UNL     1       5.366  -0.648  -4.261  1.00  0.00     0.023 C 
BRANCH  26  27
ATOM     27  C   UNL     1       6.475   0.229  -4.831  1.00  0.00     0.116 C 
BRANCH  27  28
ATOM     28  N   UNL     1       7.812  -0.359  -4.640  1.00  0.00    -0.352 N 
ATOM     29  C   UNL     1       9.037   0.041  -5.141  1.00  0.00     0.251 C 
ATOM     30  H   UNL     1       7.837  -1.160  -4.068  1.00  0.00     0.163 HD
ATOM     31  O   UNL     1      10.088  -0.462  -4.741  1.00  0.00    -0.269 OA
BRANCH  29  32
ATOM     32  C   UNL     1       9.088   1.181  -6.079  1.00  0.00     0.039 A 
ATOM     33  C   UNL     1       9.898   2.277  -5.753  1.00  0.00     0.014 A 
ATOM     34  C   UNL     1       8.133   1.281  -7.077  1.00  0.00     0.014 A 
ATOM     35  C   UNL     1       9.520   3.549  -6.179  1.00  0.00     0.010 A 
ATOM     36  C   UNL     1       7.710   2.542  -7.426  1.00  0.00     0.010 A 
ATOM     37  C   UNL     1       8.340   3.673  -6.905  1.00  0.00    -0.014 A 
BRANCH  37  38
ATOM     38  C   UNL     1       7.612   4.921  -7.093  1.00  0.00     0.031 A 
ATOM     39  C   UNL     1       7.737   5.658  -8.358  1.00  0.00     0.074 A 
ATOM     40  C   UNL     1       6.732   5.330  -6.151  1.00  0.00     0.049 A 
ATOM     41  N   UNL     1       7.622   6.934  -8.474  1.00  0.00    -0.248 NA
ATOM     42  C   UNL     1       8.028   4.985  -9.616  1.00  0.00     0.031 C 
ATOM     43  C   UNL     1       5.761   6.417  -6.242  1.00  0.00     0.029 A 
ATOM     44  N   UNL     1       6.678   4.935  -4.818  1.00  0.00    -0.354 N 
ATOM     45  C   UNL     1       7.552   7.228  -9.818  1.00  0.00     0.074 A 
ATOM     46  C   UNL     1       7.874   5.988 -10.485  1.00  0.00     0.031 C 
ATOM     47  C   UNL     1       5.397   6.780  -5.000  1.00  0.00     0.029 A 
ATOM     48  C   UNL     1       6.212   6.027  -4.062  1.00  0.00     0.049 A 
ATOM     49  H   UNL     1       6.921   4.048  -4.466  1.00  0.00     0.167 HD
ATOM     50  C   UNL     1       7.099   8.455 -10.210  1.00  0.00     0.034 A 
ATOM     51  C   UNL     1       7.023   6.577  -3.110  1.00  0.00     0.034 A 
ATOM     52  C   UNL     1       6.783   9.288  -9.046  1.00  0.00     0.049 A 
ATOM     53  C   UNL     1       7.535   7.952  -3.491  1.00  0.00     0.074 A 
ATOM     54  C   UNL     1       5.590   9.573  -8.402  1.00  0.00     0.029 A 
ATOM     55  N   UNL     1       7.799   9.679  -8.177  1.00  0.00    -0.354 N 
ATOM     56  N   UNL     1       7.372   8.506  -4.663  1.00  0.00    -0.248 NA
ATOM     57  C   UNL     1       8.291   8.799  -2.574  1.00  0.00     0.031 C 
ATOM     58  C   UNL     1       5.901  10.020  -7.089  1.00  0.00     0.029 A 
ATOM     59  C   UNL     1       7.279  10.059  -6.952  1.00  0.00     0.049 A 
ATOM     60  H   UNL     1       8.757   9.684  -8.404  1.00  0.00     0.167 HD
ATOM     61  C   UNL     1       8.042   9.702  -4.704  1.00  0.00     0.074 A 
ATOM     62  C   UNL     1       8.545   9.866  -3.349  1.00  0.00     0.031 C 
ATOM     63  C   UNL     1       8.157  10.443  -5.851  1.00  0.00     0.034 A 
BRANCH  50  64
ATOM     64  C   UNL     1       6.656   8.793 -11.620  1.00  0.00     0.023 A 
ATOM     65  C   UNL     1       5.686   9.800 -11.816  1.00  0.00     0.031 A 
ATOM     66  C   UNL     1       7.105   8.161 -12.797  1.00  0.00     0.131 A 
ATOM     67  C   UNL     1       5.139  10.062 -13.088  1.00  0.00     0.055 A 
ATOM     68  C   UNL     1       6.520   8.376 -14.054  1.00  0.00     0.041 A 
ATOM     69  F   UNL     1       8.172   7.353 -12.802  1.00  0.00    -0.206 F 
ATOM     70  C   UNL     1       5.521   9.324 -14.204  1.00  0.00     0.022 A 
BRANCH  67  71
ATOM     71  S   UNL     1       3.924  11.397 -13.272  1.00  0.00     0.124 S 
ATOM     72  O   UNL     1       2.847  10.959 -12.390  1.00  0.00    -0.237 OA
ATOM     73  O   UNL     1       4.681  12.566 -12.839  1.00  0.00    -0.237 OA
ATOM     74  O   UNL     1       3.601  11.368 -14.698  1.00  0.00    -0.744 OA
ENDBRANCH  67  71
ENDBRANCH  50  64
BRANCH  51  75
ATOM     75  C   UNL     1       7.800   5.531  -2.378  1.00  0.00     0.023 A 
ATOM     76  C   UNL     1       7.058   4.614  -1.601  1.00  0.00     0.031 A 
ATOM     77  C   UNL     1       9.068   5.139  -2.830  1.00  0.00     0.131 A 
ATOM     78  C   UNL     1       7.494   3.286  -1.481  1.00  0.00     0.055 A 
ATOM     79  C   UNL     1       9.512   3.823  -2.671  1.00  0.00     0.041 A 
ATOM     80  F   UNL     1       9.819   5.969  -3.570  1.00  0.00    -0.206 F 
ATOM     81  C   UNL     1       8.696   2.874  -2.058  1.00  0.00     0.022 A 
BRANCH  78  82
ATOM     82  S   UNL     1       6.375   2.032  -0.797  1.00  0.00     0.124 S 
ATOM     83  O   UNL     1       6.817   1.941   0.588  1.00  0.00    -0.237 OA
ATOM     84  O   UNL     1       5.056   2.620  -1.004  1.00  0.00    -0.237 OA
ATOM     85  O   UNL     1       6.643   0.862  -1.631  1.00  0.00    -0.744 OA
ENDBRANCH  78  82
ENDBRANCH  51  75
BRANCH  63  86
ATOM     86  C   UNL     1       9.045  11.661  -5.988  1.00  0.00     0.023 A 
ATOM     87  C   UNL     1      10.115  11.923  -5.122  1.00  0.00     0.031 A 
ATOM     88  C   UNL     1       8.858  12.601  -7.029  1.00  0.00     0.131 A 
ATOM     89  C   UNL     1      10.826  13.131  -5.188  1.00  0.00     0.055 A 
ATOM     90  C   UNL     1       9.649  13.747  -7.168  1.00  0.00     0.041 A 
ATOM     91  F   UNL     1       7.898  12.450  -7.953  1.00  0.00    -0.206 F 
ATOM     92  C   UNL     1      10.618  14.039  -6.220  1.00  0.00     0.022 A 
BRANCH  89  93
ATOM     93  S   UNL     1      11.918  13.541  -3.803  1.00  0.00     0.124 S 
ATOM     94  O   UNL     1      10.976  13.588  -2.687  1.00  0.00    -0.237 OA
ATOM     95  O   UNL     1      12.853  12.421  -3.794  1.00  0.00    -0.237 OA
ATOM     96  O   UNL     1      12.491  14.830  -4.185  1.00  0.00    -0.744 OA
ENDBRANCH  89  93
ENDBRANCH  63  86
ENDBRANCH  37  38
ENDBRANCH  29  32
ENDBRANCH  27  28
ENDBRANCH  26  27
ENDBRANCH   1  26
TORSDOF 19
