REMARK SMILES CC[C@](C)(NC(=O)[C@](C)([NH3+])c1ccccc1)C(=O)NCCCCNC(=O)c1ccc(-c2c3nc(c(-c4cc(S(=O)(=O)[O-])ccc4F)c4ccc([nH]4)c(-c4cc(S(=O)(=O)[O-])ccc4F)c4nc(c(-c5cc(S(=O)(=O)[O-])ccc5F)c5ccc2[nH]5)C=C4)C=C3)cc1
REMARK SMILES IDX 21 1 20 2 19 3 17 4 18 5 3 7 4 8 2 9 1 10 5 11 6 12 7 14
REMARK SMILES IDX 8 15 9 16 10 17 11 21 12 22 16 23 13 24 15 25 14 26 22 27
REMARK SMILES IDX 23 28 24 29 25 30 26 32 27 33 28 34 89 35 29 36 88 37 30 38
REMARK SMILES IDX 31 39 32 40 82 41 33 42 87 43 81 44 83 45 34 46 86 47 80 48
REMARK SMILES IDX 79 49 35 51 67 52 47 53 66 54 48 55 51 56 65 57 84 58 49 59
REMARK SMILES IDX 50 60 64 62 85 63 52 64 36 65 37 66 45 67 38 68 44 69 46 70
REMARK SMILES IDX 43 71 39 72 40 73 41 74 42 75 68 76 69 77 77 78 70 79 76 80
REMARK SMILES IDX 78 81 75 82 71 83 72 84 73 85 74 86 53 87 54 88 62 89 55 90
REMARK SMILES IDX 61 91 63 92 60 93 56 94 57 95 58 96 59 97
REMARK H PARENT 19 6 5 13 10 18 10 19 10 20 24 31 83 50 51 61
REMARK Flexibility Score: inf
ROOT
ATOM      1  C   UNL     1       5.260   2.835  -1.558  1.00  0.00     0.023 C 
ENDROOT
BRANCH   1   2
ATOM      2  C   UNL     1       6.166   3.371  -0.449  1.00  0.00     0.116 C 
BRANCH   2   3
ATOM      3  N   UNL     1       6.085   4.798  -0.148  1.00  0.00    -0.354 N 
ATOM      4  C   UNL     1       5.752   5.481   1.004  1.00  0.00     0.245 C 
ATOM      5  O   UNL     1       6.204   6.622   1.134  1.00  0.00    -0.272 OA
ATOM      6  H   UNL     1       6.308   5.382  -0.909  1.00  0.00     0.163 HD
BRANCH   4   7
ATOM      7  C   UNL     1       5.043   4.771   2.167  1.00  0.00     0.116 C 
ATOM      8  C   UNL     1       4.394   5.641   3.261  1.00  0.00     0.045 C 
BRANCH   7   9
ATOM      9  C   UNL     1       6.207   3.952   2.857  1.00  0.00     0.035 C 
ATOM     10  C   UNL     1       7.400   4.823   3.296  1.00  0.00     0.007 C 
ENDBRANCH   7   9
BRANCH   7  11
ATOM     11  N   UNL     1       3.985   3.919   1.589  1.00  0.00    -0.336 N 
ATOM     12  C   UNL     1       2.822   4.117   0.920  1.00  0.00     0.286 C 
ATOM     13  H   UNL     1       4.171   2.962   1.723  1.00  0.00     0.164 HD
ATOM     14  O   UNL     1       2.186   3.037   0.873  1.00  0.00    -0.267 OA
BRANCH  12  15
ATOM     15  C   UNL     1       2.186   5.354   0.094  1.00  0.00     0.196 C 
ATOM     16  C   UNL     1       0.699   5.394   0.552  1.00  0.00     0.096 C 
BRANCH  15  17
ATOM     17  N   UNL     1       2.081   4.856  -1.314  1.00  0.00    -0.341 N 
ATOM     18  H   UNL     1       1.684   5.587  -1.904  1.00  0.00     0.345 HD
ATOM     19  H   UNL     1       1.478   4.034  -1.339  1.00  0.00     0.345 HD
ATOM     20  H   UNL     1       3.009   4.608  -1.657  1.00  0.00     0.345 HD
ENDBRANCH  15  17
BRANCH  15  21
ATOM     21  C   UNL     1       2.761   6.792   0.041  1.00  0.00     0.022 A 
ATOM     22  C   UNL     1       3.946   7.109  -0.637  1.00  0.00     0.011 A 
ATOM     23  C   UNL     1       2.017   7.924   0.451  1.00  0.00     0.011 A 
ATOM     24  C   UNL     1       4.476   8.413  -0.687  1.00  0.00     0.001 A 
ATOM     25  C   UNL     1       2.493   9.241   0.332  1.00  0.00     0.001 A 
ATOM     26  C   UNL     1       3.756   9.482  -0.181  1.00  0.00     0.000 A 
ENDBRANCH  15  21
ENDBRANCH  12  15
ENDBRANCH   7  11
ENDBRANCH   4   7
ENDBRANCH   2   3
ENDBRANCH   1   2
BRANCH   1  27
ATOM     27  C   UNL     1       5.130   3.674  -2.823  1.00  0.00     0.023 C 
BRANCH  27  28
ATOM     28  C   UNL     1       6.432   4.044  -3.508  1.00  0.00     0.116 C 
BRANCH  28  29
ATOM     29  N   UNL     1       7.087   2.898  -4.104  1.00  0.00    -0.352 N 
ATOM     30  C   UNL     1       7.186   2.508  -5.418  1.00  0.00     0.251 C 
ATOM     31  H   UNL     1       7.536   2.301  -3.463  1.00  0.00     0.163 HD
ATOM     32  O   UNL     1       7.605   1.376  -5.657  1.00  0.00    -0.269 OA
BRANCH  30  33
ATOM     33  C   UNL     1       6.783   3.399  -6.536  1.00  0.00     0.039 A 
ATOM     34  C   UNL     1       6.227   2.820  -7.682  1.00  0.00     0.014 A 
ATOM     35  C   UNL     1       7.005   4.778  -6.512  1.00  0.00     0.014 A 
ATOM     36  C   UNL     1       5.862   3.620  -8.770  1.00  0.00     0.010 A 
ATOM     37  C   UNL     1       6.546   5.586  -7.553  1.00  0.00     0.010 A 
ATOM     38  C   UNL     1       5.993   5.016  -8.708  1.00  0.00    -0.014 A 
BRANCH  38  39
ATOM     39  C   UNL     1       5.610   5.884  -9.857  1.00  0.00     0.031 A 
ATOM     40  C   UNL     1       6.653   6.731 -10.544  1.00  0.00     0.074 A 
ATOM     41  C   UNL     1       4.325   5.945 -10.258  1.00  0.00     0.049 A 
ATOM     42  N   UNL     1       6.510   7.604 -11.509  1.00  0.00    -0.248 NA
ATOM     43  C   UNL     1       8.035   6.598 -10.059  1.00  0.00     0.031 C 
ATOM     44  C   UNL     1       3.216   5.202  -9.656  1.00  0.00     0.029 A 
ATOM     45  N   UNL     1       3.730   6.668 -11.263  1.00  0.00    -0.354 N 
ATOM     46  C   UNL     1       7.778   8.133 -11.735  1.00  0.00     0.074 A 
ATOM     47  C   UNL     1       8.660   7.532 -10.759  1.00  0.00     0.031 C 
ATOM     48  C   UNL     1       2.083   5.489 -10.317  1.00  0.00     0.029 A 
ATOM     49  C   UNL     1       2.371   6.471 -11.358  1.00  0.00     0.049 A 
ATOM     50  H   UNL     1       4.229   7.270 -11.861  1.00  0.00     0.167 HD
ATOM     51  C   UNL     1       8.176   9.016 -12.685  1.00  0.00     0.034 A 
ATOM     52  C   UNL     1       1.457   7.030 -12.177  1.00  0.00     0.034 A 
ATOM     53  C   UNL     1       7.287   9.597 -13.663  1.00  0.00     0.049 A 
ATOM     54  C   UNL     1       1.916   8.031 -13.207  1.00  0.00     0.074 A 
ATOM     55  C   UNL     1       7.591  10.466 -14.696  1.00  0.00     0.029 A 
ATOM     56  N   UNL     1       5.917   9.372 -13.726  1.00  0.00    -0.354 N 
ATOM     57  N   UNL     1       3.127   8.488 -13.434  1.00  0.00    -0.248 NA
ATOM     58  C   UNL     1       0.889   8.581 -14.101  1.00  0.00     0.031 C 
ATOM     59  C   UNL     1       6.400  10.819 -15.339  1.00  0.00     0.029 A 
ATOM     60  C   UNL     1       5.360  10.108 -14.761  1.00  0.00     0.049 A 
ATOM     61  H   UNL     1       5.415   8.777 -13.123  1.00  0.00     0.167 HD
ATOM     62  C   UNL     1       3.007   9.357 -14.516  1.00  0.00     0.074 A 
ATOM     63  C   UNL     1       1.613   9.344 -14.906  1.00  0.00     0.031 C 
ATOM     64  C   UNL     1       3.965  10.095 -15.134  1.00  0.00     0.034 A 
BRANCH  51  65
ATOM     65  C   UNL     1       9.633   9.420 -12.693  1.00  0.00     0.023 A 
ATOM     66  C   UNL     1      10.659   8.484 -12.912  1.00  0.00     0.031 A 
ATOM     67  C   UNL     1      10.006  10.755 -12.453  1.00  0.00     0.131 A 
ATOM     68  C   UNL     1      12.002   8.874 -12.805  1.00  0.00     0.055 A 
ATOM     69  C   UNL     1      11.344  11.155 -12.434  1.00  0.00     0.041 A 
ATOM     70  F   UNL     1       9.076  11.693 -12.217  1.00  0.00    -0.206 F 
ATOM     71  C   UNL     1      12.353  10.210 -12.594  1.00  0.00     0.022 A 
BRANCH  68  72
ATOM     72  S   UNL     1      13.285   7.591 -12.790  1.00  0.00     0.124 S 
ATOM     73  O   UNL     1      12.873   6.779 -11.644  1.00  0.00    -0.237 OA
ATOM     74  O   UNL     1      13.116   6.965 -14.103  1.00  0.00    -0.237 OA
ATOM     75  O   UNL     1      14.519   8.335 -12.608  1.00  0.00    -0.744 OA
ENDBRANCH  68  72
ENDBRANCH  51  65
BRANCH  52  76
ATOM     76  C   UNL     1       0.013   6.675 -12.051  1.00  0.00     0.023 A 
ATOM     77  C   UNL     1      -0.671   6.030 -13.094  1.00  0.00     0.031 A 
ATOM     78  C   UNL     1      -0.717   7.015 -10.897  1.00  0.00     0.131 A 
ATOM     79  C   UNL     1      -2.050   5.790 -12.984  1.00  0.00     0.055 A 
ATOM     80  C   UNL     1      -2.076   6.722 -10.769  1.00  0.00     0.041 A 
ATOM     81  F   UNL     1      -0.113   7.630  -9.868  1.00  0.00    -0.206 F 
ATOM     82  C   UNL     1      -2.754   6.118 -11.823  1.00  0.00     0.022 A 
BRANCH  79  83
ATOM     83  S   UNL     1      -2.933   5.123 -14.422  1.00  0.00     0.124 S 
ATOM     84  O   UNL     1      -2.640   6.124 -15.441  1.00  0.00    -0.237 OA
ATOM     85  O   UNL     1      -2.293   3.824 -14.595  1.00  0.00    -0.237 OA
ATOM     86  O   UNL     1      -4.324   5.076 -13.975  1.00  0.00    -0.744 OA
ENDBRANCH  79  83
ENDBRANCH  52  76
BRANCH  64  87
ATOM     87  C   UNL     1       3.538  10.912 -16.330  1.00  0.00     0.023 A 
ATOM     88  C   UNL     1       2.659  12.002 -16.208  1.00  0.00     0.031 A 
ATOM     89  C   UNL     1       4.013  10.586 -17.613  1.00  0.00     0.131 A 
ATOM     90  C   UNL     1       2.237  12.692 -17.355  1.00  0.00     0.055 A 
ATOM     91  C   UNL     1       3.639  11.315 -18.743  1.00  0.00     0.041 A 
ATOM     92  F   UNL     1       4.852   9.553 -17.789  1.00  0.00    -0.206 F 
ATOM     93  C   UNL     1       2.736  12.366 -18.619  1.00  0.00     0.022 A 
BRANCH  90  94
ATOM     94  S   UNL     1       0.952  13.961 -17.187  1.00  0.00     0.124 S 
ATOM     95  O   UNL     1      -0.148  13.203 -16.600  1.00  0.00    -0.237 OA
ATOM     96  O   UNL     1       1.591  14.938 -16.312  1.00  0.00    -0.237 OA
ATOM     97  O   UNL     1       0.732  14.411 -18.561  1.00  0.00    -0.744 OA
ENDBRANCH  90  94
ENDBRANCH  64  87
ENDBRANCH  38  39
ENDBRANCH  30  33
ENDBRANCH  28  29
ENDBRANCH  27  28
ENDBRANCH   1  27
TORSDOF 19
