REMARK SMILES O=C(NCCCCNC(=O)c1cccn(Cc2ccc3c(c2)OC(F)(F)O3)c1=O)c1ccc(-c2c3nc(c(-c4cc(S(=O)(=O)[O-])ccc4F)c4ccc([nH]4)c(-c4cc(S(=O)(=O)[O-])ccc4F)c4nc(c(-c5cc(S(=O)(=O)[O-])ccc5F)c5ccc2[nH]5)C=C4)C=C3)cc1
REMARK SMILES IDX 5 1 4 2 3 3 1 4 2 5 30 7 31 8 92 9 32 10 91 11 33 12 34 13
REMARK SMILES IDX 35 14 85 15 36 16 90 17 84 18 86 19 37 20 89 21 83 22 82 23
REMARK SMILES IDX 38 25 70 26 50 27 69 28 51 29 54 30 68 31 87 32 52 33 53 34
REMARK SMILES IDX 67 36 88 37 55 38 39 39 40 40 48 41 41 42 47 43 49 44 46 45
REMARK SMILES IDX 42 46 43 47 44 48 45 49 71 50 72 51 80 52 73 53 79 54 81 55
REMARK SMILES IDX 78 56 74 57 75 58 76 59 77 60 56 61 57 62 65 63 58 64 64 65
REMARK SMILES IDX 66 66 63 67 59 68 60 69 61 70 62 71 6 72 7 73 8 74 9 75
REMARK SMILES IDX 10 77 11 78 12 79 28 80 13 81 15 82 29 83 14 84 16 85 17 86
REMARK SMILES IDX 18 87 22 88 19 89 21 90 20 91 23 92 27 93 24 94 25 95 26 96
REMARK H PARENT 3 6 86 24 54 35 8 76
REMARK Flexibility Score: inf
ROOT
ATOM      1  C   UNL     1       5.069   1.760   1.650  1.00  0.00     0.023 C 
ENDROOT
BRANCH   1   2
ATOM      2  C   UNL     1       4.673   0.408   1.069  1.00  0.00     0.116 C 
BRANCH   2   3
ATOM      3  N   UNL     1       3.231   0.213   1.044  1.00  0.00    -0.352 N 
ATOM      4  O   UNL     1       1.194  -0.037   0.122  1.00  0.00    -0.269 OA
ATOM      5  C   UNL     1       2.412  -0.090  -0.016  1.00  0.00     0.251 C 
ATOM      6  H   UNL     1       2.777   0.314   1.912  1.00  0.00     0.163 HD
BRANCH   5   7
ATOM      7  C   UNL     1       2.997  -0.471  -1.321  1.00  0.00     0.039 A 
ATOM      8  C   UNL     1       2.428   0.035  -2.493  1.00  0.00     0.014 A 
ATOM      9  C   UNL     1       4.082  -1.349  -1.393  1.00  0.00     0.014 A 
ATOM     10  C   UNL     1       2.967  -0.316  -3.734  1.00  0.00     0.010 A 
ATOM     11  C   UNL     1       4.670  -1.629  -2.622  1.00  0.00     0.010 A 
ATOM     12  C   UNL     1       4.102  -1.139  -3.807  1.00  0.00    -0.014 A 
BRANCH  12  13
ATOM     13  C   UNL     1       4.681  -1.558  -5.109  1.00  0.00     0.031 A 
ATOM     14  C   UNL     1       4.690  -3.015  -5.482  1.00  0.00     0.074 A 
ATOM     15  C   UNL     1       5.253  -0.648  -5.922  1.00  0.00     0.049 A 
ATOM     16  N   UNL     1       5.236  -3.600  -6.515  1.00  0.00    -0.248 NA
ATOM     17  C   UNL     1       4.018  -3.943  -4.556  1.00  0.00     0.031 C 
ATOM     18  C   UNL     1       5.324   0.787  -5.655  1.00  0.00     0.029 A 
ATOM     19  N   UNL     1       5.894  -0.797  -7.128  1.00  0.00    -0.354 N 
ATOM     20  C   UNL     1       4.997  -4.959  -6.350  1.00  0.00     0.074 A 
ATOM     21  C   UNL     1       4.305  -5.120  -5.092  1.00  0.00     0.031 C 
ATOM     22  C   UNL     1       5.956   1.390  -6.673  1.00  0.00     0.029 A 
ATOM     23  C   UNL     1       6.386   0.382  -7.641  1.00  0.00     0.049 A 
ATOM     24  H   UNL     1       5.992  -1.664  -7.583  1.00  0.00     0.167 HD
ATOM     25  C   UNL     1       5.305  -5.976  -7.187  1.00  0.00     0.034 A 
ATOM     26  C   UNL     1       7.116   0.624  -8.751  1.00  0.00     0.034 A 
ATOM     27  C   UNL     1       5.955  -5.792  -8.458  1.00  0.00     0.049 A 
ATOM     28  C   UNL     1       7.459  -0.526  -9.665  1.00  0.00     0.074 A 
ATOM     29  C   UNL     1       6.236  -6.750  -9.415  1.00  0.00     0.029 A 
ATOM     30  N   UNL     1       6.425  -4.583  -8.950  1.00  0.00    -0.354 N 
ATOM     31  N   UNL     1       7.149  -1.796  -9.542  1.00  0.00    -0.248 NA
ATOM     32  C   UNL     1       8.243  -0.221 -10.871  1.00  0.00     0.031 C 
ATOM     33  C   UNL     1       6.946  -6.138 -10.445  1.00  0.00     0.029 A 
ATOM     34  C   UNL     1       7.031  -4.780 -10.180  1.00  0.00     0.049 A 
ATOM     35  H   UNL     1       6.340  -3.715  -8.494  1.00  0.00     0.167 HD
ATOM     36  C   UNL     1       7.677  -2.434 -10.661  1.00  0.00     0.074 A 
ATOM     37  C   UNL     1       8.310  -1.408 -11.462  1.00  0.00     0.031 C 
ATOM     38  C   UNL     1       7.643  -3.751 -10.988  1.00  0.00     0.034 A 
BRANCH  25  39
ATOM     39  C   UNL     1       4.932  -7.385  -6.794  1.00  0.00     0.023 A 
ATOM     40  C   UNL     1       5.938  -8.361  -6.659  1.00  0.00     0.031 A 
ATOM     41  C   UNL     1       3.591  -7.795  -6.698  1.00  0.00     0.131 A 
ATOM     42  C   UNL     1       5.586  -9.704  -6.483  1.00  0.00     0.055 A 
ATOM     43  C   UNL     1       3.246  -9.128  -6.469  1.00  0.00     0.041 A 
ATOM     44  F   UNL     1       2.593  -6.905  -6.824  1.00  0.00    -0.206 F 
ATOM     45  C   UNL     1       4.246 -10.091  -6.377  1.00  0.00     0.022 A 
BRANCH  42  46
ATOM     46  S   UNL     1       6.845 -11.008  -6.470  1.00  0.00     0.124 S 
ATOM     47  O   UNL     1       6.628 -11.621  -5.161  1.00  0.00    -0.237 OA
ATOM     48  O   UNL     1       6.449 -11.825  -7.614  1.00  0.00    -0.237 OA
ATOM     49  O   UNL     1       8.103 -10.284  -6.616  1.00  0.00    -0.744 OA
ENDBRANCH  42  46
ENDBRANCH  25  39
BRANCH  26  50
ATOM     50  C   UNL     1       7.508   2.031  -9.062  1.00  0.00     0.023 A 
ATOM     51  C   UNL     1       8.319   2.768  -8.178  1.00  0.00     0.031 A 
ATOM     52  C   UNL     1       6.970   2.698 -10.175  1.00  0.00     0.131 A 
ATOM     53  C   UNL     1       8.493   4.144  -8.375  1.00  0.00     0.055 A 
ATOM     54  C   UNL     1       7.212   4.053 -10.410  1.00  0.00     0.041 A 
ATOM     55  F   UNL     1       6.183   2.042 -11.041  1.00  0.00    -0.206 F 
ATOM     56  C   UNL     1       7.960   4.788  -9.495  1.00  0.00     0.022 A 
BRANCH  53  57
ATOM     57  S   UNL     1       9.287   5.170  -7.106  1.00  0.00     0.124 S 
ATOM     58  O   UNL     1      10.382   5.785  -7.849  1.00  0.00    -0.237 OA
ATOM     59  O   UNL     1       8.198   6.068  -6.727  1.00  0.00    -0.237 OA
ATOM     60  O   UNL     1       9.681   4.209  -6.081  1.00  0.00    -0.744 OA
ENDBRANCH  53  57
ENDBRANCH  26  50
BRANCH  38  61
ATOM     61  C   UNL     1       8.296  -4.210 -12.271  1.00  0.00     0.023 A 
ATOM     62  C   UNL     1       7.520  -4.839 -13.264  1.00  0.00     0.031 A 
ATOM     63  C   UNL     1       9.694  -4.216 -12.416  1.00  0.00     0.131 A 
ATOM     64  C   UNL     1       8.149  -5.511 -14.320  1.00  0.00     0.055 A 
ATOM     65  C   UNL     1      10.313  -4.838 -13.502  1.00  0.00     0.041 A 
ATOM     66  F   UNL     1      10.478  -3.640 -11.491  1.00  0.00    -0.206 F 
ATOM     67  C   UNL     1       9.541  -5.507 -14.448  1.00  0.00     0.022 A 
BRANCH  64  68
ATOM     68  S   UNL     1       7.192  -6.510 -15.495  1.00  0.00     0.124 S 
ATOM     69  O   UNL     1       7.543  -5.893 -16.772  1.00  0.00    -0.237 OA
ATOM     70  O   UNL     1       7.738  -7.846 -15.277  1.00  0.00    -0.237 OA
ATOM     71  O   UNL     1       5.808  -6.320 -15.074  1.00  0.00    -0.744 OA
ENDBRANCH  64  68
ENDBRANCH  38  61
ENDBRANCH  12  13
ENDBRANCH   5   7
ENDBRANCH   2   3
ENDBRANCH   1   2
BRANCH   1  72
ATOM     72  C   UNL     1       4.617   1.998   3.088  1.00  0.00     0.023 C 
BRANCH  72  73
ATOM     73  C   UNL     1       5.052   0.924   4.077  1.00  0.00     0.116 C 
BRANCH  73  74
ATOM     74  N   UNL     1       6.499   0.855   4.222  1.00  0.00    -0.352 N 
ATOM     75  C   UNL     1       7.251   1.013   5.353  1.00  0.00     0.256 C 
ATOM     76  H   UNL     1       7.002   0.669   3.397  1.00  0.00     0.163 HD
ATOM     77  O   UNL     1       8.478   1.000   5.297  1.00  0.00    -0.269 OA
BRANCH  75  78
ATOM     78  C   UNL     1       6.546   1.299   6.617  1.00  0.00     0.105 A 
ATOM     79  C   UNL     1       6.797   2.474   7.217  1.00  0.00     0.021 A 
ATOM     80  C   UNL     1       5.523   0.375   7.181  1.00  0.00     0.263 A 
ATOM     81  C   UNL     1       6.036   2.884   8.370  1.00  0.00     0.019 A 
ATOM     82  N   UNL     1       4.776   0.879   8.251  1.00  0.00    -0.310 N 
ATOM     83  O   UNL     1       5.331  -0.733   6.685  1.00  0.00    -0.268 OA
ATOM     84  C   UNL     1       5.050   2.106   8.830  1.00  0.00     0.089 A 
BRANCH  82  85
ATOM     85  C   UNL     1       3.699   0.052   8.777  1.00  0.00     0.161 C 
BRANCH  85  86
ATOM     86  C   UNL     1       4.163  -0.831   9.912  1.00  0.00    -0.024 A 
ATOM     87  C   UNL     1       3.980  -0.425  11.254  1.00  0.00     0.010 A 
ATOM     88  C   UNL     1       4.785  -2.059   9.633  1.00  0.00     0.056 A 
ATOM     89  C   UNL     1       4.377  -1.247  12.312  1.00  0.00     0.051 A 
ATOM     90  C   UNL     1       5.141  -2.859  10.694  1.00  0.00     0.173 A 
ATOM     91  C   UNL     1       4.934  -2.467  11.998  1.00  0.00     0.172 A 
ATOM     92  O   UNL     1       5.687  -4.101  10.605  1.00  0.00    -0.395 OA
ATOM     93  O   UNL     1       5.316  -3.421  12.889  1.00  0.00    -0.395 OA
ATOM     94  C   UNL     1       5.580  -4.497  11.977  1.00  0.00     0.586 C 
ATOM     95  F   UNL     1       4.570  -5.400  12.083  1.00  0.00    -0.125 F 
ATOM     96  F   UNL     1       6.723  -5.119  12.352  1.00  0.00    -0.125 F 
ENDBRANCH  85  86
ENDBRANCH  82  85
ENDBRANCH  75  78
ENDBRANCH  73  74
ENDBRANCH  72  73
ENDBRANCH   1  72
TORSDOF 16
