REMARK SMILES O=C(NCCCCNC(=O)[C@H](c1c[nH]c2ccc(Br)cc12)[N@H+]1CCC[C@H](c2nc3ccccc3s2)C1)c1ccc(-c2c3nc(c(-c4cc(S(=O)(=O)[O-])ccc4F)c4ccc([nH]4)c(-c4cc(S(=O)(=O)[O-])ccc4F)c4nc(c(-c5cc(S(=O)(=O)[O-])ccc5F)c5ccc2[nH]5)C=C4)C=C3)cc1
REMARK SMILES IDX 5 1 4 2 3 3 1 4 2 5 37 7 38 8 99 9 39 10 98 11 40 12 41 13
REMARK SMILES IDX 42 14 92 15 43 16 97 17 91 18 93 19 44 20 96 21 90 22 89 23
REMARK SMILES IDX 45 25 77 26 57 27 76 28 58 29 61 30 75 31 94 32 59 33 60 34
REMARK SMILES IDX 74 36 95 37 62 38 46 39 47 40 55 41 48 42 54 43 56 44 53 45
REMARK SMILES IDX 49 46 50 47 51 48 52 49 78 50 79 51 87 52 80 53 86 54 88 55
REMARK SMILES IDX 85 56 81 57 82 58 83 59 84 60 63 61 64 62 72 63 65 64 71 65
REMARK SMILES IDX 73 66 70 67 66 68 67 69 68 70 69 71 6 72 7 73 8 74 9 75
REMARK SMILES IDX 10 77 11 78 22 79 23 80 36 81 24 83 26 84 25 85 27 86 28 87
REMARK SMILES IDX 35 88 29 89 34 90 30 91 33 92 31 93 32 94 12 95 13 96 21 97
REMARK SMILES IDX 14 98 15 99 20 100 16 102 18 103 17 104 19 105
REMARK H PARENT 3 6 93 24 61 35 8 76 22 82 14 101
REMARK Flexibility Score: inf
ROOT
ATOM      1  C   UNL     1       4.605  -6.978   8.703  1.00  0.00     0.023 C 
ENDROOT
BRANCH   1   2
ATOM      2  C   UNL     1       3.130  -7.319   8.514  1.00  0.00     0.116 C 
BRANCH   2   3
ATOM      3  N   UNL     1       2.887  -8.729   8.247  1.00  0.00    -0.352 N 
ATOM      4  O   UNL     1       2.066 -10.801   8.603  1.00  0.00    -0.269 OA
ATOM      5  C   UNL     1       2.055  -9.608   8.898  1.00  0.00     0.251 C 
ATOM      6  H   UNL     1       3.391  -9.107   7.491  1.00  0.00     0.163 HD
BRANCH   5   7
ATOM      7  C   UNL     1       1.163  -9.123   9.975  1.00  0.00     0.039 A 
ATOM      8  C   UNL     1       0.358  -7.996   9.787  1.00  0.00     0.014 A 
ATOM      9  C   UNL     1       1.137  -9.811  11.191  1.00  0.00     0.014 A 
ATOM     10  C   UNL     1      -0.374  -7.481  10.856  1.00  0.00     0.010 A 
ATOM     11  C   UNL     1       0.356  -9.326  12.243  1.00  0.00     0.010 A 
ATOM     12  C   UNL     1      -0.378  -8.138  12.095  1.00  0.00    -0.014 A 
BRANCH  12  13
ATOM     13  C   UNL     1      -1.155  -7.589  13.236  1.00  0.00     0.031 A 
ATOM     14  C   UNL     1      -0.450  -7.070  14.459  1.00  0.00     0.074 A 
ATOM     15  C   UNL     1      -2.500  -7.580  13.179  1.00  0.00     0.049 A 
ATOM     16  N   UNL     1      -0.953  -6.642  15.589  1.00  0.00    -0.248 NA
ATOM     17  C   UNL     1       1.018  -7.041  14.404  1.00  0.00     0.031 C 
ATOM     18  C   UNL     1      -3.296  -8.050  12.044  1.00  0.00     0.029 A 
ATOM     19  N   UNL     1      -3.434  -7.177  14.099  1.00  0.00    -0.354 N 
ATOM     20  C   UNL     1       0.135  -6.311  16.390  1.00  0.00     0.074 A 
ATOM     21  C   UNL     1       1.324  -6.622  15.623  1.00  0.00     0.031 C 
ATOM     22  C   UNL     1      -4.598  -7.910  12.335  1.00  0.00     0.029 A 
ATOM     23  C   UNL     1      -4.729  -7.398  13.695  1.00  0.00     0.049 A 
ATOM     24  H   UNL     1      -3.200  -6.769  14.964  1.00  0.00     0.167 HD
ATOM     25  C   UNL     1       0.138  -5.790  17.644  1.00  0.00     0.034 A 
ATOM     26  C   UNL     1      -5.893  -7.246  14.357  1.00  0.00     0.034 A 
ATOM     27  C   UNL     1      -1.061  -5.492  18.393  1.00  0.00     0.049 A 
ATOM     28  C   UNL     1      -5.870  -6.723  15.766  1.00  0.00     0.074 A 
ATOM     29  C   UNL     1      -1.177  -4.933  19.654  1.00  0.00     0.029 A 
ATOM     30  N   UNL     1      -2.357  -5.744  17.955  1.00  0.00    -0.354 N 
ATOM     31  N   UNL     1      -4.836  -6.402  16.509  1.00  0.00    -0.248 NA
ATOM     32  C   UNL     1      -7.169  -6.535  16.425  1.00  0.00     0.031 C 
ATOM     33  C   UNL     1      -2.532  -4.909  20.005  1.00  0.00     0.029 A 
ATOM     34  C   UNL     1      -3.272  -5.383  18.933  1.00  0.00     0.049 A 
ATOM     35  H   UNL     1      -2.591  -6.125  17.078  1.00  0.00     0.167 HD
ATOM     36  C   UNL     1      -5.361  -5.950  17.715  1.00  0.00     0.074 A 
ATOM     37  C   UNL     1      -6.803  -6.039  17.600  1.00  0.00     0.031 C 
ATOM     38  C   UNL     1      -4.708  -5.489  18.812  1.00  0.00     0.034 A 
BRANCH  25  39
ATOM     39  C   UNL     1       1.483  -5.566  18.297  1.00  0.00     0.023 A 
ATOM     40  C   UNL     1       2.426  -4.669  17.763  1.00  0.00     0.031 A 
ATOM     41  C   UNL     1       1.848  -6.297  19.442  1.00  0.00     0.131 A 
ATOM     42  C   UNL     1       3.713  -4.593  18.318  1.00  0.00     0.055 A 
ATOM     43  C   UNL     1       3.102  -6.152  20.040  1.00  0.00     0.041 A 
ATOM     44  F   UNL     1       1.000  -7.182  19.988  1.00  0.00    -0.206 F 
ATOM     45  C   UNL     1       4.051  -5.311  19.467  1.00  0.00     0.022 A 
BRANCH  42  46
ATOM     46  S   UNL     1       4.992  -3.677  17.412  1.00  0.00     0.124 S 
ATOM     47  O   UNL     1       4.937  -4.311  16.097  1.00  0.00    -0.237 OA
ATOM     48  O   UNL     1       4.504  -2.305  17.481  1.00  0.00    -0.237 OA
ATOM     49  O   UNL     1       6.210  -3.947  18.173  1.00  0.00    -0.744 OA
ENDBRANCH  42  46
ENDBRANCH  25  39
BRANCH  26  50
ATOM     50  C   UNL     1      -7.167  -7.644  13.698  1.00  0.00     0.023 A 
ATOM     51  C   UNL     1      -8.116  -6.688  13.311  1.00  0.00     0.031 A 
ATOM     52  C   UNL     1      -7.436  -8.998  13.426  1.00  0.00     0.131 A 
ATOM     53  C   UNL     1      -9.304  -7.101  12.688  1.00  0.00     0.055 A 
ATOM     54  C   UNL     1      -8.599  -9.399  12.769  1.00  0.00     0.041 A 
ATOM     55  F   UNL     1      -6.551  -9.947  13.768  1.00  0.00    -0.206 F 
ATOM     56  C   UNL     1      -9.544  -8.448  12.401  1.00  0.00     0.022 A 
BRANCH  53  57
ATOM     57  S   UNL     1     -10.553  -5.851  12.280  1.00  0.00     0.124 S 
ATOM     58  O   UNL     1     -10.891  -5.328  13.598  1.00  0.00    -0.237 OA
ATOM     59  O   UNL     1      -9.809  -4.953  11.403  1.00  0.00    -0.237 OA
ATOM     60  O   UNL     1     -11.606  -6.624  11.625  1.00  0.00    -0.744 OA
ENDBRANCH  53  57
ENDBRANCH  26  50
BRANCH  38  61
ATOM     61  C   UNL     1      -5.554  -4.992  19.956  1.00  0.00     0.023 A 
ATOM     62  C   UNL     1      -6.299  -5.867  20.766  1.00  0.00     0.031 A 
ATOM     63  C   UNL     1      -5.602  -3.616  20.244  1.00  0.00     0.131 A 
ATOM     64  C   UNL     1      -7.090  -5.350  21.804  1.00  0.00     0.055 A 
ATOM     65  C   UNL     1      -6.353  -3.114  21.307  1.00  0.00     0.041 A 
ATOM     66  F   UNL     1      -4.911  -2.739  19.499  1.00  0.00    -0.206 F 
ATOM     67  C   UNL     1      -7.109  -3.982  22.089  1.00  0.00     0.022 A 
BRANCH  64  68
ATOM     68  S   UNL     1      -8.144  -6.484  22.751  1.00  0.00     0.124 S 
ATOM     69  O   UNL     1      -9.037  -7.001  21.718  1.00  0.00    -0.237 OA
ATOM     70  O   UNL     1      -7.177  -7.434  23.291  1.00  0.00    -0.237 OA
ATOM     71  O   UNL     1      -8.778  -5.617  23.742  1.00  0.00    -0.744 OA
ENDBRANCH  64  68
ENDBRANCH  38  61
ENDBRANCH  12  13
ENDBRANCH   5   7
ENDBRANCH   2   3
ENDBRANCH   1   2
BRANCH   1  72
ATOM     72  C   UNL     1       5.535  -7.334   7.545  1.00  0.00     0.023 C 
BRANCH  72  73
ATOM     73  C   UNL     1       5.094  -6.868   6.164  1.00  0.00     0.116 C 
BRANCH  73  74
ATOM     74  N   UNL     1       4.984  -5.434   6.014  1.00  0.00    -0.351 N 
ATOM     75  C   UNL     1       5.314  -4.667   4.918  1.00  0.00     0.283 C 
ATOM     76  H   UNL     1       4.630  -4.945   6.792  1.00  0.00     0.163 HD
ATOM     77  O   UNL     1       4.801  -3.543   4.873  1.00  0.00    -0.268 OA
BRANCH  75  78
ATOM     78  C   UNL     1       6.335  -5.205   3.849  1.00  0.00     0.307 C 
BRANCH  78  79
ATOM     79  N   UNL     1       5.618  -6.046   2.842  1.00  0.00    -0.320 N 
ATOM     80  C   UNL     1       5.310  -5.426   1.553  1.00  0.00     0.263 C 
ATOM     81  C   UNL     1       6.152  -7.407   2.699  1.00  0.00     0.274 C 
ATOM     82  H   UNL     1       4.703  -6.132   3.284  1.00  0.00     0.349 HD
ATOM     83  C   UNL     1       4.460  -6.306   0.629  1.00  0.00     0.062 C 
ATOM     84  C   UNL     1       5.226  -8.347   1.884  1.00  0.00     0.104 C 
ATOM     85  C   UNL     1       5.023  -7.718   0.499  1.00  0.00     0.022 C 
BRANCH  84  86
ATOM     86  C   UNL     1       3.892  -8.622   2.565  1.00  0.00     0.103 A 
ATOM     87  N   UNL     1       3.414  -7.956   3.593  1.00  0.00    -0.241 NA
ATOM     88  S   UNL     1       2.835  -9.843   1.953  1.00  0.00    -0.118 S 
ATOM     89  C   UNL     1       2.095  -8.296   3.831  1.00  0.00     0.082 A 
ATOM     90  C   UNL     1       1.590  -9.312   3.021  1.00  0.00     0.055 A 
ATOM     91  C   UNL     1       1.247  -7.701   4.787  1.00  0.00     0.030 A 
ATOM     92  C   UNL     1       0.260  -9.753   3.133  1.00  0.00     0.021 A 
ATOM     93  C   UNL     1      -0.078  -8.130   4.907  1.00  0.00     0.002 A 
ATOM     94  C   UNL     1      -0.563  -9.143   4.086  1.00  0.00     0.002 A 
ENDBRANCH  84  86
ENDBRANCH  78  79
BRANCH  78  95
ATOM     95  C   UNL     1       7.152  -4.065   3.235  1.00  0.00     0.044 A 
ATOM     96  C   UNL     1       6.660  -2.894   2.675  1.00  0.00     0.094 A 
ATOM     97  C   UNL     1       8.587  -3.951   3.167  1.00  0.00     0.010 A 
ATOM     98  N   UNL     1       7.698  -2.135   2.224  1.00  0.00    -0.361 N 
ATOM     99  C   UNL     1       8.889  -2.751   2.515  1.00  0.00     0.046 A 
ATOM    100  C   UNL     1       9.663  -4.749   3.611  1.00  0.00     0.026 A 
ATOM    101  H   UNL     1       7.606  -1.273   1.758  1.00  0.00     0.166 HD
ATOM    102  C   UNL     1      10.195  -2.317   2.264  1.00  0.00     0.028 A 
ATOM    103  C   UNL     1      10.976  -4.314   3.384  1.00  0.00     0.018 A 
ATOM    104  C   UNL     1      11.241  -3.122   2.716  1.00  0.00     0.018 A 
ATOM    105  Br  UNL     1      12.422  -5.364   4.009  1.00  0.00    -0.051 Br
ENDBRANCH  78  95
ENDBRANCH  75  78
ENDBRANCH  73  74
ENDBRANCH  72  73
ENDBRANCH   1  72
TORSDOF 17
