REMARK SMILES CC[C@H]1SC[C@H](C(=O)NCCCCNC(=O)c2ccc(-c3c4nc(c(-c5cc(S(=O)(=O)[O-])ccc5F)c5ccc([nH]5)c(-c5cc(S(=O)(=O)[O-])ccc5F)c5nc(c(-c6cc(S(=O)(=O)[O-])ccc6F)c6ccc3[nH]6)C=C5)C=C4)cc2)N1C(=O)c1ccc(F)c(F)c1F
REMARK SMILES IDX 12 1 11 2 10 3 9 4 7 5 8 6 6 8 3 9 4 10 80 11 5 12 2 13 1 14
REMARK SMILES IDX 81 15 82 16 83 17 84 18 90 19 85 20 88 21 91 22 86 23 89 24
REMARK SMILES IDX 87 25 13 26 14 27 15 28 16 30 17 31 18 32 79 33 19 34 78 35
REMARK SMILES IDX 20 36 21 37 22 38 72 39 23 40 77 41 71 42 73 43 24 44 76 45
REMARK SMILES IDX 70 46 69 47 25 49 57 50 37 51 56 52 38 53 41 54 55 55 74 56
REMARK SMILES IDX 39 57 40 58 54 60 75 61 42 62 26 63 27 64 35 65 28 66 34 67
REMARK SMILES IDX 36 68 33 69 29 70 30 71 31 72 32 73 58 74 59 75 67 76 60 77
REMARK SMILES IDX 66 78 68 79 65 80 61 81 62 82 63 83 64 84 43 85 44 86 52 87
REMARK SMILES IDX 45 88 51 89 53 90 50 91 46 92 47 93 48 94 49 95
REMARK H PARENT 9 7 14 29 73 48 41 59
REMARK Flexibility Score: inf
ROOT
ATOM      1  C   UNL     1       5.375   3.500  -0.004  1.00  0.00     0.023 C 
ENDROOT
BRANCH   1   2
ATOM      2  C   UNL     1       4.018   2.925  -0.419  1.00  0.00     0.023 C 
BRANCH   2   3
ATOM      3  C   UNL     1       4.051   2.090  -1.699  1.00  0.00     0.116 C 
BRANCH   3   4
ATOM      4  N   UNL     1       4.792   0.851  -1.527  1.00  0.00    -0.354 N 
ATOM      5  C   UNL     1       4.329  -0.420  -1.302  1.00  0.00     0.243 C 
ATOM      6  O   UNL     1       5.144  -1.328  -1.133  1.00  0.00    -0.273 OA
ATOM      7  H   UNL     1       5.772   0.937  -1.580  1.00  0.00     0.163 HD
BRANCH   5   8
ATOM      8  C   UNL     1       2.814  -0.672  -1.363  1.00  0.00     0.185 C 
ATOM      9  C   UNL     1       0.915  -1.998  -0.701  1.00  0.00     0.144 C 
ATOM     10  S   UNL     1       1.143  -2.519  -2.428  1.00  0.00    -0.134 SA
ATOM     11  N   UNL     1       2.224  -1.500  -0.310  1.00  0.00    -0.314 N 
ATOM     12  C   UNL     1       2.541  -1.381  -2.701  1.00  0.00     0.107 C 
BRANCH   9  13
ATOM     13  C   UNL     1      -0.181  -0.897  -0.715  1.00  0.00     0.033 C 
ATOM     14  C   UNL     1      -0.210   0.028   0.494  1.00  0.00     0.007 C 
ENDBRANCH   9  13
BRANCH  11  15
ATOM     15  C   UNL     1       2.620  -1.343   1.009  1.00  0.00     0.258 C 
ATOM     16  O   UNL     1       3.312  -0.401   1.388  1.00  0.00    -0.269 OA
BRANCH  15  17
ATOM     17  C   UNL     1       2.167  -2.316   2.029  1.00  0.00     0.079 A 
ATOM     18  C   UNL     1       1.716  -1.827   3.265  1.00  0.00     0.020 A 
ATOM     19  C   UNL     1       2.238  -3.694   1.817  1.00  0.00     0.174 A 
ATOM     20  C   UNL     1       1.294  -2.714   4.259  1.00  0.00     0.043 A 
ATOM     21  C   UNL     1       1.820  -4.574   2.810  1.00  0.00     0.195 A 
ATOM     22  F   UNL     1       2.693  -4.191   0.658  1.00  0.00    -0.203 F 
ATOM     23  C   UNL     1       1.346  -4.084   4.021  1.00  0.00     0.161 A 
ATOM     24  F   UNL     1       1.863  -5.898   2.596  1.00  0.00    -0.200 F 
ATOM     25  F   UNL     1       0.929  -4.930   4.973  1.00  0.00    -0.204 F 
ENDBRANCH  15  17
ENDBRANCH  11  15
ENDBRANCH   5   8
ENDBRANCH   3   4
ENDBRANCH   2   3
ENDBRANCH   1   2
BRANCH   1  26
ATOM     26  C   UNL     1       6.100   4.306  -1.079  1.00  0.00     0.116 C 
BRANCH  26  27
ATOM     27  N   UNL     1       5.342   5.457  -1.543  1.00  0.00    -0.352 N 
ATOM     28  C   UNL     1       5.808   6.706  -1.884  1.00  0.00     0.251 C 
ATOM     29  H   UNL     1       4.370   5.326  -1.625  1.00  0.00     0.163 HD
ATOM     30  O   UNL     1       5.013   7.606  -2.142  1.00  0.00    -0.269 OA
BRANCH  28  31
ATOM     31  C   UNL     1       7.265   6.964  -1.890  1.00  0.00     0.039 A 
ATOM     32  C   UNL     1       7.754   8.093  -1.227  1.00  0.00     0.014 A 
ATOM     33  C   UNL     1       8.148   6.076  -2.511  1.00  0.00     0.014 A 
ATOM     34  C   UNL     1       9.134   8.289  -1.122  1.00  0.00     0.010 A 
ATOM     35  C   UNL     1       9.522   6.237  -2.345  1.00  0.00     0.010 A 
ATOM     36  C   UNL     1      10.030   7.341  -1.642  1.00  0.00    -0.014 A 
BRANCH  36  37
ATOM     37  C   UNL     1      11.499   7.480  -1.453  1.00  0.00     0.031 A 
ATOM     38  C   UNL     1      12.401   7.657  -2.644  1.00  0.00     0.074 A 
ATOM     39  C   UNL     1      12.025   7.379  -0.215  1.00  0.00     0.049 A 
ATOM     40  N   UNL     1      13.708   7.712  -2.692  1.00  0.00    -0.248 NA
ATOM     41  C   UNL     1      11.746   7.753  -3.957  1.00  0.00     0.031 C 
ATOM     42  C   UNL     1      11.258   7.166   1.014  1.00  0.00     0.029 A 
ATOM     43  N   UNL     1      13.328   7.431   0.214  1.00  0.00    -0.354 N 
ATOM     44  C   UNL     1      14.033   7.838  -4.039  1.00  0.00     0.074 A 
ATOM     45  C   UNL     1      12.787   7.788  -4.775  1.00  0.00     0.031 C 
ATOM     46  C   UNL     1      12.102   7.128   2.058  1.00  0.00     0.029 A 
ATOM     47  C   UNL     1      13.471   7.264   1.573  1.00  0.00     0.049 A 
ATOM     48  H   UNL     1      14.090   7.573  -0.394  1.00  0.00     0.167 HD
ATOM     49  C   UNL     1      15.254   8.002  -4.606  1.00  0.00     0.034 A 
ATOM     50  C   UNL     1      14.579   7.213   2.340  1.00  0.00     0.034 A 
ATOM     51  C   UNL     1      16.486   8.061  -3.857  1.00  0.00     0.049 A 
ATOM     52  C   UNL     1      15.928   7.372   1.684  1.00  0.00     0.074 A 
ATOM     53  C   UNL     1      17.770   8.278  -4.326  1.00  0.00     0.029 A 
ATOM     54  N   UNL     1      16.591   7.892  -2.482  1.00  0.00    -0.354 N 
ATOM     55  N   UNL     1      16.214   7.542   0.413  1.00  0.00    -0.248 NA
ATOM     56  C   UNL     1      17.101   7.344   2.566  1.00  0.00     0.031 C 
ATOM     57  C   UNL     1      18.656   8.173  -3.248  1.00  0.00     0.029 A 
ATOM     58  C   UNL     1      17.920   7.970  -2.092  1.00  0.00     0.049 A 
ATOM     59  H   UNL     1      15.833   7.739  -1.873  1.00  0.00     0.167 HD
ATOM     60  C   UNL     1      17.599   7.675   0.351  1.00  0.00     0.074 A 
ATOM     61  C   UNL     1      18.086   7.579   1.712  1.00  0.00     0.031 C 
ATOM     62  C   UNL     1      18.395   7.864  -0.732  1.00  0.00     0.034 A 
BRANCH  49  63
ATOM     63  C   UNL     1      15.312   8.106  -6.112  1.00  0.00     0.023 A 
ATOM     64  C   UNL     1      14.686   9.158  -6.805  1.00  0.00     0.031 A 
ATOM     65  C   UNL     1      15.982   7.129  -6.869  1.00  0.00     0.131 A 
ATOM     66  C   UNL     1      14.675   9.166  -8.208  1.00  0.00     0.055 A 
ATOM     67  C   UNL     1      16.040   7.188  -8.264  1.00  0.00     0.041 A 
ATOM     68  F   UNL     1      16.581   6.089  -6.268  1.00  0.00    -0.206 F 
ATOM     69  C   UNL     1      15.371   8.203  -8.942  1.00  0.00     0.022 A 
BRANCH  66  70
ATOM     70  S   UNL     1      13.618  10.370  -9.058  1.00  0.00     0.124 S 
ATOM     71  O   UNL     1      12.300  10.032  -8.525  1.00  0.00    -0.237 OA
ATOM     72  O   UNL     1      14.176  11.644  -8.621  1.00  0.00    -0.237 OA
ATOM     73  O   UNL     1      13.810  10.055 -10.472  1.00  0.00    -0.744 OA
ENDBRANCH  66  70
ENDBRANCH  49  63
BRANCH  50  74
ATOM     74  C   UNL     1      14.472   6.991   3.811  1.00  0.00     0.023 A 
ATOM     75  C   UNL     1      14.887   7.974   4.723  1.00  0.00     0.031 A 
ATOM     76  C   UNL     1      13.998   5.772   4.327  1.00  0.00     0.131 A 
ATOM     77  C   UNL     1      14.867   7.705   6.100  1.00  0.00     0.055 A 
ATOM     78  C   UNL     1      13.929   5.529   5.700  1.00  0.00     0.041 A 
ATOM     79  F   UNL     1      13.585   4.799   3.499  1.00  0.00    -0.206 F 
ATOM     80  C   UNL     1      14.379   6.494   6.596  1.00  0.00     0.022 A 
BRANCH  77  81
ATOM     81  S   UNL     1      15.576   8.930   7.235  1.00  0.00     0.124 S 
ATOM     82  O   UNL     1      16.940   9.047   6.731  1.00  0.00    -0.237 OA
ATOM     83  O   UNL     1      14.709  10.082   7.016  1.00  0.00    -0.237 OA
ATOM     84  O   UNL     1      15.447   8.295   8.545  1.00  0.00    -0.744 OA
ENDBRANCH  77  81
ENDBRANCH  50  74
BRANCH  62  85
ATOM     85  C   UNL     1      19.874   8.032  -0.476  1.00  0.00     0.023 A 
ATOM     86  C   UNL     1      20.667   6.981   0.016  1.00  0.00     0.031 A 
ATOM     87  C   UNL     1      20.494   9.270  -0.720  1.00  0.00     0.131 A 
ATOM     88  C   UNL     1      22.023   7.203   0.300  1.00  0.00     0.055 A 
ATOM     89  C   UNL     1      21.857   9.468  -0.493  1.00  0.00     0.041 A 
ATOM     90  F   UNL     1      19.785  10.310  -1.188  1.00  0.00    -0.206 F 
ATOM     91  C   UNL     1      22.627   8.434   0.032  1.00  0.00     0.022 A 
BRANCH  88  92
ATOM     92  S   UNL     1      22.971   5.886   1.112  1.00  0.00     0.124 S 
ATOM     93  O   UNL     1      22.213   5.680   2.341  1.00  0.00    -0.237 OA
ATOM     94  O   UNL     1      22.906   4.806   0.133  1.00  0.00    -0.237 OA
ATOM     95  O   UNL     1      24.296   6.478   1.292  1.00  0.00    -0.744 OA
ENDBRANCH  88  92
ENDBRANCH  62  85
ENDBRANCH  36  37
ENDBRANCH  28  31
ENDBRANCH  26  27
ENDBRANCH   1  26
TORSDOF 17
