REMARK SMILES COCC[C@@H](C)NC(=O)N[C@@H]1C=C[C@@H](C(=O)NCCCCNC(=O)c2ccc(-c3c4nc(c(-c5cc(S(=O)(=O)[O-])ccc5F)c5ccc([nH]5)c(-c5cc(S(=O)(=O)[O-])ccc5F)c5nc(c(-c6cc(S(=O)(=O)[O-])ccc6F)c6ccc3[nH]6)C=C5)C=C4)cc2)C1
REMARK SMILES IDX 18 1 17 2 15 3 16 4 14 6 11 7 12 8 88 9 13 10 10 11 7 12
REMARK SMILES IDX 8 13 9 15 5 17 6 18 4 19 3 20 2 21 1 22 19 23 20 24 21 25
REMARK SMILES IDX 22 26 23 27 24 29 25 30 26 31 87 32 27 33 86 34 28 35 29 36
REMARK SMILES IDX 30 37 80 38 31 39 85 40 79 41 81 42 32 43 84 44 78 45 77 46
REMARK SMILES IDX 33 48 65 49 45 50 64 51 46 52 49 53 63 54 82 55 47 56 48 57
REMARK SMILES IDX 62 59 83 60 50 61 34 62 35 63 43 64 36 65 42 66 44 67 41 68
REMARK SMILES IDX 37 69 38 70 39 71 40 72 66 73 67 74 75 75 68 76 74 77 76 78
REMARK SMILES IDX 73 79 69 80 70 81 71 82 72 83 51 84 52 85 60 86 53 87 59 88
REMARK SMILES IDX 61 89 58 90 54 91 55 92 56 93 57 94
REMARK H PARENT 17 5 7 14 10 16 22 28 81 47 49 58
REMARK Flexibility Score: inf
ROOT
ATOM      1  C   UNL     1       0.664  -2.322   3.468  1.00  0.00     0.116 C 
ENDROOT
BRANCH   1   2
ATOM      2  N   UNL     1       1.933  -1.651   3.239  1.00  0.00    -0.356 N 
ATOM      3  C   UNL     1       2.416  -1.079   2.089  1.00  0.00     0.227 C 
ATOM      4  O   UNL     1       3.543  -0.576   2.126  1.00  0.00    -0.274 OA
ATOM      5  H   UNL     1       2.531  -1.600   4.019  1.00  0.00     0.163 HD
BRANCH   3   6
ATOM      6  C   UNL     1       1.607  -1.066   0.781  1.00  0.00     0.103 C 
ATOM      7  C   UNL     1       0.154  -2.516  -0.543  1.00  0.00     0.107 C 
ATOM      8  C   UNL     1      -0.622  -1.758   0.442  1.00  0.00    -0.006 C 
ATOM      9  C   UNL     1       1.592  -2.384   0.003  1.00  0.00     0.047 C 
ATOM     10  C   UNL     1       0.157  -0.871   1.071  1.00  0.00    -0.016 C 
BRANCH   7  11
ATOM     11  N   UNL     1      -0.006  -2.000  -1.898  1.00  0.00    -0.332 N 
ATOM     12  N   UNL     1      -1.268   0.025  -2.235  1.00  0.00    -0.336 N 
ATOM     13  C   UNL     1      -0.533  -1.015  -2.612  1.00  0.00     0.315 C 
ATOM     14  H   UNL     1      -1.514   0.552  -3.029  1.00  0.00     0.165 HD
ATOM     15  O   UNL     1      -0.323  -1.088  -3.833  1.00  0.00    -0.249 OA
ATOM     16  H   UNL     1       0.451  -2.615  -2.516  1.00  0.00     0.165 HD
BRANCH  12  17
ATOM     17  C   UNL     1      -1.841   0.661  -1.037  1.00  0.00     0.083 C 
ATOM     18  C   UNL     1      -3.352   0.819  -1.215  1.00  0.00     0.031 C 
BRANCH  17  19
ATOM     19  C   UNL     1      -1.131   1.995  -0.746  1.00  0.00     0.053 C 
BRANCH  19  20
ATOM     20  C   UNL     1      -1.565   2.709   0.542  1.00  0.00     0.162 C 
BRANCH  20  21
ATOM     21  O   UNL     1      -1.101   2.031   1.705  1.00  0.00    -0.385 OA
ATOM     22  C   UNL     1      -2.133   1.429   2.476  1.00  0.00     0.194 C 
ENDBRANCH  20  21
ENDBRANCH  19  20
ENDBRANCH  17  19
ENDBRANCH  12  17
ENDBRANCH   7  11
ENDBRANCH   3   6
ENDBRANCH   1   2
BRANCH   1  23
ATOM     23  C   UNL     1       0.723  -3.417   4.516  1.00  0.00     0.023 C 
BRANCH  23  24
ATOM     24  C   UNL     1       0.787  -2.925   5.955  1.00  0.00     0.023 C 
BRANCH  24  25
ATOM     25  C   UNL     1      -0.383  -2.052   6.402  1.00  0.00     0.116 C 
BRANCH  25  26
ATOM     26  N   UNL     1      -1.682  -2.694   6.239  1.00  0.00    -0.352 N 
ATOM     27  C   UNL     1      -2.609  -3.056   7.189  1.00  0.00     0.251 C 
ATOM     28  H   UNL     1      -1.933  -2.900   5.310  1.00  0.00     0.163 HD
ATOM     29  O   UNL     1      -3.590  -3.720   6.861  1.00  0.00    -0.269 OA
BRANCH  27  30
ATOM     30  C   UNL     1      -2.401  -2.675   8.601  1.00  0.00     0.039 A 
ATOM     31  C   UNL     1      -2.546  -3.643   9.597  1.00  0.00     0.014 A 
ATOM     32  C   UNL     1      -2.026  -1.372   8.937  1.00  0.00     0.014 A 
ATOM     33  C   UNL     1      -2.228  -3.324  10.920  1.00  0.00     0.010 A 
ATOM     34  C   UNL     1      -1.620  -1.084  10.236  1.00  0.00     0.010 A 
ATOM     35  C   UNL     1      -1.718  -2.055  11.244  1.00  0.00    -0.014 A 
BRANCH  35  36
ATOM     36  C   UNL     1      -1.294  -1.728  12.632  1.00  0.00     0.031 A 
ATOM     37  C   UNL     1      -1.985  -0.627  13.392  1.00  0.00     0.074 A 
ATOM     38  C   UNL     1      -0.253  -2.382  13.185  1.00  0.00     0.049 A 
ATOM     39  N   UNL     1      -1.735  -0.164  14.590  1.00  0.00    -0.248 NA
ATOM     40  C   UNL     1      -3.080   0.067  12.698  1.00  0.00     0.031 C 
ATOM     41  C   UNL     1       0.535  -3.429  12.528  1.00  0.00     0.029 A 
ATOM     42  N   UNL     1       0.326  -2.266  14.425  1.00  0.00    -0.354 N 
ATOM     43  C   UNL     1      -2.632   0.880  14.788  1.00  0.00     0.074 A 
ATOM     44  C   UNL     1      -3.378   1.029  13.557  1.00  0.00     0.031 C 
ATOM     45  C   UNL     1       1.466  -3.882  13.383  1.00  0.00     0.029 A 
ATOM     46  C   UNL     1       1.376  -3.132  14.631  1.00  0.00     0.049 A 
ATOM     47  H   UNL     1       0.018  -1.623  15.104  1.00  0.00     0.167 HD
ATOM     48  C   UNL     1      -2.837   1.626  15.902  1.00  0.00     0.034 A 
ATOM     49  C   UNL     1       2.177  -3.300  15.702  1.00  0.00     0.034 A 
ATOM     50  C   UNL     1      -2.092   1.456  17.126  1.00  0.00     0.049 A 
ATOM     51  C   UNL     1       1.937  -2.453  16.928  1.00  0.00     0.074 A 
ATOM     52  C   UNL     1      -2.250   2.118  18.331  1.00  0.00     0.029 A 
ATOM     53  N   UNL     1      -1.042   0.563  17.301  1.00  0.00    -0.354 N 
ATOM     54  N   UNL     1       1.042  -1.511  17.120  1.00  0.00    -0.248 NA
ATOM     55  C   UNL     1       2.803  -2.705  18.085  1.00  0.00     0.031 C 
ATOM     56  C   UNL     1      -1.253   1.678  19.208  1.00  0.00     0.029 A 
ATOM     57  C   UNL     1      -0.525   0.679  18.583  1.00  0.00     0.049 A 
ATOM     58  H   UNL     1      -0.712  -0.061  16.614  1.00  0.00     0.167 HD
ATOM     59  C   UNL     1       1.217  -1.084  18.434  1.00  0.00     0.074 A 
ATOM     60  C   UNL     1       2.289  -1.885  18.989  1.00  0.00     0.031 C 
ATOM     61  C   UNL     1       0.552  -0.120  19.121  1.00  0.00     0.034 A 
BRANCH  48  62
ATOM     62  C   UNL     1      -3.895   2.704  15.831  1.00  0.00     0.023 A 
ATOM     63  C   UNL     1      -5.246   2.398  15.585  1.00  0.00     0.031 A 
ATOM     64  C   UNL     1      -3.546   4.058  15.978  1.00  0.00     0.131 A 
ATOM     65  C   UNL     1      -6.179   3.431  15.409  1.00  0.00     0.055 A 
ATOM     66  C   UNL     1      -4.497   5.078  15.891  1.00  0.00     0.041 A 
ATOM     67  F   UNL     1      -2.270   4.417  16.192  1.00  0.00    -0.206 F 
ATOM     68  C   UNL     1      -5.819   4.768  15.588  1.00  0.00     0.022 A 
BRANCH  65  69
ATOM     69  S   UNL     1      -7.830   3.009  14.788  1.00  0.00     0.124 S 
ATOM     70  O   UNL     1      -7.510   2.364  13.517  1.00  0.00    -0.237 OA
ATOM     71  O   UNL     1      -8.348   2.136  15.835  1.00  0.00    -0.237 OA
ATOM     72  O   UNL     1      -8.494   4.306  14.670  1.00  0.00    -0.744 OA
ENDBRANCH  65  69
ENDBRANCH  48  62
BRANCH  49  73
ATOM     73  C   UNL     1       3.279  -4.306  15.677  1.00  0.00     0.023 A 
ATOM     74  C   UNL     1       3.277  -5.406  16.550  1.00  0.00     0.031 A 
ATOM     75  C   UNL     1       4.378  -4.155  14.812  1.00  0.00     0.131 A 
ATOM     76  C   UNL     1       4.374  -6.282  16.576  1.00  0.00     0.055 A 
ATOM     77  C   UNL     1       5.440  -5.062  14.802  1.00  0.00     0.041 A 
ATOM     78  F   UNL     1       4.429  -3.125  13.952  1.00  0.00    -0.206 F 
ATOM     79  C   UNL     1       5.449  -6.125  15.699  1.00  0.00     0.022 A 
BRANCH  76  80
ATOM     80  S   UNL     1       4.418  -7.581  17.843  1.00  0.00     0.124 S 
ATOM     81  O   UNL     1       4.326  -6.801  19.071  1.00  0.00    -0.237 OA
ATOM     82  O   UNL     1       3.246  -8.378  17.499  1.00  0.00    -0.237 OA
ATOM     83  O   UNL     1       5.704  -8.236  17.613  1.00  0.00    -0.744 OA
ENDBRANCH  76  80
ENDBRANCH  49  73
BRANCH  61  84
ATOM     84  C   UNL     1       0.936   0.079  20.569  1.00  0.00     0.023 A 
ATOM     85  C   UNL     1       2.213   0.536  20.942  1.00  0.00     0.031 A 
ATOM     86  C   UNL     1       0.017  -0.218  21.591  1.00  0.00     0.131 A 
ATOM     87  C   UNL     1       2.558   0.615  22.300  1.00  0.00     0.055 A 
ATOM     88  C   UNL     1       0.343  -0.070  22.940  1.00  0.00     0.041 A 
ATOM     89  F   UNL     1      -1.215  -0.661  21.295  1.00  0.00    -0.206 F 
ATOM     90  C   UNL     1       1.625   0.333  23.301  1.00  0.00     0.022 A 
BRANCH  87  91
ATOM     91  S   UNL     1       4.280   0.977  22.740  1.00  0.00     0.124 S 
ATOM     92  O   UNL     1       5.001  -0.082  22.041  1.00  0.00    -0.237 OA
ATOM     93  O   UNL     1       4.459   2.325  22.212  1.00  0.00    -0.237 OA
ATOM     94  O   UNL     1       4.290   0.876  24.198  1.00  0.00    -0.744 OA
ENDBRANCH  87  91
ENDBRANCH  61  84
ENDBRANCH  35  36
ENDBRANCH  27  30
ENDBRANCH  25  26
ENDBRANCH  24  25
ENDBRANCH  23  24
ENDBRANCH   1  23
TORSDOF 19
