REMARK SMILES O=C(CC1(CC(=O)NNc2ccc([N+](=O)[O-])cc2)CCCC1)NCCCCNC(=O)c1ccc(-c2c3nc(c(-c4cc(S(=O)(=O)[O-])ccc4F)c4ccc([nH]4)c(-c4cc(S(=O)(=O)[O-])ccc4F)c4nc(c(-c5cc(S(=O)(=O)[O-])ccc5F)c5ccc2[nH]5)C=C4)C=C3)cc1
REMARK SMILES IDX 24 1 23 2 1 3 2 4 3 6 4 7 19 8 22 9 20 10 21 11 5 12 6 13
REMARK SMILES IDX 7 14 8 15 9 17 10 19 11 20 18 21 12 22 17 23 13 24 14 25
REMARK SMILES IDX 15 26 16 27 25 28 26 29 27 30 28 31 29 32 30 34 31 35 32 36
REMARK SMILES IDX 93 37 33 38 92 39 34 40 35 41 36 42 86 43 37 44 91 45 85 46
REMARK SMILES IDX 87 47 38 48 90 49 84 50 83 51 39 53 71 54 51 55 70 56 52 57
REMARK SMILES IDX 55 58 69 59 88 60 53 61 54 62 68 64 89 65 56 66 40 67 41 68
REMARK SMILES IDX 49 69 42 70 48 71 50 72 47 73 43 74 44 75 45 76 46 77 72 78
REMARK SMILES IDX 73 79 81 80 74 81 80 82 82 83 79 84 75 85 76 86 77 87 78 88
REMARK SMILES IDX 57 89 58 90 66 91 59 92 65 93 67 94 64 95 60 96 61 97 62 98
REMARK SMILES IDX 63 99
REMARK H PARENT 23 5 8 16 9 18 28 33 87 52 55 63
REMARK Flexibility Score: inf
ROOT
ATOM      1  C   UNL     1       2.011  -1.671   1.797  1.00  0.00     0.116 C 
ENDROOT
BRANCH   1   2
ATOM      2  N   UNL     1       2.719  -1.003   0.723  1.00  0.00    -0.356 N 
ATOM      3  O   UNL     1       0.860  -0.029  -0.239  1.00  0.00    -0.275 OA
ATOM      4  C   UNL     1       2.077  -0.166  -0.160  1.00  0.00     0.220 C 
ATOM      5  H   UNL     1       3.687  -1.152   0.622  1.00  0.00     0.163 HD
BRANCH   4   6
ATOM      6  C   UNL     1       3.017   0.593  -1.069  1.00  0.00     0.107 C 
BRANCH   6   7
ATOM      7  C   UNL     1       3.817   1.786  -0.470  1.00  0.00    -0.012 C 
ATOM      8  C   UNL     1       5.334   1.590  -0.767  1.00  0.00     0.008 C 
ATOM      9  C   UNL     1       3.592   3.044  -1.338  1.00  0.00     0.008 C 
ATOM     10  C   UNL     1       5.945   2.993  -0.755  1.00  0.00     0.001 C 
ATOM     11  C   UNL     1       4.798   3.945  -1.085  1.00  0.00     0.001 C 
BRANCH   7  12
ATOM     12  C   UNL     1       3.665   2.041   1.066  1.00  0.00     0.109 C 
BRANCH  12  13
ATOM     13  C   UNL     1       2.281   2.247   1.679  1.00  0.00     0.238 C 
ATOM     14  O   UNL     1       1.774   1.393   2.409  1.00  0.00    -0.273 OA
ATOM     15  N   UNL     1       1.625   3.434   1.510  1.00  0.00    -0.270 N 
ATOM     16  H   UNL     1       0.662   3.476   1.713  1.00  0.00     0.191 HD
BRANCH  15  17
ATOM     17  N   UNL     1       2.260   4.576   1.064  1.00  0.00    -0.299 N 
ATOM     18  H   UNL     1       3.240   4.624   0.977  1.00  0.00     0.188 HD
BRANCH  17  19
ATOM     19  C   UNL     1       1.435   5.664   0.743  1.00  0.00     0.055 A 
ATOM     20  C   UNL     1       1.660   6.340  -0.463  1.00  0.00     0.034 A 
ATOM     21  C   UNL     1       0.536   6.209   1.669  1.00  0.00     0.034 A 
ATOM     22  C   UNL     1       0.981   7.522  -0.764  1.00  0.00     0.088 A 
ATOM     23  C   UNL     1      -0.144   7.397   1.387  1.00  0.00     0.088 A 
ATOM     24  C   UNL     1       0.087   8.053   0.171  1.00  0.00     0.269 A 
BRANCH  24  25
ATOM     25  N   UNL     1      -0.582   9.328  -0.111  1.00  0.00     0.062 N 
ATOM     26  O   UNL     1      -0.348   9.876  -1.197  1.00  0.00    -0.258 OA
ATOM     27  O   UNL     1      -1.337   9.787   0.758  1.00  0.00    -0.258 OA
ENDBRANCH  24  25
ENDBRANCH  17  19
ENDBRANCH  15  17
ENDBRANCH  12  13
ENDBRANCH   7  12
ENDBRANCH   6   7
ENDBRANCH   4   6
ENDBRANCH   1   2
BRANCH   1  28
ATOM     28  C   UNL     1       2.452  -3.120   1.976  1.00  0.00     0.023 C 
BRANCH  28  29
ATOM     29  C   UNL     1       3.939  -3.308   2.293  1.00  0.00     0.023 C 
BRANCH  29  30
ATOM     30  C   UNL     1       4.438  -2.598   3.549  1.00  0.00     0.116 C 
BRANCH  30  31
ATOM     31  N   UNL     1       3.846  -3.131   4.764  1.00  0.00    -0.352 N 
ATOM     32  C   UNL     1       4.448  -3.719   5.853  1.00  0.00     0.251 C 
ATOM     33  H   UNL     1       2.865  -3.061   4.816  1.00  0.00     0.163 HD
ATOM     34  O   UNL     1       3.756  -4.277   6.698  1.00  0.00    -0.269 OA
BRANCH  32  35
ATOM     35  C   UNL     1       5.923  -3.705   5.993  1.00  0.00     0.039 A 
ATOM     36  C   UNL     1       6.573  -4.873   6.402  1.00  0.00     0.014 A 
ATOM     37  C   UNL     1       6.667  -2.549   5.739  1.00  0.00     0.014 A 
ATOM     38  C   UNL     1       7.969  -4.902   6.483  1.00  0.00     0.010 A 
ATOM     39  C   UNL     1       8.061  -2.601   5.746  1.00  0.00     0.010 A 
ATOM     40  C   UNL     1       8.730  -3.780   6.114  1.00  0.00    -0.014 A 
BRANCH  40  41
ATOM     41  C   UNL     1      10.219  -3.826   6.099  1.00  0.00     0.031 A 
ATOM     42  C   UNL     1      11.018  -2.925   7.003  1.00  0.00     0.074 A 
ATOM     43  C   UNL     1      10.854  -4.639   5.231  1.00  0.00     0.049 A 
ATOM     44  N   UNL     1      12.315  -2.765   7.077  1.00  0.00    -0.248 NA
ATOM     45  C   UNL     1      10.254  -2.072   7.924  1.00  0.00     0.031 C 
ATOM     46  C   UNL     1      10.195  -5.536   4.279  1.00  0.00     0.029 A 
ATOM     47  N   UNL     1      12.193  -4.840   4.999  1.00  0.00    -0.354 N 
ATOM     48  C   UNL     1      12.524  -1.791   8.048  1.00  0.00     0.074 A 
ATOM     49  C   UNL     1      11.215  -1.350   8.482  1.00  0.00     0.031 C 
ATOM     50  C   UNL     1      11.129  -6.206   3.585  1.00  0.00     0.029 A 
ATOM     51  C   UNL     1      12.452  -5.751   4.000  1.00  0.00     0.049 A 
ATOM     52  H   UNL     1      12.901  -4.375   5.500  1.00  0.00     0.167 HD
ATOM     53  C   UNL     1      13.696  -1.326   8.549  1.00  0.00     0.034 A 
ATOM     54  C   UNL     1      13.619  -6.163   3.464  1.00  0.00     0.034 A 
ATOM     55  C   UNL     1      14.995  -1.777   8.107  1.00  0.00     0.049 A 
ATOM     56  C   UNL     1      14.910  -5.599   4.005  1.00  0.00     0.074 A 
ATOM     57  C   UNL     1      16.243  -1.402   8.576  1.00  0.00     0.029 A 
ATOM     58  N   UNL     1      15.217  -2.695   7.088  1.00  0.00    -0.354 N 
ATOM     59  N   UNL     1      15.089  -4.708   4.953  1.00  0.00    -0.248 NA
ATOM     60  C   UNL     1      16.154  -6.103   3.410  1.00  0.00     0.031 C 
ATOM     61  C   UNL     1      17.215  -2.031   7.791  1.00  0.00     0.029 A 
ATOM     62  C   UNL     1      16.579  -2.869   6.891  1.00  0.00     0.049 A 
ATOM     63  H   UNL     1      14.511  -3.155   6.579  1.00  0.00     0.167 HD
ATOM     64  C   UNL     1      16.469  -4.573   5.090  1.00  0.00     0.074 A 
ATOM     65  C   UNL     1      17.071  -5.483   4.138  1.00  0.00     0.031 C 
ATOM     66  C   UNL     1      17.173  -3.771   5.930  1.00  0.00     0.034 A 
BRANCH  53  67
ATOM     67  C   UNL     1      13.621  -0.255   9.613  1.00  0.00     0.023 A 
ATOM     68  C   UNL     1      12.998  -0.487  10.852  1.00  0.00     0.031 A 
ATOM     69  C   UNL     1      14.159   1.024   9.380  1.00  0.00     0.131 A 
ATOM     70  C   UNL     1      12.854   0.561  11.773  1.00  0.00     0.055 A 
ATOM     71  C   UNL     1      14.091   2.038  10.339  1.00  0.00     0.041 A 
ATOM     72  F   UNL     1      14.747   1.317   8.210  1.00  0.00    -0.206 F 
ATOM     73  C   UNL     1      13.421   1.815  11.537  1.00  0.00     0.022 A 
BRANCH  70  74
ATOM     74  S   UNL     1      11.777   0.306  13.210  1.00  0.00     0.124 S 
ATOM     75  O   UNL     1      10.508  -0.035  12.570  1.00  0.00    -0.237 OA
ATOM     76  O   UNL     1      12.448  -0.778  13.919  1.00  0.00    -0.237 OA
ATOM     77  O   UNL     1      11.796   1.601  13.886  1.00  0.00    -0.744 OA
ENDBRANCH  70  74
ENDBRANCH  53  67
BRANCH  54  78
ATOM     78  C   UNL     1      13.630  -7.144   2.339  1.00  0.00     0.023 A 
ATOM     79  C   UNL     1      14.219  -8.409   2.483  1.00  0.00     0.031 A 
ATOM     80  C   UNL     1      13.086  -6.810   1.085  1.00  0.00     0.131 A 
ATOM     81  C   UNL     1      14.297  -9.275   1.381  1.00  0.00     0.055 A 
ATOM     82  C   UNL     1      13.112  -7.699   0.009  1.00  0.00     0.041 A 
ATOM     83  F   UNL     1      12.509  -5.613   0.891  1.00  0.00    -0.206 F 
ATOM     84  C   UNL     1      13.733  -8.935   0.150  1.00  0.00     0.022 A 
BRANCH  81  85
ATOM     85  S   UNL     1      15.232 -10.820   1.554  1.00  0.00     0.124 S 
ATOM     86  O   UNL     1      16.550 -10.327   1.938  1.00  0.00    -0.237 OA
ATOM     87  O   UNL     1      14.479 -11.516   2.592  1.00  0.00    -0.237 OA
ATOM     88  O   UNL     1      15.152 -11.416   0.222  1.00  0.00    -0.744 OA
ENDBRANCH  81  85
ENDBRANCH  54  78
BRANCH  66  89
ATOM     89  C   UNL     1      18.679  -3.882   5.888  1.00  0.00     0.023 A 
ATOM     90  C   UNL     1      19.422  -3.506   4.755  1.00  0.00     0.031 A 
ATOM     91  C   UNL     1      19.382  -4.382   7.000  1.00  0.00     0.131 A 
ATOM     92  C   UNL     1      20.813  -3.690   4.737  1.00  0.00     0.055 A 
ATOM     93  C   UNL     1      20.772  -4.500   7.001  1.00  0.00     0.041 A 
ATOM     94  F   UNL     1      18.726  -4.762   8.108  1.00  0.00    -0.206 F 
ATOM     95  C   UNL     1      21.495  -4.166   5.859  1.00  0.00     0.022 A 
BRANCH  92  96
ATOM     96  S   UNL     1      21.712  -3.392   3.189  1.00  0.00     0.124 S 
ATOM     97  O   UNL     1      21.046  -4.310   2.271  1.00  0.00    -0.237 OA
ATOM     98  O   UNL     1      21.471  -1.972   2.956  1.00  0.00    -0.237 OA
ATOM     99  O   UNL     1      23.092  -3.739   3.522  1.00  0.00    -0.744 OA
ENDBRANCH  92  96
ENDBRANCH  66  89
ENDBRANCH  40  41
ENDBRANCH  32  35
ENDBRANCH  30  31
ENDBRANCH  29  30
ENDBRANCH  28  29
ENDBRANCH   1  28
TORSDOF 20
