REMARK SMILES CC(C)=C1[C@H]2CC[C@@H]1[C@@H](C(=O)NNC(=O)COc1cc(C)c(Cl)c(C)c1)[C@H]2C(=O)NCCCCNC(=O)c1ccc(-c2c3nc(c(-c4cc(S(=O)(=O)[O-])ccc4F)c4ccc([nH]4)c(-c4cc(S(=O)(=O)[O-])ccc4F)c4nc(c(-c5cc(S(=O)(=O)[O-])ccc5F)c5ccc2[nH]5)C=C4)C=C3)cc1
REMARK SMILES IDX 31 1 30 2 28 3 29 4 27 6 1 7 2 8 3 9 4 10 5 11 8 12 6 13
REMARK SMILES IDX 7 14 9 15 10 16 11 17 12 18 13 20 14 21 15 23 16 24 17 25
REMARK SMILES IDX 18 26 19 27 26 28 20 29 24 30 21 31 22 32 25 33 23 34 32 35
REMARK SMILES IDX 33 36 34 37 35 38 36 39 37 41 38 42 39 43 100 44 40 45 99 46
REMARK SMILES IDX 41 47 42 48 43 49 93 50 44 51 98 52 92 53 94 54 45 55 97 56
REMARK SMILES IDX 91 57 90 58 46 60 78 61 58 62 77 63 59 64 62 65 76 66 95 67
REMARK SMILES IDX 60 68 61 69 75 71 96 72 63 73 47 74 48 75 56 76 49 77 55 78
REMARK SMILES IDX 57 79 54 80 50 81 51 82 52 83 53 84 79 85 80 86 88 87 81 88
REMARK SMILES IDX 87 89 89 90 86 91 82 92 83 93 84 94 85 95 64 96 65 97 73 98
REMARK SMILES IDX 66 99 72 100 74 101 71 102 67 103 68 104 69 105 70 106
REMARK H PARENT 30 5 12 19 13 22 35 40 94 59 62 70
REMARK Flexibility Score: inf
ROOT
ATOM      1  C   UNL     1       0.791   0.479   2.303  1.00  0.00     0.116 C 
ENDROOT
BRANCH   1   2
ATOM      2  N   UNL     1       0.338  -0.160   3.544  1.00  0.00    -0.356 N 
ATOM      3  C   UNL     1       0.923  -1.133   4.297  1.00  0.00     0.224 C 
ATOM      4  O   UNL     1       0.927  -0.974   5.522  1.00  0.00    -0.275 OA
ATOM      5  H   UNL     1      -0.526   0.165   3.886  1.00  0.00     0.163 HD
BRANCH   3   6
ATOM      6  C   UNL     1       1.345  -2.473   3.724  1.00  0.00     0.098 C 
ATOM      7  C   UNL     1      -0.051  -1.681  -0.746  1.00  0.00     0.039 C 
ATOM      8  C   UNL     1      -0.407  -2.020   0.673  1.00  0.00    -0.077 C 
ATOM      9  C   UNL     1      -1.842  -1.741   1.059  1.00  0.00     0.039 C 
ATOM     10  C   UNL     1       0.475  -2.544   1.544  1.00  0.00    -0.064 C 
ATOM     11  C   UNL     1       0.199  -3.099   2.912  1.00  0.00     0.028 C 
ATOM     12  C   UNL     1       1.931  -2.956   1.429  1.00  0.00     0.028 C 
ATOM     13  C   UNL     1       0.496  -4.571   2.579  1.00  0.00     0.009 C 
ATOM     14  C   UNL     1       1.587  -4.478   1.473  1.00  0.00     0.009 C 
ATOM     15  C   UNL     1       2.561  -2.589   2.803  1.00  0.00     0.100 C 
BRANCH  15  16
ATOM     16  C   UNL     1       3.776  -1.748   3.227  1.00  0.00     0.242 C 
ATOM     17  O   UNL     1       4.555  -2.272   4.047  1.00  0.00    -0.273 OA
ATOM     18  N   UNL     1       4.104  -0.469   2.923  1.00  0.00    -0.267 N 
ATOM     19  H   UNL     1       4.644   0.002   3.598  1.00  0.00     0.191 HD
BRANCH  18  20
ATOM     20  N   UNL     1       3.788   0.262   1.804  1.00  0.00    -0.265 N 
ATOM     21  C   UNL     1       3.915   1.639   1.742  1.00  0.00     0.276 C 
ATOM     22  H   UNL     1       3.455  -0.215   1.009  1.00  0.00     0.191 HD
ATOM     23  O   UNL     1       3.942   2.147   0.616  1.00  0.00    -0.269 OA
BRANCH  21  24
ATOM     24  C   UNL     1       4.048   2.535   3.020  1.00  0.00     0.331 C 
BRANCH  24  25
ATOM     25  O   UNL     1       3.139   2.242   4.072  1.00  0.00    -0.484 OA
BRANCH  25  26
ATOM     26  C   UNL     1       2.359   3.237   4.603  1.00  0.00     0.120 A 
ATOM     27  C   UNL     1       1.019   2.894   4.749  1.00  0.00     0.051 A 
ATOM     28  C   UNL     1       2.772   4.430   5.170  1.00  0.00     0.051 A 
ATOM     29  C   UNL     1       0.059   3.644   5.430  1.00  0.00    -0.029 A 
ATOM     30  C   UNL     1       1.837   5.232   5.890  1.00  0.00    -0.029 A 
ATOM     31  C   UNL     1      -1.335   3.087   5.543  1.00  0.00     0.046 C 
ATOM     32  C   UNL     1       0.491   4.814   6.040  1.00  0.00     0.047 A 
ATOM     33  C   UNL     1       2.301   6.496   6.564  1.00  0.00     0.046 C 
ATOM     34  Cl  UNL     1      -0.620   5.703   7.032  1.00  0.00    -0.084 Cl
ENDBRANCH  25  26
ENDBRANCH  24  25
ENDBRANCH  21  24
ENDBRANCH  18  20
ENDBRANCH  15  16
ENDBRANCH   3   6
ENDBRANCH   1   2
BRANCH   1  35
ATOM     35  C   UNL     1      -0.315   1.180   1.506  1.00  0.00     0.023 C 
BRANCH  35  36
ATOM     36  C   UNL     1      -0.354   2.715   1.453  1.00  0.00     0.023 C 
BRANCH  36  37
ATOM     37  C   UNL     1       0.855   3.465   0.893  1.00  0.00     0.116 C 
BRANCH  37  38
ATOM     38  N   UNL     1       1.145   3.202  -0.507  1.00  0.00    -0.352 N 
ATOM     39  C   UNL     1       1.748   4.044  -1.421  1.00  0.00     0.251 C 
ATOM     40  H   UNL     1       0.879   2.316  -0.845  1.00  0.00     0.163 HD
ATOM     41  O   UNL     1       1.861   3.696  -2.595  1.00  0.00    -0.269 OA
BRANCH  39  42
ATOM     42  C   UNL     1       2.197   5.395  -0.999  1.00  0.00     0.039 A 
ATOM     43  C   UNL     1       1.741   6.513  -1.700  1.00  0.00     0.014 A 
ATOM     44  C   UNL     1       3.038   5.565   0.103  1.00  0.00     0.014 A 
ATOM     45  C   UNL     1       2.054   7.798  -1.241  1.00  0.00     0.010 A 
ATOM     46  C   UNL     1       3.304   6.848   0.594  1.00  0.00     0.010 A 
ATOM     47  C   UNL     1       2.800   7.981  -0.062  1.00  0.00    -0.014 A 
BRANCH  47  48
ATOM     48  C   UNL     1       3.005   9.349   0.497  1.00  0.00     0.031 A 
ATOM     49  C   UNL     1       4.378   9.961   0.583  1.00  0.00     0.074 A 
ATOM     50  C   UNL     1       1.941  10.039   0.961  1.00  0.00     0.049 A 
ATOM     51  N   UNL     1       4.727  11.158   0.986  1.00  0.00    -0.248 NA
ATOM     52  C   UNL     1       5.508   9.107   0.194  1.00  0.00     0.031 C 
ATOM     53  C   UNL     1       0.567   9.533   1.012  1.00  0.00     0.029 A 
ATOM     54  N   UNL     1       1.841  11.312   1.469  1.00  0.00    -0.354 N 
ATOM     55  C   UNL     1       6.115  11.203   0.896  1.00  0.00     0.074 A 
ATOM     56  C   UNL     1       6.543   9.886   0.471  1.00  0.00     0.031 C 
ATOM     57  C   UNL     1      -0.241  10.498   1.477  1.00  0.00     0.029 A 
ATOM     58  C   UNL     1       0.553  11.683   1.785  1.00  0.00     0.049 A 
ATOM     59  H   UNL     1       2.618  11.903   1.596  1.00  0.00     0.167 HD
ATOM     60  C   UNL     1       6.952  12.250   1.116  1.00  0.00     0.034 A 
ATOM     61  C   UNL     1       0.063  12.849   2.254  1.00  0.00     0.034 A 
ATOM     62  C   UNL     1       6.513  13.561   1.536  1.00  0.00     0.049 A 
ATOM     63  C   UNL     1       1.007  14.003   2.476  1.00  0.00     0.074 A 
ATOM     64  C   UNL     1       7.269  14.704   1.735  1.00  0.00     0.029 A 
ATOM     65  N   UNL     1       5.199  13.904   1.833  1.00  0.00    -0.354 N 
ATOM     66  N   UNL     1       2.308  14.053   2.301  1.00  0.00    -0.248 NA
ATOM     67  C   UNL     1       0.413  15.265   2.937  1.00  0.00     0.031 C 
ATOM     68  C   UNL     1       6.426  15.716   2.208  1.00  0.00     0.029 A 
ATOM     69  C   UNL     1       5.130  15.229   2.237  1.00  0.00     0.049 A 
ATOM     70  H   UNL     1       4.429  13.294   1.765  1.00  0.00     0.167 HD
ATOM     71  C   UNL     1       2.680  15.361   2.603  1.00  0.00     0.074 A 
ATOM     72  C   UNL     1       1.465  16.069   2.949  1.00  0.00     0.031 C 
ATOM     73  C   UNL     1       3.915  15.925   2.594  1.00  0.00     0.034 A 
BRANCH  60  74
ATOM     74  C   UNL     1       8.431  12.007   0.916  1.00  0.00     0.023 A 
ATOM     75  C   UNL     1       8.952  11.640  -0.338  1.00  0.00     0.031 A 
ATOM     76  C   UNL     1       9.329  12.109   1.994  1.00  0.00     0.131 A 
ATOM     77  C   UNL     1      10.308  11.302  -0.464  1.00  0.00     0.055 A 
ATOM     78  C   UNL     1      10.694  11.856   1.842  1.00  0.00     0.041 A 
ATOM     79  F   UNL     1       8.892  12.440   3.219  1.00  0.00    -0.206 F 
ATOM     80  C   UNL     1      11.188  11.432   0.611  1.00  0.00     0.022 A 
BRANCH  77  81
ATOM     81  S   UNL     1      10.868  10.540  -2.012  1.00  0.00     0.124 S 
ATOM     82  O   UNL     1      10.023   9.350  -2.075  1.00  0.00    -0.237 OA
ATOM     83  O   UNL     1      10.585  11.579  -2.996  1.00  0.00    -0.237 OA
ATOM     84  O   UNL     1      12.285  10.277  -1.771  1.00  0.00    -0.744 OA
ENDBRANCH  77  81
ENDBRANCH  60  74
BRANCH  61  85
ATOM     85  C   UNL     1      -1.396  13.001   2.530  1.00  0.00     0.023 A 
ATOM     86  C   UNL     1      -2.184  13.898   1.790  1.00  0.00     0.031 A 
ATOM     87  C   UNL     1      -2.013  12.285   3.570  1.00  0.00     0.131 A 
ATOM     88  C   UNL     1      -3.531  14.094   2.132  1.00  0.00     0.055 A 
ATOM     89  C   UNL     1      -3.367  12.445   3.873  1.00  0.00     0.041 A 
ATOM     90  F   UNL     1      -1.308  11.410   4.303  1.00  0.00    -0.206 F 
ATOM     91  C   UNL     1      -4.131  13.365   3.161  1.00  0.00     0.022 A 
BRANCH  88  92
ATOM     92  S   UNL     1      -4.471  15.381   1.265  1.00  0.00     0.124 S 
ATOM     93  O   UNL     1      -3.671  16.569   1.540  1.00  0.00    -0.237 OA
ATOM     94  O   UNL     1      -4.449  14.896  -0.111  1.00  0.00    -0.237 OA
ATOM     95  O   UNL     1      -5.779  15.344   1.916  1.00  0.00    -0.744 OA
ENDBRANCH  88  92
ENDBRANCH  61  85
BRANCH  73  96
ATOM     96  C   UNL     1       3.999  17.395   2.933  1.00  0.00     0.023 A 
ATOM     97  C   UNL     1       3.683  17.877   4.216  1.00  0.00     0.031 A 
ATOM     98  C   UNL     1       4.375  18.328   1.951  1.00  0.00     0.131 A 
ATOM     99  C   UNL     1       3.688  19.258   4.466  1.00  0.00     0.055 A 
ATOM    100  C   UNL     1       4.437  19.696   2.222  1.00  0.00     0.041 A 
ATOM    101  F   UNL     1       4.685  17.926   0.709  1.00  0.00    -0.206 F 
ATOM    102  C   UNL     1       4.078  20.169   3.481  1.00  0.00     0.022 A 
BRANCH  99 103
ATOM    103  S   UNL     1       3.078  19.857   6.066  1.00  0.00     0.124 S 
ATOM    104  O   UNL     1       1.728  19.302   6.104  1.00  0.00    -0.237 OA
ATOM    105  O   UNL     1       4.033  19.272   7.002  1.00  0.00    -0.237 OA
ATOM    106  O   UNL     1       3.147  21.311   5.938  1.00  0.00    -0.744 OA
ENDBRANCH  99 103
ENDBRANCH  73  96
ENDBRANCH  47  48
ENDBRANCH  39  42
ENDBRANCH  37  38
ENDBRANCH  36  37
ENDBRANCH  35  36
ENDBRANCH   1  35
TORSDOF 19
