REMARK SMILES Cc1ccc(-c2cc(OCC(=O)NCCCCNC(=O)c3ccc(-c4c5nc(c(-c6cc(S(=O)(=O)[O-])ccc6F)c6ccc([nH]6)c(-c6cc(S(=O)(=O)[O-])ccc6F)c6nc(c(-c7cc(S(=O)(=O)[O-])ccc7F)c7ccc4[nH]7)C=C6)C=C5)cc3)nc(NCc3ccc4c(c3)OCO4)n2)cc1
REMARK SMILES IDX 14 1 13 2 11 3 12 4 10 6 9 7 8 8 6 9 7 10 97 11 85 12 84 13
REMARK SMILES IDX 5 14 1 15 2 16 3 17 99 18 4 19 98 20 86 21 87 23 88 24 89 25
REMARK SMILES IDX 93 26 90 27 92 28 91 29 94 30 96 31 95 32 15 33 16 34 17 35
REMARK SMILES IDX 18 36 19 37 20 39 21 40 22 41 83 42 23 43 82 44 24 45 25 46
REMARK SMILES IDX 26 47 76 48 27 49 81 50 75 51 77 52 28 53 80 54 74 55 73 56
REMARK SMILES IDX 29 58 61 59 41 60 60 61 42 62 45 63 59 64 78 65 43 66 44 67
REMARK SMILES IDX 58 69 79 70 46 71 30 72 31 73 39 74 32 75 38 76 40 77 37 78
REMARK SMILES IDX 33 79 34 80 35 81 36 82 62 83 63 84 71 85 64 86 70 87 72 88
REMARK SMILES IDX 69 89 65 90 66 91 67 92 68 93 47 94 48 95 56 96 49 97 55 98
REMARK SMILES IDX 57 99 54 100 50 101 51 102 52 103 53 104
REMARK H PARENT 13 5 86 22 18 38 77 57 45 68
REMARK Flexibility Score: inf
ROOT
ATOM      1  C   UNL     1      -6.955   3.970  -1.631  1.00  0.00     0.116 C 
ENDROOT
BRANCH   1   2
ATOM      2  N   UNL     1      -5.523   3.969  -1.913  1.00  0.00    -0.353 N 
ATOM      3  C   UNL     1      -4.774   3.016  -2.535  1.00  0.00     0.258 C 
ATOM      4  O   UNL     1      -3.561   3.200  -2.677  1.00  0.00    -0.271 OA
ATOM      5  H   UNL     1      -5.030   4.766  -1.613  1.00  0.00     0.163 HD
BRANCH   3   6
ATOM      6  C   UNL     1      -5.438   1.730  -3.039  1.00  0.00     0.331 C 
BRANCH   6   7
ATOM      7  O   UNL     1      -5.990   0.869  -2.060  1.00  0.00    -0.467 OA
BRANCH   7   8
ATOM      8  C   UNL     1      -5.167   0.443  -1.059  1.00  0.00     0.219 A 
ATOM      9  C   UNL     1      -3.156  -0.079  -0.001  1.00  0.00     0.080 A 
ATOM     10  C   UNL     1      -3.802   0.362  -1.138  1.00  0.00     0.097 A 
ATOM     11  N   UNL     1      -3.812  -0.466   1.112  1.00  0.00    -0.213 NA
ATOM     12  C   UNL     1      -5.143  -0.339   1.096  1.00  0.00     0.226 A 
ATOM     13  N   UNL     1      -5.840   0.094   0.044  1.00  0.00    -0.177 NA
BRANCH   9  14
ATOM     14  C   UNL     1      -1.691  -0.087   0.066  1.00  0.00     0.000 A 
ATOM     15  C   UNL     1       2.637  -0.073   0.037  1.00  0.00     0.044 C 
ATOM     16  C   UNL     1       1.138  -0.071   0.073  1.00  0.00    -0.051 A 
ATOM     17  C   UNL     1       0.431  -1.277   0.164  1.00  0.00     0.004 A 
ATOM     18  C   UNL     1       0.425   1.128  -0.011  1.00  0.00     0.004 A 
ATOM     19  C   UNL     1      -0.969  -1.284   0.169  1.00  0.00     0.010 A 
ATOM     20  C   UNL     1      -0.972   1.118  -0.016  1.00  0.00     0.010 A 
ENDBRANCH   9  14
BRANCH  12  21
ATOM     21  N   UNL     1      -5.900  -0.623   2.200  1.00  0.00    -0.350 N 
ATOM     22  H   UNL     1      -6.752  -0.147   2.328  1.00  0.00     0.164 HD
BRANCH  21  23
ATOM     23  C   UNL     1      -5.492  -1.591   3.176  1.00  0.00     0.152 C 
BRANCH  23  24
ATOM     24  C   UNL     1      -5.823  -3.020   2.777  1.00  0.00    -0.025 A 
ATOM     25  C   UNL     1      -5.219  -4.081   3.496  1.00  0.00     0.009 A 
ATOM     26  C   UNL     1      -6.723  -3.329   1.739  1.00  0.00     0.056 A 
ATOM     27  C   UNL     1      -5.462  -5.419   3.163  1.00  0.00     0.051 A 
ATOM     28  C   UNL     1      -6.925  -4.654   1.419  1.00  0.00     0.166 A 
ATOM     29  C   UNL     1      -6.307  -5.671   2.106  1.00  0.00     0.165 A 
ATOM     30  O   UNL     1      -7.713  -5.114   0.410  1.00  0.00    -0.454 OA
ATOM     31  O   UNL     1      -6.622  -6.897   1.608  1.00  0.00    -0.454 OA
ATOM     32  C   UNL     1      -7.400  -6.519   0.452  1.00  0.00     0.468 C 
ENDBRANCH  23  24
ENDBRANCH  21  23
ENDBRANCH  12  21
ENDBRANCH   7   8
ENDBRANCH   6   7
ENDBRANCH   3   6
ENDBRANCH   1   2
BRANCH   1  33
ATOM     33  C   UNL     1      -7.288   3.579  -0.185  1.00  0.00     0.023 C 
BRANCH  33  34
ATOM     34  C   UNL     1      -6.536   4.345   0.906  1.00  0.00     0.023 C 
BRANCH  34  35
ATOM     35  C   UNL     1      -6.765   5.850   0.895  1.00  0.00     0.116 C 
BRANCH  35  36
ATOM     36  N   UNL     1      -7.800   6.334   1.796  1.00  0.00    -0.352 N 
ATOM     37  C   UNL     1      -8.241   7.636   1.997  1.00  0.00     0.251 C 
ATOM     38  H   UNL     1      -8.250   5.645   2.336  1.00  0.00     0.163 HD
ATOM     39  O   UNL     1      -9.017   7.912   2.894  1.00  0.00    -0.269 OA
BRANCH  37  40
ATOM     40  C   UNL     1      -7.853   8.682   1.011  1.00  0.00     0.039 A 
ATOM     41  C   UNL     1      -8.885   9.445   0.449  1.00  0.00     0.014 A 
ATOM     42  C   UNL     1      -6.570   8.746   0.479  1.00  0.00     0.014 A 
ATOM     43  C   UNL     1      -8.687  10.068  -0.782  1.00  0.00     0.010 A 
ATOM     44  C   UNL     1      -6.400   9.271  -0.787  1.00  0.00     0.010 A 
ATOM     45  C   UNL     1      -7.474   9.878  -1.444  1.00  0.00    -0.014 A 
BRANCH  45  46
ATOM     46  C   UNL     1      -7.292  10.141  -2.866  1.00  0.00     0.031 A 
ATOM     47  C   UNL     1      -6.473  11.272  -3.338  1.00  0.00     0.074 A 
ATOM     48  C   UNL     1      -7.824   9.299  -3.778  1.00  0.00     0.049 A 
ATOM     49  N   UNL     1      -6.666  11.881  -4.460  1.00  0.00    -0.248 NA
ATOM     50  C   UNL     1      -5.370  11.825  -2.562  1.00  0.00     0.031 C 
ATOM     51  C   UNL     1      -7.545   9.250  -5.211  1.00  0.00     0.029 A 
ATOM     52  N   UNL     1      -8.924   8.465  -3.612  1.00  0.00    -0.354 N 
ATOM     53  C   UNL     1      -5.557  12.656  -4.699  1.00  0.00     0.074 A 
ATOM     54  C   UNL     1      -4.820  12.654  -3.455  1.00  0.00     0.031 C 
ATOM     55  C   UNL     1      -8.578   8.662  -5.834  1.00  0.00     0.029 A 
ATOM     56  C   UNL     1      -9.608   8.431  -4.839  1.00  0.00     0.049 A 
ATOM     57  H   UNL     1      -9.177   7.989  -2.788  1.00  0.00     0.167 HD
ATOM     58  C   UNL     1      -5.286  13.085  -5.964  1.00  0.00     0.034 A 
ATOM     59  C   UNL     1     -10.909   8.833  -4.932  1.00  0.00     0.034 A 
ATOM     60  C   UNL     1      -6.282  12.621  -6.928  1.00  0.00     0.049 A 
ATOM     61  C   UNL     1     -11.112   9.986  -5.888  1.00  0.00     0.074 A 
ATOM     62  C   UNL     1      -6.277  11.603  -7.870  1.00  0.00     0.029 A 
ATOM     63  N   UNL     1      -7.600  13.053  -6.830  1.00  0.00    -0.354 N 
ATOM     64  N   UNL     1     -10.148  10.739  -6.342  1.00  0.00    -0.248 NA
ATOM     65  C   UNL     1     -12.415  10.392  -6.400  1.00  0.00     0.031 C 
ATOM     66  C   UNL     1      -7.606  11.412  -8.323  1.00  0.00     0.029 A 
ATOM     67  C   UNL     1      -8.418  12.325  -7.674  1.00  0.00     0.049 A 
ATOM     68  H   UNL     1      -7.908  13.778  -6.240  1.00  0.00     0.167 HD
ATOM     69  C   UNL     1     -10.657  11.702  -7.180  1.00  0.00     0.074 A 
ATOM     70  C   UNL     1     -12.084  11.430  -7.189  1.00  0.00     0.031 C 
ATOM     71  C   UNL     1      -9.842  12.627  -7.780  1.00  0.00     0.034 A 
BRANCH  58  72
ATOM     72  C   UNL     1      -3.939  13.641  -6.364  1.00  0.00     0.023 A 
ATOM     73  C   UNL     1      -3.420  13.365  -7.645  1.00  0.00     0.031 A 
ATOM     74  C   UNL     1      -3.110  14.412  -5.527  1.00  0.00     0.131 A 
ATOM     75  C   UNL     1      -2.111  13.733  -8.002  1.00  0.00     0.055 A 
ATOM     76  C   UNL     1      -1.784  14.727  -5.856  1.00  0.00     0.041 A 
ATOM     77  F   UNL     1      -3.565  14.921  -4.372  1.00  0.00    -0.206 F 
ATOM     78  C   UNL     1      -1.271  14.371  -7.095  1.00  0.00     0.022 A 
BRANCH  75  79
ATOM     79  S   UNL     1      -1.524  13.370  -9.680  1.00  0.00     0.124 S 
ATOM     80  O   UNL     1      -1.668  11.920  -9.754  1.00  0.00    -0.237 OA
ATOM     81  O   UNL     1      -2.441  14.152 -10.502  1.00  0.00    -0.237 OA
ATOM     82  O   UNL     1      -0.144  13.853  -9.668  1.00  0.00    -0.744 OA
ENDBRANCH  75  79
ENDBRANCH  58  72
BRANCH  59  83
ATOM     83  C   UNL     1     -11.686   8.557  -3.687  1.00  0.00     0.023 A 
ATOM     84  C   UNL     1     -11.678   7.220  -3.230  1.00  0.00     0.031 A 
ATOM     85  C   UNL     1     -12.014   9.561  -2.768  1.00  0.00     0.131 A 
ATOM     86  C   UNL     1     -11.765   6.943  -1.860  1.00  0.00     0.055 A 
ATOM     87  C   UNL     1     -12.209   9.264  -1.412  1.00  0.00     0.041 A 
ATOM     88  F   UNL     1     -12.018  10.851  -3.136  1.00  0.00    -0.206 F 
ATOM     89  C   UNL     1     -12.030   7.959  -0.943  1.00  0.00     0.022 A 
BRANCH  86  90
ATOM     90  S   UNL     1     -11.190   5.313  -1.284  1.00  0.00     0.124 S 
ATOM     91  O   UNL     1     -12.386   4.495  -1.439  1.00  0.00    -0.237 OA
ATOM     92  O   UNL     1     -10.091   5.018  -2.205  1.00  0.00    -0.237 OA
ATOM     93  O   UNL     1     -10.762   5.559   0.090  1.00  0.00    -0.744 OA
ENDBRANCH  86  90
ENDBRANCH  59  83
BRANCH  71  94
ATOM     94  C   UNL     1     -10.258  13.842  -8.599  1.00  0.00     0.023 A 
ATOM     95  C   UNL     1     -11.583  14.267  -8.763  1.00  0.00     0.031 A 
ATOM     96  C   UNL     1      -9.284  14.666  -9.226  1.00  0.00     0.131 A 
ATOM     97  C   UNL     1     -11.905  15.395  -9.546  1.00  0.00     0.055 A 
ATOM     98  C   UNL     1      -9.599  15.819  -9.954  1.00  0.00     0.041 A 
ATOM     99  F   UNL     1      -7.972  14.402  -9.154  1.00  0.00    -0.206 F 
ATOM    100  C   UNL     1     -10.920  16.186 -10.128  1.00  0.00     0.022 A 
BRANCH  97 101
ATOM    101  S   UNL     1     -13.655  15.782  -9.817  1.00  0.00     0.124 S 
ATOM    102  O   UNL     1     -14.113  14.605 -10.551  1.00  0.00    -0.237 OA
ATOM    103  O   UNL     1     -14.161  15.913  -8.455  1.00  0.00    -0.237 OA
ATOM    104  O   UNL     1     -13.621  17.022 -10.589  1.00  0.00    -0.744 OA
ENDBRANCH  97 101
ENDBRANCH  71  94
ENDBRANCH  45  46
ENDBRANCH  37  40
ENDBRANCH  35  36
ENDBRANCH  34  35
ENDBRANCH  33  34
ENDBRANCH   1  33
TORSDOF 20
