REMARK SMILES CCOc1cnc(C(=O)c2[nH]c3cc(Cl)ccc3c2CC(=O)NCCCCNC(=O)c2ccc(-c3c4nc(c(-c5cc(S(=O)(=O)[O-])ccc5F)c5ccc([nH]5)c(-c5cc(S(=O)(=O)[O-])ccc5F)c5nc(c(-c6cc(S(=O)(=O)[O-])ccc6F)c6ccc3[nH]6)C=C5)C=C4)cc2)cc1CC
REMARK SMILES IDX 24 1 23 2 21 3 22 4 20 6 19 7 10 8 11 9 12 10 18 12 13 13
REMARK SMILES IDX 17 14 14 15 16 16 15 17 8 18 9 19 7 20 4 21 5 22 95 23 6 24
REMARK SMILES IDX 94 25 3 26 2 27 1 28 96 29 97 30 25 31 26 32 27 33 28 34
REMARK SMILES IDX 29 35 30 37 31 38 32 39 93 40 33 41 92 42 34 43 35 44 36 45
REMARK SMILES IDX 86 46 37 47 91 48 85 49 87 50 38 51 90 52 84 53 83 54 39 56
REMARK SMILES IDX 71 57 51 58 70 59 52 60 55 61 69 62 88 63 53 64 54 65 68 67
REMARK SMILES IDX 89 68 56 69 40 70 41 71 49 72 42 73 48 74 50 75 47 76 43 77
REMARK SMILES IDX 44 78 45 79 46 80 72 81 73 82 81 83 74 84 80 85 82 86 79 87
REMARK SMILES IDX 75 88 76 89 77 90 78 91 57 92 58 93 66 94 59 95 65 96 67 97
REMARK SMILES IDX 64 98 60 99 61 100 62 101 63 102
REMARK H PARENT 23 5 11 11 28 36 87 55 55 66
REMARK Flexibility Score: inf
ROOT
ATOM      1  C   UNL     1      11.283  -3.249   1.276  1.00  0.00     0.116 C 
ENDROOT
BRANCH   1   2
ATOM      2  N   UNL     1      10.486  -4.182   0.508  1.00  0.00    -0.356 N 
ATOM      3  C   UNL     1       9.467  -3.933  -0.369  1.00  0.00     0.224 C 
ATOM      4  O   UNL     1       9.058  -4.870  -1.060  1.00  0.00    -0.275 OA
ATOM      5  H   UNL     1      10.710  -5.133   0.635  1.00  0.00     0.163 HD
BRANCH   3   6
ATOM      6  C   UNL     1       8.945  -2.519  -0.590  1.00  0.00     0.138 C 
BRANCH   6   7
ATOM      7  C   UNL     1       8.426  -1.833   0.642  1.00  0.00    -0.002 A 
ATOM      8  C   UNL     1       7.323  -2.198   1.408  1.00  0.00     0.093 A 
ATOM      9  N   UNL     1       7.335  -1.404   2.534  1.00  0.00    -0.351 N 
ATOM     10  C   UNL     1       8.229  -0.373   2.386  1.00  0.00     0.048 A 
ATOM     11  H   UNL     1       6.780  -1.555   3.333  1.00  0.00     0.167 HD
ATOM     12  C   UNL     1       8.929  -0.610   1.204  1.00  0.00     0.004 A 
ATOM     13  C   UNL     1       8.480   0.730   3.212  1.00  0.00     0.047 A 
ATOM     14  C   UNL     1       9.931   0.309   0.823  1.00  0.00     0.012 A 
ATOM     15  C   UNL     1       9.472   1.625   2.803  1.00  0.00     0.043 A 
ATOM     16  C   UNL     1      10.190   1.425   1.629  1.00  0.00     0.021 A 
ATOM     17  Cl  UNL     1       9.804   3.010   3.772  1.00  0.00    -0.084 Cl
BRANCH   8  18
ATOM     18  C   UNL     1       6.337  -3.241   1.163  1.00  0.00     0.227 C 
ATOM     19  O   UNL     1       6.658  -4.418   1.064  1.00  0.00    -0.285 OA
BRANCH  18  20
ATOM     20  C   UNL     1       4.887  -2.821   1.025  1.00  0.00     0.113 A 
ATOM     21  C   UNL     1       2.226  -2.149   0.851  1.00  0.00     0.140 A 
ATOM     22  C   UNL     1       2.684  -3.457   0.729  1.00  0.00     0.158 A 
ATOM     23  C   UNL     1       3.146  -1.137   1.120  1.00  0.00    -0.002 A 
ATOM     24  N   UNL     1       3.986  -3.814   0.823  1.00  0.00    -0.249 NA
ATOM     25  C   UNL     1       4.503  -1.483   1.132  1.00  0.00     0.040 A 
BRANCH  21  26
ATOM     26  O   UNL     1       0.890  -1.877   0.791  1.00  0.00    -0.492 OA
BRANCH  26  27
ATOM     27  C   UNL     1       0.428  -1.770  -0.563  1.00  0.00     0.226 C 
ATOM     28  C   UNL     1       0.103  -0.318  -0.874  1.00  0.00     0.049 C 
ENDBRANCH  26  27
ENDBRANCH  21  26
BRANCH  23  29
ATOM     29  C   UNL     1       2.735   0.289   1.393  1.00  0.00     0.036 C 
ATOM     30  C   UNL     1       3.301   0.829   2.704  1.00  0.00     0.009 C 
ENDBRANCH  23  29
ENDBRANCH  18  20
ENDBRANCH   8  18
ENDBRANCH   6   7
ENDBRANCH   3   6
ENDBRANCH   1   2
BRANCH   1  31
ATOM     31  C   UNL     1      10.857  -3.168   2.741  1.00  0.00     0.023 C 
BRANCH  31  32
ATOM     32  C   UNL     1      11.195  -4.393   3.592  1.00  0.00     0.023 C 
BRANCH  32  33
ATOM     33  C   UNL     1      12.666  -4.792   3.624  1.00  0.00     0.116 C 
BRANCH  33  34
ATOM     34  N   UNL     1      13.548  -3.715   4.046  1.00  0.00    -0.352 N 
ATOM     35  C   UNL     1      14.711  -3.783   4.775  1.00  0.00     0.251 C 
ATOM     36  H   UNL     1      13.274  -2.811   3.770  1.00  0.00     0.163 HD
ATOM     37  O   UNL     1      15.272  -2.743   5.115  1.00  0.00    -0.269 OA
BRANCH  35  38
ATOM     38  C   UNL     1      15.257  -5.096   5.190  1.00  0.00     0.039 A 
ATOM     39  C   UNL     1      15.699  -5.248   6.507  1.00  0.00     0.014 A 
ATOM     40  C   UNL     1      15.324  -6.173   4.302  1.00  0.00     0.014 A 
ATOM     41  C   UNL     1      16.136  -6.498   6.953  1.00  0.00     0.010 A 
ATOM     42  C   UNL     1      15.701  -7.433   4.764  1.00  0.00     0.010 A 
ATOM     43  C   UNL     1      16.103  -7.610   6.096  1.00  0.00    -0.014 A 
BRANCH  43  44
ATOM     44  C   UNL     1      16.462  -8.964   6.590  1.00  0.00     0.031 A 
ATOM     45  C   UNL     1      17.675  -9.675   6.056  1.00  0.00     0.074 A 
ATOM     46  C   UNL     1      15.656  -9.578   7.478  1.00  0.00     0.049 A 
ATOM     47  N   UNL     1      18.124 -10.871   6.337  1.00  0.00    -0.248 NA
ATOM     48  C   UNL     1      18.471  -8.954   5.052  1.00  0.00     0.031 C 
ATOM     49  C   UNL     1      14.418  -9.014   8.024  1.00  0.00     0.029 A 
ATOM     50  N   UNL     1      15.748 -10.810   8.072  1.00  0.00    -0.354 N 
ATOM     51  C   UNL     1      19.248 -11.053   5.538  1.00  0.00     0.074 A 
ATOM     52  C   UNL     1      19.376  -9.863   4.723  1.00  0.00     0.031 C 
ATOM     53  C   UNL     1      13.880  -9.890   8.888  1.00  0.00     0.029 A 
ATOM     54  C   UNL     1      14.713 -11.087   8.934  1.00  0.00     0.049 A 
ATOM     55  H   UNL     1      16.485 -11.439   7.897  1.00  0.00     0.167 HD
ATOM     56  C   UNL     1      20.105 -12.105   5.504  1.00  0.00     0.034 A 
ATOM     57  C   UNL     1      14.461 -12.183   9.677  1.00  0.00     0.034 A 
ATOM     58  C   UNL     1      19.968 -13.282   6.329  1.00  0.00     0.049 A 
ATOM     59  C   UNL     1      15.432 -13.333   9.631  1.00  0.00     0.074 A 
ATOM     60  C   UNL     1      20.808 -14.380   6.415  1.00  0.00     0.029 A 
ATOM     61  N   UNL     1      18.918 -13.520   7.207  1.00  0.00    -0.354 N 
ATOM     62  N   UNL     1      16.524 -13.464   8.914  1.00  0.00    -0.248 NA
ATOM     63  C   UNL     1      15.143 -14.473  10.509  1.00  0.00     0.031 C 
ATOM     64  C   UNL     1      20.238 -15.303   7.301  1.00  0.00     0.029 A 
ATOM     65  C   UNL     1      19.076 -14.755   7.820  1.00  0.00     0.049 A 
ATOM     66  H   UNL     1      18.169 -12.902   7.371  1.00  0.00     0.167 HD
ATOM     67  C   UNL     1      17.064 -14.696   9.273  1.00  0.00     0.074 A 
ATOM     68  C   UNL     1      16.189 -15.254  10.284  1.00  0.00     0.031 C 
ATOM     69  C   UNL     1      18.183 -15.310   8.810  1.00  0.00     0.034 A 
BRANCH  56  70
ATOM     70  C   UNL     1      21.249 -12.031   4.520  1.00  0.00     0.023 A 
ATOM     71  C   UNL     1      22.246 -11.045   4.623  1.00  0.00     0.031 A 
ATOM     72  C   UNL     1      21.327 -12.935   3.446  1.00  0.00     0.131 A 
ATOM     73  C   UNL     1      23.230 -10.936   3.629  1.00  0.00     0.055 A 
ATOM     74  C   UNL     1      22.355 -12.871   2.503  1.00  0.00     0.041 A 
ATOM     75  F   UNL     1      20.394 -13.887   3.285  1.00  0.00    -0.206 F 
ATOM     76  C   UNL     1      23.305 -11.857   2.582  1.00  0.00     0.022 A 
BRANCH  73  77
ATOM     77  S   UNL     1      24.323  -9.489   3.646  1.00  0.00     0.124 S 
ATOM     78  O   UNL     1      23.363  -8.393   3.538  1.00  0.00    -0.237 OA
ATOM     79  O   UNL     1      25.001  -9.620   4.931  1.00  0.00    -0.237 OA
ATOM     80  O   UNL     1      25.170  -9.684   2.471  1.00  0.00    -0.744 OA
ENDBRANCH  73  77
ENDBRANCH  56  70
BRANCH  57  81
ATOM     81  C   UNL     1      13.241 -12.251  10.528  1.00  0.00     0.023 A 
ATOM     82  C   UNL     1      13.339 -12.267  11.928  1.00  0.00     0.031 A 
ATOM     83  C   UNL     1      11.962 -12.335   9.952  1.00  0.00     0.131 A 
ATOM     84  C   UNL     1      12.181 -12.409  12.708  1.00  0.00     0.055 A 
ATOM     85  C   UNL     1      10.809 -12.432  10.733  1.00  0.00     0.041 A 
ATOM     86  F   UNL     1      11.816 -12.313   8.618  1.00  0.00    -0.206 F 
ATOM     87  C   UNL     1      10.916 -12.482  12.120  1.00  0.00     0.022 A 
BRANCH  84  88
ATOM     88  S   UNL     1      12.358 -12.567  14.506  1.00  0.00     0.124 S 
ATOM     89  O   UNL     1      13.212 -13.744  14.619  1.00  0.00    -0.237 OA
ATOM     90  O   UNL     1      12.973 -11.292  14.862  1.00  0.00    -0.237 OA
ATOM     91  O   UNL     1      10.984 -12.744  14.969  1.00  0.00    -0.744 OA
ENDBRANCH  84  88
ENDBRANCH  57  81
BRANCH  69  92
ATOM     92  C   UNL     1      18.528 -16.642   9.428  1.00  0.00     0.023 A 
ATOM     93  C   UNL     1      17.720 -17.776   9.233  1.00  0.00     0.031 A 
ATOM     94  C   UNL     1      19.655 -16.767  10.259  1.00  0.00     0.131 A 
ATOM     95  C   UNL     1      18.013 -18.969   9.912  1.00  0.00     0.055 A 
ATOM     96  C   UNL     1      19.975 -17.972  10.885  1.00  0.00     0.041 A 
ATOM     97  F   UNL     1      20.459 -15.715  10.482  1.00  0.00    -0.206 F 
ATOM     98  C   UNL     1      19.143 -19.077  10.726  1.00  0.00     0.022 A 
BRANCH  95  99
ATOM     99  S   UNL     1      16.837 -20.345   9.803  1.00  0.00     0.124 S 
ATOM    100  O   UNL     1      15.600 -19.727  10.269  1.00  0.00    -0.237 OA
ATOM    101  O   UNL     1      16.884 -20.683   8.384  1.00  0.00    -0.237 OA
ATOM    102  O   UNL     1      17.402 -21.352  10.699  1.00  0.00    -0.744 OA
ENDBRANCH  95  99
ENDBRANCH  69  92
ENDBRANCH  43  44
ENDBRANCH  35  38
ENDBRANCH  33  34
ENDBRANCH  32  33
ENDBRANCH  31  32
ENDBRANCH   1  31
TORSDOF 20
