REMARK SMILES C[C@@H](C(=O)NCCCCNC(=O)c1ccc(-c2c3nc(c(-c4cc(S(=O)(=O)[O-])ccc4F)c4ccc([nH]4)c(-c4cc(S(=O)(=O)[O-])ccc4F)c4nc(c(-c5cc(S(=O)(=O)[O-])ccc5F)c5ccc2[nH]5)C=C4)C=C3)cc1)c1ccc(C[C@@H]2CCC[C@@H]2O)cc1F
REMARK SMILES IDX 7 1 6 2 5 3 3 4 4 5 2 7 1 8 76 9 77 10 88 11 78 12 87 13
REMARK SMILES IDX 89 14 79 15 80 16 81 17 82 18 85 19 83 20 84 21 86 22 8 24
REMARK SMILES IDX 9 25 10 26 11 27 12 29 13 30 14 31 75 32 15 33 74 34 16 35
REMARK SMILES IDX 17 36 18 37 68 38 19 39 73 40 67 41 69 42 20 43 72 44 66 45
REMARK SMILES IDX 65 46 21 48 53 49 33 50 52 51 34 52 37 53 51 54 70 55 35 56
REMARK SMILES IDX 36 57 50 59 71 60 38 61 22 62 23 63 31 64 24 65 30 66 32 67
REMARK SMILES IDX 29 68 25 69 26 70 27 71 28 72 54 73 55 74 63 75 56 76 62 77
REMARK SMILES IDX 64 78 61 79 57 80 58 81 59 82 60 83 39 84 40 85 48 86 41 87
REMARK SMILES IDX 47 88 49 89 46 90 42 91 43 92 44 93 45 94
REMARK H PARENT 5 6 86 23 10 28 69 47 37 58
REMARK Flexibility Score: inf
ROOT
ATOM      1  C   UNL     1     -11.816   6.102   7.415  1.00  0.00     0.023 C 
ENDROOT
BRANCH   1   2
ATOM      2  C   UNL     1     -11.386   4.635   7.393  1.00  0.00     0.116 C 
BRANCH   2   3
ATOM      3  N   UNL     1     -11.909   3.947   6.231  1.00  0.00    -0.356 N 
ATOM      4  C   UNL     1     -11.296   3.600   5.061  1.00  0.00     0.227 C 
ATOM      5  O   UNL     1     -11.991   3.039   4.212  1.00  0.00    -0.274 OA
ATOM      6  H   UNL     1     -12.857   3.689   6.294  1.00  0.00     0.163 HD
BRANCH   4   7
ATOM      7  C   UNL     1      -9.792   3.849   4.883  1.00  0.00     0.108 C 
ATOM      8  C   UNL     1      -9.438   5.340   4.810  1.00  0.00     0.023 C 
BRANCH   7   9
ATOM      9  C   UNL     1      -9.233   3.098   3.682  1.00  0.00    -0.000 A 
ATOM     10  C   UNL     1      -8.552   1.886   3.865  1.00  0.00     0.008 A 
ATOM     11  C   UNL     1      -9.377   3.582   2.378  1.00  0.00     0.127 A 
ATOM     12  C   UNL     1      -7.966   1.228   2.778  1.00  0.00     0.004 A 
ATOM     13  C   UNL     1      -8.780   2.941   1.298  1.00  0.00     0.043 A 
ATOM     14  F   UNL     1     -10.064   4.708   2.143  1.00  0.00    -0.207 F 
ATOM     15  C   UNL     1      -8.030   1.776   1.492  1.00  0.00    -0.045 A 
BRANCH  15  16
ATOM     16  C   UNL     1      -7.287   1.160   0.335  1.00  0.00     0.041 C 
BRANCH  16  17
ATOM     17  C   UNL     1      -5.769   1.435   0.228  1.00  0.00     0.022 C 
ATOM     18  C   UNL     1      -4.924   0.816   1.348  1.00  0.00     0.007 C 
ATOM     19  C   UNL     1      -5.303   2.896   0.230  1.00  0.00     0.117 C 
ATOM     20  C   UNL     1      -4.613   1.939   2.341  1.00  0.00     0.003 C 
ATOM     21  C   UNL     1      -5.087   3.238   1.697  1.00  0.00     0.032 C 
BRANCH  19  22
ATOM     22  O   UNL     1      -6.193   3.794  -0.395  1.00  0.00    -0.393 OA
ATOM     23  H   UNL     1      -7.046   3.778   0.066  1.00  0.00     0.210 HD
ENDBRANCH  19  22
ENDBRANCH  16  17
ENDBRANCH  15  16
ENDBRANCH   7   9
ENDBRANCH   4   7
ENDBRANCH   2   3
ENDBRANCH   1   2
BRANCH   1  24
ATOM     24  C   UNL     1     -13.324   6.324   7.569  1.00  0.00     0.023 C 
BRANCH  24  25
ATOM     25  C   UNL     1     -13.954   5.699   8.809  1.00  0.00     0.116 C 
BRANCH  25  26
ATOM     26  N   UNL     1     -13.362   6.181  10.048  1.00  0.00    -0.352 N 
ATOM     27  C   UNL     1     -13.992   6.550  11.214  1.00  0.00     0.251 C 
ATOM     28  H   UNL     1     -12.380   6.252  10.053  1.00  0.00     0.163 HD
ATOM     29  O   UNL     1     -13.346   7.055  12.127  1.00  0.00    -0.269 OA
BRANCH  27  30
ATOM     30  C   UNL     1     -15.454   6.371  11.337  1.00  0.00     0.039 A 
ATOM     31  C   UNL     1     -16.237   7.458  11.735  1.00  0.00     0.014 A 
ATOM     32  C   UNL     1     -16.051   5.150  11.013  1.00  0.00     0.014 A 
ATOM     33  C   UNL     1     -17.630   7.346  11.723  1.00  0.00     0.010 A 
ATOM     34  C   UNL     1     -17.439   5.059  10.948  1.00  0.00     0.010 A 
ATOM     35  C   UNL     1     -18.241   6.161  11.284  1.00  0.00    -0.014 A 
BRANCH  35  36
ATOM     36  C   UNL     1     -19.715   6.059  11.122  1.00  0.00     0.031 A 
ATOM     37  C   UNL     1     -20.500   5.094  11.966  1.00  0.00     0.074 A 
ATOM     38  C   UNL     1     -20.323   6.754  10.139  1.00  0.00     0.049 A 
ATOM     39  N   UNL     1     -21.759   4.752  11.875  1.00  0.00    -0.248 NA
ATOM     40  C   UNL     1     -19.762   4.402  13.033  1.00  0.00     0.031 C 
ATOM     41  C   UNL     1     -19.656   7.691   9.230  1.00  0.00     0.029 A 
ATOM     42  N   UNL     1     -21.629   6.760   9.717  1.00  0.00    -0.354 N 
ATOM     43  C   UNL     1     -21.961   3.786  12.854  1.00  0.00     0.074 A 
ATOM     44  C   UNL     1     -20.684   3.574  13.505  1.00  0.00     0.031 C 
ATOM     45  C   UNL     1     -20.555   8.175   8.358  1.00  0.00     0.029 A 
ATOM     46  C   UNL     1     -21.849   7.548   8.610  1.00  0.00     0.049 A 
ATOM     47  H   UNL     1     -22.342   6.249  10.164  1.00  0.00     0.167 HD
ATOM     48  C   UNL     1     -23.108   3.144  13.182  1.00  0.00     0.034 A 
ATOM     49  C   UNL     1     -22.957   7.721   7.861  1.00  0.00     0.034 A 
ATOM     50  C   UNL     1     -24.377   3.389  12.543  1.00  0.00     0.049 A 
ATOM     51  C   UNL     1     -24.214   6.978   8.236  1.00  0.00     0.074 A 
ATOM     52  C   UNL     1     -25.620   2.877  12.874  1.00  0.00     0.029 A 
ATOM     53  N   UNL     1     -24.565   4.201  11.432  1.00  0.00    -0.354 N 
ATOM     54  N   UNL     1     -24.407   6.128   9.218  1.00  0.00    -0.248 NA
ATOM     55  C   UNL     1     -25.402   7.218   7.405  1.00  0.00     0.031 C 
ATOM     56  C   UNL     1     -26.545   3.323  11.923  1.00  0.00     0.029 A 
ATOM     57  C   UNL     1     -25.893   4.167  11.038  1.00  0.00     0.049 A 
ATOM     58  H   UNL     1     -23.858   4.724  10.990  1.00  0.00     0.167 HD
ATOM     59  C   UNL     1     -25.744   5.751   9.134  1.00  0.00     0.074 A 
ATOM     60  C   UNL     1     -26.314   6.476   8.018  1.00  0.00     0.031 C 
ATOM     61  C   UNL     1     -26.441   4.885   9.913  1.00  0.00     0.034 A 
BRANCH  48  62
ATOM     62  C   UNL     1     -23.040   2.092  14.260  1.00  0.00     0.023 A 
ATOM     63  C   UNL     1     -22.744   2.413  15.595  1.00  0.00     0.031 A 
ATOM     64  C   UNL     1     -23.283   0.743  13.944  1.00  0.00     0.131 A 
ATOM     65  C   UNL     1     -22.642   1.394  16.554  1.00  0.00     0.055 A 
ATOM     66  C   UNL     1     -23.248  -0.259  14.915  1.00  0.00     0.041 A 
ATOM     67  F   UNL     1     -23.553   0.376  12.681  1.00  0.00    -0.206 F 
ATOM     68  C   UNL     1     -22.915   0.063  16.228  1.00  0.00     0.022 A 
BRANCH  65  69
ATOM     69  S   UNL     1     -22.040   1.818  18.211  1.00  0.00     0.124 S 
ATOM     70  O   UNL     1     -20.712   2.349  17.916  1.00  0.00    -0.237 OA
ATOM     71  O   UNL     1     -23.029   2.787  18.668  1.00  0.00    -0.237 OA
ATOM     72  O   UNL     1     -22.049   0.538  18.917  1.00  0.00    -0.744 OA
ENDBRANCH  65  69
ENDBRANCH  48  62
BRANCH  49  73
ATOM     73  C   UNL     1     -22.927   8.595   6.652  1.00  0.00     0.023 A 
ATOM     74  C   UNL     1     -23.709   9.758   6.580  1.00  0.00     0.031 A 
ATOM     75  C   UNL     1     -22.159   8.245   5.527  1.00  0.00     0.131 A 
ATOM     76  C   UNL     1     -23.745  10.504   5.390  1.00  0.00     0.055 A 
ATOM     77  C   UNL     1     -22.157   9.019   4.365  1.00  0.00     0.041 A 
ATOM     78  F   UNL     1     -21.391   7.144   5.544  1.00  0.00    -0.206 F 
ATOM     79  C   UNL     1     -22.966  10.149   4.287  1.00  0.00     0.022 A 
BRANCH  76  80
ATOM     80  S   UNL     1     -24.907  11.892   5.273  1.00  0.00     0.124 S 
ATOM     81  O   UNL     1     -26.177  11.246   5.585  1.00  0.00    -0.237 OA
ATOM     82  O   UNL     1     -24.386  12.807   6.284  1.00  0.00    -0.237 OA
ATOM     83  O   UNL     1     -24.759  12.343   3.891  1.00  0.00    -0.744 OA
ENDBRANCH  76  80
ENDBRANCH  49  73
BRANCH  61  84
ATOM     84  C   UNL     1     -27.904   4.707   9.598  1.00  0.00     0.023 A 
ATOM     85  C   UNL     1     -28.332   4.048   8.433  1.00  0.00     0.031 A 
ATOM     86  C   UNL     1     -28.882   5.204  10.478  1.00  0.00     0.131 A 
ATOM     87  C   UNL     1     -29.703   3.938   8.158  1.00  0.00     0.055 A 
ATOM     88  C   UNL     1     -30.245   5.046  10.225  1.00  0.00     0.041 A 
ATOM     89  F   UNL     1     -28.526   5.843  11.604  1.00  0.00    -0.206 F 
ATOM     90  C   UNL     1     -30.662   4.418   9.055  1.00  0.00     0.022 A 
BRANCH  87  91
ATOM     91  S   UNL     1     -30.221   3.209   6.580  1.00  0.00     0.124 S 
ATOM     92  O   UNL     1     -29.652   4.143   5.614  1.00  0.00    -0.237 OA
ATOM     93  O   UNL     1     -29.605   1.886   6.627  1.00  0.00    -0.237 OA
ATOM     94  O   UNL     1     -31.680   3.214   6.663  1.00  0.00    -0.744 OA
ENDBRANCH  87  91
ENDBRANCH  61  84
ENDBRANCH  35  36
ENDBRANCH  27  30
ENDBRANCH  25  26
ENDBRANCH  24  25
ENDBRANCH   1  24
TORSDOF 18
