REMARK SMILES O=C(NCCCCNC(=O)c1cncc(Oc2cc(F)ccc2F)n1)c1ccc(-c2c3nc(c(-c4cc(S(=O)(=O)[O-])ccc4F)c4ccc([nH]4)c(-c4cc(S(=O)(=O)[O-])ccc4F)c4nc(c(-c5cc(S(=O)(=O)[O-])ccc5F)c5ccc2[nH]5)C=C4)C=C3)cc1
REMARK SMILES IDX 5 1 4 2 3 3 1 4 2 5 26 7 27 8 88 9 28 10 87 11 29 12 30 13
REMARK SMILES IDX 31 14 81 15 32 16 86 17 80 18 82 19 33 20 85 21 79 22 78 23
REMARK SMILES IDX 34 25 66 26 46 27 65 28 47 29 50 30 64 31 83 32 48 33 49 34
REMARK SMILES IDX 63 36 84 37 51 38 35 39 36 40 44 41 37 42 43 43 45 44 42 45
REMARK SMILES IDX 38 46 39 47 40 48 41 49 67 50 68 51 76 52 69 53 75 54 77 55
REMARK SMILES IDX 74 56 70 57 71 58 72 59 73 60 52 61 53 62 61 63 54 64 60 65
REMARK SMILES IDX 62 66 59 67 55 68 56 69 57 70 58 71 6 72 7 73 8 74 9 75
REMARK SMILES IDX 10 77 11 78 12 79 25 80 13 81 15 82 14 83 16 84 17 85 18 86
REMARK SMILES IDX 23 87 19 88 22 89 24 90 20 91 21 92
REMARK H PARENT 3 6 82 24 50 35 8 76
REMARK Flexibility Score: inf
ROOT
ATOM      1  C   UNL     1       4.815  -2.695  -0.778  1.00  0.00     0.023 C 
ENDROOT
BRANCH   1   2
ATOM      2  C   UNL     1       4.525  -1.200  -0.826  1.00  0.00     0.116 C 
BRANCH   2   3
ATOM      3  N   UNL     1       3.105  -0.882  -0.867  1.00  0.00    -0.352 N 
ATOM      4  O   UNL     1       1.154   0.025  -0.194  1.00  0.00    -0.269 OA
ATOM      5  C   UNL     1       2.374  -0.038  -0.061  1.00  0.00     0.251 C 
ATOM      6  H   UNL     1       2.592  -1.338  -1.574  1.00  0.00     0.163 HD
BRANCH   5   7
ATOM      7  C   UNL     1       3.050   0.762   0.986  1.00  0.00     0.039 A 
ATOM      8  C   UNL     1       4.234   1.447   0.712  1.00  0.00     0.014 A 
ATOM      9  C   UNL     1       2.501   0.806   2.272  1.00  0.00     0.014 A 
ATOM     10  C   UNL     1       4.959   2.016   1.754  1.00  0.00     0.010 A 
ATOM     11  C   UNL     1       3.188   1.460   3.301  1.00  0.00     0.010 A 
ATOM     12  C   UNL     1       4.450   2.025   3.064  1.00  0.00    -0.014 A 
BRANCH  12  13
ATOM     13  C   UNL     1       5.261   2.634   4.154  1.00  0.00     0.031 A 
ATOM     14  C   UNL     1       5.787   1.797   5.291  1.00  0.00     0.074 A 
ATOM     15  C   UNL     1       5.572   3.944   4.083  1.00  0.00     0.049 A 
ATOM     16  N   UNL     1       6.557   2.150   6.290  1.00  0.00    -0.248 NA
ATOM     17  C   UNL     1       5.386   0.383   5.319  1.00  0.00     0.031 C 
ATOM     18  C   UNL     1       5.112   4.860   3.036  1.00  0.00     0.029 A 
ATOM     19  N   UNL     1       6.367   4.726   4.880  1.00  0.00    -0.354 N 
ATOM     20  C   UNL     1       6.715   1.013   7.077  1.00  0.00     0.074 A 
ATOM     21  C   UNL     1       5.930  -0.033   6.454  1.00  0.00     0.031 C 
ATOM     22  C   UNL     1       5.682   6.060   3.220  1.00  0.00     0.029 A 
ATOM     23  C   UNL     1       6.496   6.019   4.430  1.00  0.00     0.049 A 
ATOM     24  H   UNL     1       6.804   4.393   5.698  1.00  0.00     0.167 HD
ATOM     25  C   UNL     1       7.450   0.854   8.207  1.00  0.00     0.034 A 
ATOM     26  C   UNL     1       7.187   7.059   4.934  1.00  0.00     0.034 A 
ATOM     27  C   UNL     1       8.244   1.902   8.807  1.00  0.00     0.049 A 
ATOM     28  C   UNL     1       7.991   6.858   6.189  1.00  0.00     0.074 A 
ATOM     29  C   UNL     1       9.059   1.836   9.925  1.00  0.00     0.029 A 
ATOM     30  N   UNL     1       8.319   3.210   8.343  1.00  0.00    -0.354 N 
ATOM     31  N   UNL     1       8.143   5.769   6.907  1.00  0.00    -0.248 NA
ATOM     32  C   UNL     1       8.719   8.026   6.698  1.00  0.00     0.031 C 
ATOM     33  C   UNL     1       9.576   3.114  10.171  1.00  0.00     0.029 A 
ATOM     34  C   UNL     1       9.142   3.964   9.167  1.00  0.00     0.049 A 
ATOM     35  H   UNL     1       7.856   3.552   7.544  1.00  0.00     0.167 HD
ATOM     36  C   UNL     1       9.003   6.119   7.944  1.00  0.00     0.074 A 
ATOM     37  C   UNL     1       9.350   7.512   7.743  1.00  0.00     0.031 C 
ATOM     38  C   UNL     1       9.464   5.358   8.968  1.00  0.00     0.034 A 
BRANCH  25  39
ATOM     39  C   UNL     1       7.390  -0.491   8.894  1.00  0.00     0.023 A 
ATOM     40  C   UNL     1       7.879  -1.661   8.287  1.00  0.00     0.031 A 
ATOM     41  C   UNL     1       6.812  -0.607  10.172  1.00  0.00     0.131 A 
ATOM     42  C   UNL     1       7.717  -2.902   8.924  1.00  0.00     0.055 A 
ATOM     43  C   UNL     1       6.723  -1.834  10.833  1.00  0.00     0.041 A 
ATOM     44  F   UNL     1       6.312   0.471  10.795  1.00  0.00    -0.206 F 
ATOM     45  C   UNL     1       7.163  -2.993  10.203  1.00  0.00     0.022 A 
BRANCH  42  46
ATOM     46  S   UNL     1       8.110  -4.412   7.997  1.00  0.00     0.124 S 
ATOM     47  O   UNL     1       7.248  -4.272   6.825  1.00  0.00    -0.237 OA
ATOM     48  O   UNL     1       9.541  -4.271   7.758  1.00  0.00    -0.237 OA
ATOM     49  O   UNL     1       7.732  -5.486   8.913  1.00  0.00    -0.744 OA
ENDBRANCH  42  46
ENDBRANCH  25  39
BRANCH  26  50
ATOM     50  C   UNL     1       7.139   8.386   4.259  1.00  0.00     0.023 A 
ATOM     51  C   UNL     1       8.287   8.945   3.677  1.00  0.00     0.031 A 
ATOM     52  C   UNL     1       5.944   9.125   4.208  1.00  0.00     0.131 A 
ATOM     53  C   UNL     1       8.225  10.223   3.099  1.00  0.00     0.055 A 
ATOM     54  C   UNL     1       5.875  10.373   3.588  1.00  0.00     0.041 A 
ATOM     55  F   UNL     1       4.816   8.631   4.744  1.00  0.00    -0.206 F 
ATOM     56  C   UNL     1       7.024  10.934   3.039  1.00  0.00     0.022 A 
BRANCH  53  57
ATOM     57  S   UNL     1       9.756  10.974   2.484  1.00  0.00     0.124 S 
ATOM     58  O   UNL     1      10.587  10.981   3.683  1.00  0.00    -0.237 OA
ATOM     59  O   UNL     1      10.151  10.039   1.435  1.00  0.00    -0.237 OA
ATOM     60  O   UNL     1       9.325  12.288   2.014  1.00  0.00    -0.744 OA
ENDBRANCH  53  57
ENDBRANCH  26  50
BRANCH  38  61
ATOM     61  C   UNL     1      10.425   6.021   9.923  1.00  0.00     0.023 A 
ATOM     62  C   UNL     1      10.017   7.063  10.775  1.00  0.00     0.031 A 
ATOM     63  C   UNL     1      11.776   5.633   9.951  1.00  0.00     0.131 A 
ATOM     64  C   UNL     1      10.963   7.725  11.571  1.00  0.00     0.055 A 
ATOM     65  C   UNL     1      12.702   6.257  10.788  1.00  0.00     0.041 A 
ATOM     66  F   UNL     1      12.219   4.646   9.156  1.00  0.00    -0.206 F 
ATOM     67  C   UNL     1      12.301   7.320  11.593  1.00  0.00     0.022 A 
BRANCH  64  68
ATOM     68  S   UNL     1      10.445   9.194  12.500  1.00  0.00     0.124 S 
ATOM     69  O   UNL     1       9.920  10.053  11.443  1.00  0.00    -0.237 OA
ATOM     70  O   UNL     1       9.458   8.646  13.425  1.00  0.00    -0.237 OA
ATOM     71  O   UNL     1      11.683   9.662  13.121  1.00  0.00    -0.744 OA
ENDBRANCH  64  68
ENDBRANCH  38  61
ENDBRANCH  12  13
ENDBRANCH   5   7
ENDBRANCH   2   3
ENDBRANCH   1   2
BRANCH   1  72
ATOM     72  C   UNL     1       4.330  -3.510  -1.976  1.00  0.00     0.023 C 
BRANCH  72  73
ATOM     73  C   UNL     1       4.731  -2.977  -3.350  1.00  0.00     0.116 C 
BRANCH  73  74
ATOM     74  N   UNL     1       6.168  -2.845  -3.514  1.00  0.00    -0.351 N 
ATOM     75  C   UNL     1       6.999  -3.407  -4.457  1.00  0.00     0.271 C 
ATOM     76  H   UNL     1       6.615  -2.268  -2.853  1.00  0.00     0.163 HD
ATOM     77  O   UNL     1       8.209  -3.201  -4.407  1.00  0.00    -0.267 OA
BRANCH  75  78
ATOM     78  C   UNL     1       6.440  -4.242  -5.542  1.00  0.00     0.150 A 
ATOM     79  C   UNL     1       5.536  -3.702  -6.446  1.00  0.00     0.145 A 
ATOM     80  N   UNL     1       6.871  -5.528  -5.615  1.00  0.00    -0.205 NA
ATOM     81  N   UNL     1       4.981  -4.436  -7.444  1.00  0.00    -0.257 NA
ATOM     82  C   UNL     1       6.344  -6.252  -6.626  1.00  0.00     0.238 A 
ATOM     83  C   UNL     1       5.409  -5.723  -7.510  1.00  0.00     0.179 A 
BRANCH  82  84
ATOM     84  O   UNL     1       6.698  -7.584  -6.804  1.00  0.00    -0.434 OA
BRANCH  84  85
ATOM     85  C   UNL     1       7.808  -8.009  -6.116  1.00  0.00     0.168 A 
ATOM     86  C   UNL     1       7.737  -8.310  -4.756  1.00  0.00     0.089 A 
ATOM     87  C   UNL     1       8.997  -8.218  -6.816  1.00  0.00     0.166 A 
ATOM     88  C   UNL     1       8.876  -8.778  -4.109  1.00  0.00     0.127 A 
ATOM     89  C   UNL     1      10.133  -8.691  -6.164  1.00  0.00     0.046 A 
ATOM     90  F   UNL     1       9.055  -7.974  -8.134  1.00  0.00    -0.203 F 
ATOM     91  F   UNL     1       8.820  -9.063  -2.802  1.00  0.00    -0.207 F 
ATOM     92  C   UNL     1      10.073  -8.969  -4.798  1.00  0.00     0.042 A 
ENDBRANCH  84  85
ENDBRANCH  82  84
ENDBRANCH  75  78
ENDBRANCH  73  74
ENDBRANCH  72  73
ENDBRANCH   1  72
TORSDOF 16
