REMARK SMILES O=C(CNc1nccs1)NCCCCNC(=O)c1ccc(-c2c3nc(c(-c4cc(S(=O)(=O)[O-])ccc4F)c4ccc([nH]4)c(-c4cc(S(=O)(=O)[O-])ccc4F)c4nc(c(-c5cc(S(=O)(=O)[O-])ccc5F)c5ccc2[nH]5)C=C4)C=C3)cc1
REMARK SMILES IDX 13 1 12 2 11 3 10 4 1 5 2 6 3 8 4 9 5 11 6 12 9 13 7 14 8 15
REMARK SMILES IDX 14 16 15 17 16 18 17 20 18 21 19 22 80 23 20 24 79 25 21 26
REMARK SMILES IDX 22 27 23 28 73 29 24 30 78 31 72 32 74 33 25 34 77 35 71 36
REMARK SMILES IDX 70 37 26 39 58 40 38 41 57 42 39 43 42 44 56 45 75 46 40 47
REMARK SMILES IDX 41 48 55 50 76 51 43 52 27 53 28 54 36 55 29 56 35 57 37 58
REMARK SMILES IDX 34 59 30 60 31 61 32 62 33 63 59 64 60 65 68 66 61 67 67 68
REMARK SMILES IDX 69 69 66 70 62 71 63 72 64 73 65 74 44 75 45 76 53 77 46 78
REMARK SMILES IDX 52 79 54 80 51 81 47 82 48 83 49 84 50 85
REMARK H PARENT 10 7 4 10 15 19 74 38 42 49
REMARK Flexibility Score: inf
ROOT
ATOM      1  C   UNL     1       3.878  -1.927   3.271  1.00  0.00     0.023 C 
ENDROOT
BRANCH   1   2
ATOM      2  C   UNL     1       2.395  -1.741   2.934  1.00  0.00     0.023 C 
BRANCH   2   3
ATOM      3  C   UNL     1       2.025  -0.376   2.358  1.00  0.00     0.116 C 
BRANCH   3   4
ATOM      4  N   UNL     1       2.701  -0.100   1.109  1.00  0.00    -0.355 N 
ATOM      5  O   UNL     1       0.842  -0.140  -0.252  1.00  0.00    -0.273 OA
ATOM      6  C   UNL     1       2.049   0.020  -0.104  1.00  0.00     0.239 C 
ATOM      7  H   UNL     1       3.680   0.007   1.124  1.00  0.00     0.163 HD
BRANCH   6   8
ATOM      8  C   UNL     1       2.995   0.352  -1.267  1.00  0.00     0.215 C 
BRANCH   8   9
ATOM      9  N   UNL     1       3.943   1.374  -0.845  1.00  0.00    -0.352 N 
ATOM     10  H   UNL     1       3.623   2.131  -0.302  1.00  0.00     0.163 HD
BRANCH   9  11
ATOM     11  C   UNL     1       5.243   1.310  -1.178  1.00  0.00     0.183 A 
ATOM     12  N   UNL     1       5.772   0.433  -1.998  1.00  0.00    -0.229 NA
ATOM     13  S   UNL     1       6.363   2.413  -0.470  1.00  0.00    -0.106 S 
ATOM     14  C   UNL     1       7.139   0.617  -2.072  1.00  0.00     0.125 A 
ATOM     15  C   UNL     1       7.646   1.629  -1.288  1.00  0.00     0.088 A 
ENDBRANCH   9  11
ENDBRANCH   8   9
ENDBRANCH   6   8
ENDBRANCH   3   4
ENDBRANCH   2   3
ENDBRANCH   1   2
BRANCH   1  16
ATOM     16  C   UNL     1       4.465  -0.921   4.258  1.00  0.00     0.116 C 
BRANCH  16  17
ATOM     17  N   UNL     1       3.853  -0.991   5.575  1.00  0.00    -0.352 N 
ATOM     18  C   UNL     1       4.444  -1.095   6.813  1.00  0.00     0.251 C 
ATOM     19  H   UNL     1       2.869  -0.960   5.582  1.00  0.00     0.163 HD
ATOM     20  O   UNL     1       3.739  -1.287   7.802  1.00  0.00    -0.269 OA
BRANCH  18  21
ATOM     21  C   UNL     1       5.917  -1.014   6.956  1.00  0.00     0.039 A 
ATOM     22  C   UNL     1       6.563  -1.921   7.801  1.00  0.00     0.014 A 
ATOM     23  C   UNL     1       6.664  -0.054   6.268  1.00  0.00     0.014 A 
ATOM     24  C   UNL     1       7.959  -1.915   7.894  1.00  0.00     0.010 A 
ATOM     25  C   UNL     1       8.058  -0.099   6.304  1.00  0.00     0.010 A 
ATOM     26  C   UNL     1       8.723  -1.034   7.113  1.00  0.00    -0.014 A 
BRANCH  26  27
ATOM     27  C   UNL     1      10.212  -1.085   7.121  1.00  0.00     0.031 A 
ATOM     28  C   UNL     1      11.012   0.101   7.591  1.00  0.00     0.074 A 
ATOM     29  C   UNL     1      10.847  -2.177   6.649  1.00  0.00     0.049 A 
ATOM     30  N   UNL     1      12.309   0.277   7.596  1.00  0.00    -0.248 NA
ATOM     31  C   UNL     1      10.248   1.252   8.096  1.00  0.00     0.031 C 
ATOM     32  C   UNL     1      10.187  -3.378   6.132  1.00  0.00     0.029 A 
ATOM     33  N   UNL     1      12.186  -2.454   6.517  1.00  0.00    -0.354 N 
ATOM     34  C   UNL     1      12.518   1.558   8.097  1.00  0.00     0.074 A 
ATOM     35  C   UNL     1      11.209   2.136   8.319  1.00  0.00     0.031 C 
ATOM     36  C   UNL     1      11.121  -4.269   5.763  1.00  0.00     0.029 A 
ATOM     37  C   UNL     1      12.445  -3.688   5.963  1.00  0.00     0.049 A 
ATOM     38  H   UNL     1      12.894  -1.829   6.792  1.00  0.00     0.167 HD
ATOM     39  C   UNL     1      13.691   2.184   8.370  1.00  0.00     0.034 A 
ATOM     40  C   UNL     1      13.612  -4.279   5.636  1.00  0.00     0.034 A 
ATOM     41  C   UNL     1      14.989   1.594   8.145  1.00  0.00     0.049 A 
ATOM     42  C   UNL     1      14.903  -3.546   5.906  1.00  0.00     0.074 A 
ATOM     43  C   UNL     1      16.237   2.124   8.426  1.00  0.00     0.029 A 
ATOM     44  N   UNL     1      15.211   0.346   7.576  1.00  0.00    -0.354 N 
ATOM     45  N   UNL     1      15.082  -2.352   6.421  1.00  0.00    -0.248 NA
ATOM     46  C   UNL     1      16.147  -4.245   5.560  1.00  0.00     0.031 C 
ATOM     47  C   UNL     1      17.209   1.235   7.957  1.00  0.00     0.029 A 
ATOM     48  C   UNL     1      16.573   0.107   7.465  1.00  0.00     0.049 A 
ATOM     49  H   UNL     1      14.504  -0.278   7.292  1.00  0.00     0.167 HD
ATOM     50  C   UNL     1      16.462  -2.172   6.491  1.00  0.00     0.074 A 
ATOM     51  C   UNL     1      17.064  -3.386   5.981  1.00  0.00     0.031 C 
ATOM     52  C   UNL     1      17.166  -1.103   6.942  1.00  0.00     0.034 A 
BRANCH  39  53
ATOM     53  C   UNL     1      13.617   3.591   8.918  1.00  0.00     0.023 A 
ATOM     54  C   UNL     1      12.994   3.873  10.147  1.00  0.00     0.031 A 
ATOM     55  C   UNL     1      14.153   4.670   8.193  1.00  0.00     0.131 A 
ATOM     56  C   UNL     1      12.852   5.202  10.574  1.00  0.00     0.055 A 
ATOM     57  C   UNL     1      14.088   5.982   8.667  1.00  0.00     0.041 A 
ATOM     58  F   UNL     1      14.741   4.470   7.003  1.00  0.00    -0.206 F 
ATOM     59  C   UNL     1      13.419   6.257   9.856  1.00  0.00     0.022 A 
BRANCH  56  60
ATOM     60  S   UNL     1      11.778   5.542  11.995  1.00  0.00     0.124 S 
ATOM     61  O   UNL     1      10.508   4.976  11.547  1.00  0.00    -0.237 OA
ATOM     62  O   UNL     1      12.450   4.830  13.076  1.00  0.00    -0.237 OA
ATOM     63  O   UNL     1      11.799   7.000  12.099  1.00  0.00    -0.744 OA
ENDBRANCH  56  60
ENDBRANCH  39  53
BRANCH  40  64
ATOM     64  C   UNL     1      13.623  -5.628   4.996  1.00  0.00     0.023 A 
ATOM     65  C   UNL     1      14.216  -6.729   5.633  1.00  0.00     0.031 A 
ATOM     66  C   UNL     1      13.079  -5.824   3.713  1.00  0.00     0.131 A 
ATOM     67  C   UNL     1      14.296  -7.963   4.968  1.00  0.00     0.055 A 
ATOM     68  C   UNL     1      13.107  -7.068   3.081  1.00  0.00     0.041 A 
ATOM     69  F   UNL     1      12.500  -4.806   3.058  1.00  0.00    -0.206 F 
ATOM     70  C   UNL     1      13.732  -8.144   3.704  1.00  0.00     0.022 A 
BRANCH  67  71
ATOM     71  S   UNL     1      15.237  -9.307   5.742  1.00  0.00     0.124 S 
ATOM     72  O   UNL     1      16.552  -8.697   5.896  1.00  0.00    -0.237 OA
ATOM     73  O   UNL     1      14.486  -9.534   6.971  1.00  0.00    -0.237 OA
ATOM     74  O   UNL     1      15.160 -10.386   4.758  1.00  0.00    -0.744 OA
ENDBRANCH  67  71
ENDBRANCH  40  64
BRANCH  52  75
ATOM     75  C   UNL     1      18.673  -1.222   6.948  1.00  0.00     0.023 A 
ATOM     76  C   UNL     1      19.415  -1.328   5.759  1.00  0.00     0.031 A 
ATOM     77  C   UNL     1      19.375  -1.237   8.167  1.00  0.00     0.131 A 
ATOM     78  C   UNL     1      20.807  -1.504   5.816  1.00  0.00     0.055 A 
ATOM     79  C   UNL     1      20.766  -1.344   8.215  1.00  0.00     0.041 A 
ATOM     80  F   UNL     1      18.719  -1.143   9.335  1.00  0.00    -0.206 F 
ATOM     81  C   UNL     1      21.488  -1.493   7.035  1.00  0.00     0.022 A 
BRANCH  78  82
ATOM     82  S   UNL     1      21.705  -1.849   4.278  1.00  0.00     0.124 S 
ATOM     83  O   UNL     1      21.040  -3.057   3.802  1.00  0.00    -0.237 OA
ATOM     84  O   UNL     1      21.465  -0.640   3.498  1.00  0.00    -0.237 OA
ATOM     85  O   UNL     1      23.086  -2.035   4.721  1.00  0.00    -0.744 OA
ENDBRANCH  78  82
ENDBRANCH  52  75
ENDBRANCH  26  27
ENDBRANCH  18  21
ENDBRANCH  16  17
ENDBRANCH   1  16
TORSDOF 16
