REMARK SMILES CC(C)[C@H](NC(=O)OCc1ccccc1)C(=O)NCC(=O)NCCCCNC(=O)c1ccc(-c2c3nc(c(-c4cc(S(=O)(=O)[O-])ccc4F)c4ccc([nH]4)c(-c4cc(S(=O)(=O)[O-])ccc4F)c4nc(c(-c5cc(S(=O)(=O)[O-])ccc5F)c5ccc2[nH]5)C=C4)C=C3)cc1
REMARK SMILES IDX 23 1 22 2 20 3 21 4 19 6 18 7 16 8 17 9 4 11 2 12 1 13 3 14
REMARK SMILES IDX 5 15 6 16 7 18 8 19 9 20 10 21 11 22 15 23 12 24 14 25 13 26
REMARK SMILES IDX 24 27 25 28 26 29 27 30 28 31 29 33 30 34 31 35 92 36 32 37
REMARK SMILES IDX 91 38 33 39 34 40 35 41 85 42 36 43 90 44 84 45 86 46 37 47
REMARK SMILES IDX 89 48 83 49 82 50 38 52 70 53 50 54 69 55 51 56 54 57 68 58
REMARK SMILES IDX 87 59 52 60 53 61 67 63 88 64 55 65 39 66 40 67 48 68 41 69
REMARK SMILES IDX 47 70 49 71 46 72 42 73 43 74 44 75 45 76 71 77 72 78 80 79
REMARK SMILES IDX 73 80 79 81 81 82 78 83 74 84 75 85 76 86 77 87 56 88 57 89
REMARK SMILES IDX 65 90 58 91 64 92 66 93 63 94 59 95 60 96 61 97 62 98
REMARK H PARENT 22 5 18 10 5 17 27 32 86 51 54 62
REMARK Flexibility Score: inf
ROOT
ATOM      1  C   UNL     1       2.671  -2.646   1.867  1.00  0.00     0.116 C 
ENDROOT
BRANCH   1   2
ATOM      2  N   UNL     1       2.299  -3.902   2.505  1.00  0.00    -0.355 N 
ATOM      3  C   UNL     1       1.054  -4.449   2.663  1.00  0.00     0.239 C 
ATOM      4  O   UNL     1       0.915  -5.456   3.360  1.00  0.00    -0.273 OA
ATOM      5  H   UNL     1       3.044  -4.429   2.873  1.00  0.00     0.163 HD
BRANCH   3   6
ATOM      6  C   UNL     1      -0.144  -3.802   1.970  1.00  0.00     0.216 C 
BRANCH   6   7
ATOM      7  N   UNL     1      -1.189  -3.351   2.858  1.00  0.00    -0.345 N 
ATOM      8  C   UNL     1      -1.936  -2.218   2.823  1.00  0.00     0.243 C 
ATOM      9  O   UNL     1      -2.908  -2.170   3.589  1.00  0.00    -0.273 OA
ATOM     10  H   UNL     1      -1.391  -3.960   3.605  1.00  0.00     0.164 HD
BRANCH   8  11
ATOM     11  C   UNL     1      -1.643  -1.000   1.889  1.00  0.00     0.177 C 
BRANCH  11  12
ATOM     12  C   UNL     1      -1.846  -1.222   0.347  1.00  0.00     0.015 C 
ATOM     13  C   UNL     1      -0.605  -1.324  -0.559  1.00  0.00     0.010 C 
ATOM     14  C   UNL     1      -2.823  -2.359   0.032  1.00  0.00     0.010 C 
ENDBRANCH  11  12
BRANCH  11  15
ATOM     15  N   UNL     1      -0.435  -0.236   2.208  1.00  0.00    -0.309 N 
ATOM     16  C   UNL     1      -0.058   0.225   3.448  1.00  0.00     0.408 C 
ATOM     17  H   UNL     1       0.170  -0.031   1.458  1.00  0.00     0.167 HD
ATOM     18  O   UNL     1       0.713   1.172   3.530  1.00  0.00    -0.225 OA
BRANCH  16  19
ATOM     19  O   UNL     1      -0.492  -0.535   4.479  1.00  0.00    -0.445 OA
BRANCH  19  20
ATOM     20  C   UNL     1       0.096  -0.299   5.784  1.00  0.00     0.270 C 
BRANCH  20  21
ATOM     21  C   UNL     1       0.919  -1.485   6.261  1.00  0.00    -0.011 A 
ATOM     22  C   UNL     1       0.598  -2.798   5.895  1.00  0.00     0.007 A 
ATOM     23  C   UNL     1       2.044  -1.289   7.082  1.00  0.00     0.007 A 
ATOM     24  C   UNL     1       1.434  -3.868   6.233  1.00  0.00     0.000 A 
ATOM     25  C   UNL     1       2.881  -2.360   7.422  1.00  0.00     0.000 A 
ATOM     26  C   UNL     1       2.588  -3.646   6.977  1.00  0.00     0.000 A 
ENDBRANCH  20  21
ENDBRANCH  19  20
ENDBRANCH  16  19
ENDBRANCH  11  15
ENDBRANCH   8  11
ENDBRANCH   6   7
ENDBRANCH   3   6
ENDBRANCH   1   2
BRANCH   1  27
ATOM     27  C   UNL     1       2.487  -1.478   2.821  1.00  0.00     0.023 C 
BRANCH  27  28
ATOM     28  C   UNL     1       3.590  -1.351   3.859  1.00  0.00     0.023 C 
BRANCH  28  29
ATOM     29  C   UNL     1       4.614  -0.282   3.536  1.00  0.00     0.116 C 
BRANCH  29  30
ATOM     30  N   UNL     1       4.141   1.073   3.815  1.00  0.00    -0.352 N 
ATOM     31  C   UNL     1       4.687   2.082   4.584  1.00  0.00     0.251 C 
ATOM     32  H   UNL     1       3.289   1.307   3.381  1.00  0.00     0.163 HD
ATOM     33  O   UNL     1       4.065   3.132   4.728  1.00  0.00    -0.269 OA
BRANCH  31  34
ATOM     34  C   UNL     1       5.978   1.896   5.299  1.00  0.00     0.039 A 
ATOM     35  C   UNL     1       6.167   2.509   6.543  1.00  0.00     0.014 A 
ATOM     36  C   UNL     1       6.994   1.099   4.782  1.00  0.00     0.014 A 
ATOM     37  C   UNL     1       7.318   2.236   7.294  1.00  0.00     0.010 A 
ATOM     38  C   UNL     1       8.043   0.693   5.596  1.00  0.00     0.010 A 
ATOM     39  C   UNL     1       8.240   1.273   6.856  1.00  0.00    -0.014 A 
BRANCH  39  40
ATOM     40  C   UNL     1       9.441   0.883   7.650  1.00  0.00     0.031 A 
ATOM     41  C   UNL     1      10.810   0.946   7.009  1.00  0.00     0.074 A 
ATOM     42  C   UNL     1       9.305   0.385   8.896  1.00  0.00     0.049 A 
ATOM     43  N   UNL     1      11.956   0.487   7.445  1.00  0.00    -0.248 NA
ATOM     44  C   UNL     1      10.886   1.549   5.668  1.00  0.00     0.031 C 
ATOM     45  C   UNL     1       8.038   0.212   9.611  1.00  0.00     0.029 A 
ATOM     46  N   UNL     1      10.245  -0.081   9.784  1.00  0.00    -0.354 N 
ATOM     47  C   UNL     1      12.867   0.701   6.414  1.00  0.00     0.074 A 
ATOM     48  C   UNL     1      12.122   1.250   5.304  1.00  0.00     0.031 C 
ATOM     49  C   UNL     1       8.283  -0.277  10.838  1.00  0.00     0.029 A 
ATOM     50  C   UNL     1       9.715  -0.512  10.981  1.00  0.00     0.049 A 
ATOM     51  H   UNL     1      11.208  -0.104   9.584  1.00  0.00     0.167 HD
ATOM     52  C   UNL     1      14.207   0.497   6.403  1.00  0.00     0.034 A 
ATOM     53  C   UNL     1      10.314  -1.046  12.065  1.00  0.00     0.034 A 
ATOM     54  C   UNL     1      14.945   0.015   7.543  1.00  0.00     0.049 A 
ATOM     55  C   UNL     1      11.811  -1.233  12.044  1.00  0.00     0.074 A 
ATOM     56  C   UNL     1      16.312  -0.150   7.679  1.00  0.00     0.029 A 
ATOM     57  N   UNL     1      14.376  -0.367   8.752  1.00  0.00    -0.354 N 
ATOM     58  N   UNL     1      12.663  -0.980  11.076  1.00  0.00    -0.248 NA
ATOM     59  C   UNL     1      12.429  -1.765  13.266  1.00  0.00     0.031 C 
ATOM     60  C   UNL     1      16.564  -0.688   8.945  1.00  0.00     0.029 A 
ATOM     61  C   UNL     1      15.362  -0.788   9.629  1.00  0.00     0.049 A 
ATOM     62  H   UNL     1      13.413  -0.343   8.954  1.00  0.00     0.167 HD
ATOM     63  C   UNL     1      13.920  -1.293  11.587  1.00  0.00     0.074 A 
ATOM     64  C   UNL     1      13.715  -1.732  12.952  1.00  0.00     0.031 C 
ATOM     65  C   UNL     1      15.136  -1.224  10.986  1.00  0.00     0.034 A 
BRANCH  52  66
ATOM     66  C   UNL     1      14.952   0.792   5.120  1.00  0.00     0.023 A 
ATOM     67  C   UNL     1      14.977   2.080   4.555  1.00  0.00     0.031 A 
ATOM     68  C   UNL     1      15.624  -0.236   4.434  1.00  0.00     0.131 A 
ATOM     69  C   UNL     1      15.579   2.288   3.305  1.00  0.00     0.055 A 
ATOM     70  C   UNL     1      16.302  -0.002   3.235  1.00  0.00     0.041 A 
ATOM     71  F   UNL     1      15.622  -1.491   4.910  1.00  0.00    -0.206 F 
ATOM     72  C   UNL     1      16.267   1.262   2.654  1.00  0.00     0.022 A 
BRANCH  69  73
ATOM     73  S   UNL     1      15.316   3.878   2.473  1.00  0.00     0.124 S 
ATOM     74  O   UNL     1      13.861   3.901   2.338  1.00  0.00    -0.237 OA
ATOM     75  O   UNL     1      15.885   4.829   3.421  1.00  0.00    -0.237 OA
ATOM     76  O   UNL     1      16.049   3.733   1.217  1.00  0.00    -0.744 OA
ENDBRANCH  69  73
ENDBRANCH  52  66
BRANCH  53  77
ATOM     77  C   UNL     1       9.514  -1.442  13.261  1.00  0.00     0.023 A 
ATOM     78  C   UNL     1       9.705  -0.805  14.499  1.00  0.00     0.031 A 
ATOM     79  C   UNL     1       8.582  -2.493  13.201  1.00  0.00     0.131 A 
ATOM     80  C   UNL     1       9.018  -1.259  15.636  1.00  0.00     0.055 A 
ATOM     81  C   UNL     1       7.857  -2.903  14.322  1.00  0.00     0.041 A 
ATOM     82  F   UNL     1       8.355  -3.134  12.043  1.00  0.00    -0.206 F 
ATOM     83  C   UNL     1       8.085  -2.295  15.553  1.00  0.00     0.022 A 
BRANCH  80  84
ATOM     84  S   UNL     1       9.436  -0.540  17.248  1.00  0.00     0.124 S 
ATOM     85  O   UNL     1      10.869  -0.798  17.326  1.00  0.00    -0.237 OA
ATOM     86  O   UNL     1       9.044   0.854  17.068  1.00  0.00    -0.237 OA
ATOM     87  O   UNL     1       8.612  -1.301  18.184  1.00  0.00    -0.744 OA
ENDBRANCH  80  84
ENDBRANCH  53  77
BRANCH  65  88
ATOM     88  C   UNL     1      16.336  -1.585  11.825  1.00  0.00     0.023 A 
ATOM     89  C   UNL     1      16.547  -2.895  12.288  1.00  0.00     0.031 A 
ATOM     90  C   UNL     1      17.277  -0.599  12.172  1.00  0.00     0.131 A 
ATOM     91  C   UNL     1      17.639  -3.172  13.123  1.00  0.00     0.055 A 
ATOM     92  C   UNL     1      18.397  -0.895  12.949  1.00  0.00     0.041 A 
ATOM     93  F   UNL     1      17.124   0.668  11.756  1.00  0.00    -0.206 F 
ATOM     94  C   UNL     1      18.575  -2.184  13.442  1.00  0.00     0.022 A 
BRANCH  91  95
ATOM     95  S   UNL     1      17.767  -4.819  13.869  1.00  0.00     0.124 S 
ATOM     96  O   UNL     1      16.506  -4.922  14.596  1.00  0.00    -0.237 OA
ATOM     97  O   UNL     1      17.900  -5.682  12.699  1.00  0.00    -0.237 OA
ATOM     98  O   UNL     1      18.961  -4.725  14.707  1.00  0.00    -0.744 OA
ENDBRANCH  91  95
ENDBRANCH  65  88
ENDBRANCH  39  40
ENDBRANCH  31  34
ENDBRANCH  29  30
ENDBRANCH  28  29
ENDBRANCH  27  28
ENDBRANCH   1  27
TORSDOF 21
