REMARK SMILES CCC1(CC)CC[NH+]([C@@H]2CC[C@@]([NH3+])(C(=O)NCCCCNC(=O)c3ccc(-c4c5nc(c(-c6cc(S(=O)(=O)[O-])ccc6F)c6ccc([nH]6)c(-c6cc(S(=O)(=O)[O-])ccc6F)c6nc(c(-c7cc(S(=O)(=O)[O-])ccc7F)c7ccc4[nH]7)C=C6)C=C5)cc3)C2)CC1
REMARK SMILES IDX 19 1 18 2 17 3 16 4 14 5 15 6 12 8 9 9 10 10 87 11 11 12
REMARK SMILES IDX 8 13 3 14 6 15 89 16 7 17 88 18 2 20 1 21 4 22 5 23 13 24
REMARK SMILES IDX 20 28 21 29 22 30 23 32 24 33 25 34 86 35 26 36 85 37 27 38
REMARK SMILES IDX 28 39 29 40 79 41 30 42 84 43 78 44 80 45 31 46 83 47 77 48
REMARK SMILES IDX 76 49 32 51 64 52 44 53 63 54 45 55 48 56 62 57 81 58 46 59
REMARK SMILES IDX 47 60 61 62 82 63 49 64 33 65 34 66 42 67 35 68 41 69 43 70
REMARK SMILES IDX 40 71 36 72 37 73 38 74 39 75 65 76 66 77 74 78 67 79 73 80
REMARK SMILES IDX 75 81 72 82 68 83 69 84 70 85 71 86 50 87 51 88 59 89 52 90
REMARK SMILES IDX 58 91 60 92 57 93 53 94 54 95 55 96 56 97
REMARK H PARENT 16 7 8 19 13 25 13 26 13 27 21 31 80 50 48 61
REMARK Flexibility Score: inf
ROOT
ATOM      1  C   UNL     1      -1.578   3.700  -8.780  1.00  0.00     0.023 C 
ENDROOT
BRANCH   1   2
ATOM      2  C   UNL     1      -1.459   2.554  -7.776  1.00  0.00     0.023 C 
BRANCH   2   3
ATOM      3  C   UNL     1      -0.071   1.913  -7.705  1.00  0.00     0.116 C 
BRANCH   3   4
ATOM      4  N   UNL     1       0.918   2.841  -7.185  1.00  0.00    -0.351 N 
ATOM      5  C   UNL     1       1.637   2.801  -6.023  1.00  0.00     0.281 C 
ATOM      6  O   UNL     1       2.453   3.706  -5.829  1.00  0.00    -0.268 OA
ATOM      7  H   UNL     1       1.099   3.621  -7.759  1.00  0.00     0.163 HD
BRANCH   5   8
ATOM      8  C   UNL     1       1.464   1.622  -5.016  1.00  0.00     0.179 C 
ATOM      9  C   UNL     1       1.367   2.775  -2.880  1.00  0.00     0.191 C 
ATOM     10  C   UNL     1      -0.046   2.251  -3.199  1.00  0.00     0.072 C 
ATOM     11  C   UNL     1       2.272   1.849  -3.717  1.00  0.00     0.144 C 
ATOM     12  C   UNL     1       0.025   1.494  -4.512  1.00  0.00     0.085 C 
BRANCH   9  13
ATOM     13  N   UNL     1       1.641   2.941  -1.431  1.00  0.00    -0.332 N 
ATOM     14  C   UNL     1       0.828   2.155   1.367  1.00  0.00    -0.020 C 
ATOM     15  C   UNL     1       0.547   3.561   0.774  1.00  0.00     0.068 C 
ATOM     16  C   UNL     1       2.193   1.760   0.757  1.00  0.00     0.068 C 
ATOM     17  C   UNL     1       0.506   3.571  -0.746  1.00  0.00     0.263 C 
ATOM     18  C   UNL     1       2.213   1.763  -0.780  1.00  0.00     0.263 C 
ATOM     19  H   UNL     1       2.412   3.603  -1.342  1.00  0.00     0.348 HD
BRANCH  14  20
ATOM     20  C   UNL     1      -0.339   1.135   1.100  1.00  0.00     0.004 C 
ATOM     21  C   UNL     1      -0.085  -0.129   0.284  1.00  0.00     0.004 C 
ENDBRANCH  14  20
BRANCH  14  22
ATOM     22  C   UNL     1       0.988   2.333   2.915  1.00  0.00     0.004 C 
ATOM     23  C   UNL     1      -0.291   2.712   3.671  1.00  0.00     0.004 C 
ENDBRANCH  14  22
ENDBRANCH   9  13
BRANCH   8  24
ATOM     24  N   UNL     1       1.908   0.379  -5.687  1.00  0.00    -0.345 N 
ATOM     25  H   UNL     1       1.368   0.242  -6.541  1.00  0.00     0.345 HD
ATOM     26  H   UNL     1       1.764  -0.415  -5.063  1.00  0.00     0.345 HD
ATOM     27  H   UNL     1       2.898   0.453  -5.920  1.00  0.00     0.345 HD
ENDBRANCH   8  24
ENDBRANCH   5   8
ENDBRANCH   3   4
ENDBRANCH   2   3
ENDBRANCH   1   2
BRANCH   1  28
ATOM     28  C   UNL     1      -1.181   3.341 -10.205  1.00  0.00     0.116 C 
BRANCH  28  29
ATOM     29  N   UNL     1      -1.986   2.263 -10.763  1.00  0.00    -0.352 N 
ATOM     30  C   UNL     1      -2.514   2.176 -12.030  1.00  0.00     0.251 C 
ATOM     31  H   UNL     1      -2.174   1.507 -10.161  1.00  0.00     0.163 HD
ATOM     32  O   UNL     1      -3.285   1.269 -12.325  1.00  0.00    -0.269 OA
BRANCH  30  33
ATOM     33  C   UNL     1      -2.159   3.221 -13.009  1.00  0.00     0.039 A 
ATOM     34  C   UNL     1      -3.176   3.937 -13.645  1.00  0.00     0.014 A 
ATOM     35  C   UNL     1      -0.817   3.550 -13.217  1.00  0.00     0.014 A 
ATOM     36  C   UNL     1      -2.847   5.041 -14.435  1.00  0.00     0.010 A 
ATOM     37  C   UNL     1      -0.499   4.690 -13.944  1.00  0.00     0.010 A 
ATOM     38  C   UNL     1      -1.510   5.451 -14.555  1.00  0.00    -0.014 A 
BRANCH  38  39
ATOM     39  C   UNL     1      -1.115   6.653 -15.335  1.00  0.00     0.031 A 
ATOM     40  C   UNL     1      -0.222   6.483 -16.533  1.00  0.00     0.074 A 
ATOM     41  C   UNL     1      -1.471   7.885 -14.920  1.00  0.00     0.049 A 
ATOM     42  N   UNL     1       0.422   7.386 -17.224  1.00  0.00    -0.248 NA
ATOM     43  C   UNL     1       0.001   5.101 -16.988  1.00  0.00     0.031 C 
ATOM     44  C   UNL     1      -2.333   8.180 -13.774  1.00  0.00     0.029 A 
ATOM     45  N   UNL     1      -1.131   9.125 -15.404  1.00  0.00    -0.354 N 
ATOM     46  C   UNL     1       1.142   6.682 -18.183  1.00  0.00     0.074 A 
ATOM     47  C   UNL     1       0.899   5.275 -17.945  1.00  0.00     0.031 C 
ATOM     48  C   UNL     1      -2.462   9.512 -13.651  1.00  0.00     0.029 A 
ATOM     49  C   UNL     1      -1.645  10.169 -14.667  1.00  0.00     0.049 A 
ATOM     50  H   UNL     1      -0.572   9.256 -16.204  1.00  0.00     0.167 HD
ATOM     51  C   UNL     1       1.916   7.166 -19.184  1.00  0.00     0.034 A 
ATOM     52  C   UNL     1      -1.453  11.499 -14.781  1.00  0.00     0.034 A 
ATOM     53  C   UNL     1       2.135   8.571 -19.418  1.00  0.00     0.049 A 
ATOM     54  C   UNL     1      -0.541  12.013 -15.872  1.00  0.00     0.074 A 
ATOM     55  C   UNL     1       2.899   9.174 -20.402  1.00  0.00     0.029 A 
ATOM     56  N   UNL     1       1.581   9.595 -18.662  1.00  0.00    -0.354 N 
ATOM     57  N   UNL     1       0.141  11.334 -16.766  1.00  0.00    -0.248 NA
ATOM     58  C   UNL     1      -0.376  13.470 -15.974  1.00  0.00     0.031 C 
ATOM     59  C   UNL     1       2.845  10.559 -20.212  1.00  0.00     0.029 A 
ATOM     60  C   UNL     1       1.991  10.823 -19.154  1.00  0.00     0.049 A 
ATOM     61  H   UNL     1       0.984   9.467 -17.889  1.00  0.00     0.167 HD
ATOM     62  C   UNL     1       0.766  12.286 -17.568  1.00  0.00     0.074 A 
ATOM     63  C   UNL     1       0.389  13.582 -17.050  1.00  0.00     0.031 C 
ATOM     64  C   UNL     1       1.574  12.105 -18.643  1.00  0.00     0.034 A 
BRANCH  51  65
ATOM     65  C   UNL     1       2.591   6.163 -20.086  1.00  0.00     0.023 A 
ATOM     66  C   UNL     1       1.845   5.300 -20.907  1.00  0.00     0.031 A 
ATOM     67  C   UNL     1       3.992   6.053 -20.113  1.00  0.00     0.131 A 
ATOM     68  C   UNL     1       2.498   4.319 -21.666  1.00  0.00     0.055 A 
ATOM     69  C   UNL     1       4.640   5.128 -20.934  1.00  0.00     0.041 A 
ATOM     70  F   UNL     1       4.755   6.836 -19.334  1.00  0.00    -0.206 F 
ATOM     71  C   UNL     1       3.892   4.244 -21.706  1.00  0.00     0.022 A 
BRANCH  68  72
ATOM     72  S   UNL     1       1.493   3.059 -22.497  1.00  0.00     0.124 S 
ATOM     73  O   UNL     1       0.834   2.415 -21.364  1.00  0.00    -0.237 OA
ATOM     74  O   UNL     1       0.636   3.859 -23.364  1.00  0.00    -0.237 OA
ATOM     75  O   UNL     1       2.482   2.233 -23.187  1.00  0.00    -0.744 OA
ENDBRANCH  68  72
ENDBRANCH  51  65
BRANCH  52  76
ATOM     76  C   UNL     1      -2.109  12.454 -13.840  1.00  0.00     0.023 A 
ATOM     77  C   UNL     1      -3.010  13.422 -14.312  1.00  0.00     0.031 A 
ATOM     78  C   UNL     1      -1.785  12.472 -12.472  1.00  0.00     0.131 A 
ATOM     79  C   UNL     1      -3.500  14.409 -13.443  1.00  0.00     0.055 A 
ATOM     80  C   UNL     1      -2.326  13.417 -11.597  1.00  0.00     0.041 A 
ATOM     81  F   UNL     1      -0.930  11.570 -11.963  1.00  0.00    -0.206 F 
ATOM     82  C   UNL     1      -3.175  14.405 -12.086  1.00  0.00     0.022 A 
BRANCH  79  83
ATOM     83  S   UNL     1      -4.466  15.775 -14.144  1.00  0.00     0.124 S 
ATOM     84  O   UNL     1      -3.557  16.288 -15.162  1.00  0.00    -0.237 OA
ATOM     85  O   UNL     1      -5.655  15.085 -14.632  1.00  0.00    -0.237 OA
ATOM     86  O   UNL     1      -4.684  16.658 -13.000  1.00  0.00    -0.744 OA
ENDBRANCH  79  83
ENDBRANCH  52  76
BRANCH  64  87
ATOM     87  C   UNL     1       2.017  13.334 -19.394  1.00  0.00     0.023 A 
ATOM     88  C   UNL     1       2.941  14.246 -18.860  1.00  0.00     0.031 A 
ATOM     89  C   UNL     1       1.517  13.572 -20.688  1.00  0.00     0.131 A 
ATOM     90  C   UNL     1       3.313  15.376 -19.605  1.00  0.00     0.055 A 
ATOM     91  C   UNL     1       1.927  14.670 -21.443  1.00  0.00     0.041 A 
ATOM     92  F   UNL     1       0.632  12.729 -21.243  1.00  0.00    -0.206 F 
ATOM     93  C   UNL     1       2.825  15.584 -20.899  1.00  0.00     0.022 A 
BRANCH  90  94
ATOM     94  S   UNL     1       4.412  16.602 -18.845  1.00  0.00     0.124 S 
ATOM     95  O   UNL     1       3.622  17.052 -17.703  1.00  0.00    -0.237 OA
ATOM     96  O   UNL     1       5.595  15.810 -18.529  1.00  0.00    -0.237 OA
ATOM     97  O   UNL     1       4.599  17.597 -19.900  1.00  0.00    -0.744 OA
ENDBRANCH  90  94
ENDBRANCH  64  87
ENDBRANCH  38  39
ENDBRANCH  30  33
ENDBRANCH  28  29
ENDBRANCH   1  28
TORSDOF 18
