REMARK SMILES Cc1ccccc1-n1c(S[C@@H](C)C(=O)NCCCCNC(=O)c2ccc(-c3c4nc(c(-c5cc(S(=O)(=O)[O-])ccc5F)c5ccc([nH]5)c(-c5cc(S(=O)(=O)[O-])ccc5F)c5nc(c(-c6cc(S(=O)(=O)[O-])ccc6F)c6ccc3[nH]6)C=C5)C=C4)cc2)nc2sc3c(c2c1=O)C[C@@H](C(C)C)OC3
REMARK SMILES IDX 17 1 16 2 15 3 13 4 14 5 11 7 12 8 10 9 9 10 8 11 92 12
REMARK SMILES IDX 86 13 91 14 93 15 87 16 90 17 88 18 89 19 94 20 100 21 95 22
REMARK SMILES IDX 99 23 7 24 1 25 2 26 3 27 4 28 6 29 5 30 96 31 97 32 98 33
REMARK SMILES IDX 18 34 19 35 20 36 21 37 22 39 23 40 24 41 85 42 25 43 84 44
REMARK SMILES IDX 26 45 27 46 28 47 78 48 29 49 83 50 77 51 79 52 30 53 82 54
REMARK SMILES IDX 76 55 75 56 31 58 63 59 43 60 62 61 44 62 47 63 61 64 80 65
REMARK SMILES IDX 45 66 46 67 60 69 81 70 48 71 32 72 33 73 41 74 34 75 40 76
REMARK SMILES IDX 42 77 39 78 35 79 36 80 37 81 38 82 64 83 65 84 73 85 66 86
REMARK SMILES IDX 72 87 74 88 71 89 67 90 68 91 69 92 70 93 49 94 50 95 58 96
REMARK SMILES IDX 51 97 57 98 59 99 56 100 52 101 53 102 54 103 55 104
REMARK H PARENT 15 6 20 38 79 57 47 68
REMARK Flexibility Score: inf
ROOT
ATOM      1  C   UNL     1      -1.103   4.707  -0.778  1.00  0.00     0.023 C 
ENDROOT
BRANCH   1   2
ATOM      2  C   UNL     1      -0.439   3.383  -1.119  1.00  0.00     0.116 C 
BRANCH   2   3
ATOM      3  N   UNL     1      -0.992   2.450  -2.059  1.00  0.00    -0.355 N 
ATOM      4  C   UNL     1      -0.467   1.272  -2.528  1.00  0.00     0.233 C 
ATOM      5  O   UNL     1      -1.354   0.521  -2.976  1.00  0.00    -0.274 OA
ATOM      6  H   UNL     1      -1.875   2.691  -2.420  1.00  0.00     0.163 HD
BRANCH   4   7
ATOM      7  C   UNL     1       1.011   0.895  -2.804  1.00  0.00     0.140 C 
ATOM      8  C   UNL     1       1.205  -0.627  -3.066  1.00  0.00     0.030 C 
BRANCH   7   9
ATOM      9  S   UNL     1       2.529   1.389  -2.007  1.00  0.00    -0.074 SA
BRANCH   9  10
ATOM     10  C   UNL     1       2.367   2.319  -0.555  1.00  0.00     0.177 A 
ATOM     11  N   UNL     1       1.628   1.925   0.575  1.00  0.00    -0.255 N 
ATOM     12  C   UNL     1       1.408   2.851   1.629  1.00  0.00     0.267 A 
ATOM     13  N   UNL     1       3.006   3.445  -0.670  1.00  0.00    -0.212 NA
ATOM     14  C   UNL     1       2.013   4.171   1.410  1.00  0.00     0.081 A 
ATOM     15  O   UNL     1       0.729   2.635   2.604  1.00  0.00    -0.268 OA
ATOM     16  C   UNL     1       2.815   4.338   0.314  1.00  0.00     0.132 A 
ATOM     17  C   UNL     1       1.849   5.411   2.111  1.00  0.00    -0.014 A 
ATOM     18  S   UNL     1       3.510   5.892   0.218  1.00  0.00    -0.117 S 
ATOM     19  C   UNL     1       2.653   6.409   1.587  1.00  0.00     0.037 A 
ATOM     20  C   UNL     1       0.977   5.751   3.275  1.00  0.00     0.070 C 
ATOM     21  C   UNL     1       2.823   7.783   2.156  1.00  0.00     0.207 C 
ATOM     22  C   UNL     1       1.660   6.860   4.108  1.00  0.00     0.125 C 
ATOM     23  O   UNL     1       1.913   8.002   3.253  1.00  0.00    -0.372 OA
BRANCH  11  24
ATOM     24  C   UNL     1       0.930   0.665   0.619  1.00  0.00     0.054 A 
ATOM     25  C   UNL     1       3.065  -0.708   0.580  1.00  0.00     0.046 C 
ATOM     26  C   UNL     1       1.583  -0.545   0.370  1.00  0.00    -0.027 A 
ATOM     27  C   UNL     1       0.812  -1.683   0.056  1.00  0.00     0.005 A 
ATOM     28  C   UNL     1      -0.581  -1.630   0.000  1.00  0.00     0.000 A 
ATOM     29  C   UNL     1      -0.471   0.641   0.755  1.00  0.00     0.027 A 
ATOM     30  C   UNL     1      -1.228  -0.468   0.381  1.00  0.00     0.002 A 
ENDBRANCH  11  24
BRANCH  22  31
ATOM     31  C   UNL     1       2.937   6.407   4.868  1.00  0.00     0.012 C 
ATOM     32  C   UNL     1       3.462   7.532   5.764  1.00  0.00     0.010 C 
ATOM     33  C   UNL     1       2.701   5.146   5.702  1.00  0.00     0.010 C 
ENDBRANCH  22  31
ENDBRANCH   9  10
ENDBRANCH   7   9
ENDBRANCH   4   7
ENDBRANCH   2   3
ENDBRANCH   1   2
BRANCH   1  34
ATOM     34  C   UNL     1      -2.219   4.863   0.297  1.00  0.00     0.023 C 
BRANCH  34  35
ATOM     35  C   UNL     1      -2.577   3.909   1.476  1.00  0.00     0.116 C 
BRANCH  35  36
ATOM     36  N   UNL     1      -1.729   3.711   2.663  1.00  0.00    -0.352 N 
ATOM     37  C   UNL     1      -2.186   3.928   3.978  1.00  0.00     0.251 C 
ATOM     38  H   UNL     1      -0.800   3.413   2.532  1.00  0.00     0.163 HD
ATOM     39  O   UNL     1      -2.822   4.937   4.278  1.00  0.00    -0.269 OA
BRANCH  37  40
ATOM     40  C   UNL     1      -1.927   2.842   5.041  1.00  0.00     0.039 A 
ATOM     41  C   UNL     1      -2.010   3.104   6.418  1.00  0.00     0.014 A 
ATOM     42  C   UNL     1      -1.855   1.492   4.696  1.00  0.00     0.014 A 
ATOM     43  C   UNL     1      -2.066   2.042   7.393  1.00  0.00     0.010 A 
ATOM     44  C   UNL     1      -1.912   0.442   5.674  1.00  0.00     0.010 A 
ATOM     45  C   UNL     1      -2.061   0.665   7.043  1.00  0.00    -0.014 A 
BRANCH  45  46
ATOM     46  C   UNL     1      -2.768  -0.350   7.995  1.00  0.00     0.031 A 
ATOM     47  C   UNL     1      -4.267  -0.208   7.542  1.00  0.00     0.074 A 
ATOM     48  C   UNL     1      -2.573  -1.629   8.545  1.00  0.00     0.049 A 
ATOM     49  N   UNL     1      -4.653  -0.462   6.316  1.00  0.00    -0.248 NA
ATOM     50  C   UNL     1      -5.348   0.446   8.299  1.00  0.00     0.031 C 
ATOM     51  C   UNL     1      -3.072  -1.884   9.924  1.00  0.00     0.029 A 
ATOM     52  N   UNL     1      -1.899  -2.886   8.306  1.00  0.00    -0.354 N 
ATOM     53  C   UNL     1      -6.056  -0.469   6.308  1.00  0.00     0.074 A 
ATOM     54  C   UNL     1      -6.410   0.332   7.466  1.00  0.00     0.031 C 
ATOM     55  C   UNL     1      -2.892  -3.169  10.315  1.00  0.00     0.029 A 
ATOM     56  C   UNL     1      -2.305  -3.963   9.242  1.00  0.00     0.049 A 
ATOM     57  H   UNL     1      -1.235  -3.015   7.590  1.00  0.00     0.167 HD
ATOM     58  C   UNL     1      -6.708  -1.579   5.804  1.00  0.00     0.034 A 
ATOM     59  C   UNL     1      -2.457  -5.363   9.143  1.00  0.00     0.034 A 
ATOM     60  C   UNL     1      -5.774  -2.640   5.967  1.00  0.00     0.049 A 
ATOM     61  C   UNL     1      -2.145  -5.932   7.781  1.00  0.00     0.074 A 
ATOM     62  C   UNL     1      -5.538  -3.167   7.200  1.00  0.00     0.029 A 
ATOM     63  N   UNL     1      -4.931  -3.179   5.022  1.00  0.00    -0.354 N 
ATOM     64  N   UNL     1      -3.085  -6.119   6.891  1.00  0.00    -0.248 NA
ATOM     65  C   UNL     1      -0.826  -6.276   7.246  1.00  0.00     0.031 C 
ATOM     66  C   UNL     1      -4.398  -3.865   6.989  1.00  0.00     0.029 A 
ATOM     67  C   UNL     1      -3.982  -3.935   5.679  1.00  0.00     0.049 A 
ATOM     68  H   UNL     1      -4.995  -3.048   4.048  1.00  0.00     0.167 HD
ATOM     69  C   UNL     1      -2.451  -5.773   5.732  1.00  0.00     0.074 A 
ATOM     70  C   UNL     1      -1.156  -6.383   5.947  1.00  0.00     0.031 C 
ATOM     71  C   UNL     1      -2.789  -4.581   5.109  1.00  0.00     0.034 A 
BRANCH  58  72
ATOM     72  C   UNL     1      -8.130  -2.125   5.748  1.00  0.00     0.023 A 
ATOM     73  C   UNL     1      -8.314  -3.536   5.941  1.00  0.00     0.031 A 
ATOM     74  C   UNL     1      -9.241  -1.443   5.272  1.00  0.00     0.131 A 
ATOM     75  C   UNL     1      -9.476  -4.224   5.603  1.00  0.00     0.055 A 
ATOM     76  C   UNL     1     -10.437  -2.130   4.958  1.00  0.00     0.041 A 
ATOM     77  F   UNL     1      -9.183  -0.125   5.033  1.00  0.00    -0.206 F 
ATOM     78  C   UNL     1     -10.553  -3.523   5.100  1.00  0.00     0.022 A 
BRANCH  75  79
ATOM     79  S   UNL     1      -9.454  -6.042   5.717  1.00  0.00     0.124 S 
ATOM     80  O   UNL     1      -8.359  -6.394   4.820  1.00  0.00    -0.237 OA
ATOM     81  O   UNL     1      -9.227  -6.261   7.142  1.00  0.00    -0.237 OA
ATOM     82  O   UNL     1     -10.783  -6.419   5.238  1.00  0.00    -0.744 OA
ENDBRANCH  75  79
ENDBRANCH  58  72
BRANCH  59  83
ATOM     83  C   UNL     1      -3.537  -6.290   9.848  1.00  0.00     0.023 A 
ATOM     84  C   UNL     1      -3.273  -7.188  10.902  1.00  0.00     0.031 A 
ATOM     85  C   UNL     1      -4.808  -6.518   9.219  1.00  0.00     0.131 A 
ATOM     86  C   UNL     1      -4.217  -8.225  11.232  1.00  0.00     0.055 A 
ATOM     87  C   UNL     1      -5.695  -7.558   9.506  1.00  0.00     0.041 A 
ATOM     88  F   UNL     1      -5.274  -5.749   8.244  1.00  0.00    -0.206 F 
ATOM     89  C   UNL     1      -5.401  -8.429  10.519  1.00  0.00     0.022 A 
BRANCH  86  90
ATOM     90  S   UNL     1      -3.960  -9.332  12.657  1.00  0.00     0.124 S 
ATOM     91  O   UNL     1      -3.040 -10.328  12.117  1.00  0.00    -0.237 OA
ATOM     92  O   UNL     1      -3.405  -8.430  13.662  1.00  0.00    -0.237 OA
ATOM     93  O   UNL     1      -5.301  -9.830  12.964  1.00  0.00    -0.744 OA
ENDBRANCH  86  90
ENDBRANCH  59  83
BRANCH  71  94
ATOM     94  C   UNL     1      -1.766  -3.781   4.330  1.00  0.00     0.023 A 
ATOM     95  C   UNL     1      -0.427  -4.175   4.203  1.00  0.00     0.031 A 
ATOM     96  C   UNL     1      -2.041  -2.534   3.766  1.00  0.00     0.131 A 
ATOM     97  C   UNL     1       0.562  -3.403   3.598  1.00  0.00     0.055 A 
ATOM     98  C   UNL     1      -1.027  -1.698   3.293  1.00  0.00     0.041 A 
ATOM     99  F   UNL     1      -3.280  -2.036   3.667  1.00  0.00    -0.206 F 
ATOM    100  C   UNL     1       0.291  -2.112   3.227  1.00  0.00     0.022 A 
BRANCH  97 101
ATOM    101  S   UNL     1       2.088  -4.252   3.136  1.00  0.00     0.124 S 
ATOM    102  O   UNL     1       2.851  -4.216   4.378  1.00  0.00    -0.237 OA
ATOM    103  O   UNL     1       1.599  -5.566   2.725  1.00  0.00    -0.237 OA
ATOM    104  O   UNL     1       2.619  -3.445   2.045  1.00  0.00    -0.744 OA
ENDBRANCH  97 101
ENDBRANCH  71  94
ENDBRANCH  45  46
ENDBRANCH  37  40
ENDBRANCH  35  36
ENDBRANCH  34  35
ENDBRANCH   1  34
TORSDOF 18
