REMARK SMILES O=C(NCCCCNC(=O)[C@@H](NC(=O)c1ccc(C[NH+]2CCCCC2)cc1)c1ccccc1F)c1ccc(-c2c3nc(c(-c4cc(S(=O)(=O)[O-])ccc4F)c4ccc([nH]4)c(-c4cc(S(=O)(=O)[O-])ccc4F)c4nc(c(-c5cc(S(=O)(=O)[O-])ccc5F)c5ccc2[nH]5)C=C4)C=C3)cc1
REMARK SMILES IDX 6 1 5 2 4 3 3 4 1 5 2 6 35 8 36 9 97 10 37 11 96 12 38 13
REMARK SMILES IDX 39 14 40 15 90 16 41 17 95 18 89 19 91 20 42 21 94 22 88 23
REMARK SMILES IDX 87 24 43 26 75 27 55 28 74 29 56 30 59 31 73 32 92 33 57 34
REMARK SMILES IDX 58 35 72 37 93 38 60 39 44 40 45 41 53 42 46 43 52 44 54 45
REMARK SMILES IDX 51 46 47 47 48 48 49 49 50 50 76 51 77 52 85 53 78 54 84 55
REMARK SMILES IDX 86 56 83 57 79 58 80 59 81 60 82 61 61 62 62 63 70 64 63 65
REMARK SMILES IDX 69 66 71 67 68 68 64 69 65 70 66 71 67 72 7 73 8 74 9 75
REMARK SMILES IDX 10 77 11 78 12 79 13 80 14 82 15 83 16 84 27 85 17 86 26 87
REMARK SMILES IDX 18 88 19 89 20 90 21 91 25 92 22 94 24 95 23 96 28 97 29 98
REMARK SMILES IDX 33 99 30 100 32 101 34 102 31 103
REMARK H PARENT 3 7 91 25 59 36 8 76 12 81 20 93
REMARK Flexibility Score: inf
ROOT
ATOM      1  C   UNL     1       4.486   3.796  -0.572  1.00  0.00     0.023 C 
ENDROOT
BRANCH   1   2
ATOM      2  C   UNL     1       4.825   2.486  -1.280  1.00  0.00     0.023 C 
BRANCH   2   3
ATOM      3  C   UNL     1       4.492   1.220  -0.498  1.00  0.00     0.116 C 
BRANCH   3   4
ATOM      4  N   UNL     1       3.081   1.104  -0.150  1.00  0.00    -0.352 N 
ATOM      5  O   UNL     1       1.109   0.008   0.065  1.00  0.00    -0.269 OA
ATOM      6  C   UNL     1       2.315  -0.039  -0.153  1.00  0.00     0.251 C 
ATOM      7  H   UNL     1       2.626   1.935   0.116  1.00  0.00     0.163 HD
BRANCH   6   8
ATOM      8  C   UNL     1       2.982  -1.321  -0.453  1.00  0.00     0.039 A 
ATOM      9  C   UNL     1       4.117  -1.693   0.272  1.00  0.00     0.014 A 
ATOM     10  C   UNL     1       2.523  -2.104  -1.514  1.00  0.00     0.014 A 
ATOM     11  C   UNL     1       4.865  -2.786  -0.144  1.00  0.00     0.010 A 
ATOM     12  C   UNL     1       3.236  -3.249  -1.880  1.00  0.00     0.010 A 
ATOM     13  C   UNL     1       4.424  -3.585  -1.212  1.00  0.00    -0.014 A 
BRANCH  13  14
ATOM     14  C   UNL     1       5.180  -4.817  -1.550  1.00  0.00     0.031 A 
ATOM     15  C   UNL     1       5.894  -4.963  -2.865  1.00  0.00     0.074 A 
ATOM     16  C   UNL     1       5.228  -5.801  -0.630  1.00  0.00     0.049 A 
ATOM     17  N   UNL     1       6.589  -5.977  -3.313  1.00  0.00    -0.248 NA
ATOM     18  C   UNL     1       5.812  -3.832  -3.801  1.00  0.00     0.031 C 
ATOM     19  C   UNL     1       4.565  -5.758   0.678  1.00  0.00     0.029 A 
ATOM     20  N   UNL     1       5.863  -7.014  -0.637  1.00  0.00    -0.354 N 
ATOM     21  C   UNL     1       7.014  -5.620  -4.588  1.00  0.00     0.074 A 
ATOM     22  C   UNL     1       6.480  -4.299  -4.849  1.00  0.00     0.031 C 
ATOM     23  C   UNL     1       4.860  -6.873   1.359  1.00  0.00     0.029 A 
ATOM     24  C   UNL     1       5.667  -7.743   0.513  1.00  0.00     0.049 A 
ATOM     25  H   UNL     1       6.408  -7.334  -1.392  1.00  0.00     0.167 HD
ATOM     26  C   UNL     1       7.777  -6.333  -5.453  1.00  0.00     0.034 A 
ATOM     27  C   UNL     1       6.064  -8.986   0.841  1.00  0.00     0.034 A 
ATOM     28  C   UNL     1       8.306  -7.646  -5.164  1.00  0.00     0.049 A 
ATOM     29  C   UNL     1       6.882  -9.762  -0.154  1.00  0.00     0.074 A 
ATOM     30  C   UNL     1       9.130  -8.434  -5.950  1.00  0.00     0.029 A 
ATOM     31  N   UNL     1       8.057  -8.370  -4.005  1.00  0.00    -0.354 N 
ATOM     32  N   UNL     1       7.296  -9.396  -1.345  1.00  0.00    -0.248 NA
ATOM     33  C   UNL     1       7.288 -11.116   0.239  1.00  0.00     0.031 C 
ATOM     34  C   UNL     1       9.322  -9.658  -5.298  1.00  0.00     0.029 A 
ATOM     35  C   UNL     1       8.680  -9.608  -4.072  1.00  0.00     0.049 A 
ATOM     36  H   UNL     1       7.517  -8.051  -3.246  1.00  0.00     0.167 HD
ATOM     37  C   UNL     1       8.025 -10.473  -1.838  1.00  0.00     0.074 A 
ATOM     38  C   UNL     1       8.018 -11.487  -0.802  1.00  0.00     0.031 C 
ATOM     39  C   UNL     1       8.643 -10.614  -3.038  1.00  0.00     0.034 A 
BRANCH  26  40
ATOM     40  C   UNL     1       8.050  -5.737  -6.813  1.00  0.00     0.023 A 
ATOM     41  C   UNL     1       8.852  -4.595  -6.981  1.00  0.00     0.031 A 
ATOM     42  C   UNL     1       7.517  -6.343  -7.966  1.00  0.00     0.131 A 
ATOM     43  C   UNL     1       9.065  -4.072  -8.267  1.00  0.00     0.055 A 
ATOM     44  C   UNL     1       7.784  -5.855  -9.246  1.00  0.00     0.041 A 
ATOM     45  F   UNL     1       6.729  -7.425  -7.865  1.00  0.00    -0.206 F 
ATOM     46  C   UNL     1       8.556  -4.708  -9.402  1.00  0.00     0.022 A 
BRANCH  43  47
ATOM     47  S   UNL     1       9.944  -2.494  -8.433  1.00  0.00     0.124 S 
ATOM     48  O   UNL     1       9.078  -1.592  -7.677  1.00  0.00    -0.237 OA
ATOM     49  O   UNL     1      11.239  -2.788  -7.830  1.00  0.00    -0.237 OA
ATOM     50  O   UNL     1       9.966  -2.263  -9.876  1.00  0.00    -0.744 OA
ENDBRANCH  43  47
ENDBRANCH  26  40
BRANCH  27  51
ATOM     51  C   UNL     1       5.655  -9.589   2.140  1.00  0.00     0.023 A 
ATOM     52  C   UNL     1       6.607  -9.961   3.100  1.00  0.00     0.031 A 
ATOM     53  C   UNL     1       4.299  -9.839   2.424  1.00  0.00     0.131 A 
ATOM     54  C   UNL     1       6.196 -10.605   4.277  1.00  0.00     0.055 A 
ATOM     55  C   UNL     1       3.891 -10.424   3.622  1.00  0.00     0.041 A 
ATOM     56  F   UNL     1       3.346  -9.500   1.540  1.00  0.00    -0.206 F 
ATOM     57  C   UNL     1       4.844 -10.826   4.551  1.00  0.00     0.022 A 
BRANCH  54  58
ATOM     58  S   UNL     1       7.466 -11.245   5.402  1.00  0.00     0.124 S 
ATOM     59  O   UNL     1       8.262 -12.080   4.510  1.00  0.00    -0.237 OA
ATOM     60  O   UNL     1       8.102 -10.018   5.869  1.00  0.00    -0.237 OA
ATOM     61  O   UNL     1       6.693 -11.968   6.410  1.00  0.00    -0.744 OA
ENDBRANCH  54  58
ENDBRANCH  27  51
BRANCH  39  62
ATOM     62  C   UNL     1       9.381 -11.909  -3.265  1.00  0.00     0.023 A 
ATOM     63  C   UNL     1       8.698 -13.133  -3.378  1.00  0.00     0.031 A 
ATOM     64  C   UNL     1      10.785 -11.923  -3.329  1.00  0.00     0.131 A 
ATOM     65  C   UNL     1       9.423 -14.328  -3.486  1.00  0.00     0.055 A 
ATOM     66  C   UNL     1      11.499 -13.109  -3.498  1.00  0.00     0.041 A 
ATOM     67  F   UNL     1      11.485 -10.782  -3.223  1.00  0.00    -0.206 F 
ATOM     68  C   UNL     1      10.819 -14.323  -3.562  1.00  0.00     0.022 A 
BRANCH  65  69
ATOM     69  S   UNL     1       8.521 -15.900  -3.426  1.00  0.00     0.124 S 
ATOM     70  O   UNL     1       7.864 -15.823  -2.126  1.00  0.00    -0.237 OA
ATOM     71  O   UNL     1       7.646 -15.803  -4.590  1.00  0.00    -0.237 OA
ATOM     72  O   UNL     1       9.578 -16.906  -3.529  1.00  0.00    -0.744 OA
ENDBRANCH  65  69
ENDBRANCH  39  62
ENDBRANCH  13  14
ENDBRANCH   6   8
ENDBRANCH   3   4
ENDBRANCH   2   3
ENDBRANCH   1   2
BRANCH   1  73
ATOM     73  C   UNL     1       5.116   3.925   0.804  1.00  0.00     0.116 C 
BRANCH  73  74
ATOM     74  N   UNL     1       6.528   4.228   0.773  1.00  0.00    -0.354 N 
ATOM     75  C   UNL     1       7.199   5.145   1.536  1.00  0.00     0.247 C 
ATOM     76  H   UNL     1       7.070   3.716   0.130  1.00  0.00     0.163 HD
ATOM     77  O   UNL     1       8.421   5.003   1.656  1.00  0.00    -0.272 OA
BRANCH  75  78
ATOM     78  C   UNL     1       6.468   6.311   2.263  1.00  0.00     0.205 C 
BRANCH  78  79
ATOM     79  N   UNL     1       5.553   7.039   1.346  1.00  0.00    -0.336 N 
ATOM     80  C   UNL     1       4.198   7.182   1.222  1.00  0.00     0.252 C 
ATOM     81  H   UNL     1       6.043   7.544   0.658  1.00  0.00     0.165 HD
ATOM     82  O   UNL     1       3.709   7.550   0.158  1.00  0.00    -0.269 OA
BRANCH  80  83
ATOM     83  C   UNL     1       3.311   6.946   2.363  1.00  0.00     0.039 A 
ATOM     84  C   UNL     1       2.474   5.830   2.393  1.00  0.00     0.014 A 
ATOM     85  C   UNL     1       3.304   7.869   3.404  1.00  0.00     0.014 A 
ATOM     86  C   UNL     1       1.748   5.549   3.549  1.00  0.00     0.010 A 
ATOM     87  C   UNL     1       2.581   7.586   4.557  1.00  0.00     0.010 A 
ATOM     88  C   UNL     1       1.824   6.408   4.656  1.00  0.00     0.006 A 
BRANCH  88  89
ATOM     89  C   UNL     1       1.095   6.078   5.942  1.00  0.00     0.299 C 
BRANCH  89  90
ATOM     90  N   UNL     1      -0.235   6.685   6.108  1.00  0.00    -0.331 N 
ATOM     91  C   UNL     1      -0.191   8.150   6.133  1.00  0.00     0.262 C 
ATOM     92  C   UNL     1      -1.204   6.173   5.134  1.00  0.00     0.262 C 
ATOM     93  H   UNL     1      -0.565   6.397   7.030  1.00  0.00     0.348 HD
ATOM     94  C   UNL     1      -1.564   8.750   6.429  1.00  0.00     0.062 C 
ATOM     95  C   UNL     1      -2.604   6.726   5.402  1.00  0.00     0.062 C 
ATOM     96  C   UNL     1      -2.595   8.250   5.425  1.00  0.00     0.012 C 
ENDBRANCH  89  90
ENDBRANCH  88  89
ENDBRANCH  80  83
ENDBRANCH  78  79
BRANCH  78  97
ATOM     97  C   UNL     1       6.056   6.045   3.700  1.00  0.00     0.020 A 
ATOM     98  C   UNL     1       6.058   7.101   4.632  1.00  0.00     0.009 A 
ATOM     99  C   UNL     1       5.704   4.780   4.187  1.00  0.00     0.129 A 
ATOM    100  C   UNL     1       5.655   6.904   5.961  1.00  0.00     0.001 A 
ATOM    101  C   UNL     1       5.300   4.575   5.507  1.00  0.00     0.039 A 
ATOM    102  F   UNL     1       5.763   3.697   3.408  1.00  0.00    -0.207 F 
ATOM    103  C   UNL     1       5.261   5.642   6.395  1.00  0.00     0.003 A 
ENDBRANCH  78  97
ENDBRANCH  75  78
ENDBRANCH  73  74
ENDBRANCH   1  73
TORSDOF 19
