REMARK SMILES CC(C)[C@H]1CC[C@@H](C)C/C1=C(\F)C(=O)NCCCCNC(=O)c1ccc(-c2c3nc(c(-c4cc(S(=O)(=O)[O-])ccc4F)c4ccc([nH]4)c(-c4cc(S(=O)(=O)[O-])ccc4F)c4nc(c(-c5cc(S(=O)(=O)[O-])ccc5F)c5ccc2[nH]5)C=C4)C=C3)cc1
REMARK SMILES IDX 18 1 17 2 16 3 15 4 13 5 14 6 11 8 4 9 5 10 10 11 6 12 9 13
REMARK SMILES IDX 7 14 12 15 8 16 2 17 1 18 3 19 19 20 20 21 21 22 22 24 23 25
REMARK SMILES IDX 24 26 85 27 25 28 84 29 26 30 27 31 28 32 78 33 29 34 83 35
REMARK SMILES IDX 77 36 79 37 30 38 82 39 76 40 75 41 31 43 63 44 43 45 62 46
REMARK SMILES IDX 44 47 47 48 61 49 80 50 45 51 46 52 60 54 81 55 48 56 32 57
REMARK SMILES IDX 33 58 41 59 34 60 40 61 42 62 39 63 35 64 36 65 37 66 38 67
REMARK SMILES IDX 64 68 65 69 73 70 66 71 72 72 74 73 71 74 67 75 68 76 69 77
REMARK SMILES IDX 70 78 49 79 50 80 58 81 51 82 57 83 59 84 56 85 52 86 53 87
REMARK SMILES IDX 54 88 55 89
REMARK H PARENT 15 7 20 23 79 42 47 53
REMARK Flexibility Score: inf
ROOT
ATOM      1  C   UNL     1      -6.048   1.687   5.203  1.00  0.00     0.023 C 
ENDROOT
BRANCH   1   2
ATOM      2  C   UNL     1      -5.508   2.841   4.359  1.00  0.00     0.023 C 
BRANCH   2   3
ATOM      3  C   UNL     1      -4.021   3.163   4.492  1.00  0.00     0.116 C 
BRANCH   3   4
ATOM      4  N   UNL     1      -3.133   2.030   4.286  1.00  0.00    -0.350 N 
ATOM      5  C   UNL     1      -2.076   1.874   3.430  1.00  0.00     0.279 C 
ATOM      6  O   UNL     1      -1.301   0.935   3.601  1.00  0.00    -0.267 OA
ATOM      7  H   UNL     1      -3.323   1.248   4.855  1.00  0.00     0.163 HD
BRANCH   5   8
ATOM      8  C   UNL     1      -1.868   2.860   2.340  1.00  0.00     0.187 C 
ATOM      9  C   UNL     1      -1.315   1.350   0.238  1.00  0.00     0.021 C 
ATOM     10  C   UNL     1      -1.761   1.510  -1.248  1.00  0.00     0.009 C 
ATOM     11  C   UNL     1      -1.521   2.662   1.047  1.00  0.00    -0.025 C 
ATOM     12  C   UNL     1      -1.312   2.802  -1.917  1.00  0.00     0.004 C 
ATOM     13  C   UNL     1      -1.166   3.936   0.274  1.00  0.00     0.038 C 
ATOM     14  C   UNL     1      -1.760   4.024  -1.132  1.00  0.00    -0.010 C 
ATOM     15  F   UNL     1      -1.922   4.136   2.798  1.00  0.00    -0.201 F 
ATOM     16  C   UNL     1      -3.284   4.175  -1.120  1.00  0.00     0.008 C 
BRANCH   9  17
ATOM     17  C   UNL     1      -1.817  -0.046   0.784  1.00  0.00    -0.010 C 
ATOM     18  C   UNL     1      -3.247  -0.072   1.344  1.00  0.00     0.008 C 
ATOM     19  C   UNL     1      -1.713  -1.179  -0.260  1.00  0.00     0.008 C 
ENDBRANCH   9  17
ENDBRANCH   5   8
ENDBRANCH   3   4
ENDBRANCH   2   3
ENDBRANCH   1   2
BRANCH   1  20
ATOM     20  C   UNL     1      -5.654   1.667   6.676  1.00  0.00     0.116 C 
BRANCH  20  21
ATOM     21  N   UNL     1      -6.050   2.860   7.402  1.00  0.00    -0.352 N 
ATOM     22  C   UNL     1      -6.664   2.985   8.624  1.00  0.00     0.251 C 
ATOM     23  H   UNL     1      -5.847   3.710   6.949  1.00  0.00     0.163 HD
ATOM     24  O   UNL     1      -6.999   4.108   9.006  1.00  0.00    -0.269 OA
BRANCH  22  25
ATOM     25  C   UNL     1      -6.963   1.799   9.465  1.00  0.00     0.039 A 
ATOM     26  C   UNL     1      -8.173   1.767  10.166  1.00  0.00     0.014 A 
ATOM     27  C   UNL     1      -6.064   0.737   9.599  1.00  0.00     0.014 A 
ATOM     28  C   UNL     1      -8.499   0.659  10.954  1.00  0.00     0.010 A 
ATOM     29  C   UNL     1      -6.428  -0.404  10.316  1.00  0.00     0.010 A 
ATOM     30  C   UNL     1      -7.642  -0.452  11.016  1.00  0.00    -0.014 A 
BRANCH  30  31
ATOM     31  C   UNL     1      -7.994  -1.643  11.839  1.00  0.00     0.031 A 
ATOM     32  C   UNL     1      -7.133  -2.035  13.014  1.00  0.00     0.074 A 
ATOM     33  C   UNL     1      -9.072  -2.387  11.519  1.00  0.00     0.049 A 
ATOM     34  N   UNL     1      -7.267  -3.041  13.842  1.00  0.00    -0.248 NA
ATOM     35  C   UNL     1      -5.949  -1.202  13.271  1.00  0.00     0.031 C 
ATOM     36  C   UNL     1      -9.960  -2.140  10.381  1.00  0.00     0.029 A 
ATOM     37  N   UNL     1      -9.608  -3.499  12.120  1.00  0.00    -0.354 N 
ATOM     38  C   UNL     1      -6.182  -2.966  14.711  1.00  0.00     0.074 A 
ATOM     39  C   UNL     1      -5.364  -1.861  14.259  1.00  0.00     0.031 C 
ATOM     40  C   UNL     1     -10.948  -3.048  10.388  1.00  0.00     0.029 A 
ATOM     41  C   UNL     1     -10.746  -3.968  11.503  1.00  0.00     0.049 A 
ATOM     42  H   UNL     1      -9.216  -3.921  12.918  1.00  0.00     0.167 HD
ATOM     43  C   UNL     1      -5.908  -3.727  15.801  1.00  0.00     0.034 A 
ATOM     44  C   UNL     1     -11.536  -5.020  11.800  1.00  0.00     0.034 A 
ATOM     45  C   UNL     1      -6.738  -4.822  16.244  1.00  0.00     0.049 A 
ATOM     46  C   UNL     1     -11.204  -5.860  13.008  1.00  0.00     0.074 A 
ATOM     47  C   UNL     1      -6.578  -5.632  17.355  1.00  0.00     0.029 A 
ATOM     48  N   UNL     1      -7.883  -5.268  15.593  1.00  0.00    -0.354 N 
ATOM     49  N   UNL     1     -10.204  -5.742  13.851  1.00  0.00    -0.248 NA
ATOM     50  C   UNL     1     -12.124  -6.961  13.316  1.00  0.00     0.031 C 
ATOM     51  C   UNL     1      -7.579  -6.610  17.336  1.00  0.00     0.029 A 
ATOM     52  C   UNL     1      -8.421  -6.357  16.264  1.00  0.00     0.049 A 
ATOM     53  H   UNL     1      -8.257  -4.869  14.775  1.00  0.00     0.167 HD
ATOM     54  C   UNL     1     -10.398  -6.733  14.811  1.00  0.00     0.074 A 
ATOM     55  C   UNL     1     -11.622  -7.419  14.452  1.00  0.00     0.031 C 
ATOM     56  C   UNL     1      -9.636  -7.046  15.892  1.00  0.00     0.034 A 
BRANCH  43  57
ATOM     57  C   UNL     1      -4.642  -3.410  16.568  1.00  0.00     0.023 A 
ATOM     58  C   UNL     1      -4.440  -2.159  17.179  1.00  0.00     0.031 A 
ATOM     59  C   UNL     1      -3.607  -4.357  16.662  1.00  0.00     0.131 A 
ATOM     60  C   UNL     1      -3.206  -1.859  17.776  1.00  0.00     0.055 A 
ATOM     61  C   UNL     1      -2.416  -4.085  17.338  1.00  0.00     0.041 A 
ATOM     62  F   UNL     1      -3.728  -5.563  16.083  1.00  0.00    -0.206 F 
ATOM     63  C   UNL     1      -2.202  -2.823  17.885  1.00  0.00     0.022 A 
BRANCH  60  64
ATOM     64  S   UNL     1      -2.873  -0.143  18.262  1.00  0.00     0.124 S 
ATOM     65  O   UNL     1      -3.042   0.561  16.993  1.00  0.00    -0.237 OA
ATOM     66  O   UNL     1      -3.897   0.104  19.270  1.00  0.00    -0.237 OA
ATOM     67  O   UNL     1      -1.501  -0.188  18.763  1.00  0.00    -0.744 OA
ENDBRANCH  60  64
ENDBRANCH  43  57
BRANCH  44  68
ATOM     68  C   UNL     1     -12.719  -5.345  10.949  1.00  0.00     0.023 A 
ATOM     69  C   UNL     1     -14.023  -5.289  11.466  1.00  0.00     0.031 A 
ATOM     70  C   UNL     1     -12.557  -5.767   9.617  1.00  0.00     0.131 A 
ATOM     71  C   UNL     1     -15.109  -5.699  10.676  1.00  0.00     0.055 A 
ATOM     72  C   UNL     1     -13.645  -6.118   8.816  1.00  0.00     0.041 A 
ATOM     73  F   UNL     1     -11.333  -5.835   9.070  1.00  0.00    -0.206 F 
ATOM     74  C   UNL     1     -14.930  -6.099   9.350  1.00  0.00     0.022 A 
BRANCH  71  75
ATOM     75  S   UNL     1     -16.753  -5.792  11.437  1.00  0.00     0.124 S 
ATOM     76  O   UNL     1     -16.520  -6.720  12.538  1.00  0.00    -0.237 OA
ATOM     77  O   UNL     1     -16.993  -4.402  11.809  1.00  0.00    -0.237 OA
ATOM     78  O   UNL     1     -17.599  -6.301  10.359  1.00  0.00    -0.744 OA
ENDBRANCH  71  75
ENDBRANCH  44  68
BRANCH  56  79
ATOM     79  C   UNL     1     -10.144  -8.152  16.789  1.00  0.00     0.023 A 
ATOM     80  C   UNL     1     -10.294  -9.473  16.330  1.00  0.00     0.031 A 
ATOM     81  C   UNL     1     -10.530  -7.868  18.112  1.00  0.00     0.131 A 
ATOM     82  C   UNL     1     -10.897 -10.436  17.153  1.00  0.00     0.055 A 
ATOM     83  C   UNL     1     -11.055  -8.850  18.953  1.00  0.00     0.041 A 
ATOM     84  F   UNL     1     -10.413  -6.626  18.608  1.00  0.00    -0.206 F 
ATOM     85  C   UNL     1     -11.262 -10.138  18.468  1.00  0.00     0.022 A 
BRANCH  82  86
ATOM     86  S   UNL     1     -11.335 -12.043  16.432  1.00  0.00     0.124 S 
ATOM     87  O   UNL     1     -12.147 -11.649  15.285  1.00  0.00    -0.237 OA
ATOM     88  O   UNL     1     -10.027 -12.611  16.122  1.00  0.00    -0.237 OA
ATOM     89  O   UNL     1     -12.063 -12.714  17.507  1.00  0.00    -0.744 OA
ENDBRANCH  82  86
ENDBRANCH  56  79
ENDBRANCH  30  31
ENDBRANCH  22  25
ENDBRANCH  20  21
ENDBRANCH   1  20
TORSDOF 15
