REMARK SMILES O=C(CCc1cccnc1)Nc1ccsc1C(=O)NCCCCNC(=O)c1ccc(-c2c3nc(c(-c4cc(S(=O)(=O)[O-])ccc4F)c4ccc([nH]4)c(-c4cc(S(=O)(=O)[O-])ccc4F)c4nc(c(-c5cc(S(=O)(=O)[O-])ccc5F)c5ccc2[nH]5)C=C4)C=C3)cc1
REMARK SMILES IDX 21 1 20 2 19 3 17 4 18 5 16 7 12 8 13 9 14 10 15 11 11 12
REMARK SMILES IDX 1 13 2 14 3 16 4 17 5 18 6 19 10 20 7 21 9 22 8 23 22 24
REMARK SMILES IDX 23 25 24 26 25 27 26 29 27 30 28 31 89 32 29 33 88 34 30 35
REMARK SMILES IDX 31 36 32 37 82 38 33 39 87 40 81 41 83 42 34 43 86 44 80 45
REMARK SMILES IDX 79 46 35 48 67 49 47 50 66 51 48 52 51 53 65 54 84 55 49 56
REMARK SMILES IDX 50 57 64 59 85 60 52 61 36 62 37 63 45 64 38 65 44 66 46 67
REMARK SMILES IDX 43 68 39 69 40 70 41 71 42 72 68 73 69 74 77 75 70 76 76 77
REMARK SMILES IDX 78 78 75 79 71 80 72 81 73 82 74 83 53 84 54 85 62 86 55 87
REMARK SMILES IDX 61 88 63 89 60 90 56 91 57 92 58 93 59 94
REMARK H PARENT 19 6 11 15 24 28 83 47 51 58
REMARK Flexibility Score: inf
ROOT
ATOM      1  C   UNL     1       3.376   3.233  -1.772  1.00  0.00     0.023 C 
ENDROOT
BRANCH   1   2
ATOM      2  C   UNL     1       3.106   2.673  -0.370  1.00  0.00     0.116 C 
BRANCH   2   3
ATOM      3  N   UNL     1       3.680   3.340   0.778  1.00  0.00    -0.351 N 
ATOM      4  C   UNL     1       3.391   3.152   2.128  1.00  0.00     0.263 C 
ATOM      5  O   UNL     1       4.037   3.847   2.916  1.00  0.00    -0.268 OA
ATOM      6  H   UNL     1       4.367   4.016   0.580  1.00  0.00     0.163 HD
BRANCH   4   7
ATOM      7  C   UNL     1       2.352   2.219   2.568  1.00  0.00     0.115 A 
ATOM      8  C   UNL     1       2.053   0.907   2.224  1.00  0.00     0.065 A 
ATOM      9  C   UNL     1       0.835   0.455   2.825  1.00  0.00     0.038 A 
ATOM     10  C   UNL     1       0.321   1.365   3.718  1.00  0.00     0.068 A 
ATOM     11  S   UNL     1       1.247   2.795   3.766  1.00  0.00    -0.137 S 
BRANCH   8  12
ATOM     12  N   UNL     1       2.880   0.121   1.435  1.00  0.00    -0.325 N 
ATOM     13  O   UNL     1       1.261  -1.127   0.364  1.00  0.00    -0.275 OA
ATOM     14  C   UNL     1       2.444  -0.860   0.572  1.00  0.00     0.224 C 
ATOM     15  H   UNL     1       3.851   0.276   1.496  1.00  0.00     0.169 HD
BRANCH  14  16
ATOM     16  C   UNL     1       3.540  -1.644  -0.143  1.00  0.00     0.105 C 
BRANCH  16  17
ATOM     17  C   UNL     1       4.738  -0.854  -0.678  1.00  0.00     0.047 C 
BRANCH  17  18
ATOM     18  C   UNL     1       5.772  -0.461   0.348  1.00  0.00    -0.029 A 
ATOM     19  C   UNL     1       6.082   0.875   0.614  1.00  0.00     0.007 A 
ATOM     20  C   UNL     1       6.465  -1.410   1.083  1.00  0.00     0.114 A 
ATOM     21  C   UNL     1       7.013   1.219   1.586  1.00  0.00     0.020 A 
ATOM     22  N   UNL     1       7.365  -1.113   2.047  1.00  0.00    -0.264 NA
ATOM     23  C   UNL     1       7.626   0.193   2.272  1.00  0.00     0.111 A 
ENDBRANCH  17  18
ENDBRANCH  16  17
ENDBRANCH  14  16
ENDBRANCH   8  12
ENDBRANCH   4   7
ENDBRANCH   2   3
ENDBRANCH   1   2
BRANCH   1  24
ATOM     24  C   UNL     1       4.752   3.672  -2.307  1.00  0.00     0.023 C 
BRANCH  24  25
ATOM     25  C   UNL     1       6.014   2.799  -2.385  1.00  0.00     0.116 C 
BRANCH  25  26
ATOM     26  N   UNL     1       5.886   1.457  -2.914  1.00  0.00    -0.352 N 
ATOM     27  C   UNL     1       6.898   0.615  -3.369  1.00  0.00     0.251 C 
ATOM     28  H   UNL     1       4.971   1.095  -2.956  1.00  0.00     0.163 HD
ATOM     29  O   UNL     1       6.625  -0.518  -3.720  1.00  0.00    -0.269 OA
BRANCH  27  30
ATOM     30  C   UNL     1       8.287   1.135  -3.529  1.00  0.00     0.039 A 
ATOM     31  C   UNL     1       8.868   1.065  -4.801  1.00  0.00     0.014 A 
ATOM     32  C   UNL     1       8.991   1.736  -2.483  1.00  0.00     0.014 A 
ATOM     33  C   UNL     1      10.082   1.716  -5.056  1.00  0.00     0.010 A 
ATOM     34  C   UNL     1      10.187   2.419  -2.748  1.00  0.00     0.010 A 
ATOM     35  C   UNL     1      10.717   2.460  -4.049  1.00  0.00    -0.014 A 
BRANCH  35  36
ATOM     36  C   UNL     1      11.844   3.380  -4.383  1.00  0.00     0.031 A 
ATOM     37  C   UNL     1      13.242   3.128  -3.892  1.00  0.00     0.074 A 
ATOM     38  C   UNL     1      11.584   4.494  -5.099  1.00  0.00     0.049 A 
ATOM     39  N   UNL     1      14.323   3.846  -4.069  1.00  0.00    -0.248 NA
ATOM     40  C   UNL     1      13.443   1.919  -3.085  1.00  0.00     0.031 C 
ATOM     41  C   UNL     1      10.265   4.873  -5.613  1.00  0.00     0.029 A 
ATOM     42  N   UNL     1      12.404   5.513  -5.521  1.00  0.00    -0.354 N 
ATOM     43  C   UNL     1      15.342   3.174  -3.401  1.00  0.00     0.074 A 
ATOM     44  C   UNL     1      14.727   2.022  -2.769  1.00  0.00     0.031 C 
ATOM     45  C   UNL     1      10.371   6.021  -6.300  1.00  0.00     0.029 A 
ATOM     46  C   UNL     1      11.753   6.487  -6.243  1.00  0.00     0.049 A 
ATOM     47  H   UNL     1      13.368   5.543  -5.324  1.00  0.00     0.167 HD
ATOM     48  C   UNL     1      16.666   3.477  -3.337  1.00  0.00     0.034 A 
ATOM     49  C   UNL     1      12.208   7.630  -6.794  1.00  0.00     0.034 A 
ATOM     50  C   UNL     1      17.262   4.642  -3.952  1.00  0.00     0.049 A 
ATOM     51  C   UNL     1      13.668   7.978  -6.660  1.00  0.00     0.074 A 
ATOM     52  C   UNL     1      18.593   5.029  -3.964  1.00  0.00     0.029 A 
ATOM     53  N   UNL     1      16.566   5.620  -4.653  1.00  0.00    -0.354 N 
ATOM     54  N   UNL     1      14.624   7.310  -6.058  1.00  0.00    -0.248 NA
ATOM     55  C   UNL     1      14.111   9.230  -7.287  1.00  0.00     0.031 C 
ATOM     56  C   UNL     1      18.689   6.268  -4.611  1.00  0.00     0.029 A 
ATOM     57  C   UNL     1      17.432   6.621  -5.072  1.00  0.00     0.049 A 
ATOM     58  H   UNL     1      15.597   5.605  -4.828  1.00  0.00     0.167 HD
ATOM     59  C   UNL     1      15.787   8.045  -6.264  1.00  0.00     0.074 A 
ATOM     60  C   UNL     1      15.414   9.202  -7.053  1.00  0.00     0.031 C 
ATOM     61  C   UNL     1      17.052   7.781  -5.846  1.00  0.00     0.034 A 
BRANCH  48  62
ATOM     62  C   UNL     1      17.546   2.540  -2.541  1.00  0.00     0.023 A 
ATOM     63  C   UNL     1      17.698   1.190  -2.905  1.00  0.00     0.031 A 
ATOM     64  C   UNL     1      18.206   2.982  -1.380  1.00  0.00     0.131 A 
ATOM     65  C   UNL     1      18.404   0.312  -2.070  1.00  0.00     0.055 A 
ATOM     66  C   UNL     1      18.982   2.122  -0.600  1.00  0.00     0.041 A 
ATOM     67  F   UNL     1      18.090   4.255  -0.970  1.00  0.00    -0.206 F 
ATOM     68  C   UNL     1      19.068   0.773  -0.932  1.00  0.00     0.022 A 
BRANCH  65  69
ATOM     69  S   UNL     1      18.295  -1.468  -2.402  1.00  0.00     0.124 S 
ATOM     70  O   UNL     1      16.851  -1.688  -2.359  1.00  0.00    -0.237 OA
ATOM     71  O   UNL     1      18.921  -1.583  -3.714  1.00  0.00    -0.237 OA
ATOM     72  O   UNL     1      19.042  -2.069  -1.298  1.00  0.00    -0.744 OA
ENDBRANCH  65  69
ENDBRANCH  48  62
BRANCH  49  73
ATOM     73  C   UNL     1      11.277   8.537  -7.526  1.00  0.00     0.023 A 
ATOM     74  C   UNL     1      11.416   8.753  -8.906  1.00  0.00     0.031 A 
ATOM     75  C   UNL     1      10.254   9.226  -6.850  1.00  0.00     0.131 A 
ATOM     76  C   UNL     1      10.571   9.662  -9.561  1.00  0.00     0.055 A 
ATOM     77  C   UNL     1       9.386  10.094  -7.514  1.00  0.00     0.041 A 
ATOM     78  F   UNL     1      10.074   9.051  -5.531  1.00  0.00    -0.206 F 
ATOM     79  C   UNL     1       9.549  10.325  -8.877  1.00  0.00     0.022 A 
BRANCH  76  80
ATOM     80  S   UNL     1      10.870  10.020 -11.314  1.00  0.00     0.124 S 
ATOM     81  O   UNL     1      12.235  10.533 -11.284  1.00  0.00    -0.237 OA
ATOM     82  O   UNL     1      10.690   8.707 -11.925  1.00  0.00    -0.237 OA
ATOM     83  O   UNL     1       9.839  11.003 -11.640  1.00  0.00    -0.744 OA
ENDBRANCH  76  80
ENDBRANCH  49  73
BRANCH  61  84
ATOM     84  C   UNL     1      18.131   8.745  -6.278  1.00  0.00     0.023 A 
ATOM     85  C   UNL     1      18.179  10.068  -5.803  1.00  0.00     0.031 A 
ATOM     86  C   UNL     1      19.115   8.336  -7.195  1.00  0.00     0.131 A 
ATOM     87  C   UNL     1      19.158  10.950  -6.288  1.00  0.00     0.055 A 
ATOM     88  C   UNL     1      20.120   9.201  -7.631  1.00  0.00     0.041 A 
ATOM     89  F   UNL     1      19.115   7.086  -7.685  1.00  0.00    -0.206 F 
ATOM     90  C   UNL     1      20.139  10.520  -7.186  1.00  0.00     0.022 A 
BRANCH  87  91
ATOM     91  S   UNL     1      19.084  12.695  -5.794  1.00  0.00     0.124 S 
ATOM     92  O   UNL     1      17.765  13.091  -6.276  1.00  0.00    -0.237 OA
ATOM     93  O   UNL     1      19.236  12.616  -4.345  1.00  0.00    -0.237 OA
ATOM     94  O   UNL     1      20.210  13.300  -6.502  1.00  0.00    -0.744 OA
ENDBRANCH  87  91
ENDBRANCH  61  84
ENDBRANCH  35  36
ENDBRANCH  27  30
ENDBRANCH  25  26
ENDBRANCH  24  25
ENDBRANCH   1  24
TORSDOF 18
