REMARK SMILES Cn1c(COc2ccc(C(=O)NCCCCNC(=O)c3ccc(-c4c5nc(c(-c6cc(S(=O)(=O)[O-])ccc6F)c6ccc([nH]6)c(-c6cc(S(=O)(=O)[O-])ccc6F)c6nc(c(-c7cc(S(=O)(=O)[O-])ccc7F)c7ccc4[nH]7)C=C6)C=C5)cc3)cc2)nc2ccccc21
REMARK SMILES IDX 14 1 13 2 12 3 10 4 11 5 9 7 6 8 7 9 84 10 8 11 83 12 5 13
REMARK SMILES IDX 4 14 3 15 1 16 2 17 91 18 85 19 86 20 90 21 87 22 89 23
REMARK SMILES IDX 88 24 15 25 16 26 17 27 18 28 19 30 20 31 21 32 82 33 22 34
REMARK SMILES IDX 81 35 23 36 24 37 25 38 75 39 26 40 80 41 74 42 76 43 27 44
REMARK SMILES IDX 79 45 73 46 72 47 28 49 60 50 40 51 59 52 41 53 44 54 58 55
REMARK SMILES IDX 77 56 42 57 43 58 57 60 78 61 45 62 29 63 30 64 38 65 31 66
REMARK SMILES IDX 37 67 39 68 36 69 32 70 33 71 34 72 35 73 61 74 62 75 70 76
REMARK SMILES IDX 63 77 69 78 71 79 68 80 64 81 65 82 66 83 67 84 46 85 47 86
REMARK SMILES IDX 55 87 48 88 54 89 56 90 53 91 49 92 50 93 51 94 52 95
REMARK H PARENT 12 6 17 29 76 48 44 59
REMARK Flexibility Score: inf
ROOT
ATOM      1  C   UNL     1       0.527   0.962  -5.679  1.00  0.00     0.023 C 
ENDROOT
BRANCH   1   2
ATOM      2  C   UNL     1      -0.888   1.504  -5.469  1.00  0.00     0.116 C 
BRANCH   2   3
ATOM      3  N   UNL     1      -1.845   0.890  -6.375  1.00  0.00    -0.352 N 
ATOM      4  C   UNL     1      -2.818  -0.050  -6.134  1.00  0.00     0.251 C 
ATOM      5  O   UNL     1      -3.635  -0.312  -7.014  1.00  0.00    -0.269 OA
ATOM      6  H   UNL     1      -1.786   1.195  -7.309  1.00  0.00     0.163 HD
BRANCH   4   7
ATOM      7  C   UNL     1      -2.941  -0.720  -4.815  1.00  0.00     0.040 A 
ATOM      8  C   UNL     1      -3.265  -1.910  -2.313  1.00  0.00     0.120 A 
ATOM      9  C   UNL     1      -4.389  -1.518  -3.034  1.00  0.00     0.047 A 
ATOM     10  C   UNL     1      -1.994  -1.804  -2.872  1.00  0.00     0.047 A 
ATOM     11  C   UNL     1      -4.225  -0.920  -4.288  1.00  0.00     0.017 A 
ATOM     12  C   UNL     1      -1.833  -1.212  -4.122  1.00  0.00     0.017 A 
BRANCH   8  13
ATOM     13  O   UNL     1      -3.399  -2.470  -1.071  1.00  0.00    -0.486 OA
BRANCH  13  14
ATOM     14  C   UNL     1      -3.382  -1.469  -0.029  1.00  0.00     0.304 C 
BRANCH  14  15
ATOM     15  C   UNL     1      -1.985  -0.960   0.178  1.00  0.00     0.147 A 
ATOM     16  C   UNL     1      -2.472   1.525   0.006  1.00  0.00     0.151 C 
ATOM     17  N   UNL     1      -1.616   0.369   0.123  1.00  0.00    -0.328 N 
ATOM     18  C   UNL     1      -0.239   0.435   0.140  1.00  0.00     0.068 A 
ATOM     19  N   UNL     1      -0.919  -1.722   0.364  1.00  0.00    -0.229 NA
ATOM     20  C   UNL     1       0.164  -0.886   0.291  1.00  0.00     0.089 A 
ATOM     21  C   UNL     1       0.670   1.494   0.023  1.00  0.00     0.028 A 
ATOM     22  C   UNL     1       1.532  -1.193   0.320  1.00  0.00     0.030 A 
ATOM     23  C   UNL     1       2.032   1.169   0.043  1.00  0.00     0.002 A 
ATOM     24  C   UNL     1       2.459  -0.152   0.186  1.00  0.00     0.002 A 
ENDBRANCH  14  15
ENDBRANCH  13  14
ENDBRANCH   8  13
ENDBRANCH   4   7
ENDBRANCH   2   3
ENDBRANCH   1   2
BRANCH   1  25
ATOM     25  C   UNL     1       1.241   1.494  -6.922  1.00  0.00     0.023 C 
BRANCH  25  26
ATOM     26  C   UNL     1       1.545   2.987  -6.904  1.00  0.00     0.116 C 
BRANCH  26  27
ATOM     27  N   UNL     1       2.401   3.390  -5.798  1.00  0.00    -0.352 N 
ATOM     28  C   UNL     1       3.343   4.397  -5.774  1.00  0.00     0.251 C 
ATOM     29  H   UNL     1       2.293   2.881  -4.963  1.00  0.00     0.163 HD
ATOM     30  O   UNL     1       4.052   4.557  -4.795  1.00  0.00    -0.269 OA
BRANCH  28  31
ATOM     31  C   UNL     1       3.507   5.242  -6.978  1.00  0.00     0.039 A 
ATOM     32  C   UNL     1       4.778   5.377  -7.541  1.00  0.00     0.014 A 
ATOM     33  C   UNL     1       2.396   5.832  -7.585  1.00  0.00     0.014 A 
ATOM     34  C   UNL     1       4.923   6.037  -8.764  1.00  0.00     0.010 A 
ATOM     35  C   UNL     1       2.532   6.428  -8.834  1.00  0.00     0.010 A 
ATOM     36  C   UNL     1       3.794   6.527  -9.441  1.00  0.00    -0.014 A 
BRANCH  36  37
ATOM     37  C   UNL     1       3.900   7.141 -10.789  1.00  0.00     0.031 A 
ATOM     38  C   UNL     1       3.538   8.587 -10.982  1.00  0.00     0.074 A 
ATOM     39  C   UNL     1       4.231   6.378 -11.849  1.00  0.00     0.049 A 
ATOM     40  N   UNL     1       3.442   9.279 -12.088  1.00  0.00    -0.248 NA
ATOM     41  C   UNL     1       3.203   9.341  -9.766  1.00  0.00     0.031 C 
ATOM     42  C   UNL     1       4.570   4.954 -11.794  1.00  0.00     0.029 A 
ATOM     43  N   UNL     1       4.322   6.689 -13.182  1.00  0.00    -0.354 N 
ATOM     44  C   UNL     1       3.018  10.547 -11.704  1.00  0.00     0.074 A 
ATOM     45  C   UNL     1       2.813  10.500 -10.271  1.00  0.00     0.031 C 
ATOM     46  C   UNL     1       4.857   4.523 -13.034  1.00  0.00     0.029 A 
ATOM     47  C   UNL     1       4.677   5.624 -13.975  1.00  0.00     0.049 A 
ATOM     48  H   UNL     1       4.151   7.591 -13.537  1.00  0.00     0.167 HD
ATOM     49  C   UNL     1       2.840  11.652 -12.471  1.00  0.00     0.034 A 
ATOM     50  C   UNL     1       4.829   5.541 -15.311  1.00  0.00     0.034 A 
ATOM     51  C   UNL     1       3.057  11.680 -13.898  1.00  0.00     0.049 A 
ATOM     52  C   UNL     1       4.588   6.769 -16.151  1.00  0.00     0.074 A 
ATOM     53  C   UNL     1       2.959  12.753 -14.767  1.00  0.00     0.029 A 
ATOM     54  N   UNL     1       3.410  10.579 -14.669  1.00  0.00    -0.354 N 
ATOM     55  N   UNL     1       4.225   7.972 -15.771  1.00  0.00    -0.248 NA
ATOM     56  C   UNL     1       4.782   6.625 -17.599  1.00  0.00     0.031 C 
ATOM     57  C   UNL     1       3.193  12.289 -16.067  1.00  0.00     0.029 A 
ATOM     58  C   UNL     1       3.505  10.940 -16.005  1.00  0.00     0.049 A 
ATOM     59  H   UNL     1       3.569   9.673 -14.318  1.00  0.00     0.167 HD
ATOM     60  C   UNL     1       4.181   8.738 -16.932  1.00  0.00     0.074 A 
ATOM     61  C   UNL     1       4.558   7.861 -18.023  1.00  0.00     0.031 C 
ATOM     62  C   UNL     1       3.869  10.051 -17.083  1.00  0.00     0.034 A 
BRANCH  49  63
ATOM     63  C   UNL     1       2.356  12.901 -11.771  1.00  0.00     0.023 A 
ATOM     64  C   UNL     1       3.107  13.505 -10.745  1.00  0.00     0.031 A 
ATOM     65  C   UNL     1       1.101  13.454 -12.078  1.00  0.00     0.131 A 
ATOM     66  C   UNL     1       2.552  14.553  -9.995  1.00  0.00     0.055 A 
ATOM     67  C   UNL     1       0.596  14.560 -11.389  1.00  0.00     0.041 A 
ATOM     68  F   UNL     1       0.329  12.912 -13.033  1.00  0.00    -0.206 F 
ATOM     69  C   UNL     1       1.312  15.101 -10.326  1.00  0.00     0.022 A 
BRANCH  66  70
ATOM     70  S   UNL     1       3.392  15.055  -8.467  1.00  0.00     0.124 S 
ATOM     71  O   UNL     1       3.442  13.794  -7.730  1.00  0.00    -0.237 OA
ATOM     72  O   UNL     1       4.668  15.559  -8.959  1.00  0.00    -0.237 OA
ATOM     73  O   UNL     1       2.498  16.062  -7.900  1.00  0.00    -0.744 OA
ENDBRANCH  66  70
ENDBRANCH  49  63
BRANCH  50  74
ATOM     74  C   UNL     1       5.235   4.257 -15.946  1.00  0.00     0.023 A 
ATOM     75  C   UNL     1       6.490   4.129 -16.562  1.00  0.00     0.031 A 
ATOM     76  C   UNL     1       4.369   3.150 -15.972  1.00  0.00     0.131 A 
ATOM     77  C   UNL     1       6.831   2.934 -17.212  1.00  0.00     0.055 A 
ATOM     78  C   UNL     1       4.730   1.948 -16.583  1.00  0.00     0.041 A 
ATOM     79  F   UNL     1       3.161   3.219 -15.389  1.00  0.00    -0.206 F 
ATOM     80  C   UNL     1       5.964   1.839 -17.218  1.00  0.00     0.022 A 
BRANCH  77  81
ATOM     81  S   UNL     1       8.407   2.853 -18.105  1.00  0.00     0.124 S 
ATOM     82  O   UNL     1       8.245   3.913 -19.093  1.00  0.00    -0.237 OA
ATOM     83  O   UNL     1       9.372   3.109 -17.040  1.00  0.00    -0.237 OA
ATOM     84  O   UNL     1       8.423   1.494 -18.643  1.00  0.00    -0.744 OA
ENDBRANCH  77  81
ENDBRANCH  50  74
BRANCH  62  85
ATOM     85  C   UNL     1       3.978  10.621 -18.475  1.00  0.00     0.023 A 
ATOM     86  C   UNL     1       3.093  10.247 -19.501  1.00  0.00     0.031 A 
ATOM     87  C   UNL     1       4.997  11.540 -18.780  1.00  0.00     0.131 A 
ATOM     88  C   UNL     1       3.275  10.752 -20.797  1.00  0.00     0.055 A 
ATOM     89  C   UNL     1       5.141  12.080 -20.058  1.00  0.00     0.041 A 
ATOM     90  F   UNL     1       5.871  11.929 -17.837  1.00  0.00    -0.206 F 
ATOM     91  C   UNL     1       4.284  11.677 -21.079  1.00  0.00     0.022 A 
BRANCH  88  92
ATOM     92  S   UNL     1       2.224  10.122 -22.135  1.00  0.00     0.124 S 
ATOM     93  O   UNL     1       2.523   8.694 -22.109  1.00  0.00    -0.237 OA
ATOM     94  O   UNL     1       0.888  10.502 -21.688  1.00  0.00    -0.237 OA
ATOM     95  O   UNL     1       2.707  10.835 -23.316  1.00  0.00    -0.744 OA
ENDBRANCH  88  92
ENDBRANCH  62  85
ENDBRANCH  36  37
ENDBRANCH  28  31
ENDBRANCH  26  27
ENDBRANCH  25  26
ENDBRANCH   1  25
TORSDOF 17
