REMARK SMILES CSCc1ccc(C(=O)N2C[C@@H](O)C[C@@H]2C(=O)NCCCCNC(=O)c2ccc(-c3c4nc(c(-c5cc(S(=O)(=O)[O-])ccc5F)c5ccc([nH]5)c(-c5cc(S(=O)(=O)[O-])ccc5F)c5nc(c(-c6cc(S(=O)(=O)[O-])ccc6F)c6ccc3[nH]6)C=C5)C=C4)cc2)o1
REMARK SMILES IDX 20 1 19 2 18 3 16 4 17 5 15 7 10 8 11 9 12 10 14 11 8 12
REMARK SMILES IDX 9 13 7 14 4 15 5 16 89 17 6 18 3 19 2 20 1 21 13 22 21 24
REMARK SMILES IDX 22 25 23 26 24 27 25 29 26 30 27 31 88 32 28 33 87 34 29 35
REMARK SMILES IDX 30 36 31 37 81 38 32 39 86 40 80 41 82 42 33 43 85 44 79 45
REMARK SMILES IDX 78 46 34 48 66 49 46 50 65 51 47 52 50 53 64 54 83 55 48 56
REMARK SMILES IDX 49 57 63 59 84 60 51 61 35 62 36 63 44 64 37 65 43 66 45 67
REMARK SMILES IDX 42 68 38 69 39 70 40 71 41 72 67 73 68 74 76 75 69 76 75 77
REMARK SMILES IDX 77 78 74 79 70 80 71 81 72 82 73 83 52 84 53 85 61 86 54 87
REMARK SMILES IDX 60 88 62 89 59 90 55 91 56 92 57 93 58 94
REMARK H PARENT 18 6 13 23 23 28 82 47 50 58
REMARK Flexibility Score: inf
ROOT
ATOM      1  C   UNL     1      -4.073  10.042   3.710  1.00  0.00     0.023 C 
ENDROOT
BRANCH   1   2
ATOM      2  C   UNL     1      -3.777   8.823   4.577  1.00  0.00     0.116 C 
BRANCH   2   3
ATOM      3  N   UNL     1      -3.765   7.579   3.835  1.00  0.00    -0.354 N 
ATOM      4  C   UNL     1      -2.770   6.654   3.709  1.00  0.00     0.242 C 
ATOM      5  O   UNL     1      -3.055   5.572   3.190  1.00  0.00    -0.273 OA
ATOM      6  H   UNL     1      -4.596   7.370   3.350  1.00  0.00     0.163 HD
BRANCH   4   7
ATOM      7  C   UNL     1      -1.357   6.961   4.260  1.00  0.00     0.177 C 
ATOM      8  N   UNL     1      -0.421   5.947   3.772  1.00  0.00    -0.321 N 
ATOM      9  C   UNL     1       0.035   5.072   4.838  1.00  0.00     0.152 C 
ATOM     10  C   UNL     1      -0.949   5.322   5.974  1.00  0.00     0.136 C 
ATOM     11  C   UNL     1      -1.327   6.792   5.781  1.00  0.00     0.069 C 
BRANCH   8  12
ATOM     12  C   UNL     1      -0.070   5.883   2.440  1.00  0.00     0.290 C 
ATOM     13  O   UNL     1       0.065   6.934   1.785  1.00  0.00    -0.265 OA
BRANCH  12  14
ATOM     14  C   UNL     1      -0.005   4.564   1.843  1.00  0.00     0.191 A 
ATOM     15  C   UNL     1       0.514   3.074   0.290  1.00  0.00     0.114 A 
ATOM     16  C   UNL     1      -0.390   2.463   1.135  1.00  0.00     0.047 A 
ATOM     17  O   UNL     1       0.760   4.349   0.727  1.00  0.00    -0.455 OA
ATOM     18  C   UNL     1      -0.721   3.410   2.125  1.00  0.00     0.056 A 
BRANCH  15  19
ATOM     19  C   UNL     1       1.210   2.680  -0.964  1.00  0.00     0.144 C 
BRANCH  19  20
ATOM     20  S   UNL     1       0.753   1.033  -1.599  1.00  0.00    -0.157 SA
ATOM     21  C   UNL     1       1.639  -0.006  -0.411  1.00  0.00     0.085 C 
ENDBRANCH  19  20
ENDBRANCH  15  19
ENDBRANCH  12  14
ENDBRANCH   8  12
BRANCH  10  22
ATOM     22  O   UNL     1      -0.387   5.094   7.255  1.00  0.00    -0.391 OA
ATOM     23  H   UNL     1       0.388   5.666   7.375  1.00  0.00     0.211 HD
ENDBRANCH  10  22
ENDBRANCH   4   7
ENDBRANCH   2   3
ENDBRANCH   1   2
BRANCH   1  24
ATOM     24  C   UNL     1      -5.376   9.998   2.907  1.00  0.00     0.023 C 
BRANCH  24  25
ATOM     25  C   UNL     1      -6.641   9.622   3.676  1.00  0.00     0.116 C 
BRANCH  25  26
ATOM     26  N   UNL     1      -6.914  10.498   4.801  1.00  0.00    -0.352 N 
ATOM     27  C   UNL     1      -8.093  11.094   5.185  1.00  0.00     0.251 C 
ATOM     28  H   UNL     1      -6.139  10.695   5.375  1.00  0.00     0.163 HD
ATOM     29  O   UNL     1      -8.082  11.884   6.127  1.00  0.00    -0.269 OA
BRANCH  27  30
ATOM     30  C   UNL     1      -9.354  10.826   4.454  1.00  0.00     0.039 A 
ATOM     31  C   UNL     1     -10.183  11.908   4.136  1.00  0.00     0.014 A 
ATOM     32  C   UNL     1      -9.733   9.530   4.093  1.00  0.00     0.014 A 
ATOM     33  C   UNL     1     -11.350  11.700   3.393  1.00  0.00     0.010 A 
ATOM     34  C   UNL     1     -10.869   9.331   3.307  1.00  0.00     0.010 A 
ATOM     35  C   UNL     1     -11.684  10.414   2.942  1.00  0.00    -0.014 A 
BRANCH  35  36
ATOM     36  C   UNL     1     -12.875  10.181   2.085  1.00  0.00     0.031 A 
ATOM     37  C   UNL     1     -14.036   9.380   2.604  1.00  0.00     0.074 A 
ATOM     38  C   UNL     1     -12.879  10.624   0.812  1.00  0.00     0.049 A 
ATOM     39  N   UNL     1     -15.108   8.969   1.976  1.00  0.00    -0.248 NA
ATOM     40  C   UNL     1     -13.964   8.962   4.011  1.00  0.00     0.031 C 
ATOM     41  C   UNL     1     -11.799  11.382   0.176  1.00  0.00     0.029 A 
ATOM     42  N   UNL     1     -13.815  10.483  -0.182  1.00  0.00    -0.354 N 
ATOM     43  C   UNL     1     -15.830   8.225   2.902  1.00  0.00     0.074 A 
ATOM     44  C   UNL     1     -15.048   8.209   4.122  1.00  0.00     0.031 C 
ATOM     45  C   UNL     1     -12.135  11.642  -1.097  1.00  0.00     0.029 A 
ATOM     46  C   UNL     1     -13.435  11.041  -1.380  1.00  0.00     0.049 A 
ATOM     47  H   UNL     1     -14.677  10.026  -0.049  1.00  0.00     0.167 HD
ATOM     48  C   UNL     1     -17.036   7.621   2.755  1.00  0.00     0.034 A 
ATOM     49  C   UNL     1     -14.054  11.052  -2.576  1.00  0.00     0.034 A 
ATOM     50  C   UNL     1     -17.815   7.658   1.540  1.00  0.00     0.049 A 
ATOM     51  C   UNL     1     -15.392  10.377  -2.719  1.00  0.00     0.074 A 
ATOM     52  C   UNL     1     -19.074   7.132   1.304  1.00  0.00     0.029 A 
ATOM     53  N   UNL     1     -17.406   8.250   0.353  1.00  0.00    -0.354 N 
ATOM     54  N   UNL     1     -16.075   9.703  -1.824  1.00  0.00    -0.248 NA
ATOM     55  C   UNL     1     -16.042  10.471  -4.032  1.00  0.00     0.031 C 
ATOM     56  C   UNL     1     -19.405   7.365  -0.037  1.00  0.00     0.029 A 
ATOM     57  C   UNL     1     -18.376   8.083  -0.624  1.00  0.00     0.049 A 
ATOM     58  H   UNL     1     -16.550   8.720   0.223  1.00  0.00     0.167 HD
ATOM     59  C   UNL     1     -17.246   9.308  -2.462  1.00  0.00     0.074 A 
ATOM     60  C   UNL     1     -17.180   9.826  -3.814  1.00  0.00     0.031 C 
ATOM     61  C   UNL     1     -18.287   8.588  -1.973  1.00  0.00     0.034 A 
BRANCH  48  62
ATOM     62  C   UNL     1     -17.562   6.843   3.936  1.00  0.00     0.023 A 
ATOM     63  C   UNL     1     -17.893   7.477   5.146  1.00  0.00     0.031 A 
ATOM     64  C   UNL     1     -17.687   5.445   3.868  1.00  0.00     0.131 A 
ATOM     65  C   UNL     1     -18.250   6.708   6.264  1.00  0.00     0.055 A 
ATOM     66  C   UNL     1     -18.118   4.691   4.961  1.00  0.00     0.041 A 
ATOM     67  F   UNL     1     -17.368   4.784   2.744  1.00  0.00    -0.206 F 
ATOM     68  C   UNL     1     -18.386   5.321   6.174  1.00  0.00     0.022 A 
BRANCH  65  69
ATOM     69  S   UNL     1     -18.387   7.533   7.873  1.00  0.00     0.124 S 
ATOM     70  O   UNL     1     -17.048   8.094   8.032  1.00  0.00    -0.237 OA
ATOM     71  O   UNL     1     -19.460   8.494   7.645  1.00  0.00    -0.237 OA
ATOM     72  O   UNL     1     -18.711   6.442   8.791  1.00  0.00    -0.744 OA
ENDBRANCH  65  69
ENDBRANCH  48  62
BRANCH  49  73
ATOM     73  C   UNL     1     -13.409  11.705  -3.746  1.00  0.00     0.023 A 
ATOM     74  C   UNL     1     -13.918  12.901  -4.275  1.00  0.00     0.031 A 
ATOM     75  C   UNL     1     -12.288  11.126  -4.365  1.00  0.00     0.131 A 
ATOM     76  C   UNL     1     -13.325  13.466  -5.414  1.00  0.00     0.055 A 
ATOM     77  C   UNL     1     -11.681  11.710  -5.478  1.00  0.00     0.041 A 
ATOM     78  F   UNL     1     -11.761   9.988  -3.886  1.00  0.00    -0.206 F 
ATOM     79  C   UNL     1     -12.206  12.883  -6.014  1.00  0.00     0.022 A 
BRANCH  76  80
ATOM     80  S   UNL     1     -14.070  14.955  -6.132  1.00  0.00     0.124 S 
ATOM     81  O   UNL     1     -15.412  14.488  -6.463  1.00  0.00    -0.237 OA
ATOM     82  O   UNL     1     -13.976  15.903  -5.027  1.00  0.00    -0.237 OA
ATOM     83  O   UNL     1     -13.210  15.248  -7.276  1.00  0.00    -0.744 OA
ENDBRANCH  76  80
ENDBRANCH  49  73
BRANCH  61  84
ATOM     84  C   UNL     1     -19.447   8.358  -2.904  1.00  0.00     0.023 A 
ATOM     85  C   UNL     1     -19.350   7.480  -3.998  1.00  0.00     0.031 A 
ATOM     86  C   UNL     1     -20.656   9.047  -2.707  1.00  0.00     0.131 A 
ATOM     87  C   UNL     1     -20.432   7.347  -4.881  1.00  0.00     0.055 A 
ATOM     88  C   UNL     1     -21.743   8.878  -3.565  1.00  0.00     0.041 A 
ATOM     89  F   UNL     1     -20.796   9.898  -1.679  1.00  0.00    -0.206 F 
ATOM     90  C   UNL     1     -21.631   8.032  -4.666  1.00  0.00     0.022 A 
BRANCH  87  91
ATOM     91  S   UNL     1     -20.229   6.317  -6.361  1.00  0.00     0.124 S 
ATOM     92  O   UNL     1     -19.122   6.979  -7.043  1.00  0.00    -0.237 OA
ATOM     93  O   UNL     1     -19.934   5.006  -5.792  1.00  0.00    -0.237 OA
ATOM     94  O   UNL     1     -21.523   6.422  -7.033  1.00  0.00    -0.744 OA
ENDBRANCH  87  91
ENDBRANCH  61  84
ENDBRANCH  35  36
ENDBRANCH  27  30
ENDBRANCH  25  26
ENDBRANCH  24  25
ENDBRANCH   1  24
TORSDOF 19
