REMARK SMILES Cc1ccc([C@@]23C[C@@H]4C[C@@H](C[C@@](C(=O)N5CCC(C(=O)NCCCCNC(=O)c6ccc(-c7c8nc(c(-c9cc(S(=O)(=O)[O-])ccc9F)c9ccc([nH]9)c(-c9cc(S(=O)(=O)[O-])ccc9F)c9nc(c(-c%10cc(S(=O)(=O)[O-])ccc%10F)c%10ccc7[nH]%10)C=C9)C=C8)cc6)CC5)(C4)C2)C3)cc1
REMARK SMILES IDX 24 1 23 2 22 3 21 4 19 5 20 6 18 8 13 9 14 10 15 11 16 12
REMARK SMILES IDX 93 13 17 14 92 15 12 16 6 17 7 18 95 19 96 20 8 21 10 22
REMARK SMILES IDX 9 23 94 24 11 25 5 26 1 27 2 28 3 29 98 30 4 31 97 32 25 33
REMARK SMILES IDX 26 34 27 35 28 37 29 38 30 39 91 40 31 41 90 42 32 43 33 44
REMARK SMILES IDX 34 45 84 46 35 47 89 48 83 49 85 50 36 51 88 52 82 53 81 54
REMARK SMILES IDX 37 56 69 57 49 58 68 59 50 60 53 61 67 62 86 63 51 64 52 65
REMARK SMILES IDX 66 67 87 68 54 69 38 70 39 71 47 72 40 73 46 74 48 75 45 76
REMARK SMILES IDX 41 77 42 78 43 79 44 80 70 81 71 82 79 83 72 84 78 85 80 86
REMARK SMILES IDX 77 87 73 88 74 89 75 90 76 91 55 92 56 93 64 94 57 95 63 96
REMARK SMILES IDX 65 97 62 98 58 99 59 100 60 101 61 102
REMARK H PARENT 21 7 26 36 85 55 53 66
REMARK Flexibility Score: inf
ROOT
ATOM      1  C   UNL     1     -10.017  -1.288  -4.942  1.00  0.00     0.023 C 
ENDROOT
BRANCH   1   2
ATOM      2  C   UNL     1      -8.957  -1.505  -3.864  1.00  0.00     0.023 C 
BRANCH   2   3
ATOM      3  C   UNL     1      -8.790  -2.953  -3.382  1.00  0.00     0.116 C 
BRANCH   3   4
ATOM      4  N   UNL     1      -8.422  -3.865  -4.467  1.00  0.00    -0.356 N 
ATOM      5  C   UNL     1      -7.287  -4.582  -4.696  1.00  0.00     0.223 C 
ATOM      6  O   UNL     1      -7.227  -5.266  -5.722  1.00  0.00    -0.275 OA
ATOM      7  H   UNL     1      -9.118  -3.981  -5.153  1.00  0.00     0.163 HD
BRANCH   5   8
ATOM      8  C   UNL     1      -6.103  -4.540  -3.741  1.00  0.00     0.082 C 
ATOM      9  C   UNL     1      -5.637  -2.570  -0.227  1.00  0.00     0.228 C 
ATOM     10  O   UNL     1      -6.200  -3.106   0.734  1.00  0.00    -0.274 OA
ATOM     11  N   UNL     1      -5.199  -3.354  -1.300  1.00  0.00    -0.342 N 
ATOM     12  C   UNL     1      -5.484  -4.784  -1.272  1.00  0.00     0.120 C 
ATOM     13  C   UNL     1      -4.544  -2.944  -2.538  1.00  0.00     0.120 C 
ATOM     14  C   UNL     1      -6.460  -5.160  -2.378  1.00  0.00     0.035 C 
ATOM     15  C   UNL     1      -5.484  -3.138  -3.712  1.00  0.00     0.035 C 
BRANCH   9  16
ATOM     16  C   UNL     1      -5.252  -1.071  -0.137  1.00  0.00     0.051 C 
ATOM     17  C   UNL     1      -3.139   0.393   0.075  1.00  0.00    -0.003 C 
ATOM     18  C   UNL     1      -3.678   1.188  -1.152  1.00  0.00     0.015 C 
ATOM     19  C   UNL     1      -3.719  -1.032  -0.021  1.00  0.00     0.028 C 
ATOM     20  C   UNL     1      -3.714   1.027   1.367  1.00  0.00     0.015 C 
ATOM     21  C   UNL     1      -5.221   1.236  -1.164  1.00  0.00    -0.009 C 
ATOM     22  C   UNL     1      -5.257   1.022   1.333  1.00  0.00    -0.009 C 
ATOM     23  C   UNL     1      -5.726   1.866   0.140  1.00  0.00     0.007 C 
ATOM     24  C   UNL     1      -5.790  -0.187  -1.281  1.00  0.00     0.020 C 
ATOM     25  C   UNL     1      -5.782  -0.424   1.181  1.00  0.00     0.020 C 
BRANCH  17  26
ATOM     26  C   UNL     1      -1.597   0.357   0.099  1.00  0.00    -0.042 A 
ATOM     27  C   UNL     1       2.745   0.231   0.007  1.00  0.00     0.044 C 
ATOM     28  C   UNL     1       1.250   0.295   0.058  1.00  0.00    -0.051 A 
ATOM     29  C   UNL     1       0.518  -0.887   0.131  1.00  0.00     0.004 A 
ATOM     30  C   UNL     1       0.559   1.510   0.025  1.00  0.00     0.004 A 
ATOM     31  C   UNL     1      -0.876  -0.853   0.159  1.00  0.00     0.004 A 
ATOM     32  C   UNL     1      -0.844   1.540   0.049  1.00  0.00     0.004 A 
ENDBRANCH  17  26
ENDBRANCH   9  16
ENDBRANCH   5   8
ENDBRANCH   3   4
ENDBRANCH   2   3
ENDBRANCH   1   2
BRANCH   1  33
ATOM     33  C   UNL     1     -11.432  -1.653  -4.512  1.00  0.00     0.116 C 
BRANCH  33  34
ATOM     34  N   UNL     1     -12.264  -0.528  -4.111  1.00  0.00    -0.352 N 
ATOM     35  C   UNL     1     -13.589  -0.553  -3.703  1.00  0.00     0.251 C 
ATOM     36  H   UNL     1     -11.834   0.357  -4.132  1.00  0.00     0.163 HD
ATOM     37  O   UNL     1     -14.217   0.472  -3.478  1.00  0.00    -0.269 OA
BRANCH  35  38
ATOM     38  C   UNL     1     -14.202  -1.872  -3.406  1.00  0.00     0.039 A 
ATOM     39  C   UNL     1     -14.660  -2.077  -2.101  1.00  0.00     0.014 A 
ATOM     40  C   UNL     1     -14.080  -2.942  -4.290  1.00  0.00     0.014 A 
ATOM     41  C   UNL     1     -14.766  -3.376  -1.611  1.00  0.00     0.010 A 
ATOM     42  C   UNL     1     -14.100  -4.229  -3.782  1.00  0.00     0.010 A 
ATOM     43  C   UNL     1     -14.372  -4.440  -2.425  1.00  0.00    -0.014 A 
BRANCH  43  44
ATOM     44  C   UNL     1     -14.080  -5.767  -1.887  1.00  0.00     0.031 A 
ATOM     45  C   UNL     1     -15.012  -6.891  -2.091  1.00  0.00     0.074 A 
ATOM     46  C   UNL     1     -12.959  -5.968  -1.159  1.00  0.00     0.049 A 
ATOM     47  N   UNL     1     -15.121  -7.906  -1.299  1.00  0.00    -0.248 NA
ATOM     48  C   UNL     1     -15.974  -6.911  -3.182  1.00  0.00     0.031 C 
ATOM     49  C   UNL     1     -12.414  -7.240  -0.696  1.00  0.00     0.029 A 
ATOM     50  N   UNL     1     -12.247  -5.005  -0.451  1.00  0.00    -0.354 N 
ATOM     51  C   UNL     1     -15.927  -8.837  -1.913  1.00  0.00     0.074 A 
ATOM     52  C   UNL     1     -16.524  -8.116  -3.012  1.00  0.00     0.031 C 
ATOM     53  C   UNL     1     -11.659  -7.015   0.391  1.00  0.00     0.029 A 
ATOM     54  C   UNL     1     -11.793  -5.610   0.732  1.00  0.00     0.049 A 
ATOM     55  H   UNL     1     -12.090  -4.074  -0.728  1.00  0.00     0.167 HD
ATOM     56  C   UNL     1     -15.874 -10.138  -1.499  1.00  0.00     0.034 A 
ATOM     57  C   UNL     1     -12.148  -5.120   1.954  1.00  0.00     0.034 A 
ATOM     58  C   UNL     1     -15.090 -10.274  -0.261  1.00  0.00     0.049 A 
ATOM     59  C   UNL     1     -12.894  -6.122   2.813  1.00  0.00     0.074 A 
ATOM     60  C   UNL     1     -13.826 -10.770   0.016  1.00  0.00     0.029 A 
ATOM     61  N   UNL     1     -15.516  -9.631   0.900  1.00  0.00    -0.354 N 
ATOM     62  N   UNL     1     -13.429  -7.226   2.366  1.00  0.00    -0.248 NA
ATOM     63  C   UNL     1     -13.118  -5.940   4.244  1.00  0.00     0.031 C 
ATOM     64  C   UNL     1     -13.473 -10.371   1.334  1.00  0.00     0.029 A 
ATOM     65  C   UNL     1     -14.533  -9.660   1.872  1.00  0.00     0.049 A 
ATOM     66  H   UNL     1     -16.399  -9.212   1.013  1.00  0.00     0.167 HD
ATOM     67  C   UNL     1     -14.070  -7.883   3.391  1.00  0.00     0.074 A 
ATOM     68  C   UNL     1     -13.820  -7.044   4.551  1.00  0.00     0.031 C 
ATOM     69  C   UNL     1     -14.756  -9.051   3.182  1.00  0.00     0.034 A 
BRANCH  56  70
ATOM     70  C   UNL     1     -16.270 -11.339  -2.358  1.00  0.00     0.023 A 
ATOM     71  C   UNL     1     -15.732 -12.612  -2.051  1.00  0.00     0.031 A 
ATOM     72  C   UNL     1     -17.070 -11.311  -3.519  1.00  0.00     0.131 A 
ATOM     73  C   UNL     1     -15.905 -13.721  -2.909  1.00  0.00     0.055 A 
ATOM     74  C   UNL     1     -17.215 -12.401  -4.389  1.00  0.00     0.041 A 
ATOM     75  F   UNL     1     -17.805 -10.252  -3.862  1.00  0.00    -0.206 F 
ATOM     76  C   UNL     1     -16.619 -13.611  -4.096  1.00  0.00     0.022 A 
BRANCH  73  77
ATOM     77  S   UNL     1     -15.169 -15.319  -2.467  1.00  0.00     0.124 S 
ATOM     78  O   UNL     1     -13.746 -15.002  -2.417  1.00  0.00    -0.237 OA
ATOM     79  O   UNL     1     -15.813 -15.616  -1.193  1.00  0.00    -0.237 OA
ATOM     80  O   UNL     1     -15.565 -16.192  -3.573  1.00  0.00    -0.744 OA
ENDBRANCH  73  77
ENDBRANCH  56  70
BRANCH  57  81
ATOM     81  C   UNL     1     -12.351  -3.639   1.962  1.00  0.00     0.023 A 
ATOM     82  C   UNL     1     -11.287  -2.828   1.499  1.00  0.00     0.031 A 
ATOM     83  C   UNL     1     -13.624  -3.062   2.046  1.00  0.00     0.131 A 
ATOM     84  C   UNL     1     -11.542  -1.548   0.984  1.00  0.00     0.055 A 
ATOM     85  C   UNL     1     -13.860  -1.755   1.597  1.00  0.00     0.041 A 
ATOM     86  F   UNL     1     -14.681  -3.785   2.443  1.00  0.00    -0.206 F 
ATOM     87  C   UNL     1     -12.828  -1.010   1.024  1.00  0.00     0.022 A 
BRANCH  84  88
ATOM     88  S   UNL     1     -10.255  -0.709   0.007  1.00  0.00     0.124 S 
ATOM     89  O   UNL     1      -9.625   0.158   0.996  1.00  0.00    -0.237 OA
ATOM     90  O   UNL     1      -9.438  -1.813  -0.492  1.00  0.00    -0.237 OA
ATOM     91  O   UNL     1     -11.012  -0.023  -1.038  1.00  0.00    -0.744 OA
ENDBRANCH  84  88
ENDBRANCH  57  81
BRANCH  69  92
ATOM     92  C   UNL     1     -15.630  -9.788   4.191  1.00  0.00     0.023 A 
ATOM     93  C   UNL     1     -16.059  -9.247   5.413  1.00  0.00     0.031 A 
ATOM     94  C   UNL     1     -16.122 -11.090   3.907  1.00  0.00     0.131 A 
ATOM     95  C   UNL     1     -16.854  -9.990   6.311  1.00  0.00     0.055 A 
ATOM     96  C   UNL     1     -16.967 -11.800   4.769  1.00  0.00     0.041 A 
ATOM     97  F   UNL     1     -15.816 -11.732   2.771  1.00  0.00    -0.206 F 
ATOM     98  C   UNL     1     -17.327 -11.258   5.989  1.00  0.00     0.022 A 
BRANCH  95  99
ATOM     99  S   UNL     1     -17.221  -9.276   7.939  1.00  0.00     0.124 S 
ATOM    100  O   UNL     1     -15.891  -9.186   8.535  1.00  0.00    -0.237 OA
ATOM    101  O   UNL     1     -17.846  -8.004   7.590  1.00  0.00    -0.237 OA
ATOM    102  O   UNL     1     -18.112 -10.257   8.555  1.00  0.00    -0.744 OA
ENDBRANCH  95  99
ENDBRANCH  69  92
ENDBRANCH  43  44
ENDBRANCH  35  38
ENDBRANCH  33  34
ENDBRANCH   1  33
TORSDOF 16
