REMARK SMILES Cc1cccc(C[NH2+]Cc2c(C(=O)NCCCCNC(=O)c3ccc(-c4c5nc(c(-c6cc(S(=O)(=O)[O-])ccc6F)c6ccc([nH]6)c(-c6cc(S(=O)(=O)[O-])ccc6F)c6nc(c(-c7cc(S(=O)(=O)[O-])ccc7F)c7ccc4[nH]7)C=C6)C=C5)cc3)c(C)n(Cc3cccc(F)c3)c2C)c1
REMARK SMILES IDX 16 1 15 2 14 3 12 4 13 5 11 7 10 8 96 9 85 10 87 11 97 12
REMARK SMILES IDX 86 13 9 14 8 15 7 18 6 19 1 20 2 21 3 22 98 23 4 24 5 25
REMARK SMILES IDX 88 26 89 27 90 28 95 29 91 30 93 31 92 32 94 33 17 34 18 35
REMARK SMILES IDX 19 36 20 37 21 39 22 40 23 41 84 42 24 43 83 44 25 45 26 46
REMARK SMILES IDX 27 47 77 48 28 49 82 50 76 51 78 52 29 53 81 54 75 55 74 56
REMARK SMILES IDX 30 58 62 59 42 60 61 61 43 62 46 63 60 64 79 65 44 66 45 67
REMARK SMILES IDX 59 69 80 70 47 71 31 72 32 73 40 74 33 75 39 76 41 77 38 78
REMARK SMILES IDX 34 79 35 80 36 81 37 82 63 83 64 84 72 85 65 86 71 87 73 88
REMARK SMILES IDX 70 89 66 90 67 91 68 92 69 93 48 94 49 95 57 96 50 97 56 98
REMARK SMILES IDX 58 99 55 100 51 101 52 102 53 103 54 104
REMARK H PARENT 14 6 8 16 8 17 19 38 78 57 46 68
REMARK Flexibility Score: inf
ROOT
ATOM      1  C   UNL     1      -5.844   4.832   0.193  1.00  0.00     0.023 C 
ENDROOT
BRANCH   1   2
ATOM      2  C   UNL     1      -5.496   5.529  -1.131  1.00  0.00     0.116 C 
BRANCH   2   3
ATOM      3  N   UNL     1      -4.849   6.803  -0.904  1.00  0.00    -0.352 N 
ATOM      4  C   UNL     1      -3.575   7.291  -0.853  1.00  0.00     0.253 C 
ATOM      5  O   UNL     1      -3.581   8.518  -0.668  1.00  0.00    -0.269 OA
ATOM      6  H   UNL     1      -5.510   7.514  -0.742  1.00  0.00     0.163 HD
BRANCH   4   7
ATOM      7  C   UNL     1      -2.284   6.555  -0.992  1.00  0.00     0.069 A 
ATOM      8  C   UNL     1      -1.872   5.148  -0.996  1.00  0.00     0.040 A 
ATOM      9  C   UNL     1      -0.475   5.137  -1.082  1.00  0.00     0.025 A 
ATOM     10  C   UNL     1      -1.083   7.289  -1.125  1.00  0.00     0.028 A 
ATOM     11  N   UNL     1      -0.041   6.415  -1.337  1.00  0.00    -0.343 N 
ATOM     12  C   UNL     1       0.468   3.986  -0.980  1.00  0.00     0.065 C 
ATOM     13  C   UNL     1      -0.888   8.778  -1.105  1.00  0.00     0.065 C 
BRANCH   8  14
ATOM     14  C   UNL     1      -2.767   3.929  -0.945  1.00  0.00     0.300 C 
BRANCH  14  15
ATOM     15  N   UNL     1      -2.086   2.637  -0.861  1.00  0.00    -0.339 N 
ATOM     16  H   UNL     1      -2.596   1.966  -1.436  1.00  0.00     0.346 HD
ATOM     17  H   UNL     1      -1.131   2.781  -1.189  1.00  0.00     0.346 HD
BRANCH  15  18
ATOM     18  C   UNL     1      -1.997   2.108   0.498  1.00  0.00     0.297 C 
BRANCH  18  19
ATOM     19  C   UNL     1      -1.223   0.803   0.465  1.00  0.00     0.006 A 
ATOM     20  C   UNL     1       2.416  -0.322   0.270  1.00  0.00     0.044 C 
ATOM     21  C   UNL     1       0.918  -0.368   0.301  1.00  0.00    -0.051 A 
ATOM     22  C   UNL     1       0.236  -1.561   0.048  1.00  0.00     0.003 A 
ATOM     23  C   UNL     1       0.178   0.794   0.550  1.00  0.00     0.013 A 
ATOM     24  C   UNL     1      -1.159  -1.578   0.006  1.00  0.00     0.001 A 
ATOM     25  C   UNL     1      -1.883  -0.401   0.197  1.00  0.00     0.009 A 
ENDBRANCH  18  19
ENDBRANCH  15  18
ENDBRANCH  14  15
ENDBRANCH   8  14
BRANCH  11  26
ATOM     26  C   UNL     1       1.335   6.775  -1.708  1.00  0.00     0.157 C 
BRANCH  26  27
ATOM     27  C   UNL     1       1.879   6.038  -2.917  1.00  0.00    -0.025 A 
ATOM     28  C   UNL     1       3.241   5.683  -2.952  1.00  0.00     0.006 A 
ATOM     29  C   UNL     1       1.066   5.691  -4.007  1.00  0.00     0.044 A 
ATOM     30  C   UNL     1       3.761   4.946  -4.018  1.00  0.00     0.003 A 
ATOM     31  C   UNL     1       1.594   4.952  -5.059  1.00  0.00     0.123 A 
ATOM     32  C   UNL     1       2.930   4.570  -5.070  1.00  0.00     0.039 A 
ATOM     33  F   UNL     1       0.802   4.592  -6.077  1.00  0.00    -0.207 F 
ENDBRANCH  26  27
ENDBRANCH  11  26
ENDBRANCH   4   7
ENDBRANCH   2   3
ENDBRANCH   1   2
BRANCH   1  34
ATOM     34  C   UNL     1      -7.124   5.340   0.857  1.00  0.00     0.023 C 
BRANCH  34  35
ATOM     35  C   UNL     1      -8.391   4.969   0.093  1.00  0.00     0.116 C 
BRANCH  35  36
ATOM     36  N   UNL     1      -9.107   3.802   0.588  1.00  0.00    -0.352 N 
ATOM     37  C   UNL     1     -10.252   3.212   0.058  1.00  0.00     0.251 C 
ATOM     38  H   UNL     1      -8.737   3.378   1.395  1.00  0.00     0.163 HD
ATOM     39  O   UNL     1     -10.808   2.283   0.607  1.00  0.00    -0.269 OA
BRANCH  37  40
ATOM     40  C   UNL     1     -10.716   3.670  -1.280  1.00  0.00     0.039 A 
ATOM     41  C   UNL     1     -10.803   2.707  -2.291  1.00  0.00     0.014 A 
ATOM     42  C   UNL     1     -10.793   5.025  -1.589  1.00  0.00     0.014 A 
ATOM     43  C   UNL     1     -10.713   3.107  -3.623  1.00  0.00     0.010 A 
ATOM     44  C   UNL     1     -10.604   5.418  -2.903  1.00  0.00     0.010 A 
ATOM     45  C   UNL     1     -10.492   4.455  -3.913  1.00  0.00    -0.014 A 
BRANCH  45  46
ATOM     46  C   UNL     1      -9.963   4.909  -5.198  1.00  0.00     0.031 A 
ATOM     47  C   UNL     1     -10.790   5.681  -6.148  1.00  0.00     0.074 A 
ATOM     48  C   UNL     1      -8.682   4.630  -5.534  1.00  0.00     0.049 A 
ATOM     49  N   UNL     1     -10.599   5.684  -7.425  1.00  0.00    -0.248 NA
ATOM     50  C   UNL     1     -11.930   6.490  -5.733  1.00  0.00     0.031 C 
ATOM     51  C   UNL     1      -7.923   5.158  -6.665  1.00  0.00     0.029 A 
ATOM     52  N   UNL     1      -7.894   3.589  -5.045  1.00  0.00    -0.354 N 
ATOM     53  C   UNL     1     -11.405   6.652  -7.970  1.00  0.00     0.074 A 
ATOM     54  C   UNL     1     -12.245   7.100  -6.881  1.00  0.00     0.031 C 
ATOM     55  C   UNL     1      -6.941   4.295  -6.966  1.00  0.00     0.029 A 
ATOM     56  C   UNL     1      -7.106   3.129  -6.119  1.00  0.00     0.049 A 
ATOM     57  H   UNL     1      -7.889   3.241  -4.124  1.00  0.00     0.167 HD
ATOM     58  C   UNL     1     -11.217   7.054  -9.258  1.00  0.00     0.034 A 
ATOM     59  C   UNL     1      -7.193   1.834  -6.540  1.00  0.00     0.034 A 
ATOM     60  C   UNL     1     -10.134   6.334  -9.918  1.00  0.00     0.049 A 
ATOM     61  C   UNL     1      -7.678   1.680  -7.970  1.00  0.00     0.074 A 
ATOM     62  C   UNL     1      -8.809   6.617 -10.202  1.00  0.00     0.029 A 
ATOM     63  N   UNL     1     -10.299   4.987 -10.176  1.00  0.00    -0.354 N 
ATOM     64  N   UNL     1      -7.997   2.671  -8.757  1.00  0.00    -0.248 NA
ATOM     65  C   UNL     1      -7.936   0.378  -8.588  1.00  0.00     0.031 C 
ATOM     66  C   UNL     1      -8.176   5.406 -10.614  1.00  0.00     0.029 A 
ATOM     67  C   UNL     1      -9.124   4.400 -10.601  1.00  0.00     0.049 A 
ATOM     68  H   UNL     1     -11.150   4.504 -10.069  1.00  0.00     0.167 HD
ATOM     69  C   UNL     1      -8.569   2.175  -9.901  1.00  0.00     0.074 A 
ATOM     70  C   UNL     1      -8.497   0.733  -9.754  1.00  0.00     0.031 C 
ATOM     71  C   UNL     1      -9.119   2.971 -10.865  1.00  0.00     0.034 A 
BRANCH  58  72
ATOM     72  C   UNL     1     -11.893   8.260  -9.851  1.00  0.00     0.023 A 
ATOM     73  C   UNL     1     -11.201   9.054 -10.785  1.00  0.00     0.031 A 
ATOM     74  C   UNL     1     -13.199   8.679  -9.533  1.00  0.00     0.131 A 
ATOM     75  C   UNL     1     -11.758  10.245 -11.283  1.00  0.00     0.055 A 
ATOM     76  C   UNL     1     -13.729   9.898  -9.976  1.00  0.00     0.041 A 
ATOM     77  F   UNL     1     -14.025   7.906  -8.811  1.00  0.00    -0.206 F 
ATOM     78  C   UNL     1     -13.001  10.696 -10.846  1.00  0.00     0.022 A 
BRANCH  75  79
ATOM     79  S   UNL     1     -10.837  11.195 -12.523  1.00  0.00     0.124 S 
ATOM     80  O   UNL     1      -9.558  11.421 -11.857  1.00  0.00    -0.237 OA
ATOM     81  O   UNL     1     -10.820  10.280 -13.658  1.00  0.00    -0.237 OA
ATOM     82  O   UNL     1     -11.655  12.393 -12.707  1.00  0.00    -0.744 OA
ENDBRANCH  75  79
ENDBRANCH  58  72
BRANCH  59  83
ATOM     83  C   UNL     1      -7.454   0.882  -5.418  1.00  0.00     0.023 A 
ATOM     84  C   UNL     1      -6.546   0.910  -4.335  1.00  0.00     0.031 A 
ATOM     85  C   UNL     1      -8.701   0.282  -5.208  1.00  0.00     0.131 A 
ATOM     86  C   UNL     1      -6.962   0.525  -3.054  1.00  0.00     0.055 A 
ATOM     87  C   UNL     1      -9.078  -0.189  -3.944  1.00  0.00     0.041 A 
ATOM     88  F   UNL     1      -9.625   0.260  -6.180  1.00  0.00    -0.206 F 
ATOM     89  C   UNL     1      -8.227  -0.023  -2.850  1.00  0.00     0.022 A 
BRANCH  86  90
ATOM     90  S   UNL     1      -5.959   1.054  -1.635  1.00  0.00     0.124 S 
ATOM     91  O   UNL     1      -4.973  -0.012  -1.525  1.00  0.00    -0.237 OA
ATOM     92  O   UNL     1      -5.438   2.348  -2.075  1.00  0.00    -0.237 OA
ATOM     93  O   UNL     1      -6.918   1.143  -0.538  1.00  0.00    -0.744 OA
ENDBRANCH  86  90
ENDBRANCH  59  83
BRANCH  71  94
ATOM     94  C   UNL     1      -9.742   2.426 -12.124  1.00  0.00     0.023 A 
ATOM     95  C   UNL     1      -9.169   1.352 -12.825  1.00  0.00     0.031 A 
ATOM     96  C   UNL     1     -10.892   3.008 -12.701  1.00  0.00     0.131 A 
ATOM     97  C   UNL     1      -9.777   0.849 -13.988  1.00  0.00     0.055 A 
ATOM     98  C   UNL     1     -11.442   2.562 -13.906  1.00  0.00     0.041 A 
ATOM     99  F   UNL     1     -11.558   4.004 -12.098  1.00  0.00    -0.206 F 
ATOM    100  C   UNL     1     -10.893   1.464 -14.550  1.00  0.00     0.022 A 
BRANCH  97 101
ATOM    101  S   UNL     1      -9.135  -0.687 -14.701  1.00  0.00     0.124 S 
ATOM    102  O   UNL     1      -7.728  -0.373 -14.922  1.00  0.00    -0.237 OA
ATOM    103  O   UNL     1      -9.411  -1.645 -13.633  1.00  0.00    -0.237 OA
ATOM    104  O   UNL     1      -9.932  -0.866 -15.912  1.00  0.00    -0.744 OA
ENDBRANCH  97 101
ENDBRANCH  71  94
ENDBRANCH  45  46
ENDBRANCH  37  40
ENDBRANCH  35  36
ENDBRANCH  34  35
ENDBRANCH   1  34
TORSDOF 20
