REMARK SMILES CCC[C@]1(C(=O)NCCCCNC(=O)c2ccc(-c3c4nc(c(-c5cc(S(=O)(=O)[O-])ccc5F)c5ccc([nH]5)c(-c5cc(S(=O)(=O)[O-])ccc5F)c5nc(c(-c6cc(S(=O)(=O)[O-])ccc6F)c6ccc3[nH]6)C=C5)C=C4)cc2)CCCN(C(=O)[C@H](C[NH3+])CC(C)C)C1
REMARK SMILES IDX 9 1 8 2 7 3 5 4 6 5 4 7 78 8 91 9 79 10 81 11 80 12 3 13
REMARK SMILES IDX 2 14 1 15 82 16 83 17 84 18 87 19 88 20 89 21 90 22 85 23
REMARK SMILES IDX 86 24 10 28 11 29 12 30 13 31 14 33 15 34 16 35 77 36 17 37
REMARK SMILES IDX 76 38 18 39 19 40 20 41 70 42 21 43 75 44 69 45 71 46 22 47
REMARK SMILES IDX 74 48 68 49 67 50 23 52 55 53 35 54 54 55 36 56 39 57 53 58
REMARK SMILES IDX 72 59 37 60 38 61 52 63 73 64 40 65 24 66 25 67 33 68 26 69
REMARK SMILES IDX 32 70 34 71 31 72 27 73 28 74 29 75 30 76 56 77 57 78 65 79
REMARK SMILES IDX 58 80 64 81 66 82 63 83 59 84 60 85 61 86 62 87 41 88 42 89
REMARK SMILES IDX 50 90 43 91 49 92 51 93 48 94 44 95 45 96 46 97 47 98
REMARK H PARENT 7 6 86 25 86 26 86 27 12 32 71 51 39 62
REMARK Flexibility Score: inf
ROOT
ATOM      1  C   UNL     1       5.326   6.128  -2.953  1.00  0.00     0.023 C 
ENDROOT
BRANCH   1   2
ATOM      2  C   UNL     1       4.804   4.709  -2.740  1.00  0.00     0.116 C 
BRANCH   2   3
ATOM      3  N   UNL     1       5.627   3.716  -3.412  1.00  0.00    -0.356 N 
ATOM      4  C   UNL     1       6.480   2.759  -2.936  1.00  0.00     0.228 C 
ATOM      5  O   UNL     1       7.062   2.078  -3.785  1.00  0.00    -0.274 OA
ATOM      6  H   UNL     1       5.556   3.736  -4.393  1.00  0.00     0.163 HD
BRANCH   4   7
ATOM      7  C   UNL     1       6.704   2.534  -1.421  1.00  0.00     0.067 C 
ATOM      8  C   UNL     1       7.270   3.825  -0.776  1.00  0.00     0.020 C 
ATOM      9  C   UNL     1       5.337   2.073  -0.817  1.00  0.00     0.136 C 
ATOM     10  C   UNL     1       7.047   3.906   0.730  1.00  0.00     0.023 C 
ATOM     11  N   UNL     1       5.256   2.276   0.642  1.00  0.00    -0.341 N 
ATOM     12  C   UNL     1       5.582   3.643   1.028  1.00  0.00     0.119 C 
BRANCH   7  13
ATOM     13  C   UNL     1       7.678   1.321  -1.194  1.00  0.00     0.018 C 
BRANCH  13  14
ATOM     14  C   UNL     1       9.175   1.518  -1.482  1.00  0.00    -0.002 C 
ATOM     15  C   UNL     1       9.991   1.881  -0.245  1.00  0.00     0.004 C 
ENDBRANCH  13  14
ENDBRANCH   7  13
BRANCH  11  16
ATOM     16  C   UNL     1       4.810   1.216   1.416  1.00  0.00     0.231 C 
ATOM     17  O   UNL     1       4.375   0.211   0.831  1.00  0.00    -0.274 OA
BRANCH  16  18
ATOM     18  C   UNL     1       4.971   1.108   2.963  1.00  0.00     0.133 C 
BRANCH  18  19
ATOM     19  C   UNL     1       5.154   2.392   3.782  1.00  0.00     0.022 C 
BRANCH  19  20
ATOM     20  C   UNL     1       5.273   2.310   5.315  1.00  0.00    -0.016 C 
ATOM     21  C   UNL     1       6.573   1.630   5.744  1.00  0.00     0.007 C 
ATOM     22  C   UNL     1       5.229   3.734   5.886  1.00  0.00     0.007 C 
ENDBRANCH  19  20
ENDBRANCH  18  19
BRANCH  18  23
ATOM     23  C   UNL     1       3.784   0.261   3.504  1.00  0.00     0.272 C 
BRANCH  23  24
ATOM     24  N   UNL     1       4.185  -0.652   4.582  1.00  0.00    -0.357 N 
ATOM     25  H   UNL     1       4.878  -1.312   4.229  1.00  0.00     0.344 HD
ATOM     26  H   UNL     1       3.368  -1.162   4.917  1.00  0.00     0.344 HD
ATOM     27  H   UNL     1       4.588  -0.115   5.350  1.00  0.00     0.344 HD
ENDBRANCH  23  24
ENDBRANCH  18  23
ENDBRANCH  16  18
ENDBRANCH  11  16
ENDBRANCH   4   7
ENDBRANCH   2   3
ENDBRANCH   1   2
BRANCH   1  28
ATOM     28  C   UNL     1       4.949   6.739  -4.297  1.00  0.00     0.023 C 
BRANCH  28  29
ATOM     29  C   UNL     1       3.452   6.811  -4.571  1.00  0.00     0.116 C 
BRANCH  29  30
ATOM     30  N   UNL     1       2.709   7.519  -3.539  1.00  0.00    -0.352 N 
ATOM     31  C   UNL     1       1.638   8.370  -3.697  1.00  0.00     0.251 C 
ATOM     32  H   UNL     1       3.010   7.373  -2.613  1.00  0.00     0.163 HD
ATOM     33  O   UNL     1       1.193   8.986  -2.739  1.00  0.00    -0.269 OA
BRANCH  31  34
ATOM     34  C   UNL     1       1.072   8.550  -5.050  1.00  0.00     0.039 A 
ATOM     35  C   UNL     1       0.905   9.844  -5.547  1.00  0.00     0.014 A 
ATOM     36  C   UNL     1       0.776   7.439  -5.844  1.00  0.00     0.014 A 
ATOM     37  C   UNL     1       0.502  10.021  -6.871  1.00  0.00     0.010 A 
ATOM     38  C   UNL     1       0.454   7.618  -7.183  1.00  0.00     0.010 A 
ATOM     39  C   UNL     1       0.308   8.911  -7.710  1.00  0.00    -0.014 A 
BRANCH  39  40
ATOM     40  C   UNL     1      -0.076   9.077  -9.134  1.00  0.00     0.031 A 
ATOM     41  C   UNL     1      -1.403   8.555  -9.612  1.00  0.00     0.074 A 
ATOM     42  C   UNL     1       0.790   9.635 -10.002  1.00  0.00     0.049 A 
ATOM     43  N   UNL     1      -1.896   8.526 -10.823  1.00  0.00    -0.248 NA
ATOM     44  C   UNL     1      -2.275   7.948  -8.594  1.00  0.00     0.031 C 
ATOM     45  C   UNL     1       2.127  10.131  -9.665  1.00  0.00     0.029 A 
ATOM     46  N   UNL     1       0.682   9.870 -11.350  1.00  0.00    -0.354 N 
ATOM     47  C   UNL     1      -3.125   7.884 -10.716  1.00  0.00     0.074 A 
ATOM     48  C   UNL     1      -3.266   7.478  -9.334  1.00  0.00     0.031 C 
ATOM     49  C   UNL     1       2.701  10.636 -10.769  1.00  0.00     0.029 A 
ATOM     50  C   UNL     1       1.794  10.464 -11.900  1.00  0.00     0.049 A 
ATOM     51  H   UNL     1      -0.118   9.636 -11.874  1.00  0.00     0.167 HD
ATOM     52  C   UNL     1      -4.062   7.678 -11.675  1.00  0.00     0.034 A 
ATOM     53  C   UNL     1       2.054  10.823 -13.173  1.00  0.00     0.034 A 
ATOM     54  C   UNL     1      -3.911   8.108 -13.043  1.00  0.00     0.049 A 
ATOM     55  C   UNL     1       0.997  10.588 -14.222  1.00  0.00     0.074 A 
ATOM     56  C   UNL     1      -4.812   7.999 -14.087  1.00  0.00     0.029 A 
ATOM     57  N   UNL     1      -2.780   8.729 -13.559  1.00  0.00    -0.354 N 
ATOM     58  N   UNL     1      -0.183  10.026 -14.095  1.00  0.00    -0.248 NA
ATOM     59  C   UNL     1       1.300  11.052 -15.582  1.00  0.00     0.031 C 
ATOM     60  C   UNL     1      -4.206   8.500 -15.245  1.00  0.00     0.029 A 
ATOM     61  C   UNL     1      -2.953   8.989 -14.910  1.00  0.00     0.049 A 
ATOM     62  H   UNL     1      -1.973   8.952 -13.041  1.00  0.00     0.167 HD
ATOM     63  C   UNL     1      -0.775  10.100 -15.353  1.00  0.00     0.074 A 
ATOM     64  C   UNL     1       0.173  10.773 -16.218  1.00  0.00     0.031 C 
ATOM     65  C   UNL     1      -1.994   9.657 -15.758  1.00  0.00     0.034 A 
BRANCH  52  66
ATOM     66  C   UNL     1      -5.314   6.937 -11.268  1.00  0.00     0.023 A 
ATOM     67  C   UNL     1      -6.189   7.448 -10.292  1.00  0.00     0.031 A 
ATOM     68  C   UNL     1      -5.617   5.684 -11.828  1.00  0.00     0.131 A 
ATOM     69  C   UNL     1      -7.269   6.674  -9.843  1.00  0.00     0.055 A 
ATOM     70  C   UNL     1      -6.744   4.956 -11.440  1.00  0.00     0.041 A 
ATOM     71  F   UNL     1      -4.810   5.133 -12.749  1.00  0.00    -0.206 F 
ATOM     72  C   UNL     1      -7.568   5.442 -10.428  1.00  0.00     0.022 A 
BRANCH  69  73
ATOM     73  S   UNL     1      -8.178   7.229  -8.375  1.00  0.00     0.124 S 
ATOM     74  O   UNL     1      -7.118   7.271  -7.370  1.00  0.00    -0.237 OA
ATOM     75  O   UNL     1      -8.707   8.520  -8.800  1.00  0.00    -0.237 OA
ATOM     76  O   UNL     1      -9.176   6.180  -8.173  1.00  0.00    -0.744 OA
ENDBRANCH  69  73
ENDBRANCH  52  66
BRANCH  53  77
ATOM     77  C   UNL     1       3.359  11.447 -13.532  1.00  0.00     0.023 A 
ATOM     78  C   UNL     1       3.425  12.773 -13.987  1.00  0.00     0.031 A 
ATOM     79  C   UNL     1       4.556  10.713 -13.463  1.00  0.00     0.131 A 
ATOM     80  C   UNL     1       4.653  13.311 -14.402  1.00  0.00     0.055 A 
ATOM     81  C   UNL     1       5.784  11.268 -13.830  1.00  0.00     0.041 A 
ATOM     82  F   UNL     1       4.550   9.443 -13.026  1.00  0.00    -0.206 F 
ATOM     83  C   UNL     1       5.835  12.571 -14.316  1.00  0.00     0.022 A 
BRANCH  80  84
ATOM     84  S   UNL     1       4.672  14.971 -15.134  1.00  0.00     0.124 S 
ATOM     85  O   UNL     1       3.758  14.810 -16.259  1.00  0.00    -0.237 OA
ATOM     86  O   UNL     1       4.191  15.793 -14.028  1.00  0.00    -0.237 OA
ATOM     87  O   UNL     1       6.075  15.169 -15.491  1.00  0.00    -0.744 OA
ENDBRANCH  80  84
ENDBRANCH  53  77
BRANCH  65  88
ATOM     88  C   UNL     1      -2.383   9.940 -17.188  1.00  0.00     0.023 A 
ATOM     89  C   UNL     1      -1.722   9.336 -18.270  1.00  0.00     0.031 A 
ATOM     90  C   UNL     1      -3.425  10.843 -17.468  1.00  0.00     0.131 A 
ATOM     91  C   UNL     1      -2.069   9.687 -19.584  1.00  0.00     0.055 A 
ATOM     92  C   UNL     1      -3.806  11.142 -18.776  1.00  0.00     0.041 A 
ATOM     93  F   UNL     1      -4.090  11.449 -16.471  1.00  0.00    -0.206 F 
ATOM     94  C   UNL     1      -3.117  10.573 -19.843  1.00  0.00     0.022 A 
BRANCH  91  95
ATOM     95  S   UNL     1      -1.066   9.042 -20.951  1.00  0.00     0.124 S 
ATOM     96  O   UNL     1       0.267   9.522 -20.602  1.00  0.00    -0.237 OA
ATOM     97  O   UNL     1      -1.275   7.602 -20.838  1.00  0.00    -0.237 OA
ATOM     98  O   UNL     1      -1.659   9.663 -22.134  1.00  0.00    -0.744 OA
ENDBRANCH  91  95
ENDBRANCH  65  88
ENDBRANCH  39  40
ENDBRANCH  31  34
ENDBRANCH  29  30
ENDBRANCH  28  29
ENDBRANCH   1  28
TORSDOF 22
