REMARK SMILES Nc1ccc(C(=O)NC[C@@H]2CC[C@@H](C(=O)NCCCCNC(=O)c3ccc(-c4c5nc(c(-c6cc(S(=O)(=O)[O-])ccc6F)c6ccc([nH]6)c(-c6cc(S(=O)(=O)[O-])ccc6F)c6nc(c(-c7cc(S(=O)(=O)[O-])ccc7F)c7ccc4[nH]7)C=C6)C=C5)cc3)O2)cc1Cl
REMARK SMILES IDX 18 1 17 2 16 3 14 4 15 5 13 7 10 8 11 9 87 10 12 11 9 12
REMARK SMILES IDX 8 13 6 14 7 15 5 17 2 18 3 19 89 20 4 21 88 22 90 23 1 24
REMARK SMILES IDX 19 27 20 28 21 29 22 30 23 32 24 33 25 34 86 35 26 36 85 37
REMARK SMILES IDX 27 38 28 39 29 40 79 41 30 42 84 43 78 44 80 45 31 46 83 47
REMARK SMILES IDX 77 48 76 49 32 51 64 52 44 53 63 54 45 55 48 56 62 57 81 58
REMARK SMILES IDX 46 59 47 60 61 62 82 63 49 64 33 65 34 66 42 67 35 68 41 69
REMARK SMILES IDX 43 70 40 71 36 72 37 73 38 74 39 75 65 76 66 77 74 78 67 79
REMARK SMILES IDX 73 80 75 81 72 82 68 83 69 84 70 85 71 86 50 87 51 88 59 89
REMARK SMILES IDX 52 90 58 91 60 92 57 93 53 94 54 95 55 96 56 97
REMARK H PARENT 16 6 8 16 1 25 1 26 21 31 80 50 48 61
REMARK Flexibility Score: inf
ROOT
ATOM      1  C   UNL     1       4.468  -4.039  -2.681  1.00  0.00     0.023 C 
ENDROOT
BRANCH   1   2
ATOM      2  C   UNL     1       5.373  -2.885  -2.262  1.00  0.00     0.116 C 
BRANCH   2   3
ATOM      3  N   UNL     1       6.125  -2.337  -3.374  1.00  0.00    -0.354 N 
ATOM      4  C   UNL     1       6.194  -1.044  -3.810  1.00  0.00     0.249 C 
ATOM      5  O   UNL     1       6.929  -0.796  -4.768  1.00  0.00    -0.272 OA
ATOM      6  H   UNL     1       6.660  -2.987  -3.885  1.00  0.00     0.163 HD
BRANCH   4   7
ATOM      7  C   UNL     1       5.305   0.030  -3.152  1.00  0.00     0.207 C 
ATOM      8  C   UNL     1       5.769   1.355  -1.280  1.00  0.00     0.138 C 
ATOM      9  C   UNL     1       5.357   2.283  -2.409  1.00  0.00     0.037 C 
ATOM     10  O   UNL     1       5.370   0.047  -1.715  1.00  0.00    -0.363 OA
ATOM     11  C   UNL     1       5.675   1.437  -3.617  1.00  0.00     0.045 C 
BRANCH   8  12
ATOM     12  C   UNL     1       5.210   1.662   0.121  1.00  0.00     0.148 C 
BRANCH  12  13
ATOM     13  N   UNL     1       4.079   2.576   0.140  1.00  0.00    -0.349 N 
ATOM     14  C   UNL     1       2.719   2.473   0.072  1.00  0.00     0.251 C 
ATOM     15  O   UNL     1       2.113   3.549   0.074  1.00  0.00    -0.269 OA
ATOM     16  H   UNL     1       4.369   3.513   0.224  1.00  0.00     0.163 HD
BRANCH  14  17
ATOM     17  C   UNL     1       1.922   1.212   0.009  1.00  0.00     0.041 A 
ATOM     18  C   UNL     1       0.176  -1.040  -0.041  1.00  0.00     0.050 A 
ATOM     19  C   UNL     1       1.562  -1.193  -0.123  1.00  0.00     0.028 A 
ATOM     20  C   UNL     1      -0.332   0.265   0.014  1.00  0.00     0.064 A 
ATOM     21  C   UNL     1       2.426  -0.084  -0.094  1.00  0.00     0.016 A 
ATOM     22  C   UNL     1       0.524   1.368   0.051  1.00  0.00     0.036 A 
ATOM     23  Cl  UNL     1      -2.040   0.548   0.061  1.00  0.00    -0.082 Cl
BRANCH  18  24
ATOM     24  N   UNL     1      -0.649  -2.154  -0.139  1.00  0.00    -0.398 N 
ATOM     25  H   UNL     1      -0.256  -3.056  -0.175  1.00  0.00     0.156 HD
ATOM     26  H   UNL     1      -1.627  -2.041  -0.173  1.00  0.00     0.156 HD
ENDBRANCH  18  24
ENDBRANCH  14  17
ENDBRANCH  12  13
ENDBRANCH   8  12
ENDBRANCH   4   7
ENDBRANCH   2   3
ENDBRANCH   1   2
BRANCH   1  27
ATOM     27  C   UNL     1       5.184  -5.248  -3.282  1.00  0.00     0.023 C 
BRANCH  27  28
ATOM     28  C   UNL     1       6.302  -5.841  -2.431  1.00  0.00     0.116 C 
BRANCH  28  29
ATOM     29  N   UNL     1       5.841  -6.301  -1.131  1.00  0.00    -0.352 N 
ATOM     30  C   UNL     1       5.998  -7.530  -0.529  1.00  0.00     0.251 C 
ATOM     31  H   UNL     1       5.343  -5.636  -0.603  1.00  0.00     0.163 HD
ATOM     32  O   UNL     1       5.402  -7.772   0.511  1.00  0.00    -0.269 OA
BRANCH  30  33
ATOM     33  C   UNL     1       6.855  -8.560  -1.163  1.00  0.00     0.039 A 
ATOM     34  C   UNL     1       6.383  -9.873  -1.244  1.00  0.00     0.014 A 
ATOM     35  C   UNL     1       8.108  -8.234  -1.687  1.00  0.00     0.014 A 
ATOM     36  C   UNL     1       7.135 -10.839  -1.918  1.00  0.00     0.010 A 
ATOM     37  C   UNL     1       8.817  -9.177  -2.427  1.00  0.00     0.010 A 
ATOM     38  C   UNL     1       8.338 -10.490  -2.553  1.00  0.00    -0.014 A 
BRANCH  38  39
ATOM     39  C   UNL     1       9.106 -11.480  -3.356  1.00  0.00     0.031 A 
ATOM     40  C   UNL     1      10.502 -11.866  -2.947  1.00  0.00     0.074 A 
ATOM     41  C   UNL     1       8.576 -11.977  -4.491  1.00  0.00     0.049 A 
ATOM     42  N   UNL     1      11.362 -12.640  -3.559  1.00  0.00    -0.248 NA
ATOM     43  C   UNL     1      11.005 -11.274  -1.700  1.00  0.00     0.031 C 
ATOM     44  C   UNL     1       7.252 -11.644  -5.020  1.00  0.00     0.029 A 
ATOM     45  N   UNL     1       9.090 -12.855  -5.413  1.00  0.00    -0.354 N 
ATOM     46  C   UNL     1      12.512 -12.620  -2.777  1.00  0.00     0.074 A 
ATOM     47  C   UNL     1      12.260 -11.696  -1.691  1.00  0.00     0.031 C 
ATOM     48  C   UNL     1       7.052 -12.322  -6.162  1.00  0.00     0.029 A 
ATOM     49  C   UNL     1       8.247 -13.100  -6.473  1.00  0.00     0.049 A 
ATOM     50  H   UNL     1       9.978 -13.271  -5.324  1.00  0.00     0.167 HD
ATOM     51  C   UNL     1      13.661 -13.325  -2.934  1.00  0.00     0.034 A 
ATOM     52  C   UNL     1       8.421 -13.850  -7.579  1.00  0.00     0.034 A 
ATOM     53  C   UNL     1      13.896 -14.240  -4.027  1.00  0.00     0.049 A 
ATOM     54  C   UNL     1       9.715 -14.602  -7.755  1.00  0.00     0.074 A 
ATOM     55  C   UNL     1      15.001 -15.041  -4.260  1.00  0.00     0.029 A 
ATOM     56  N   UNL     1      13.017 -14.467  -5.080  1.00  0.00    -0.354 N 
ATOM     57  N   UNL     1      10.775 -14.615  -6.980  1.00  0.00    -0.248 NA
ATOM     58  C   UNL     1       9.830 -15.450  -8.948  1.00  0.00     0.031 C 
ATOM     59  C   UNL     1      14.822 -15.693  -5.486  1.00  0.00     0.029 A 
ATOM     60  C   UNL     1      13.568 -15.368  -5.979  1.00  0.00     0.049 A 
ATOM     61  H   UNL     1      12.130 -14.049  -5.173  1.00  0.00     0.167 HD
ATOM     62  C   UNL     1      11.674 -15.493  -7.580  1.00  0.00     0.074 A 
ATOM     63  C   UNL     1      11.024 -15.999  -8.772  1.00  0.00     0.031 C 
ATOM     64  C   UNL     1      12.920 -15.852  -7.177  1.00  0.00     0.034 A 
BRANCH  51  65
ATOM     65  C   UNL     1      14.751 -13.104  -1.909  1.00  0.00     0.023 A 
ATOM     66  C   UNL     1      14.543 -13.372  -0.544  1.00  0.00     0.031 A 
ATOM     67  C   UNL     1      15.994 -12.566  -2.287  1.00  0.00     0.131 A 
ATOM     68  C   UNL     1      15.514 -13.006   0.400  1.00  0.00     0.055 A 
ATOM     69  C   UNL     1      16.996 -12.295  -1.351  1.00  0.00     0.041 A 
ATOM     70  F   UNL     1      16.250 -12.270  -3.571  1.00  0.00    -0.206 F 
ATOM     71  C   UNL     1      16.750 -12.494   0.004  1.00  0.00     0.022 A 
BRANCH  68  72
ATOM     72  S   UNL     1      15.061 -13.034   2.157  1.00  0.00     0.124 S 
ATOM     73  O   UNL     1      13.893 -12.156   2.174  1.00  0.00    -0.237 OA
ATOM     74  O   UNL     1      14.801 -14.449   2.393  1.00  0.00    -0.237 OA
ATOM     75  O   UNL     1      16.244 -12.495   2.825  1.00  0.00    -0.744 OA
ENDBRANCH  68  72
ENDBRANCH  51  65
BRANCH  52  76
ATOM     76  C   UNL     1       7.350 -13.913  -8.614  1.00  0.00     0.023 A 
ATOM     77  C   UNL     1       6.655 -15.105  -8.871  1.00  0.00     0.031 A 
ATOM     78  C   UNL     1       7.014 -12.776  -9.372  1.00  0.00     0.131 A 
ATOM     79  C   UNL     1       5.684 -15.143  -9.884  1.00  0.00     0.055 A 
ATOM     80  C   UNL     1       6.013 -12.807 -10.344  1.00  0.00     0.041 A 
ATOM     81  F   UNL     1       7.643 -11.609  -9.160  1.00  0.00    -0.206 F 
ATOM     82  C   UNL     1       5.348 -13.999 -10.612  1.00  0.00     0.022 A 
BRANCH  79  83
ATOM     83  S   UNL     1       4.902 -16.731 -10.281  1.00  0.00     0.124 S 
ATOM     84  O   UNL     1       6.053 -17.539 -10.671  1.00  0.00    -0.237 OA
ATOM     85  O   UNL     1       4.270 -17.083  -9.014  1.00  0.00    -0.237 OA
ATOM     86  O   UNL     1       3.979 -16.395 -11.363  1.00  0.00    -0.744 OA
ENDBRANCH  79  83
ENDBRANCH  52  76
BRANCH  64  87
ATOM     87  C   UNL     1      13.645 -16.876  -8.019  1.00  0.00     0.023 A 
ATOM     88  C   UNL     1      14.060 -16.598  -9.333  1.00  0.00     0.031 A 
ATOM     89  C   UNL     1      13.918 -18.153  -7.497  1.00  0.00     0.131 A 
ATOM     90  C   UNL     1      14.676 -17.601 -10.099  1.00  0.00     0.055 A 
ATOM     91  C   UNL     1      14.587 -19.126  -8.241  1.00  0.00     0.041 A 
ATOM     92  F   UNL     1      13.541 -18.476  -6.249  1.00  0.00    -0.206 F 
ATOM     93  C   UNL     1      14.958 -18.856  -9.555  1.00  0.00     0.022 A 
BRANCH  90  94
ATOM     94  S   UNL     1      15.020 -17.274 -11.850  1.00  0.00     0.124 S 
ATOM     95  O   UNL     1      13.691 -16.965 -12.367  1.00  0.00    -0.237 OA
ATOM     96  O   UNL     1      15.954 -16.155 -11.781  1.00  0.00    -0.237 OA
ATOM     97  O   UNL     1      15.594 -18.531 -12.327  1.00  0.00    -0.744 OA
ENDBRANCH  90  94
ENDBRANCH  64  87
ENDBRANCH  38  39
ENDBRANCH  30  33
ENDBRANCH  28  29
ENDBRANCH  27  28
ENDBRANCH   1  27
TORSDOF 18
