REMARK SMILES Cc1cc(S(=O)(=O)Nc2ccc(Cl)cc2F)ccc1OCC(=O)NCCCCNC(=O)c1ccc(-c2c3nc(c(-c4cc(S(=O)(=O)[O-])ccc4F)c4ccc([nH]4)c(-c4cc(S(=O)(=O)[O-])ccc4F)c4nc(c(-c5cc(S(=O)(=O)[O-])ccc5F)c5ccc2[nH]5)C=C4)C=C3)cc1
REMARK SMILES IDX 25 1 24 2 22 3 23 4 21 6 20 7 19 8 1 9 2 10 3 11 4 12 18 13
REMARK SMILES IDX 17 14 5 15 6 16 7 17 8 18 9 20 10 21 15 22 11 23 14 24 16 25
REMARK SMILES IDX 12 26 13 27 26 28 27 29 28 30 29 31 30 32 31 34 32 35 33 36
REMARK SMILES IDX 94 37 34 38 93 39 35 40 36 41 37 42 87 43 38 44 92 45 86 46
REMARK SMILES IDX 88 47 39 48 91 49 85 50 84 51 40 53 72 54 52 55 71 56 53 57
REMARK SMILES IDX 56 58 70 59 89 60 54 61 55 62 69 64 90 65 57 66 41 67 42 68
REMARK SMILES IDX 50 69 43 70 49 71 51 72 48 73 44 74 45 75 46 76 47 77 73 78
REMARK SMILES IDX 74 79 82 80 75 81 81 82 83 83 80 84 76 85 77 86 78 87 79 88
REMARK SMILES IDX 58 89 59 90 67 91 60 92 66 93 68 94 65 95 61 96 62 97 63 98
REMARK SMILES IDX 64 99
REMARK H PARENT 24 5 8 19 29 33 88 52 56 63
REMARK Flexibility Score: inf
ROOT
ATOM      1  C   UNL     1       1.397   3.716   2.658  1.00  0.00     0.116 C 
ENDROOT
BRANCH   1   2
ATOM      2  N   UNL     1       2.402   2.666   2.576  1.00  0.00    -0.353 N 
ATOM      3  C   UNL     1       2.954   2.076   1.478  1.00  0.00     0.257 C 
ATOM      4  O   UNL     1       3.858   1.253   1.643  1.00  0.00    -0.271 OA
ATOM      5  H   UNL     1       2.731   2.332   3.442  1.00  0.00     0.163 HD
BRANCH   3   6
ATOM      6  C   UNL     1       2.487   2.474   0.076  1.00  0.00     0.329 C 
BRANCH   6   7
ATOM      7  O   UNL     1       1.151   2.229  -0.310  1.00  0.00    -0.484 OA
BRANCH   7   8
ATOM      8  C   UNL     1       0.581   1.006  -0.113  1.00  0.00     0.123 A 
ATOM      9  C   UNL     1       2.526  -0.551  -0.777  1.00  0.00     0.048 C 
ATOM     10  C   UNL     1       1.110  -0.264  -0.371  1.00  0.00    -0.008 A 
ATOM     11  C   UNL     1       0.251  -1.381  -0.253  1.00  0.00     0.029 A 
ATOM     12  C   UNL     1      -1.086  -1.250   0.150  1.00  0.00     0.088 A 
ATOM     13  C   UNL     1      -0.753   1.113   0.305  1.00  0.00     0.048 A 
ATOM     14  C   UNL     1      -1.555  -0.004   0.525  1.00  0.00     0.026 A 
BRANCH  12  15
ATOM     15  S   UNL     1      -2.114  -2.692  -0.016  1.00  0.00     0.262 S 
ATOM     16  O   UNL     1      -1.946  -3.197  -1.360  1.00  0.00    -0.201 OA
ATOM     17  O   UNL     1      -1.805  -3.537   1.124  1.00  0.00    -0.201 OA
BRANCH  15  18
ATOM     18  N   UNL     1      -3.739  -2.326   0.198  1.00  0.00    -0.277 N 
ATOM     19  H   UNL     1      -4.302  -3.012   0.623  1.00  0.00     0.180 HD
BRANCH  18  20
ATOM     20  C   UNL     1      -4.373  -1.109  -0.182  1.00  0.00     0.085 A 
ATOM     21  C   UNL     1      -5.307  -0.607   0.734  1.00  0.00     0.031 A 
ATOM     22  C   UNL     1      -4.081  -0.361  -1.329  1.00  0.00     0.148 A 
ATOM     23  C   UNL     1      -5.845   0.669   0.569  1.00  0.00     0.023 A 
ATOM     24  C   UNL     1      -4.610   0.919  -1.496  1.00  0.00     0.062 A 
ATOM     25  F   UNL     1      -3.215  -0.816  -2.244  1.00  0.00    -0.205 F 
ATOM     26  C   UNL     1      -5.476   1.436  -0.534  1.00  0.00     0.044 A 
ATOM     27  Cl  UNL     1      -6.084   3.036  -0.691  1.00  0.00    -0.084 Cl
ENDBRANCH  18  20
ENDBRANCH  15  18
ENDBRANCH  12  15
ENDBRANCH   7   8
ENDBRANCH   6   7
ENDBRANCH   3   6
ENDBRANCH   1   2
BRANCH   1  28
ATOM     28  C   UNL     1       0.033   3.215   3.150  1.00  0.00     0.023 C 
BRANCH  28  29
ATOM     29  C   UNL     1       0.038   2.335   4.398  1.00  0.00     0.023 C 
BRANCH  29  30
ATOM     30  C   UNL     1       0.549   3.037   5.641  1.00  0.00     0.116 C 
BRANCH  30  31
ATOM     31  N   UNL     1      -0.459   3.739   6.417  1.00  0.00    -0.352 N 
ATOM     32  C   UNL     1      -0.306   4.516   7.558  1.00  0.00     0.251 C 
ATOM     33  H   UNL     1      -1.383   3.651   6.087  1.00  0.00     0.163 HD
ATOM     34  O   UNL     1      -1.287   4.869   8.191  1.00  0.00    -0.269 OA
BRANCH  32  35
ATOM     35  C   UNL     1       1.046   5.007   7.944  1.00  0.00     0.039 A 
ATOM     36  C   UNL     1       1.168   6.337   8.373  1.00  0.00     0.014 A 
ATOM     37  C   UNL     1       2.188   4.254   7.707  1.00  0.00     0.014 A 
ATOM     38  C   UNL     1       2.415   6.964   8.335  1.00  0.00     0.010 A 
ATOM     39  C   UNL     1       3.390   4.901   7.534  1.00  0.00     0.010 A 
ATOM     40  C   UNL     1       3.497   6.265   7.810  1.00  0.00    -0.014 A 
BRANCH  40  41
ATOM     41  C   UNL     1       4.759   6.865   7.404  1.00  0.00     0.031 A 
ATOM     42  C   UNL     1       6.008   6.547   8.128  1.00  0.00     0.074 A 
ATOM     43  C   UNL     1       4.808   7.553   6.242  1.00  0.00     0.049 A 
ATOM     44  N   UNL     1       7.086   7.245   8.042  1.00  0.00    -0.248 NA
ATOM     45  C   UNL     1       6.136   5.414   9.040  1.00  0.00     0.031 C 
ATOM     46  C   UNL     1       5.993   7.893   5.460  1.00  0.00     0.029 A 
ATOM     47  N   UNL     1       3.779   8.278   5.645  1.00  0.00    -0.354 N 
ATOM     48  C   UNL     1       8.103   6.524   8.622  1.00  0.00     0.074 A 
ATOM     49  C   UNL     1       7.451   5.419   9.282  1.00  0.00     0.031 C 
ATOM     50  C   UNL     1       5.704   8.929   4.659  1.00  0.00     0.029 A 
ATOM     51  C   UNL     1       4.374   9.387   5.015  1.00  0.00     0.049 A 
ATOM     52  H   UNL     1       2.820   8.057   5.660  1.00  0.00     0.167 HD
ATOM     53  C   UNL     1       9.395   6.871   8.364  1.00  0.00     0.034 A 
ATOM     54  C   UNL     1       4.064  10.659   5.403  1.00  0.00     0.034 A 
ATOM     55  C   UNL     1       9.466   8.043   7.496  1.00  0.00     0.049 A 
ATOM     56  C   UNL     1       5.251  11.436   5.928  1.00  0.00     0.074 A 
ATOM     57  C   UNL     1       9.684   8.198   6.137  1.00  0.00     0.029 A 
ATOM     58  N   UNL     1       9.011   9.267   7.966  1.00  0.00    -0.354 N 
ATOM     59  N   UNL     1       6.373  10.890   6.311  1.00  0.00    -0.248 NA
ATOM     60  C   UNL     1       5.271  12.888   6.057  1.00  0.00     0.031 C 
ATOM     61  C   UNL     1       9.320   9.524   5.785  1.00  0.00     0.029 A 
ATOM     62  C   UNL     1       8.910  10.178   6.934  1.00  0.00     0.049 A 
ATOM     63  H   UNL     1       8.791   9.459   8.906  1.00  0.00     0.167 HD
ATOM     64  C   UNL     1       7.248  11.863   6.731  1.00  0.00     0.074 A 
ATOM     65  C   UNL     1       6.510  13.100   6.537  1.00  0.00     0.031 C 
ATOM     66  C   UNL     1       8.495  11.548   7.202  1.00  0.00     0.034 A 
BRANCH  53  67
ATOM     67  C   UNL     1      10.593   6.004   8.665  1.00  0.00     0.023 A 
ATOM     68  C   UNL     1      11.730   6.100   7.833  1.00  0.00     0.031 A 
ATOM     69  C   UNL     1      10.688   5.070   9.712  1.00  0.00     0.131 A 
ATOM     70  C   UNL     1      12.834   5.245   7.991  1.00  0.00     0.055 A 
ATOM     71  C   UNL     1      11.765   4.182   9.842  1.00  0.00     0.041 A 
ATOM     72  F   UNL     1       9.768   5.009  10.685  1.00  0.00    -0.206 F 
ATOM     73  C   UNL     1      12.843   4.259   8.971  1.00  0.00     0.022 A 
BRANCH  70  74
ATOM     74  S   UNL     1      14.263   5.451   6.894  1.00  0.00     0.124 S 
ATOM     75  O   UNL     1      13.677   5.226   5.577  1.00  0.00    -0.237 OA
ATOM     76  O   UNL     1      14.686   6.815   7.189  1.00  0.00    -0.237 OA
ATOM     77  O   UNL     1      15.187   4.410   7.344  1.00  0.00    -0.744 OA
ENDBRANCH  70  74
ENDBRANCH  53  67
BRANCH  54  78
ATOM     78  C   UNL     1       2.650  10.788   5.857  1.00  0.00     0.023 A 
ATOM     79  C   UNL     1       1.652  10.481   4.907  1.00  0.00     0.031 A 
ATOM     80  C   UNL     1       2.302  10.739   7.213  1.00  0.00     0.131 A 
ATOM     81  C   UNL     1       0.416   9.963   5.322  1.00  0.00     0.055 A 
ATOM     82  C   UNL     1       1.038  10.289   7.622  1.00  0.00     0.041 A 
ATOM     83  F   UNL     1       3.216  10.985   8.163  1.00  0.00    -0.206 F 
ATOM     84  C   UNL     1       0.107   9.853   6.678  1.00  0.00     0.022 A 
BRANCH  81  85
ATOM     85  S   UNL     1      -0.646   9.184   4.068  1.00  0.00     0.124 S 
ATOM     86  O   UNL     1      -1.240  10.343   3.410  1.00  0.00    -0.237 OA
ATOM     87  O   UNL     1       0.314   8.421   3.272  1.00  0.00    -0.237 OA
ATOM     88  O   UNL     1      -1.567   8.366   4.852  1.00  0.00    -0.744 OA
ENDBRANCH  81  85
ENDBRANCH  54  78
BRANCH  66  89
ATOM     89  C   UNL     1       9.488  12.475   7.889  1.00  0.00     0.023 A 
ATOM     90  C   UNL     1       9.196  13.788   8.275  1.00  0.00     0.031 A 
ATOM     91  C   UNL     1      10.787  12.019   8.247  1.00  0.00     0.131 A 
ATOM     92  C   UNL     1      10.156  14.598   8.915  1.00  0.00     0.055 A 
ATOM     93  C   UNL     1      11.714  12.799   8.946  1.00  0.00     0.041 A 
ATOM     94  F   UNL     1      11.219  10.786   7.948  1.00  0.00    -0.206 F 
ATOM     95  C   UNL     1      11.406  14.106   9.275  1.00  0.00     0.022 A 
BRANCH  92  96
ATOM     96  S   UNL     1       9.743  16.335   9.218  1.00  0.00     0.124 S 
ATOM     97  O   UNL     1       9.554  16.840   7.861  1.00  0.00    -0.237 OA
ATOM     98  O   UNL     1       8.534  16.232  10.029  1.00  0.00    -0.237 OA
ATOM     99  O   UNL     1      10.917  16.854   9.916  1.00  0.00    -0.744 OA
ENDBRANCH  92  96
ENDBRANCH  66  89
ENDBRANCH  40  41
ENDBRANCH  32  35
ENDBRANCH  30  31
ENDBRANCH  29  30
ENDBRANCH  28  29
ENDBRANCH   1  28
TORSDOF 19
