REMARK SMILES Nc1nc(N2CCOC[C@H]2C(=O)NCCCCNC(=O)c2ccc(-c3c4nc(c(-c5cc(S(=O)(=O)[O-])ccc5F)c5ccc([nH]5)c(-c5cc(S(=O)(=O)[O-])ccc5F)c5nc(c(-c6cc(S(=O)(=O)[O-])ccc6F)c6ccc3[nH]6)C=C5)C=C4)cc2)ccc1[N+](=O)[O-]
REMARK SMILES IDX 16 1 15 2 14 3 13 4 11 5 12 6 10 8 5 9 6 10 7 11 9 12 8 13
REMARK SMILES IDX 4 14 2 15 3 16 86 17 85 18 84 19 1 20 87 23 88 24 89 25
REMARK SMILES IDX 17 26 18 27 19 28 20 30 21 31 22 32 83 33 23 34 82 35 24 36
REMARK SMILES IDX 25 37 26 38 76 39 27 40 81 41 75 42 77 43 28 44 80 45 74 46
REMARK SMILES IDX 73 47 29 49 61 50 41 51 60 52 42 53 45 54 59 55 78 56 43 57
REMARK SMILES IDX 44 58 58 60 79 61 46 62 30 63 31 64 39 65 32 66 38 67 40 68
REMARK SMILES IDX 37 69 33 70 34 71 35 72 36 73 62 74 63 75 71 76 64 77 70 78
REMARK SMILES IDX 72 79 69 80 65 81 66 82 67 83 68 84 47 85 48 86 56 87 49 88
REMARK SMILES IDX 55 89 57 90 54 91 50 92 51 93 52 94 53 95
REMARK H PARENT 13 7 1 21 1 22 18 29 77 48 45 59
REMARK Flexibility Score: inf
ROOT
ATOM      1  C   UNL     1      -1.517   4.673   4.704  1.00  0.00     0.023 C 
ENDROOT
BRANCH   1   2
ATOM      2  C   UNL     1      -2.001   4.005   3.420  1.00  0.00     0.023 C 
BRANCH   2   3
ATOM      3  C   UNL     1      -2.074   4.937   2.211  1.00  0.00     0.116 C 
BRANCH   3   4
ATOM      4  N   UNL     1      -0.877   4.849   1.404  1.00  0.00    -0.354 N 
ATOM      5  C   UNL     1      -0.593   4.177   0.256  1.00  0.00     0.245 C 
ATOM      6  O   UNL     1       0.558   4.349  -0.177  1.00  0.00    -0.273 OA
ATOM      7  H   UNL     1      -0.123   5.377   1.753  1.00  0.00     0.163 HD
BRANCH   5   8
ATOM      8  C   UNL     1      -1.601   3.338  -0.565  1.00  0.00     0.199 C 
ATOM      9  N   UNL     1      -2.075   2.062   0.027  1.00  0.00    -0.340 N 
ATOM     10  C   UNL     1      -3.348   2.058   0.739  1.00  0.00     0.147 C 
ATOM     11  C   UNL     1      -4.405   2.846  -0.034  1.00  0.00     0.181 C 
ATOM     12  C   UNL     1      -2.773   4.172  -1.130  1.00  0.00     0.195 C 
ATOM     13  O   UNL     1      -3.966   4.175  -0.330  1.00  0.00    -0.377 OA
BRANCH   9  14
ATOM     14  C   UNL     1      -1.280   0.938  -0.043  1.00  0.00     0.132 A 
ATOM     15  C   UNL     1       0.871  -0.015  -0.073  1.00  0.00     0.204 A 
ATOM     16  N   UNL     1       0.062   1.076  -0.058  1.00  0.00    -0.207 NA
ATOM     17  C   UNL     1       0.347  -1.303  -0.114  1.00  0.00     0.311 A 
ATOM     18  C   UNL     1      -1.037  -1.463  -0.168  1.00  0.00     0.093 A 
ATOM     19  C   UNL     1      -1.845  -0.332  -0.136  1.00  0.00     0.054 A 
BRANCH  15  20
ATOM     20  N   UNL     1       2.213   0.291  -0.141  1.00  0.00    -0.378 N 
ATOM     21  H   UNL     1       2.506   1.230  -0.105  1.00  0.00     0.158 HD
ATOM     22  H   UNL     1       2.878  -0.429  -0.225  1.00  0.00     0.158 HD
ENDBRANCH  15  20
BRANCH  17  23
ATOM     23  N   UNL     1       1.189  -2.497  -0.071  1.00  0.00     0.066 N 
ATOM     24  O   UNL     1       0.618  -3.599  -0.130  1.00  0.00    -0.258 OA
ATOM     25  O   UNL     1       2.415  -2.367   0.052  1.00  0.00    -0.258 OA
ENDBRANCH  17  23
ENDBRANCH   9  14
ENDBRANCH   5   8
ENDBRANCH   3   4
ENDBRANCH   2   3
ENDBRANCH   1   2
BRANCH   1  26
ATOM     26  C   UNL     1      -2.442   5.758   5.242  1.00  0.00     0.116 C 
BRANCH  26  27
ATOM     27  N   UNL     1      -3.797   5.300   5.513  1.00  0.00    -0.352 N 
ATOM     28  C   UNL     1      -4.660   5.722   6.504  1.00  0.00     0.251 C 
ATOM     29  H   UNL     1      -4.142   4.600   4.913  1.00  0.00     0.163 HD
ATOM     30  O   UNL     1      -5.736   5.172   6.658  1.00  0.00    -0.269 OA
BRANCH  28  31
ATOM     31  C   UNL     1      -4.227   6.820   7.397  1.00  0.00     0.039 A 
ATOM     32  C   UNL     1      -4.342   6.655   8.779  1.00  0.00     0.014 A 
ATOM     33  C   UNL     1      -3.654   7.979   6.868  1.00  0.00     0.014 A 
ATOM     34  C   UNL     1      -3.821   7.630   9.632  1.00  0.00     0.010 A 
ATOM     35  C   UNL     1      -3.053   8.899   7.717  1.00  0.00     0.010 A 
ATOM     36  C   UNL     1      -3.144   8.745   9.108  1.00  0.00    -0.014 A 
BRANCH  36  37
ATOM     37  C   UNL     1      -2.581   9.794   9.995  1.00  0.00     0.031 A 
ATOM     38  C   UNL     1      -3.121  11.198   9.912  1.00  0.00     0.074 A 
ATOM     39  C   UNL     1      -1.563   9.503  10.829  1.00  0.00     0.049 A 
ATOM     40  N   UNL     1      -2.728  12.278  10.536  1.00  0.00    -0.248 NA
ATOM     41  C   UNL     1      -4.225  11.421   8.966  1.00  0.00     0.031 C 
ATOM     42  C   UNL     1      -0.923   8.192  10.961  1.00  0.00     0.029 A 
ATOM     43  N   UNL     1      -0.888  10.291  11.726  1.00  0.00    -0.354 N 
ATOM     44  C   UNL     1      -3.526  13.308  10.046  1.00  0.00     0.074 A 
ATOM     45  C   UNL     1      -4.359  12.736   9.011  1.00  0.00     0.031 C 
ATOM     46  C   UNL     1       0.024   8.258  11.912  1.00  0.00     0.029 A 
ATOM     47  C   UNL     1       0.085   9.620  12.432  1.00  0.00     0.049 A 
ATOM     48  H   UNL     1      -1.081  11.248  11.853  1.00  0.00     0.167 HD
ATOM     49  C   UNL     1      -3.588  14.602  10.447  1.00  0.00     0.034 A 
ATOM     50  C   UNL     1       0.921  10.058  13.393  1.00  0.00     0.034 A 
ATOM     51  C   UNL     1      -2.767  15.149  11.498  1.00  0.00     0.049 A 
ATOM     52  C   UNL     1       0.826  11.499  13.832  1.00  0.00     0.074 A 
ATOM     53  C   UNL     1      -2.750  16.438  12.002  1.00  0.00     0.029 A 
ATOM     54  N   UNL     1      -1.819  14.430  12.216  1.00  0.00    -0.354 N 
ATOM     55  N   UNL     1       0.043  12.453  13.382  1.00  0.00    -0.248 NA
ATOM     56  C   UNL     1       1.711  11.914  14.928  1.00  0.00     0.031 C 
ATOM     57  C   UNL     1      -1.763  16.508  12.994  1.00  0.00     0.029 A 
ATOM     58  C   UNL     1      -1.211  15.247  13.155  1.00  0.00     0.049 A 
ATOM     59  H   UNL     1      -1.610  13.478  12.077  1.00  0.00     0.167 HD
ATOM     60  C   UNL     1       0.312  13.568  14.172  1.00  0.00     0.074 A 
ATOM     61  C   UNL     1       1.314  13.160  15.134  1.00  0.00     0.031 C 
ATOM     62  C   UNL     1      -0.219  14.817  14.111  1.00  0.00     0.034 A 
BRANCH  49  63
ATOM     63  C   UNL     1      -4.575  15.496   9.733  1.00  0.00     0.023 A 
ATOM     64  C   UNL     1      -5.957  15.233   9.765  1.00  0.00     0.031 A 
ATOM     65  C   UNL     1      -4.133  16.587   8.965  1.00  0.00     0.131 A 
ATOM     66  C   UNL     1      -6.834  15.987   8.971  1.00  0.00     0.055 A 
ATOM     67  C   UNL     1      -5.023  17.392   8.249  1.00  0.00     0.041 A 
ATOM     68  F   UNL     1      -2.825  16.876   8.877  1.00  0.00    -0.206 F 
ATOM     69  C   UNL     1      -6.380  17.083   8.234  1.00  0.00     0.022 A 
BRANCH  66  70
ATOM     70  S   UNL     1      -8.545  15.413   8.789  1.00  0.00     0.124 S 
ATOM     71  O   UNL     1      -8.350  14.099   8.181  1.00  0.00    -0.237 OA
ATOM     72  O   UNL     1      -9.028  15.415  10.165  1.00  0.00    -0.237 OA
ATOM     73  O   UNL     1      -9.151  16.414   7.913  1.00  0.00    -0.744 OA
ENDBRANCH  66  70
ENDBRANCH  49  63
BRANCH  50  74
ATOM     74  C   UNL     1       1.904   9.136  14.033  1.00  0.00     0.023 A 
ATOM     75  C   UNL     1       1.817   8.830  15.401  1.00  0.00     0.031 A 
ATOM     76  C   UNL     1       2.982   8.601  13.307  1.00  0.00     0.131 A 
ATOM     77  C   UNL     1       2.824   8.070  16.016  1.00  0.00     0.055 A 
ATOM     78  C   UNL     1       3.952   7.798  13.912  1.00  0.00     0.041 A 
ATOM     79  F   UNL     1       3.109   8.853  11.995  1.00  0.00    -0.206 F 
ATOM     80  C   UNL     1       3.885   7.543  15.279  1.00  0.00     0.022 A 
BRANCH  77  81
ATOM     81  S   UNL     1       2.780   7.870  17.819  1.00  0.00     0.124 S 
ATOM     82  O   UNL     1       2.760   9.257  18.271  1.00  0.00    -0.237 OA
ATOM     83  O   UNL     1       1.546   7.116  18.009  1.00  0.00    -0.237 OA
ATOM     84  O   UNL     1       4.009   7.135  18.109  1.00  0.00    -0.744 OA
ENDBRANCH  77  81
ENDBRANCH  50  74
BRANCH  62  85
ATOM     85  C   UNL     1       0.231  15.799  15.165  1.00  0.00     0.023 A 
ATOM     86  C   UNL     1       1.559  16.254  15.236  1.00  0.00     0.031 A 
ATOM     87  C   UNL     1      -0.678  16.254  16.137  1.00  0.00     0.131 A 
ATOM     88  C   UNL     1       1.960  17.073  16.302  1.00  0.00     0.055 A 
ATOM     89  C   UNL     1      -0.288  17.123  17.156  1.00  0.00     0.041 A 
ATOM     90  F   UNL     1      -1.959  15.853  16.116  1.00  0.00    -0.206 F 
ATOM     91  C   UNL     1       1.041  17.522  17.254  1.00  0.00     0.022 A 
BRANCH  88  92
ATOM     92  S   UNL     1       3.725  17.442  16.497  1.00  0.00     0.124 S 
ATOM     93  O   UNL     1       4.314  16.107  16.525  1.00  0.00    -0.237 OA
ATOM     94  O   UNL     1       4.009  18.238  15.307  1.00  0.00    -0.237 OA
ATOM     95  O   UNL     1       3.785  18.173  17.761  1.00  0.00    -0.744 OA
ENDBRANCH  88  92
ENDBRANCH  62  85
ENDBRANCH  36  37
ENDBRANCH  28  31
ENDBRANCH  26  27
ENDBRANCH   1  26
TORSDOF 17
