REMARK SMILES O=C(NCCCCNC(=O)[C@@H]1CC=CC[C@@H]1C(=O)Nc1ccc(O)cc1)c1ccc(-c2c3nc(c(-c4cc(S(=O)(=O)[O-])ccc4F)c4ccc([nH]4)c(-c4cc(S(=O)(=O)[O-])ccc4F)c4nc(c(-c5cc(S(=O)(=O)[O-])ccc5F)c5ccc2[nH]5)C=C4)C=C3)cc1
REMARK SMILES IDX 5 1 4 2 3 3 1 4 2 5 27 7 28 8 89 9 29 10 88 11 30 12 31 13
REMARK SMILES IDX 32 14 82 15 33 16 87 17 81 18 83 19 34 20 86 21 80 22 79 23
REMARK SMILES IDX 35 25 67 26 47 27 66 28 48 29 51 30 65 31 84 32 49 33 50 34
REMARK SMILES IDX 64 36 85 37 52 38 36 39 37 40 45 41 38 42 44 43 46 44 43 45
REMARK SMILES IDX 39 46 40 47 41 48 42 49 68 50 69 51 77 52 70 53 76 54 78 55
REMARK SMILES IDX 75 56 71 57 72 58 73 59 74 60 53 61 54 62 62 63 55 64 61 65
REMARK SMILES IDX 63 66 60 67 56 68 57 69 58 70 59 71 6 72 7 73 8 74 9 75
REMARK SMILES IDX 10 77 11 78 12 79 16 80 13 81 15 82 14 83 17 84 18 85 19 86
REMARK SMILES IDX 20 88 21 89 26 90 22 91 25 92 23 93 24 94
REMARK H PARENT 3 6 83 24 51 35 8 76 19 87 24 95
REMARK Flexibility Score: inf
ROOT
ATOM      1  C   UNL     1       7.437  -1.226  11.563  1.00  0.00     0.023 C 
ENDROOT
BRANCH   1   2
ATOM      2  C   UNL     1       8.812  -1.236  12.216  1.00  0.00     0.116 C 
BRANCH   2   3
ATOM      3  N   UNL     1       9.286   0.085  12.605  1.00  0.00    -0.352 N 
ATOM      4  O   UNL     1      10.488   1.549  13.837  1.00  0.00    -0.269 OA
ATOM      5  C   UNL     1      10.242   0.392  13.547  1.00  0.00     0.251 C 
ATOM      6  H   UNL     1       8.873   0.848  12.140  1.00  0.00     0.163 HD
BRANCH   5   7
ATOM      7  C   UNL     1      10.928  -0.724  14.230  1.00  0.00     0.039 A 
ATOM      8  C   UNL     1      11.532  -1.739  13.486  1.00  0.00     0.014 A 
ATOM      9  C   UNL     1      10.903  -0.778  15.626  1.00  0.00     0.014 A 
ATOM     10  C   UNL     1      12.000  -2.875  14.132  1.00  0.00     0.010 A 
ATOM     11  C   UNL     1      11.441  -1.889  16.277  1.00  0.00     0.010 A 
ATOM     12  C   UNL     1      11.966  -2.958  15.534  1.00  0.00    -0.014 A 
BRANCH  12  13
ATOM     13  C   UNL     1      12.534  -4.152  16.203  1.00  0.00     0.031 A 
ATOM     14  C   UNL     1      11.656  -5.105  16.962  1.00  0.00     0.074 A 
ATOM     15  C   UNL     1      13.858  -4.372  16.098  1.00  0.00     0.049 A 
ATOM     16  N   UNL     1      11.988  -6.186  17.618  1.00  0.00    -0.248 NA
ATOM     17  C   UNL     1      10.219  -4.797  16.998  1.00  0.00     0.031 C 
ATOM     18  C   UNL     1      14.799  -3.501  15.387  1.00  0.00     0.029 A 
ATOM     19  N   UNL     1      14.641  -5.389  16.574  1.00  0.00    -0.354 N 
ATOM     20  C   UNL     1      10.808  -6.681  18.164  1.00  0.00     0.074 A 
ATOM     21  C   UNL     1       9.756  -5.762  17.780  1.00  0.00     0.031 C 
ATOM     22  C   UNL     1      16.026  -4.038  15.447  1.00  0.00     0.029 A 
ATOM     23  C   UNL     1      15.971  -5.252  16.253  1.00  0.00     0.049 A 
ATOM     24  H   UNL     1      14.287  -6.145  17.096  1.00  0.00     0.167 HD
ATOM     25  C   UNL     1      10.627  -7.799  18.911  1.00  0.00     0.034 A 
ATOM     26  C   UNL     1      17.034  -6.004  16.592  1.00  0.00     0.034 A 
ATOM     27  C   UNL     1      11.695  -8.701  19.276  1.00  0.00     0.049 A 
ATOM     28  C   UNL     1      16.809  -7.224  17.439  1.00  0.00     0.074 A 
ATOM     29  C   UNL     1      11.622  -9.881  19.995  1.00  0.00     0.029 A 
ATOM     30  N   UNL     1      13.036  -8.516  18.957  1.00  0.00    -0.354 N 
ATOM     31  N   UNL     1      15.685  -7.687  17.935  1.00  0.00    -0.248 NA
ATOM     32  C   UNL     1      17.994  -8.024  17.769  1.00  0.00     0.031 C 
ATOM     33  C   UNL     1      12.922 -10.376  20.163  1.00  0.00     0.029 A 
ATOM     34  C   UNL     1      13.802  -9.542  19.492  1.00  0.00     0.049 A 
ATOM     35  H   UNL     1      13.391  -7.765  18.429  1.00  0.00     0.167 HD
ATOM     36  C   UNL     1      16.027  -8.839  18.633  1.00  0.00     0.074 A 
ATOM     37  C   UNL     1      17.458  -9.012  18.471  1.00  0.00     0.031 C 
ATOM     38  C   UNL     1      15.232  -9.678  19.345  1.00  0.00     0.034 A 
BRANCH  25  39
ATOM     39  C   UNL     1       9.233  -8.075  19.424  1.00  0.00     0.023 A 
ATOM     40  C   UNL     1       8.163  -8.360  18.558  1.00  0.00     0.031 A 
ATOM     41  C   UNL     1       8.966  -8.029  20.804  1.00  0.00     0.131 A 
ATOM     42  C   UNL     1       6.867  -8.522  19.073  1.00  0.00     0.055 A 
ATOM     43  C   UNL     1       7.688  -8.263  21.317  1.00  0.00     0.041 A 
ATOM     44  F   UNL     1       9.942  -7.743  21.680  1.00  0.00    -0.206 F 
ATOM     45  C   UNL     1       6.626  -8.497  20.449  1.00  0.00     0.022 A 
BRANCH  42  46
ATOM     46  S   UNL     1       5.477  -8.632  17.912  1.00  0.00     0.124 S 
ATOM     47  O   UNL     1       5.621  -7.388  17.159  1.00  0.00    -0.237 OA
ATOM     48  O   UNL     1       5.773  -9.858  17.181  1.00  0.00    -0.237 OA
ATOM     49  O   UNL     1       4.305  -8.691  18.783  1.00  0.00    -0.744 OA
ENDBRANCH  42  46
ENDBRANCH  25  39
BRANCH  26  50
ATOM     50  C   UNL     1      18.398  -5.594  16.163  1.00  0.00     0.023 A 
ATOM     51  C   UNL     1      19.135  -6.360  15.249  1.00  0.00     0.031 A 
ATOM     52  C   UNL     1      18.980  -4.414  16.663  1.00  0.00     0.131 A 
ATOM     53  C   UNL     1      20.426  -5.951  14.880  1.00  0.00     0.055 A 
ATOM     54  C   UNL     1      20.245  -3.988  16.258  1.00  0.00     0.041 A 
ATOM     55  F   UNL     1      18.310  -3.642  17.532  1.00  0.00    -0.206 F 
ATOM     56  C   UNL     1      20.980  -4.764  15.367  1.00  0.00     0.022 A 
BRANCH  53  57
ATOM     57  S   UNL     1      21.398  -7.024  13.789  1.00  0.00     0.124 S 
ATOM     58  O   UNL     1      21.437  -8.268  14.551  1.00  0.00    -0.237 OA
ATOM     59  O   UNL     1      20.585  -7.040  12.577  1.00  0.00    -0.237 OA
ATOM     60  O   UNL     1      22.675  -6.324  13.672  1.00  0.00    -0.744 OA
ENDBRANCH  53  57
ENDBRANCH  26  50
BRANCH  38  61
ATOM     61  C   UNL     1      15.910 -10.866  19.978  1.00  0.00     0.023 A 
ATOM     62  C   UNL     1      16.809 -10.712  21.048  1.00  0.00     0.031 A 
ATOM     63  C   UNL     1      15.682 -12.160  19.480  1.00  0.00     0.131 A 
ATOM     64  C   UNL     1      17.493 -11.829  21.549  1.00  0.00     0.055 A 
ATOM     65  C   UNL     1      16.324 -13.275  20.019  1.00  0.00     0.041 A 
ATOM     66  F   UNL     1      14.836 -12.360  18.457  1.00  0.00    -0.206 F 
ATOM     67  C   UNL     1      17.246 -13.112  21.050  1.00  0.00     0.022 A 
BRANCH  64  68
ATOM     68  S   UNL     1      18.779 -11.573  22.801  1.00  0.00     0.124 S 
ATOM     69  O   UNL     1      19.708 -10.688  22.105  1.00  0.00    -0.237 OA
ATOM     70  O   UNL     1      18.030 -10.974  23.901  1.00  0.00    -0.237 OA
ATOM     71  O   UNL     1      19.282 -12.921  23.057  1.00  0.00    -0.744 OA
ENDBRANCH  64  68
ENDBRANCH  38  61
ENDBRANCH  12  13
ENDBRANCH   5   7
ENDBRANCH   2   3
ENDBRANCH   1   2
BRANCH   1  72
ATOM     72  C   UNL     1       7.290  -0.261  10.385  1.00  0.00     0.023 C 
BRANCH  72  73
ATOM     73  C   UNL     1       8.253  -0.513   9.225  1.00  0.00     0.116 C 
BRANCH  73  74
ATOM     74  N   UNL     1       7.754  -1.529   8.323  1.00  0.00    -0.356 N 
ATOM     75  C   UNL     1       6.913  -1.490   7.266  1.00  0.00     0.224 C 
ATOM     76  H   UNL     1       8.097  -2.431   8.519  1.00  0.00     0.163 HD
ATOM     77  O   UNL     1       6.620  -2.592   6.778  1.00  0.00    -0.275 OA
BRANCH  75  78
ATOM     78  C   UNL     1       6.380  -0.221   6.582  1.00  0.00     0.095 C 
ATOM     79  C   UNL     1       6.571   1.159   7.214  1.00  0.00     0.041 C 
ATOM     80  C   UNL     1       4.903  -0.481   6.178  1.00  0.00     0.095 C 
ATOM     81  C   UNL     1       5.782   2.254   6.556  1.00  0.00    -0.030 C 
ATOM     82  C   UNL     1       4.324   0.655   5.315  1.00  0.00     0.041 C 
ATOM     83  C   UNL     1       4.786   2.028   5.693  1.00  0.00    -0.030 C 
BRANCH  80  84
ATOM     84  C   UNL     1       4.010  -0.733   7.399  1.00  0.00     0.228 C 
ATOM     85  O   UNL     1       4.324  -0.338   8.525  1.00  0.00    -0.274 OA
ATOM     86  N   UNL     1       2.761  -1.273   7.261  1.00  0.00    -0.326 N 
ATOM     87  H   UNL     1       2.192  -1.188   8.060  1.00  0.00     0.169 HD
BRANCH  86  88
ATOM     88  C   UNL     1       2.148  -1.924   6.184  1.00  0.00     0.041 A 
ATOM     89  C   UNL     1       2.829  -2.773   5.310  1.00  0.00     0.030 A 
ATOM     90  C   UNL     1       0.772  -1.737   6.022  1.00  0.00     0.030 A 
ATOM     91  C   UNL     1       2.168  -3.347   4.222  1.00  0.00     0.048 A 
ATOM     92  C   UNL     1       0.110  -2.301   4.931  1.00  0.00     0.048 A 
ATOM     93  C   UNL     1       0.816  -3.087   4.029  1.00  0.00     0.115 A 
BRANCH  93  94
ATOM     94  O   UNL     1       0.141  -3.600   2.963  1.00  0.00    -0.508 OA
ATOM     95  H   UNL     1       0.589  -4.134   2.337  1.00  0.00     0.293 HD
ENDBRANCH  93  94
ENDBRANCH  86  88
ENDBRANCH  80  84
ENDBRANCH  75  78
ENDBRANCH  73  74
ENDBRANCH  72  73
ENDBRANCH   1  72
TORSDOF 17
