REMARK SMILES Cc1n[nH]c(C(=O)N[C@H]2CC[C@@H](C(=O)NCCCCNC(=O)c3ccc(-c4c5nc(c(-c6cc(S(=O)(=O)[O-])ccc6F)c6ccc([nH]6)c(-c6cc(S(=O)(=O)[O-])ccc6F)c6nc(c(-c7cc(S(=O)(=O)[O-])ccc7F)c7ccc4[nH]7)C=C6)C=C5)cc3)C2)n1
REMARK SMILES IDX 18 1 17 2 16 3 15 4 13 5 14 6 12 8 9 9 10 10 86 11 11 12
REMARK SMILES IDX 8 13 6 14 7 15 5 17 1 18 2 19 3 20 87 21 4 22 19 24 20 25
REMARK SMILES IDX 21 26 22 28 23 29 24 30 85 31 25 32 84 33 26 34 27 35 28 36
REMARK SMILES IDX 78 37 29 38 83 39 77 40 79 41 30 42 82 43 76 44 75 45 31 47
REMARK SMILES IDX 63 48 43 49 62 50 44 51 47 52 61 53 80 54 45 55 46 56 60 58
REMARK SMILES IDX 81 59 48 60 32 61 33 62 41 63 34 64 40 65 42 66 39 67 35 68
REMARK SMILES IDX 36 69 37 70 38 71 64 72 65 73 73 74 66 75 72 76 74 77 71 78
REMARK SMILES IDX 67 79 68 80 69 81 70 82 49 83 50 84 58 85 51 86 57 87 59 88
REMARK SMILES IDX 56 89 52 90 53 91 54 92 55 93
REMARK H PARENT 15 7 8 16 4 23 20 27 79 46 47 57
REMARK Flexibility Score: inf
ROOT
ATOM      1  C   UNL     1       1.315 -10.912   3.002  1.00  0.00     0.023 C 
ENDROOT
BRANCH   1   2
ATOM      2  C   UNL     1      -0.007 -10.172   3.269  1.00  0.00     0.023 C 
BRANCH   2   3
ATOM      3  C   UNL     1      -0.084  -9.352   4.562  1.00  0.00     0.116 C 
BRANCH   3   4
ATOM      4  N   UNL     1       0.958  -8.347   4.632  1.00  0.00    -0.356 N 
ATOM      5  C   UNL     1       0.895  -7.028   4.953  1.00  0.00     0.223 C 
ATOM      6  O   UNL     1       1.952  -6.398   4.986  1.00  0.00    -0.275 OA
ATOM      7  H   UNL     1       1.860  -8.674   4.411  1.00  0.00     0.163 HD
BRANCH   5   8
ATOM      8  C   UNL     1      -0.448  -6.378   5.261  1.00  0.00     0.080 C 
ATOM      9  C   UNL     1      -0.469  -3.986   4.752  1.00  0.00     0.083 C 
ATOM     10  C   UNL     1      -1.643  -4.639   4.048  1.00  0.00     0.026 C 
ATOM     11  C   UNL     1      -0.253  -4.987   5.898  1.00  0.00     0.038 C 
ATOM     12  C   UNL     1      -1.281  -6.120   3.994  1.00  0.00     0.015 C 
BRANCH   9  13
ATOM     13  N   UNL     1       0.785  -3.724   4.036  1.00  0.00    -0.347 N 
ATOM     14  C   UNL     1       1.402  -3.957   2.831  1.00  0.00     0.288 C 
ATOM     15  O   UNL     1       2.595  -3.642   2.795  1.00  0.00    -0.266 OA
ATOM     16  H   UNL     1       1.389  -3.204   4.615  1.00  0.00     0.164 HD
BRANCH  14  17
ATOM     17  C   UNL     1       0.722  -4.454   1.658  1.00  0.00     0.214 A 
ATOM     18  C   UNL     1       0.619  -6.021  -1.521  1.00  0.00     0.092 C 
ATOM     19  C   UNL     1       0.360  -5.300  -0.258  1.00  0.00     0.148 A 
ATOM     20  N   UNL     1      -0.760  -4.606  -0.027  1.00  0.00    -0.159 NA
ATOM     21  N   UNL     1       1.281  -5.242   0.751  1.00  0.00    -0.207 NA
ATOM     22  N   UNL     1      -0.472  -4.035   1.156  1.00  0.00    -0.255 N 
ATOM     23  H   UNL     1      -1.059  -3.387   1.609  1.00  0.00     0.192 HD
ENDBRANCH  14  17
ENDBRANCH   9  13
ENDBRANCH   5   8
ENDBRANCH   3   4
ENDBRANCH   2   3
ENDBRANCH   1   2
BRANCH   1  24
ATOM     24  C   UNL     1       1.707 -11.936   4.060  1.00  0.00     0.116 C 
BRANCH  24  25
ATOM     25  N   UNL     1       0.782 -13.067   4.128  1.00  0.00    -0.352 N 
ATOM     26  C   UNL     1       0.838 -14.168   4.970  1.00  0.00     0.251 C 
ATOM     27  H   UNL     1       0.027 -13.044   3.497  1.00  0.00     0.163 HD
ATOM     28  O   UNL     1       0.277 -15.207   4.662  1.00  0.00    -0.269 OA
BRANCH  26  29
ATOM     29  C   UNL     1       1.573 -14.054   6.248  1.00  0.00     0.039 A 
ATOM     30  C   UNL     1       2.317 -15.119   6.770  1.00  0.00     0.014 A 
ATOM     31  C   UNL     1       1.502 -12.843   6.929  1.00  0.00     0.014 A 
ATOM     32  C   UNL     1       3.051 -14.921   7.943  1.00  0.00     0.010 A 
ATOM     33  C   UNL     1       2.332 -12.604   7.993  1.00  0.00     0.010 A 
ATOM     34  C   UNL     1       3.063 -13.653   8.541  1.00  0.00    -0.014 A 
BRANCH  34  35
ATOM     35  C   UNL     1       3.961 -13.320   9.645  1.00  0.00     0.031 A 
ATOM     36  C   UNL     1       5.399 -13.431   9.287  1.00  0.00     0.074 A 
ATOM     37  C   UNL     1       3.537 -12.659  10.748  1.00  0.00     0.049 A 
ATOM     38  N   UNL     1       6.247 -14.326   9.674  1.00  0.00    -0.248 NA
ATOM     39  C   UNL     1       5.907 -12.574   8.199  1.00  0.00     0.031 C 
ATOM     40  C   UNL     1       2.174 -12.199  11.037  1.00  0.00     0.029 A 
ATOM     41  N   UNL     1       4.250 -12.127  11.780  1.00  0.00    -0.354 N 
ATOM     42  C   UNL     1       7.465 -13.938   9.121  1.00  0.00     0.074 A 
ATOM     43  C   UNL     1       7.124 -13.089   8.016  1.00  0.00     0.031 C 
ATOM     44  C   UNL     1       2.206 -11.270  12.018  1.00  0.00     0.029 A 
ATOM     45  C   UNL     1       3.562 -11.167  12.529  1.00  0.00     0.049 A 
ATOM     46  H   UNL     1       5.175 -12.396  11.982  1.00  0.00     0.167 HD
ATOM     47  C   UNL     1       8.624 -14.054   9.833  1.00  0.00     0.034 A 
ATOM     48  C   UNL     1       4.071 -10.320  13.469  1.00  0.00     0.034 A 
ATOM     49  C   UNL     1       8.418 -14.906  10.994  1.00  0.00     0.049 A 
ATOM     50  C   UNL     1       5.358 -10.910  13.917  1.00  0.00     0.074 A 
ATOM     51  C   UNL     1       7.927 -16.186  11.186  1.00  0.00     0.029 A 
ATOM     52  N   UNL     1       8.357 -14.308  12.238  1.00  0.00    -0.354 N 
ATOM     53  N   UNL     1       5.436 -12.042  14.561  1.00  0.00    -0.248 NA
ATOM     54  C   UNL     1       6.571 -10.517  13.214  1.00  0.00     0.031 C 
ATOM     55  C   UNL     1       7.138 -16.104  12.373  1.00  0.00     0.029 A 
ATOM     56  C   UNL     1       7.275 -14.822  12.905  1.00  0.00     0.049 A 
ATOM     57  H   UNL     1       8.982 -13.630  12.584  1.00  0.00     0.167 HD
ATOM     58  C   UNL     1       6.500 -12.712  13.974  1.00  0.00     0.074 A 
ATOM     59  C   UNL     1       7.228 -11.682  13.232  1.00  0.00     0.031 C 
ATOM     60  C   UNL     1       6.512 -14.078  13.891  1.00  0.00     0.034 A 
BRANCH  47  61
ATOM     61  C   UNL     1       9.783 -13.062   9.774  1.00  0.00     0.023 A 
ATOM     62  C   UNL     1      10.804 -13.257  10.722  1.00  0.00     0.031 A 
ATOM     63  C   UNL     1       9.809 -11.812   9.115  1.00  0.00     0.131 A 
ATOM     64  C   UNL     1      11.622 -12.194  11.136  1.00  0.00     0.055 A 
ATOM     65  C   UNL     1      10.678 -10.777   9.479  1.00  0.00     0.041 A 
ATOM     66  F   UNL     1       8.976 -11.482   8.124  1.00  0.00    -0.206 F 
ATOM     67  C   UNL     1      11.556 -10.945  10.532  1.00  0.00     0.022 A 
BRANCH  64  68
ATOM     68  S   UNL     1      12.598 -12.429  12.640  1.00  0.00     0.124 S 
ATOM     69  O   UNL     1      11.555 -12.807  13.588  1.00  0.00    -0.237 OA
ATOM     70  O   UNL     1      13.518 -13.487  12.235  1.00  0.00    -0.237 OA
ATOM     71  O   UNL     1      13.205 -11.120  12.857  1.00  0.00    -0.744 OA
ENDBRANCH  64  68
ENDBRANCH  47  61
BRANCH  48  72
ATOM     72  C   UNL     1       3.657  -8.918  13.785  1.00  0.00     0.023 A 
ATOM     73  C   UNL     1       4.012  -8.249  14.982  1.00  0.00     0.031 A 
ATOM     74  C   UNL     1       3.091  -8.116  12.768  1.00  0.00     0.131 A 
ATOM     75  C   UNL     1       3.800  -6.852  15.117  1.00  0.00     0.055 A 
ATOM     76  C   UNL     1       2.884  -6.740  12.906  1.00  0.00     0.041 A 
ATOM     77  F   UNL     1       2.795  -8.627  11.563  1.00  0.00    -0.206 F 
ATOM     78  C   UNL     1       3.248  -6.100  14.078  1.00  0.00     0.022 A 
BRANCH  75  79
ATOM     79  S   UNL     1       4.322  -5.956  16.621  1.00  0.00     0.124 S 
ATOM     80  O   UNL     1       3.387  -6.454  17.622  1.00  0.00    -0.237 OA
ATOM     81  O   UNL     1       5.713  -6.366  16.768  1.00  0.00    -0.237 OA
ATOM     82  O   UNL     1       4.138  -4.548  16.262  1.00  0.00    -0.744 OA
ENDBRANCH  75  79
ENDBRANCH  48  72
BRANCH  60  83
ATOM     83  C   UNL     1       5.529 -14.862  14.740  1.00  0.00     0.023 A 
ATOM     84  C   UNL     1       4.125 -14.694  14.731  1.00  0.00     0.031 A 
ATOM     85  C   UNL     1       6.053 -15.899  15.531  1.00  0.00     0.131 A 
ATOM     86  C   UNL     1       3.308 -15.534  15.515  1.00  0.00     0.055 A 
ATOM     87  C   UNL     1       5.242 -16.743  16.286  1.00  0.00     0.041 A 
ATOM     88  F   UNL     1       7.377 -16.131  15.563  1.00  0.00    -0.206 F 
ATOM     89  C   UNL     1       3.865 -16.558  16.288  1.00  0.00     0.022 A 
BRANCH  86  90
ATOM     90  S   UNL     1       1.502 -15.293  15.575  1.00  0.00     0.124 S 
ATOM     91  O   UNL     1       1.351 -13.849  15.716  1.00  0.00    -0.237 OA
ATOM     92  O   UNL     1       1.066 -15.859  14.300  1.00  0.00    -0.237 OA
ATOM     93  O   UNL     1       1.096 -16.065  16.751  1.00  0.00    -0.744 OA
ENDBRANCH  86  90
ENDBRANCH  60  83
ENDBRANCH  34  35
ENDBRANCH  26  29
ENDBRANCH  24  25
ENDBRANCH   1  24
TORSDOF 16
