REMARK SMILES O=C(CC(=O)c1ccccc1)Nc1cccc(C(=O)NCCCCNC(=O)c2ccc(-c3c4nc(c(-c5cc(S(=O)(=O)[O-])ccc5F)c5ccc([nH]5)c(-c5cc(S(=O)(=O)[O-])ccc5F)c5nc(c(-c6cc(S(=O)(=O)[O-])ccc6F)c6ccc3[nH]6)C=C5)C=C4)cc2)c1
REMARK SMILES IDX 22 1 21 2 20 3 18 4 19 5 17 7 13 8 14 9 91 10 15 11 16 12
REMARK SMILES IDX 12 13 1 14 2 15 3 17 4 18 5 19 6 20 7 21 11 22 8 23 10 24
REMARK SMILES IDX 9 25 23 26 24 27 25 28 26 29 27 31 28 32 29 33 90 34 30 35
REMARK SMILES IDX 89 36 31 37 32 38 33 39 83 40 34 41 88 42 82 43 84 44 35 45
REMARK SMILES IDX 87 46 81 47 80 48 36 50 68 51 48 52 67 53 49 54 52 55 66 56
REMARK SMILES IDX 85 57 50 58 51 59 65 61 86 62 53 63 37 64 38 65 46 66 39 67
REMARK SMILES IDX 45 68 47 69 44 70 40 71 41 72 42 73 43 74 69 75 70 76 78 77
REMARK SMILES IDX 71 78 77 79 79 80 76 81 72 82 73 83 74 84 75 85 54 86 55 87
REMARK SMILES IDX 63 88 56 89 62 90 64 91 61 92 57 93 58 94 59 95 60 96
REMARK H PARENT 20 6 12 16 25 30 84 49 52 60
REMARK Flexibility Score: inf
ROOT
ATOM      1  C   UNL     1       0.465   4.807   0.324  1.00  0.00     0.023 C 
ENDROOT
BRANCH   1   2
ATOM      2  C   UNL     1       0.104   3.530  -0.422  1.00  0.00     0.116 C 
BRANCH   2   3
ATOM      3  N   UNL     1      -0.667   3.724  -1.646  1.00  0.00    -0.352 N 
ATOM      4  C   UNL     1      -0.522   3.141  -2.891  1.00  0.00     0.251 C 
ATOM      5  O   UNL     1      -1.285   3.447  -3.804  1.00  0.00    -0.269 OA
ATOM      6  H   UNL     1      -1.406   4.370  -1.573  1.00  0.00     0.163 HD
BRANCH   4   7
ATOM      7  C   UNL     1       0.597   2.203  -3.168  1.00  0.00     0.041 A 
ATOM      8  C   UNL     1       2.274   0.691  -2.310  1.00  0.00     0.041 A 
ATOM      9  C   UNL     1       2.975   0.800  -3.514  1.00  0.00     0.026 A 
ATOM     10  C   UNL     1       1.020   1.284  -2.210  1.00  0.00     0.040 A 
ATOM     11  C   UNL     1       2.460   1.568  -4.564  1.00  0.00     0.003 A 
ATOM     12  C   UNL     1       1.288   2.302  -4.378  1.00  0.00     0.014 A 
BRANCH   8  13
ATOM     13  N   UNL     1       2.904   0.049  -1.220  1.00  0.00    -0.326 N 
ATOM     14  O   UNL     1       1.358   0.442   0.482  1.00  0.00    -0.274 OA
ATOM     15  C   UNL     1       2.401  -0.059   0.070  1.00  0.00     0.232 C 
ATOM     16  H   UNL     1       3.782  -0.361  -1.391  1.00  0.00     0.169 HD
BRANCH  15  17
ATOM     17  C   UNL     1       3.266  -0.831   1.023  1.00  0.00     0.181 C 
BRANCH  17  18
ATOM     18  C   UNL     1       3.976  -2.037   0.481  1.00  0.00     0.172 C 
ATOM     19  O   UNL     1       5.207  -2.088   0.467  1.00  0.00    -0.294 OA
BRANCH  18  20
ATOM     20  C   UNL     1       3.213  -3.213  -0.020  1.00  0.00     0.018 A 
ATOM     21  C   UNL     1       3.727  -4.481   0.276  1.00  0.00     0.012 A 
ATOM     22  C   UNL     1       2.085  -3.104  -0.839  1.00  0.00     0.012 A 
ATOM     23  C   UNL     1       3.125  -5.625  -0.251  1.00  0.00     0.001 A 
ATOM     24  C   UNL     1       1.501  -4.249  -1.385  1.00  0.00     0.001 A 
ATOM     25  C   UNL     1       2.021  -5.507  -1.092  1.00  0.00     0.000 A 
ENDBRANCH  18  20
ENDBRANCH  17  18
ENDBRANCH  15  17
ENDBRANCH   8  13
ENDBRANCH   4   7
ENDBRANCH   2   3
ENDBRANCH   1   2
BRANCH   1  26
ATOM     26  C   UNL     1      -0.695   5.617   0.883  1.00  0.00     0.023 C 
BRANCH  26  27
ATOM     27  C   UNL     1      -1.707   4.847   1.724  1.00  0.00     0.116 C 
BRANCH  27  28
ATOM     28  N   UNL     1      -1.127   4.167   2.873  1.00  0.00    -0.352 N 
ATOM     29  C   UNL     1      -1.471   4.236   4.207  1.00  0.00     0.251 C 
ATOM     30  H   UNL     1      -0.375   3.566   2.667  1.00  0.00     0.163 HD
ATOM     31  O   UNL     1      -0.797   3.644   5.040  1.00  0.00    -0.269 OA
BRANCH  29  32
ATOM     32  C   UNL     1      -2.623   5.066   4.633  1.00  0.00     0.039 A 
ATOM     33  C   UNL     1      -2.466   5.929   5.721  1.00  0.00     0.014 A 
ATOM     34  C   UNL     1      -3.839   5.022   3.948  1.00  0.00     0.014 A 
ATOM     35  C   UNL     1      -3.491   6.820   6.054  1.00  0.00     0.010 A 
ATOM     36  C   UNL     1      -4.824   5.966   4.225  1.00  0.00     0.010 A 
ATOM     37  C   UNL     1      -4.657   6.884   5.274  1.00  0.00    -0.014 A 
BRANCH  37  38
ATOM     38  C   UNL     1      -5.702   7.915   5.521  1.00  0.00     0.031 A 
ATOM     39  C   UNL     1      -7.099   7.500   5.898  1.00  0.00     0.074 A 
ATOM     40  C   UNL     1      -5.416   9.217   5.322  1.00  0.00     0.049 A 
ATOM     41  N   UNL     1      -8.168   8.238   6.056  1.00  0.00    -0.248 NA
ATOM     42  C   UNL     1      -7.329   6.061   6.086  1.00  0.00     0.031 C 
ATOM     43  C   UNL     1      -4.114   9.743   4.901  1.00  0.00     0.029 A 
ATOM     44  N   UNL     1      -6.202  10.338   5.430  1.00  0.00    -0.354 N 
ATOM     45  C   UNL     1      -9.202   7.351   6.340  1.00  0.00     0.074 A 
ATOM     46  C   UNL     1      -8.639   6.019   6.273  1.00  0.00     0.031 C 
ATOM     47  C   UNL     1      -4.188  11.080   4.807  1.00  0.00     0.029 A 
ATOM     48  C   UNL     1      -5.549  11.507   5.115  1.00  0.00     0.049 A 
ATOM     49  H   UNL     1      -7.147  10.307   5.707  1.00  0.00     0.167 HD
ATOM     50  C   UNL     1     -10.495   7.624   6.649  1.00  0.00     0.034 A 
ATOM     51  C   UNL     1      -5.996  12.778   5.065  1.00  0.00     0.034 A 
ATOM     52  C   UNL     1     -11.036   8.959   6.731  1.00  0.00     0.049 A 
ATOM     53  C   UNL     1      -7.436  13.058   5.413  1.00  0.00     0.074 A 
ATOM     54  C   UNL     1     -12.309   9.353   7.106  1.00  0.00     0.029 A 
ATOM     55  N   UNL     1     -10.337  10.121   6.426  1.00  0.00    -0.354 N 
ATOM     56  N   UNL     1      -8.386  12.213   5.740  1.00  0.00    -0.248 NA
ATOM     57  C   UNL     1      -7.859  14.464   5.396  1.00  0.00     0.031 C 
ATOM     58  C   UNL     1     -12.399  10.742   6.967  1.00  0.00     0.029 A 
ATOM     59  C   UNL     1     -11.161  11.227   6.575  1.00  0.00     0.049 A 
ATOM     60  H   UNL     1      -9.394  10.155   6.145  1.00  0.00     0.167 HD
ATOM     61  C   UNL     1      -9.512  12.989   5.995  1.00  0.00     0.074 A 
ATOM     62  C   UNL     1      -9.118  14.370   5.798  1.00  0.00     0.031 C 
ATOM     63  C   UNL     1     -10.759  12.598   6.363  1.00  0.00     0.034 A 
BRANCH  50  64
ATOM     64  C   UNL     1     -11.411   6.449   6.896  1.00  0.00     0.023 A 
ATOM     65  C   UNL     1     -11.190   5.548   7.954  1.00  0.00     0.031 A 
ATOM     66  C   UNL     1     -12.502   6.204   6.043  1.00  0.00     0.131 A 
ATOM     67  C   UNL     1     -11.992   4.404   8.081  1.00  0.00     0.055 A 
ATOM     68  C   UNL     1     -13.349   5.108   6.226  1.00  0.00     0.041 A 
ATOM     69  F   UNL     1     -12.754   7.016   5.005  1.00  0.00    -0.206 F 
ATOM     70  C   UNL     1     -13.086   4.191   7.239  1.00  0.00     0.022 A 
BRANCH  67  71
ATOM     71  S   UNL     1     -11.493   3.125   9.266  1.00  0.00     0.124 S 
ATOM     72  O   UNL     1     -10.158   2.781   8.782  1.00  0.00    -0.237 OA
ATOM     73  O   UNL     1     -11.548   3.835  10.538  1.00  0.00    -0.237 OA
ATOM     74  O   UNL     1     -12.501   2.082   9.089  1.00  0.00    -0.744 OA
ENDBRANCH  67  71
ENDBRANCH  50  64
BRANCH  51  75
ATOM     75  C   UNL     1      -5.082  13.885   4.661  1.00  0.00     0.023 A 
ATOM     76  C   UNL     1      -4.718  14.890   5.570  1.00  0.00     0.031 A 
ATOM     77  C   UNL     1      -4.589  13.973   3.347  1.00  0.00     0.131 A 
ATOM     78  C   UNL     1      -3.921  15.965   5.144  1.00  0.00     0.055 A 
ATOM     79  C   UNL     1      -3.756  15.017   2.940  1.00  0.00     0.041 A 
ATOM     80  F   UNL     1      -4.901  13.033   2.440  1.00  0.00    -0.206 F 
ATOM     81  C   UNL     1      -3.428  16.028   3.838  1.00  0.00     0.022 A 
BRANCH  78  82
ATOM     82  S   UNL     1      -3.600  17.322   6.303  1.00  0.00     0.124 S 
ATOM     83  O   UNL     1      -4.951  17.768   6.621  1.00  0.00    -0.237 OA
ATOM     84  O   UNL     1      -2.879  16.642   7.374  1.00  0.00    -0.237 OA
ATOM     85  O   UNL     1      -2.801  18.260   5.516  1.00  0.00    -0.744 OA
ENDBRANCH  78  82
ENDBRANCH  51  75
BRANCH  63  86
ATOM     86  C   UNL     1     -11.771  13.688   6.617  1.00  0.00     0.023 A 
ATOM     87  C   UNL     1     -12.261  14.501   5.580  1.00  0.00     0.031 A 
ATOM     88  C   UNL     1     -12.241  13.924   7.921  1.00  0.00     0.131 A 
ATOM     89  C   UNL     1     -13.149  15.546   5.872  1.00  0.00     0.055 A 
ATOM     90  C   UNL     1     -13.169  14.928   8.197  1.00  0.00     0.041 A 
ATOM     91  F   UNL     1     -11.805  13.179   8.950  1.00  0.00    -0.206 F 
ATOM     92  C   UNL     1     -13.619  15.755   7.171  1.00  0.00     0.022 A 
BRANCH  89  93
ATOM     93  S   UNL     1     -13.619  16.689   4.544  1.00  0.00     0.124 S 
ATOM     94  O   UNL     1     -12.324  17.218   4.127  1.00  0.00    -0.237 OA
ATOM     95  O   UNL     1     -14.283  15.806   3.591  1.00  0.00    -0.237 OA
ATOM     96  O   UNL     1     -14.495  17.650   5.211  1.00  0.00    -0.744 OA
ENDBRANCH  89  93
ENDBRANCH  63  86
ENDBRANCH  37  38
ENDBRANCH  29  32
ENDBRANCH  27  28
ENDBRANCH  26  27
ENDBRANCH   1  26
TORSDOF 18
