REMARK SMILES [NH3+]CCC1=c2cc([N+](=O)[O-])ccc2=N[C@H]1C(=O)NCCCCNC(=O)c1ccc(-c2c3nc(c(-c4cc(S(=O)(=O)[O-])ccc4F)c4ccc([nH]4)c(-c4cc(S(=O)(=O)[O-])ccc4F)c4nc(c(-c5cc(S(=O)(=O)[O-])ccc5F)c5ccc2[nH]5)C=C4)C=C3)cc1
REMARK SMILES IDX 20 1 19 2 18 3 16 4 17 5 15 7 4 8 5 9 6 10 13 11 14 12 7 13
REMARK SMILES IDX 12 14 11 15 3 16 2 17 1 18 8 22 9 23 10 24 21 25 22 26 23 27
REMARK SMILES IDX 24 28 25 30 26 31 27 32 88 33 28 34 87 35 29 36 30 37 31 38
REMARK SMILES IDX 81 39 32 40 86 41 80 42 82 43 33 44 85 45 79 46 78 47 34 49
REMARK SMILES IDX 66 50 46 51 65 52 47 53 50 54 64 55 83 56 48 57 49 58 63 60
REMARK SMILES IDX 84 61 51 62 35 63 36 64 44 65 37 66 43 67 45 68 42 69 38 70
REMARK SMILES IDX 39 71 40 72 41 73 67 74 68 75 76 76 69 77 75 78 77 79 74 80
REMARK SMILES IDX 70 81 71 82 72 83 73 84 52 85 53 86 61 87 54 88 60 89 62 90
REMARK SMILES IDX 59 91 55 92 56 93 57 94 58 95
REMARK H PARENT 18 6 1 19 1 20 1 21 23 29 82 48 50 59
REMARK Flexibility Score: inf
ROOT
ATOM      1  C   UNL     1      -0.281   2.898   2.812  1.00  0.00     0.023 C 
ENDROOT
BRANCH   1   2
ATOM      2  C   UNL     1      -0.104   1.627   1.984  1.00  0.00     0.116 C 
BRANCH   2   3
ATOM      3  N   UNL     1       1.094   0.879   2.326  1.00  0.00    -0.354 N 
ATOM      4  C   UNL     1       1.281  -0.477   2.337  1.00  0.00     0.249 C 
ATOM      5  O   UNL     1       2.405  -0.908   2.605  1.00  0.00    -0.272 OA
ATOM      6  H   UNL     1       1.876   1.420   2.583  1.00  0.00     0.163 HD
BRANCH   4   7
ATOM      7  C   UNL     1       0.097  -1.403   1.980  1.00  0.00     0.222 C 
ATOM      8  C   UNL     1       0.530  -2.617   1.196  1.00  0.00    -0.021 C 
ATOM      9  C   UNL     1       0.291  -3.724   1.898  1.00  0.00     0.009 A 
ATOM     10  C   UNL     1       0.471  -5.124   1.664  1.00  0.00     0.096 A 
ATOM     11  C   UNL     1      -0.284  -3.211   3.154  1.00  0.00     0.067 A 
ATOM     12  N   UNL     1      -0.465  -1.933   3.262  1.00  0.00    -0.267 NA
ATOM     13  C   UNL     1       0.117  -5.984   2.639  1.00  0.00     0.270 A 
ATOM     14  C   UNL     1      -0.619  -4.218   4.185  1.00  0.00     0.035 A 
ATOM     15  C   UNL     1      -0.416  -5.521   3.918  1.00  0.00     0.088 A 
BRANCH   8  16
ATOM     16  C   UNL     1       1.133  -2.520  -0.176  1.00  0.00     0.096 C 
BRANCH  16  17
ATOM     17  C   UNL     1       0.494  -1.478  -1.112  1.00  0.00     0.263 C 
BRANCH  17  18
ATOM     18  N   UNL     1       1.157  -0.176  -1.067  1.00  0.00    -0.357 N 
ATOM     19  H   UNL     1       0.688   0.466  -1.705  1.00  0.00     0.344 HD
ATOM     20  H   UNL     1       2.132  -0.281  -1.345  1.00  0.00     0.344 HD
ATOM     21  H   UNL     1       1.112   0.195  -0.118  1.00  0.00     0.344 HD
ENDBRANCH  17  18
ENDBRANCH  16  17
ENDBRANCH   8  16
BRANCH  13  22
ATOM     22  N   UNL     1       0.266  -7.420   2.368  1.00  0.00     0.062 N 
ATOM     23  O   UNL     1       0.660  -7.773   1.247  1.00  0.00    -0.258 OA
ATOM     24  O   UNL     1      -0.032  -8.203   3.282  1.00  0.00    -0.258 OA
ENDBRANCH  13  22
ENDBRANCH   4   7
ENDBRANCH   2   3
ENDBRANCH   1   2
BRANCH   1  25
ATOM     25  C   UNL     1       0.878   3.893   2.764  1.00  0.00     0.023 C 
BRANCH  25  26
ATOM     26  C   UNL     1       1.329   4.311   1.369  1.00  0.00     0.116 C 
BRANCH  26  27
ATOM     27  N   UNL     1       0.323   5.081   0.651  1.00  0.00    -0.352 N 
ATOM     28  C   UNL     1       0.361   6.387   0.212  1.00  0.00     0.251 C 
ATOM     29  H   UNL     1      -0.509   4.596   0.449  1.00  0.00     0.163 HD
ATOM     30  O   UNL     1      -0.650   6.901  -0.257  1.00  0.00    -0.269 OA
BRANCH  28  31
ATOM     31  C   UNL     1       1.605   7.177   0.350  1.00  0.00     0.039 A 
ATOM     32  C   UNL     1       2.838   6.635  -0.016  1.00  0.00     0.014 A 
ATOM     33  C   UNL     1       1.541   8.464   0.891  1.00  0.00     0.014 A 
ATOM     34  C   UNL     1       4.011   7.290   0.345  1.00  0.00     0.010 A 
ATOM     35  C   UNL     1       2.721   9.161   1.169  1.00  0.00     0.010 A 
ATOM     36  C   UNL     1       3.968   8.553   0.959  1.00  0.00    -0.014 A 
BRANCH  36  37
ATOM     37  C   UNL     1       5.237   9.206   1.379  1.00  0.00     0.031 A 
ATOM     38  C   UNL     1       5.532   9.458   2.835  1.00  0.00     0.074 A 
ATOM     39  C   UNL     1       6.159   9.515   0.447  1.00  0.00     0.049 A 
ATOM     40  N   UNL     1       6.606   9.968   3.380  1.00  0.00    -0.248 NA
ATOM     41  C   UNL     1       4.488   9.092   3.805  1.00  0.00     0.031 C 
ATOM     42  C   UNL     1       5.986   9.313  -0.991  1.00  0.00     0.029 A 
ATOM     43  N   UNL     1       7.423  10.036   0.562  1.00  0.00    -0.354 N 
ATOM     44  C   UNL     1       6.367   9.993   4.750  1.00  0.00     0.074 A 
ATOM     45  C   UNL     1       5.028   9.485   4.951  1.00  0.00     0.031 C 
ATOM     46  C   UNL     1       7.120   9.652  -1.620  1.00  0.00     0.029 A 
ATOM     47  C   UNL     1       8.078  10.162  -0.641  1.00  0.00     0.049 A 
ATOM     48  H   UNL     1       7.824  10.295   1.423  1.00  0.00     0.167 HD
ATOM     49  C   UNL     1       7.195  10.383   5.749  1.00  0.00     0.034 A 
ATOM     50  C   UNL     1       9.304  10.643  -0.934  1.00  0.00     0.034 A 
ATOM     51  C   UNL     1       8.534  10.876   5.539  1.00  0.00     0.049 A 
ATOM     52  C   UNL     1      10.193  11.106   0.189  1.00  0.00     0.074 A 
ATOM     53  C   UNL     1       9.456  11.275   6.490  1.00  0.00     0.029 A 
ATOM     54  N   UNL     1       9.144  11.032   4.303  1.00  0.00    -0.354 N 
ATOM     55  N   UNL     1       9.963  11.086   1.481  1.00  0.00    -0.248 NA
ATOM     56  C   UNL     1      11.504  11.659  -0.178  1.00  0.00     0.031 C 
ATOM     57  C   UNL     1      10.601  11.722   5.829  1.00  0.00     0.029 A 
ATOM     58  C   UNL     1      10.420  11.546   4.466  1.00  0.00     0.049 A 
ATOM     59  H   UNL     1       8.731  10.811   3.437  1.00  0.00     0.167 HD
ATOM     60  C   UNL     1      11.100  11.618   2.082  1.00  0.00     0.074 A 
ATOM     61  C   UNL     1      12.031  11.919   1.013  1.00  0.00     0.031 C 
ATOM     62  C   UNL     1      11.343  11.846   3.397  1.00  0.00     0.034 A 
BRANCH  49  63
ATOM     63  C   UNL     1       6.702  10.285   7.172  1.00  0.00     0.023 A 
ATOM     64  C   UNL     1       6.540  11.447   7.949  1.00  0.00     0.031 A 
ATOM     65  C   UNL     1       6.505   9.037   7.791  1.00  0.00     0.131 A 
ATOM     66  C   UNL     1       6.214  11.337   9.307  1.00  0.00     0.055 A 
ATOM     67  C   UNL     1       6.147   8.934   9.136  1.00  0.00     0.041 A 
ATOM     68  F   UNL     1       6.647   7.899   7.093  1.00  0.00    -0.206 F 
ATOM     69  C   UNL     1       6.011  10.088   9.903  1.00  0.00     0.022 A 
BRANCH  66  70
ATOM     70  S   UNL     1       6.096  12.803  10.368  1.00  0.00     0.124 S 
ATOM     71  O   UNL     1       4.704  12.739  10.811  1.00  0.00    -0.237 OA
ATOM     72  O   UNL     1       7.091  12.516  11.398  1.00  0.00    -0.237 OA
ATOM     73  O   UNL     1       6.414  13.911   9.475  1.00  0.00    -0.744 OA
ENDBRANCH  66  70
ENDBRANCH  49  63
BRANCH  50  74
ATOM     74  C   UNL     1       9.748  10.656  -2.358  1.00  0.00     0.023 A 
ATOM     75  C   UNL     1       9.043  11.398  -3.323  1.00  0.00     0.031 A 
ATOM     76  C   UNL     1      10.788   9.820  -2.796  1.00  0.00     0.131 A 
ATOM     77  C   UNL     1       9.326  11.220  -4.683  1.00  0.00     0.055 A 
ATOM     78  C   UNL     1      11.118   9.705  -4.147  1.00  0.00     0.041 A 
ATOM     79  F   UNL     1      11.481   9.085  -1.913  1.00  0.00    -0.206 F 
ATOM     80  C   UNL     1      10.371  10.390  -5.100  1.00  0.00     0.022 A 
BRANCH  77  81
ATOM     81  S   UNL     1       8.248  11.935  -5.956  1.00  0.00     0.124 S 
ATOM     82  O   UNL     1       9.174  12.786  -6.697  1.00  0.00    -0.237 OA
ATOM     83  O   UNL     1       7.787  10.740  -6.660  1.00  0.00    -0.237 OA
ATOM     84  O   UNL     1       7.224  12.634  -5.187  1.00  0.00    -0.744 OA
ENDBRANCH  77  81
ENDBRANCH  50  74
BRANCH  62  85
ATOM     85  C   UNL     1      12.660  12.473   3.787  1.00  0.00     0.023 A 
ATOM     86  C   UNL     1      13.577  11.760   4.582  1.00  0.00     0.031 A 
ATOM     87  C   UNL     1      12.934  13.821   3.499  1.00  0.00     0.131 A 
ATOM     88  C   UNL     1      14.706  12.412   5.096  1.00  0.00     0.055 A 
ATOM     89  C   UNL     1      14.081  14.454   3.978  1.00  0.00     0.041 A 
ATOM     90  F   UNL     1      12.084  14.545   2.752  1.00  0.00    -0.206 F 
ATOM     91  C   UNL     1      14.966  13.753   4.792  1.00  0.00     0.022 A 
BRANCH  88  92
ATOM     92  S   UNL     1      15.833  11.571   6.242  1.00  0.00     0.124 S 
ATOM     93  O   UNL     1      17.099  11.624   5.514  1.00  0.00    -0.237 OA
ATOM     94  O   UNL     1      15.758  12.422   7.426  1.00  0.00    -0.237 OA
ATOM     95  O   UNL     1      15.257  10.239   6.389  1.00  0.00    -0.744 OA
ENDBRANCH  88  92
ENDBRANCH  62  85
ENDBRANCH  36  37
ENDBRANCH  28  31
ENDBRANCH  26  27
ENDBRANCH  25  26
ENDBRANCH   1  25
TORSDOF 18
