REMARK SMILES C[C@@H]1CCC[C@H](C)[N@H+]1Cc1cc2c(cc1Cl)C=C(C(=O)NCCCCNC(=O)c1ccc(-c3c4nc(c(-c5cc(S(=O)(=O)[O-])ccc5F)c5ccc([nH]5)c(-c5cc(S(=O)(=O)[O-])ccc5F)c5nc(c(-c6cc(S(=O)(=O)[O-])ccc6F)c6ccc3[nH]6)C=C5)C=C4)cc1)[C@@H](C(F)(F)F)O2
REMARK SMILES IDX 24 1 23 2 22 3 21 4 19 5 20 6 18 8 10 9 11 10 15 11 12 12
REMARK SMILES IDX 14 13 16 14 13 15 97 16 17 17 92 18 9 19 8 20 7 21 6 22 5 23
REMARK SMILES IDX 4 24 2 25 3 27 1 28 93 29 94 30 95 31 96 32 25 33 26 34
REMARK SMILES IDX 27 35 28 37 29 38 30 39 91 40 31 41 90 42 32 43 33 44 34 45
REMARK SMILES IDX 84 46 35 47 89 48 83 49 85 50 36 51 88 52 82 53 81 54 37 56
REMARK SMILES IDX 69 57 49 58 68 59 50 60 53 61 67 62 86 63 51 64 52 65 66 67
REMARK SMILES IDX 87 68 54 69 38 70 39 71 47 72 40 73 46 74 48 75 45 76 41 77
REMARK SMILES IDX 42 78 43 79 44 80 70 81 71 82 79 83 72 84 78 85 80 86 77 87
REMARK SMILES IDX 73 88 74 89 75 90 76 91 55 92 56 93 64 94 57 95 63 96 65 97
REMARK SMILES IDX 62 98 58 99 59 100 60 101 61 102
REMARK H PARENT 21 7 8 26 26 36 85 55 53 66
REMARK Flexibility Score: inf
ROOT
ATOM      1  C   UNL     1       2.368  -8.254  -9.233  1.00  0.00     0.023 C 
ENDROOT
BRANCH   1   2
ATOM      2  C   UNL     1       1.572  -7.478  -8.186  1.00  0.00     0.023 C 
BRANCH   2   3
ATOM      3  C   UNL     1       0.905  -8.357  -7.133  1.00  0.00     0.116 C 
BRANCH   3   4
ATOM      4  N   UNL     1       1.819  -8.702  -6.061  1.00  0.00    -0.352 N 
ATOM      5  C   UNL     1       1.915  -8.444  -4.736  1.00  0.00     0.251 C 
ATOM      6  O   UNL     1       2.849  -9.002  -4.151  1.00  0.00    -0.270 OA
ATOM      7  H   UNL     1       2.559  -9.269  -6.378  1.00  0.00     0.163 HD
BRANCH   5   8
ATOM      8  C   UNL     1       1.012  -7.538  -3.974  1.00  0.00     0.067 C 
ATOM      9  C   UNL     1      -0.674  -4.406  -0.397  1.00  0.00     0.029 A 
ATOM     10  C   UNL     1      -0.704  -4.409  -1.802  1.00  0.00     0.058 A 
ATOM     11  C   UNL     1      -0.231  -5.572   0.254  1.00  0.00     0.050 A 
ATOM     12  C   UNL     1      -0.161  -5.469  -2.519  1.00  0.00     0.128 A 
ATOM     13  C   UNL     1       0.351  -6.620  -0.472  1.00  0.00     0.033 A 
ATOM     14  Cl  UNL     1      -0.355  -5.790   1.964  1.00  0.00    -0.084 Cl
ATOM     15  C   UNL     1       0.430  -6.546  -1.859  1.00  0.00     0.019 A 
ATOM     16  O   UNL     1      -0.171  -5.367  -3.883  1.00  0.00    -0.475 OA
ATOM     17  C   UNL     1       1.193  -7.513  -2.639  1.00  0.00     0.025 C 
ATOM     18  C   UNL     1      -0.026  -6.638  -4.582  1.00  0.00     0.314 C 
BRANCH   9  19
ATOM     19  C   UNL     1      -1.036  -3.126   0.328  1.00  0.00     0.301 C 
BRANCH  19  20
ATOM     20  N   UNL     1       0.045  -2.125   0.484  1.00  0.00    -0.327 N 
ATOM     21  C   UNL     1       0.603   0.093  -0.453  1.00  0.00     0.075 C 
ATOM     22  C   UNL     1       0.426  -1.405  -0.742  1.00  0.00     0.181 C 
ATOM     23  C   UNL     1       1.669  -1.958  -1.462  1.00  0.00     0.065 C 
ATOM     24  C   UNL     1       2.827  -2.262  -0.522  1.00  0.00     0.012 C 
ATOM     25  C   UNL     1       1.142  -2.542   1.371  1.00  0.00     0.181 C 
ATOM     26  H   UNL     1      -0.393  -1.376   1.020  1.00  0.00     0.348 HD
ATOM     27  C   UNL     1       2.360  -3.128   0.639  1.00  0.00     0.065 C 
ATOM     28  C   UNL     1       1.561  -1.401   2.309  1.00  0.00     0.075 C 
ENDBRANCH  19  20
ENDBRANCH   9  19
BRANCH  18  29
ATOM     29  C   UNL     1      -1.397  -7.339  -4.703  1.00  0.00     0.429 C 
ATOM     30  F   UNL     1      -2.201  -6.665  -5.562  1.00  0.00    -0.167 F 
ATOM     31  F   UNL     1      -1.290  -8.602  -5.181  1.00  0.00    -0.167 F 
ATOM     32  F   UNL     1      -2.054  -7.427  -3.524  1.00  0.00    -0.167 F 
ENDBRANCH  18  29
ENDBRANCH   5   8
ENDBRANCH   3   4
ENDBRANCH   2   3
ENDBRANCH   1   2
BRANCH   1  33
ATOM     33  C   UNL     1       1.584  -9.328  -9.980  1.00  0.00     0.116 C 
BRANCH  33  34
ATOM     34  N   UNL     1       0.340  -8.853 -10.577  1.00  0.00    -0.352 N 
ATOM     35  C   UNL     1      -0.256  -9.303 -11.736  1.00  0.00     0.251 C 
ATOM     36  H   UNL     1      -0.126  -8.130 -10.099  1.00  0.00     0.163 HD
ATOM     37  O   UNL     1      -1.277  -8.779 -12.166  1.00  0.00    -0.269 OA
BRANCH  35  38
ATOM     38  C   UNL     1       0.410 -10.397 -12.465  1.00  0.00     0.039 A 
ATOM     39  C   UNL     1       0.714 -11.582 -11.791  1.00  0.00     0.014 A 
ATOM     40  C   UNL     1       0.883 -10.161 -13.757  1.00  0.00     0.014 A 
ATOM     41  C   UNL     1       1.650 -12.447 -12.340  1.00  0.00     0.010 A 
ATOM     42  C   UNL     1       1.758 -11.079 -14.340  1.00  0.00     0.010 A 
ATOM     43  C   UNL     1       2.198 -12.195 -13.610  1.00  0.00    -0.014 A 
BRANCH  43  44
ATOM     44  C   UNL     1       3.243 -13.104 -14.145  1.00  0.00     0.031 A 
ATOM     45  C   UNL     1       4.649 -12.618 -14.370  1.00  0.00     0.074 A 
ATOM     46  C   UNL     1       2.927 -14.394 -14.366  1.00  0.00     0.049 A 
ATOM     47  N   UNL     1       5.687 -13.282 -14.810  1.00  0.00    -0.248 NA
ATOM     48  C   UNL     1       4.931 -11.205 -14.064  1.00  0.00     0.031 C 
ATOM     49  C   UNL     1       1.599 -14.972 -14.159  1.00  0.00     0.029 A 
ATOM     50  N   UNL     1       3.692 -15.454 -14.781  1.00  0.00    -0.354 N 
ATOM     51  C   UNL     1       6.736 -12.370 -14.852  1.00  0.00     0.074 A 
ATOM     52  C   UNL     1       6.205 -11.097 -14.421  1.00  0.00     0.031 C 
ATOM     53  C   UNL     1       1.654 -16.289 -14.389  1.00  0.00     0.029 A 
ATOM     54  C   UNL     1       2.999 -16.640 -14.838  1.00  0.00     0.049 A 
ATOM     55  H   UNL     1       4.645 -15.373 -15.015  1.00  0.00     0.167 HD
ATOM     56  C   UNL     1       8.026 -12.584 -15.207  1.00  0.00     0.034 A 
ATOM     57  C   UNL     1       3.392 -17.871 -15.224  1.00  0.00     0.034 A 
ATOM     58  C   UNL     1       8.544 -13.867 -15.611  1.00  0.00     0.049 A 
ATOM     59  C   UNL     1       4.820 -18.072 -15.652  1.00  0.00     0.074 A 
ATOM     60  C   UNL     1       9.842 -14.192 -15.962  1.00  0.00     0.029 A 
ATOM     61  N   UNL     1       7.800 -15.034 -15.712  1.00  0.00    -0.354 N 
ATOM     62  N   UNL     1       5.805 -17.204 -15.663  1.00  0.00    -0.248 NA
ATOM     63  C   UNL     1       5.194 -19.410 -16.128  1.00  0.00     0.031 C 
ATOM     64  C   UNL     1       9.873 -15.540 -16.325  1.00  0.00     0.029 A 
ATOM     65  C   UNL     1       8.606 -16.074 -16.146  1.00  0.00     0.049 A 
ATOM     66  H   UNL     1       6.840 -15.112 -15.506  1.00  0.00     0.167 HD
ATOM     67  C   UNL     1       6.915 -17.891 -16.143  1.00  0.00     0.074 A 
ATOM     68  C   UNL     1       6.488 -19.256 -16.377  1.00  0.00     0.031 C 
ATOM     69  C   UNL     1       8.169 -17.430 -16.378  1.00  0.00     0.034 A 
BRANCH  56  70
ATOM     70  C   UNL     1       8.991 -11.425 -15.171  1.00  0.00     0.023 A 
ATOM     71  C   UNL     1       9.583 -10.963 -16.362  1.00  0.00     0.031 A 
ATOM     72  C   UNL     1       9.419 -10.865 -13.954  1.00  0.00     0.131 A 
ATOM     73  C   UNL     1      10.593  -9.994 -16.307  1.00  0.00     0.055 A 
ATOM     74  C   UNL     1      10.403  -9.876 -13.908  1.00  0.00     0.041 A 
ATOM     75  F   UNL     1       8.882 -11.270 -12.792  1.00  0.00    -0.206 F 
ATOM     76  C   UNL     1      11.003  -9.445 -15.088  1.00  0.00     0.022 A 
BRANCH  73  77
ATOM     77  S   UNL     1      11.455  -9.448 -17.807  1.00  0.00     0.124 S 
ATOM     78  O   UNL     1      11.171  -8.014 -17.808  1.00  0.00    -0.237 OA
ATOM     79  O   UNL     1      12.839  -9.809 -17.514  1.00  0.00    -0.237 OA
ATOM     80  O   UNL     1      10.816 -10.208 -18.876  1.00  0.00    -0.744 OA
ENDBRANCH  73  77
ENDBRANCH  56  70
BRANCH  57  81
ATOM     81  C   UNL     1       2.407 -18.989 -15.178  1.00  0.00     0.023 A 
ATOM     82  C   UNL     1       1.224 -18.939 -15.938  1.00  0.00     0.031 A 
ATOM     83  C   UNL     1       2.568 -20.052 -14.274  1.00  0.00     0.131 A 
ATOM     84  C   UNL     1       0.211 -19.880 -15.715  1.00  0.00     0.055 A 
ATOM     85  C   UNL     1       1.588 -21.032 -14.110  1.00  0.00     0.041 A 
ATOM     86  F   UNL     1       3.675 -20.136 -13.519  1.00  0.00    -0.206 F 
ATOM     87  C   UNL     1       0.392 -20.936 -14.816  1.00  0.00     0.022 A 
BRANCH  84  88
ATOM     88  S   UNL     1      -1.431 -19.667 -16.458  1.00  0.00     0.124 S 
ATOM     89  O   UNL     1      -1.538 -20.853 -17.301  1.00  0.00    -0.237 OA
ATOM     90  O   UNL     1      -2.293 -19.649 -15.279  1.00  0.00    -0.237 OA
ATOM     91  O   UNL     1      -1.325 -18.395 -17.165  1.00  0.00    -0.744 OA
ENDBRANCH  84  88
ENDBRANCH  57  81
BRANCH  69  92
ATOM     92  C   UNL     1       9.190 -18.389 -16.937  1.00  0.00     0.023 A 
ATOM     93  C   UNL     1      10.326 -18.734 -16.182  1.00  0.00     0.031 A 
ATOM     94  C   UNL     1       9.108 -18.839 -18.266  1.00  0.00     0.131 A 
ATOM     95  C   UNL     1      11.357 -19.473 -16.776  1.00  0.00     0.055 A 
ATOM     96  C   UNL     1      10.118 -19.612 -18.840  1.00  0.00     0.041 A 
ATOM     97  F   UNL     1       8.046 -18.528 -19.026  1.00  0.00    -0.206 F 
ATOM     98  C   UNL     1      11.255 -19.920 -18.098  1.00  0.00     0.022 A 
BRANCH  95  99
ATOM     99  S   UNL     1      12.900 -19.812 -15.884  1.00  0.00     0.124 S 
ATOM    100  O   UNL     1      12.918 -21.273 -15.857  1.00  0.00    -0.237 OA
ATOM    101  O   UNL     1      13.898 -19.192 -16.751  1.00  0.00    -0.237 OA
ATOM    102  O   UNL     1      12.707 -19.169 -14.589  1.00  0.00    -0.744 OA
ENDBRANCH  95  99
ENDBRANCH  69  92
ENDBRANCH  43  44
ENDBRANCH  35  38
ENDBRANCH  33  34
ENDBRANCH   1  33
TORSDOF 17
