REMARK SMILES CC(C)(CC(=O)NCCCCNC(=O)c1ccc(-c2c3nc(c(-c4cc(S(=O)(=O)[O-])ccc4F)c4ccc([nH]4)c(-c4cc(S(=O)(=O)[O-])ccc4F)c4nc(c(-c5cc(S(=O)(=O)[O-])ccc5F)c5ccc2[nH]5)C=C4)C=C3)cc1)NC(=O)c1nc(C(C)(C)C)n[nH]1
REMARK SMILES IDX 9 1 8 2 7 3 5 4 6 5 4 7 2 8 1 9 3 10 78 11 79 12 80 14 81 15
REMARK SMILES IDX 82 16 89 17 83 18 88 19 84 21 85 22 86 23 87 24 10 25 11 26
REMARK SMILES IDX 12 27 13 28 14 30 15 31 16 32 77 33 17 34 76 35 18 36 19 37
REMARK SMILES IDX 20 38 70 39 21 40 75 41 69 42 71 43 22 44 74 45 68 46 67 47
REMARK SMILES IDX 23 49 55 50 35 51 54 52 36 53 39 54 53 55 72 56 37 57 38 58
REMARK SMILES IDX 52 60 73 61 40 62 24 63 25 64 33 65 26 66 32 67 34 68 31 69
REMARK SMILES IDX 27 70 28 71 29 72 30 73 56 74 57 75 65 76 58 77 64 78 66 79
REMARK SMILES IDX 63 80 59 81 60 82 61 83 62 84 41 85 42 86 50 87 43 88 49 89
REMARK SMILES IDX 51 90 48 91 44 92 45 93 46 94 47 95
REMARK H PARENT 7 6 78 13 89 20 12 29 71 48 39 59
REMARK Flexibility Score: inf
ROOT
ATOM      1  C   UNL     1      -0.222   0.326   2.017  1.00  0.00     0.023 C 
ENDROOT
BRANCH   1   2
ATOM      2  C   UNL     1      -1.491  -0.091   1.302  1.00  0.00     0.116 C 
BRANCH   2   3
ATOM      3  N   UNL     1      -1.863   0.950   0.365  1.00  0.00    -0.356 N 
ATOM      4  C   UNL     1      -1.368   1.168  -0.884  1.00  0.00     0.222 C 
ATOM      5  O   UNL     1      -1.581   2.251  -1.429  1.00  0.00    -0.275 OA
ATOM      6  H   UNL     1      -2.558   1.577   0.670  1.00  0.00     0.163 HD
BRANCH   4   7
ATOM      7  C   UNL     1      -0.678   0.047  -1.632  1.00  0.00     0.127 C 
BRANCH   7   8
ATOM      8  C   UNL     1       0.876   0.014  -1.724  1.00  0.00     0.044 C 
ATOM      9  C   UNL     1       1.524  -0.859  -0.640  1.00  0.00     0.035 C 
ATOM     10  C   UNL     1       1.176  -0.761  -3.042  1.00  0.00     0.035 C 
BRANCH   8  11
ATOM     11  N   UNL     1       1.468   1.363  -1.903  1.00  0.00    -0.344 N 
ATOM     12  C   UNL     1       1.958   2.383  -1.110  1.00  0.00     0.289 C 
ATOM     13  H   UNL     1       1.530   1.598  -2.858  1.00  0.00     0.164 HD
ATOM     14  O   UNL     1       2.026   3.482  -1.668  1.00  0.00    -0.266 OA
BRANCH  12  15
ATOM     15  C   UNL     1       2.479   2.166   0.221  1.00  0.00     0.214 A 
ATOM     16  N   UNL     1       2.226   2.899   1.297  1.00  0.00    -0.207 NA
ATOM     17  N   UNL     1       3.505   1.324   0.525  1.00  0.00    -0.255 N 
ATOM     18  C   UNL     1       3.093   2.415   2.256  1.00  0.00     0.156 A 
ATOM     19  N   UNL     1       3.876   1.419   1.808  1.00  0.00    -0.158 NA
ATOM     20  H   UNL     1       3.925   0.715  -0.124  1.00  0.00     0.192 HD
BRANCH  18  21
ATOM     21  C   UNL     1       3.234   2.979   3.667  1.00  0.00     0.024 C 
ATOM     22  C   UNL     1       4.422   3.959   3.710  1.00  0.00     0.019 C 
ATOM     23  C   UNL     1       1.992   3.754   4.165  1.00  0.00     0.019 C 
ATOM     24  C   UNL     1       3.504   1.832   4.668  1.00  0.00     0.019 C 
ENDBRANCH  18  21
ENDBRANCH  12  15
ENDBRANCH   8  11
ENDBRANCH   7   8
ENDBRANCH   4   7
ENDBRANCH   2   3
ENDBRANCH   1   2
BRANCH   1  25
ATOM     25  C   UNL     1      -0.424   1.403   3.058  1.00  0.00     0.023 C 
BRANCH  25  26
ATOM     26  C   UNL     1      -0.952   0.912   4.386  1.00  0.00     0.116 C 
BRANCH  26  27
ATOM     27  N   UNL     1      -0.027   0.012   5.059  1.00  0.00    -0.352 N 
ATOM     28  C   UNL     1       0.551   0.071   6.305  1.00  0.00     0.251 C 
ATOM     29  H   UNL     1       0.230  -0.777   4.529  1.00  0.00     0.163 HD
ATOM     30  O   UNL     1       1.423  -0.747   6.584  1.00  0.00    -0.269 OA
BRANCH  28  31
ATOM     31  C   UNL     1       0.169   1.115   7.287  1.00  0.00     0.039 A 
ATOM     32  C   UNL     1       1.127   1.554   8.206  1.00  0.00     0.014 A 
ATOM     33  C   UNL     1      -1.118   1.649   7.338  1.00  0.00     0.014 A 
ATOM     34  C   UNL     1       0.800   2.547   9.133  1.00  0.00     0.010 A 
ATOM     35  C   UNL     1      -1.396   2.738   8.155  1.00  0.00     0.010 A 
ATOM     36  C   UNL     1      -0.457   3.173   9.096  1.00  0.00    -0.014 A 
BRANCH  36  37
ATOM     37  C   UNL     1      -0.824   4.236  10.069  1.00  0.00     0.031 A 
ATOM     38  C   UNL     1      -2.013   4.049  10.980  1.00  0.00     0.074 A 
ATOM     39  C   UNL     1      -0.109   5.378  10.109  1.00  0.00     0.049 A 
ATOM     40  N   UNL     1      -2.502   4.862  11.882  1.00  0.00    -0.248 NA
ATOM     41  C   UNL     1      -2.780   2.802  10.830  1.00  0.00     0.031 C 
ATOM     42  C   UNL     1       1.018   5.700   9.231  1.00  0.00     0.029 A 
ATOM     43  N   UNL     1      -0.218   6.477  10.923  1.00  0.00    -0.354 N 
ATOM     44  C   UNL     1      -3.638   4.234  12.386  1.00  0.00     0.074 A 
ATOM     45  C   UNL     1      -3.812   3.014  11.630  1.00  0.00     0.031 C 
ATOM     46  C   UNL     1       1.529   6.888   9.589  1.00  0.00     0.029 A 
ATOM     47  C   UNL     1       0.739   7.437  10.685  1.00  0.00     0.049 A 
ATOM     48  H   UNL     1      -0.915   6.570  11.612  1.00  0.00     0.167 HD
ATOM     49  C   UNL     1      -4.443   4.619  13.407  1.00  0.00     0.034 A 
ATOM     50  C   UNL     1       0.955   8.624  11.285  1.00  0.00     0.034 A 
ATOM     51  C   UNL     1      -4.238   5.830  14.164  1.00  0.00     0.049 A 
ATOM     52  C   UNL     1       0.058   9.025  12.428  1.00  0.00     0.074 A 
ATOM     53  C   UNL     1      -4.949   6.296  15.256  1.00  0.00     0.029 A 
ATOM     54  N   UNL     1      -3.249   6.772  13.904  1.00  0.00    -0.354 N 
ATOM     55  N   UNL     1      -0.973   8.388  12.936  1.00  0.00    -0.248 NA
ATOM     56  C   UNL     1       0.371  10.294  13.093  1.00  0.00     0.031 C 
ATOM     57  C   UNL     1      -4.441   7.552  15.606  1.00  0.00     0.029 A 
ATOM     58  C   UNL     1      -3.352   7.830  14.795  1.00  0.00     0.049 A 
ATOM     59  H   UNL     1      -2.575   6.699  13.191  1.00  0.00     0.167 HD
ATOM     60  C   UNL     1      -1.412   9.168  14.003  1.00  0.00     0.074 A 
ATOM     61  C   UNL     1      -0.514  10.303  14.078  1.00  0.00     0.031 C 
ATOM     62  C   UNL     1      -2.460   8.966  14.845  1.00  0.00     0.034 A 
BRANCH  49  63
ATOM     63  C   UNL     1      -5.625   3.733  13.740  1.00  0.00     0.023 A 
ATOM     64  C   UNL     1      -5.462   2.394  14.142  1.00  0.00     0.031 A 
ATOM     65  C   UNL     1      -6.937   4.223  13.622  1.00  0.00     0.131 A 
ATOM     66  C   UNL     1      -6.585   1.573  14.327  1.00  0.00     0.055 A 
ATOM     67  C   UNL     1      -8.051   3.427  13.898  1.00  0.00     0.041 A 
ATOM     68  F   UNL     1      -7.163   5.484  13.218  1.00  0.00    -0.206 F 
ATOM     69  C   UNL     1      -7.880   2.088  14.236  1.00  0.00     0.022 A 
BRANCH  66  70
ATOM     70  S   UNL     1      -6.332  -0.213  14.527  1.00  0.00     0.124 S 
ATOM     71  O   UNL     1      -5.617  -0.549  13.298  1.00  0.00    -0.237 OA
ATOM     72  O   UNL     1      -5.556  -0.285  15.759  1.00  0.00    -0.237 OA
ATOM     73  O   UNL     1      -7.691  -0.745  14.612  1.00  0.00    -0.744 OA
ENDBRANCH  66  70
ENDBRANCH  49  63
BRANCH  50  74
ATOM     74  C   UNL     1       2.064   9.511  10.828  1.00  0.00     0.023 A 
ATOM     75  C   UNL     1       3.139   9.829  11.675  1.00  0.00     0.031 A 
ATOM     76  C   UNL     1       2.049  10.083   9.543  1.00  0.00     0.131 A 
ATOM     77  C   UNL     1       4.126  10.731  11.246  1.00  0.00     0.055 A 
ATOM     78  C   UNL     1       3.065  10.932   9.100  1.00  0.00     0.041 A 
ATOM     79  F   UNL     1       1.049   9.809   8.690  1.00  0.00    -0.206 F 
ATOM     80  C   UNL     1       4.104  11.272   9.959  1.00  0.00     0.022 A 
BRANCH  77  81
ATOM     81  S   UNL     1       5.395  11.259  12.431  1.00  0.00     0.124 S 
ATOM     82  O   UNL     1       4.584  11.818  13.506  1.00  0.00    -0.237 OA
ATOM     83  O   UNL     1       6.074  10.002  12.727  1.00  0.00    -0.237 OA
ATOM     84  O   UNL     1       6.184  12.228  11.674  1.00  0.00    -0.744 OA
ENDBRANCH  77  81
ENDBRANCH  50  74
BRANCH  62  85
ATOM     85  C   UNL     1      -2.652   9.983  15.946  1.00  0.00     0.023 A 
ATOM     86  C   UNL     1      -2.935  11.332  15.668  1.00  0.00     0.031 A 
ATOM     87  C   UNL     1      -2.499   9.606  17.293  1.00  0.00     0.131 A 
ATOM     88  C   UNL     1      -2.962  12.270  16.711  1.00  0.00     0.055 A 
ATOM     89  C   UNL     1      -2.611  10.530  18.333  1.00  0.00     0.041 A 
ATOM     90  F   UNL     1      -2.226   8.333  17.621  1.00  0.00    -0.206 F 
ATOM     91  C   UNL     1      -2.821  11.875  18.043  1.00  0.00     0.022 A 
BRANCH  88  92
ATOM     92  S   UNL     1      -3.027  14.033  16.288  1.00  0.00     0.124 S 
ATOM     93  O   UNL     1      -1.883  14.171  15.392  1.00  0.00    -0.237 OA
ATOM     94  O   UNL     1      -4.342  14.155  15.667  1.00  0.00    -0.237 OA
ATOM     95  O   UNL     1      -2.886  14.700  17.581  1.00  0.00    -0.744 OA
ENDBRANCH  88  92
ENDBRANCH  62  85
ENDBRANCH  36  37
ENDBRANCH  28  31
ENDBRANCH  26  27
ENDBRANCH  25  26
ENDBRANCH   1  25
TORSDOF 18
