REMARK SMILES O=C(NCCCCNC(=O)c1ccccc1/N=C/c1coc2ccccc2c1=O)c1ccc(-c2c3nc(c(-c4cc(S(=O)(=O)[O-])ccc4F)c4ccc([nH]4)c(-c4cc(S(=O)(=O)[O-])ccc4F)c4nc(c(-c5cc(S(=O)(=O)[O-])ccc5F)c5ccc2[nH]5)C=C4)C=C3)cc1
REMARK SMILES IDX 5 1 4 2 3 3 1 4 2 5 30 7 31 8 92 9 32 10 91 11 33 12 34 13
REMARK SMILES IDX 35 14 85 15 36 16 90 17 84 18 86 19 37 20 89 21 83 22 82 23
REMARK SMILES IDX 38 25 70 26 50 27 69 28 51 29 54 30 68 31 87 32 52 33 53 34
REMARK SMILES IDX 67 36 88 37 55 38 39 39 40 40 48 41 41 42 47 43 49 44 46 45
REMARK SMILES IDX 42 46 43 47 44 48 45 49 71 50 72 51 80 52 73 53 79 54 81 55
REMARK SMILES IDX 78 56 74 57 75 58 76 59 77 60 56 61 57 62 65 63 58 64 64 65
REMARK SMILES IDX 66 66 63 67 59 68 60 69 61 70 62 71 6 72 7 73 8 74 9 75
REMARK SMILES IDX 10 77 11 78 12 79 16 80 13 81 15 82 14 83 17 84 18 85 19 86
REMARK SMILES IDX 20 87 28 88 21 89 27 90 29 91 22 92 26 93 23 94 25 95 24 96
REMARK H PARENT 3 6 86 24 54 35 8 76
REMARK Flexibility Score: inf
ROOT
ATOM      1  C   UNL     1       4.942   0.803  -3.082  1.00  0.00     0.023 C 
ENDROOT
BRANCH   1   2
ATOM      2  C   UNL     1       4.760   0.735  -1.567  1.00  0.00     0.116 C 
BRANCH   2   3
ATOM      3  N   UNL     1       3.369   0.803  -1.152  1.00  0.00    -0.352 N 
ATOM      4  O   UNL     1       1.429   0.053  -0.264  1.00  0.00    -0.269 OA
ATOM      5  C   UNL     1       2.647  -0.075  -0.378  1.00  0.00     0.251 C 
ATOM      6  H   UNL     1       2.872   1.590  -1.472  1.00  0.00     0.163 HD
BRANCH   5   7
ATOM      7  C   UNL     1       3.332  -1.188   0.324  1.00  0.00     0.039 A 
ATOM      8  C   UNL     1       4.509  -0.963   1.044  1.00  0.00     0.014 A 
ATOM      9  C   UNL     1       2.770  -2.469   0.292  1.00  0.00     0.014 A 
ATOM     10  C   UNL     1       5.190  -2.035   1.619  1.00  0.00     0.010 A 
ATOM     11  C   UNL     1       3.427  -3.536   0.916  1.00  0.00     0.010 A 
ATOM     12  C   UNL     1       4.662  -3.334   1.551  1.00  0.00    -0.014 A 
BRANCH  12  13
ATOM     13  C   UNL     1       5.428  -4.460   2.146  1.00  0.00     0.031 A 
ATOM     14  C   UNL     1       6.101  -5.478   1.265  1.00  0.00     0.074 A 
ATOM     15  C   UNL     1       5.563  -4.535   3.483  1.00  0.00     0.049 A 
ATOM     16  N   UNL     1       6.873  -6.481   1.602  1.00  0.00    -0.248 NA
ATOM     17  C   UNL     1       5.871  -5.359  -0.182  1.00  0.00     0.031 C 
ATOM     18  C   UNL     1       4.940  -3.623   4.446  1.00  0.00     0.029 A 
ATOM     19  N   UNL     1       6.284  -5.402   4.263  1.00  0.00    -0.354 N 
ATOM     20  C   UNL     1       7.211  -7.120   0.414  1.00  0.00     0.074 A 
ATOM     21  C   UNL     1       6.538  -6.404  -0.650  1.00  0.00     0.031 C 
ATOM     22  C   UNL     1       5.337  -3.956   5.684  1.00  0.00     0.029 A 
ATOM     23  C   UNL     1       6.221  -5.115   5.606  1.00  0.00     0.049 A 
ATOM     24  H   UNL     1       6.797  -6.158   3.897  1.00  0.00     0.167 HD
ATOM     25  C   UNL     1       8.013  -8.198   0.226  1.00  0.00     0.034 A 
ATOM     26  C   UNL     1       6.816  -5.712   6.656  1.00  0.00     0.034 A 
ATOM     27  C   UNL     1       8.689  -8.904   1.285  1.00  0.00     0.049 A 
ATOM     28  C   UNL     1       7.728  -6.882   6.418  1.00  0.00     0.074 A 
ATOM     29  C   UNL     1       9.535  -9.997   1.196  1.00  0.00     0.029 A 
ATOM     30  N   UNL     1       8.598  -8.585   2.633  1.00  0.00    -0.354 N 
ATOM     31  N   UNL     1       8.038  -7.469   5.287  1.00  0.00    -0.248 NA
ATOM     32  C   UNL     1       8.374  -7.465   7.601  1.00  0.00     0.031 C 
ATOM     33  C   UNL     1       9.927 -10.359   2.492  1.00  0.00     0.029 A 
ATOM     34  C   UNL     1       9.359  -9.467   3.385  1.00  0.00     0.049 A 
ATOM     35  H   UNL     1       8.069  -7.841   3.002  1.00  0.00     0.167 HD
ATOM     36  C   UNL     1       8.914  -8.494   5.623  1.00  0.00     0.074 A 
ATOM     37  C   UNL     1       9.101  -8.431   7.059  1.00  0.00     0.031 C 
ATOM     38  C   UNL     1       9.509  -9.409   4.818  1.00  0.00     0.034 A 
BRANCH  25  39
ATOM     39  C   UNL     1       8.163  -8.698  -1.187  1.00  0.00     0.023 A 
ATOM     40  C   UNL     1       8.881  -7.972  -2.152  1.00  0.00     0.031 A 
ATOM     41  C   UNL     1       7.552  -9.902  -1.579  1.00  0.00     0.131 A 
ATOM     42  C   UNL     1       8.925  -8.430  -3.478  1.00  0.00     0.055 A 
ATOM     43  C   UNL     1       7.647 -10.381  -2.886  1.00  0.00     0.041 A 
ATOM     44  F   UNL     1       6.838 -10.623  -0.700  1.00  0.00    -0.206 F 
ATOM     45  C   UNL     1       8.329  -9.638  -3.847  1.00  0.00     0.022 A 
BRANCH  42  46
ATOM     46  S   UNL     1       9.691  -7.374  -4.738  1.00  0.00     0.124 S 
ATOM     47  O   UNL     1       8.816  -6.204  -4.715  1.00  0.00    -0.237 OA
ATOM     48  O   UNL     1      11.037  -7.176  -4.212  1.00  0.00    -0.237 OA
ATOM     49  O   UNL     1       9.610  -8.180  -5.955  1.00  0.00    -0.744 OA
ENDBRANCH  42  46
ENDBRANCH  25  39
BRANCH  26  50
ATOM     50  C   UNL     1       6.557  -5.221   8.034  1.00  0.00     0.023 A 
ATOM     51  C   UNL     1       7.537  -4.514   8.746  1.00  0.00     0.031 A 
ATOM     52  C   UNL     1       5.324  -5.470   8.658  1.00  0.00     0.131 A 
ATOM     53  C   UNL     1       7.274  -4.097  10.060  1.00  0.00     0.055 A 
ATOM     54  C   UNL     1       5.058  -5.033   9.955  1.00  0.00     0.041 A 
ATOM     55  F   UNL     1       4.356  -6.134   8.006  1.00  0.00    -0.206 F 
ATOM     56  C   UNL     1       6.039  -4.348  10.666  1.00  0.00     0.022 A 
BRANCH  53  57
ATOM     57  S   UNL     1       8.588  -3.256  10.985  1.00  0.00     0.124 S 
ATOM     58  O   UNL     1       9.679  -4.222  10.909  1.00  0.00    -0.237 OA
ATOM     59  O   UNL     1       8.763  -2.030  10.213  1.00  0.00    -0.237 OA
ATOM     60  O   UNL     1       8.008  -3.075  12.314  1.00  0.00    -0.744 OA
ENDBRANCH  53  57
ENDBRANCH  26  50
BRANCH  38  61
ATOM     61  C   UNL     1      10.414 -10.404   5.489  1.00  0.00     0.023 A 
ATOM     62  C   UNL     1       9.893 -11.453   6.266  1.00  0.00     0.031 A 
ATOM     63  C   UNL     1      11.809 -10.280   5.381  1.00  0.00     0.131 A 
ATOM     64  C   UNL     1      10.764 -12.317   6.944  1.00  0.00     0.055 A 
ATOM     65  C   UNL     1      12.672 -11.163   6.031  1.00  0.00     0.041 A 
ATOM     66  F   UNL     1      12.352  -9.291   4.654  1.00  0.00    -0.206 F 
ATOM     67  C   UNL     1      12.151 -12.182   6.825  1.00  0.00     0.022 A 
BRANCH  64  68
ATOM     68  S   UNL     1      10.062 -13.577   8.044  1.00  0.00     0.124 S 
ATOM     69  O   UNL     1       9.268 -12.772   8.966  1.00  0.00    -0.237 OA
ATOM     70  O   UNL     1       9.309 -14.415   7.117  1.00  0.00    -0.237 OA
ATOM     71  O   UNL     1      11.240 -14.211   8.634  1.00  0.00    -0.744 OA
ENDBRANCH  64  68
ENDBRANCH  38  61
ENDBRANCH  12  13
ENDBRANCH   5   7
ENDBRANCH   2   3
ENDBRANCH   1   2
BRANCH   1  72
ATOM     72  C   UNL     1       4.622   2.141  -3.754  1.00  0.00     0.023 C 
BRANCH  72  73
ATOM     73  C   UNL     1       5.254   3.385  -3.135  1.00  0.00     0.116 C 
BRANCH  73  74
ATOM     74  N   UNL     1       6.675   3.257  -2.863  1.00  0.00    -0.352 N 
ATOM     75  C   UNL     1       7.624   4.241  -2.796  1.00  0.00     0.253 C 
ATOM     76  H   UNL     1       6.998   2.340  -2.705  1.00  0.00     0.163 HD
ATOM     77  O   UNL     1       8.764   3.983  -2.416  1.00  0.00    -0.269 OA
BRANCH  75  78
ATOM     78  C   UNL     1       7.325   5.614  -3.224  1.00  0.00     0.065 A 
ATOM     79  C   UNL     1       7.995   6.067  -4.374  1.00  0.00     0.016 A 
ATOM     80  C   UNL     1       6.464   6.466  -2.527  1.00  0.00     0.076 A 
ATOM     81  C   UNL     1       7.781   7.359  -4.856  1.00  0.00     0.001 A 
ATOM     82  C   UNL     1       6.271   7.765  -3.027  1.00  0.00     0.029 A 
ATOM     83  C   UNL     1       6.919   8.212  -4.178  1.00  0.00     0.002 A 
BRANCH  80  84
ATOM     84  N   UNL     1       5.620   6.121  -1.476  1.00  0.00    -0.255 NA
ATOM     85  C   UNL     1       5.984   5.529  -0.386  1.00  0.00     0.127 C 
BRANCH  85  86
ATOM     86  C   UNL     1       4.900   5.363   0.612  1.00  0.00     0.076 A 
ATOM     87  C   UNL     1       4.870   6.413   1.454  1.00  0.00     0.209 A 
ATOM     88  C   UNL     1       3.568   4.923   0.117  1.00  0.00     0.201 A 
ATOM     89  O   UNL     1       3.717   7.136   1.743  1.00  0.00    -0.463 OA
ATOM     90  C   UNL     1       2.650   6.045  -0.120  1.00  0.00     0.065 A 
ATOM     91  O   UNL     1       3.311   3.772  -0.203  1.00  0.00    -0.288 OA
ATOM     92  C   UNL     1       2.807   7.160   0.703  1.00  0.00     0.137 A 
ATOM     93  C   UNL     1       1.818   6.075  -1.237  1.00  0.00     0.016 A 
ATOM     94  C   UNL     1       2.121   8.334   0.414  1.00  0.00     0.048 A 
ATOM     95  C   UNL     1       1.159   7.263  -1.548  1.00  0.00     0.001 A 
ATOM     96  C   UNL     1       1.311   8.387  -0.727  1.00  0.00     0.004 A 
ENDBRANCH  85  86
ENDBRANCH  80  84
ENDBRANCH  75  78
ENDBRANCH  73  74
ENDBRANCH  72  73
ENDBRANCH   1  72
TORSDOF 16
