REMARK SMILES C[C@@H](NC(=O)[C@@H]1CC[C@@H]2CCCC[C@@H]2[NH2+]1)C(=O)NCCCCNC(=O)c1ccc(-c2c3nc(c(-c4cc(S(=O)(=O)[O-])ccc4F)c4ccc([nH]4)c(-c4cc(S(=O)(=O)[O-])ccc4F)c4nc(c(-c5cc(S(=O)(=O)[O-])ccc5F)c5ccc2[nH]5)C=C4)C=C3)cc1
REMARK SMILES IDX 21 1 20 2 19 3 18 4 16 5 17 6 2 8 1 9 3 10 4 11 5 13 6 14
REMARK SMILES IDX 7 15 15 16 8 17 14 18 9 21 13 22 10 23 12 24 11 25 22 26
REMARK SMILES IDX 23 27 24 28 25 30 26 31 27 32 88 33 28 34 87 35 29 36 30 37
REMARK SMILES IDX 31 38 81 39 32 40 86 41 80 42 82 43 33 44 85 45 79 46 78 47
REMARK SMILES IDX 34 49 66 50 46 51 65 52 47 53 50 54 64 55 83 56 48 57 49 58
REMARK SMILES IDX 63 60 84 61 51 62 35 63 36 64 44 65 37 66 43 67 45 68 42 69
REMARK SMILES IDX 38 70 39 71 40 72 41 73 67 74 68 75 76 76 69 77 75 78 77 79
REMARK SMILES IDX 74 80 70 81 71 82 72 83 73 84 52 85 53 86 61 87 54 88 60 89
REMARK SMILES IDX 62 90 59 91 55 92 56 93 57 94 58 95
REMARK H PARENT 18 7 3 12 15 19 15 20 23 29 82 48 50 59
REMARK Flexibility Score: inf
ROOT
ATOM      1  C   UNL     1      -3.157   2.648   1.671  1.00  0.00     0.023 C 
ENDROOT
BRANCH   1   2
ATOM      2  C   UNL     1      -1.637   2.695   1.444  1.00  0.00     0.023 C 
BRANCH   2   3
ATOM      3  C   UNL     1      -0.872   1.405   1.118  1.00  0.00     0.116 C 
BRANCH   3   4
ATOM      4  N   UNL     1      -1.459   0.605   0.065  1.00  0.00    -0.354 N 
ATOM      5  C   UNL     1      -1.103  -0.625  -0.411  1.00  0.00     0.242 C 
ATOM      6  O   UNL     1      -1.798  -1.102  -1.315  1.00  0.00    -0.273 OA
ATOM      7  H   UNL     1      -2.239   1.010  -0.379  1.00  0.00     0.163 HD
BRANCH   5   8
ATOM      8  C   UNL     1       0.175  -1.368   0.045  1.00  0.00     0.168 C 
ATOM      9  C   UNL     1       1.411  -0.594  -0.428  1.00  0.00     0.041 C 
BRANCH   8  10
ATOM     10  N   UNL     1       0.327  -1.734   1.462  1.00  0.00    -0.339 N 
ATOM     11  C   UNL     1      -0.169  -2.918   1.957  1.00  0.00     0.278 C 
ATOM     12  H   UNL     1       0.794  -1.117   2.070  1.00  0.00     0.164 HD
ATOM     13  O   UNL     1       0.614  -3.871   2.044  1.00  0.00    -0.268 OA
BRANCH  11  14
ATOM     14  C   UNL     1      -1.611  -3.005   2.529  1.00  0.00     0.272 C 
ATOM     15  C   UNL     1      -2.384  -1.699   2.618  1.00  0.00     0.076 C 
ATOM     16  N   UNL     1      -1.590  -3.683   3.860  1.00  0.00    -0.333 N 
ATOM     17  C   UNL     1      -1.804  -0.823   3.713  1.00  0.00     0.016 C 
ATOM     18  C   UNL     1      -1.228  -2.853   5.033  1.00  0.00     0.186 C 
ATOM     19  H   UNL     1      -0.917  -4.448   3.805  1.00  0.00     0.347 HD
ATOM     20  H   UNL     1      -2.554  -3.970   4.027  1.00  0.00     0.347 HD
ATOM     21  C   UNL     1      -1.978  -1.513   5.054  1.00  0.00     0.048 C 
ATOM     22  C   UNL     1       0.299  -2.705   5.198  1.00  0.00     0.065 C 
ATOM     23  C   UNL     1      -1.519  -0.605   6.199  1.00  0.00     0.010 C 
ATOM     24  C   UNL     1       0.754  -1.661   6.222  1.00  0.00     0.006 C 
ATOM     25  C   UNL     1      -0.019  -0.350   6.165  1.00  0.00     0.001 C 
ENDBRANCH  11  14
ENDBRANCH   8  10
ENDBRANCH   5   8
ENDBRANCH   3   4
ENDBRANCH   2   3
ENDBRANCH   1   2
BRANCH   1  26
ATOM     26  C   UNL     1      -3.742   2.208   3.019  1.00  0.00     0.116 C 
BRANCH  26  27
ATOM     27  N   UNL     1      -3.000   2.619   4.199  1.00  0.00    -0.352 N 
ATOM     28  C   UNL     1      -3.453   2.808   5.488  1.00  0.00     0.251 C 
ATOM     29  H   UNL     1      -2.040   2.787   4.058  1.00  0.00     0.163 HD
ATOM     30  O   UNL     1      -2.669   3.199   6.350  1.00  0.00    -0.269 OA
BRANCH  28  31
ATOM     31  C   UNL     1      -4.879   2.592   5.825  1.00  0.00     0.039 A 
ATOM     32  C   UNL     1      -5.560   3.605   6.509  1.00  0.00     0.014 A 
ATOM     33  C   UNL     1      -5.552   1.423   5.462  1.00  0.00     0.014 A 
ATOM     34  C   UNL     1      -6.937   3.497   6.723  1.00  0.00     0.010 A 
ATOM     35  C   UNL     1      -6.936   1.333   5.639  1.00  0.00     0.010 A 
ATOM     36  C   UNL     1      -7.646   2.387   6.235  1.00  0.00    -0.014 A 
BRANCH  36  37
ATOM     37  C   UNL     1      -9.134   2.383   6.234  1.00  0.00     0.031 A 
ATOM     38  C   UNL     1      -9.916   1.439   7.099  1.00  0.00     0.074 A 
ATOM     39  C   UNL     1      -9.778   3.209   5.384  1.00  0.00     0.049 A 
ATOM     40  N   UNL     1     -11.214   1.291   7.195  1.00  0.00    -0.248 NA
ATOM     41  C   UNL     1      -9.140   0.531   7.952  1.00  0.00     0.031 C 
ATOM     42  C   UNL     1      -9.124   4.138   4.457  1.00  0.00     0.029 A 
ATOM     43  N   UNL     1     -11.117   3.398   5.150  1.00  0.00    -0.354 N 
ATOM     44  C   UNL     1     -11.415   0.277   8.125  1.00  0.00     0.074 A 
ATOM     45  C   UNL     1     -10.099  -0.187   8.520  1.00  0.00     0.031 C 
ATOM     46  C   UNL     1     -10.062   4.805   3.767  1.00  0.00     0.029 A 
ATOM     47  C   UNL     1     -11.380   4.330   4.172  1.00  0.00     0.049 A 
ATOM     48  H   UNL     1     -11.823   2.913   5.635  1.00  0.00     0.167 HD
ATOM     49  C   UNL     1     -12.585  -0.206   8.614  1.00  0.00     0.034 A 
ATOM     50  C   UNL     1     -12.549   4.749   3.648  1.00  0.00     0.034 A 
ATOM     51  C   UNL     1     -13.889   0.255   8.194  1.00  0.00     0.049 A 
ATOM     52  C   UNL     1     -13.835   4.179   4.186  1.00  0.00     0.074 A 
ATOM     53  C   UNL     1     -15.135  -0.140   8.654  1.00  0.00     0.029 A 
ATOM     54  N   UNL     1     -14.119   1.202   7.203  1.00  0.00    -0.354 N 
ATOM     55  N   UNL     1     -14.007   3.264   5.112  1.00  0.00    -0.248 NA
ATOM     56  C   UNL     1     -15.082   4.708   3.621  1.00  0.00     0.031 C 
ATOM     57  C   UNL     1     -16.114   0.519   7.900  1.00  0.00     0.029 A 
ATOM     58  C   UNL     1     -15.483   1.380   7.017  1.00  0.00     0.049 A 
ATOM     59  H   UNL     1     -13.416   1.677   6.704  1.00  0.00     0.167 HD
ATOM     60  C   UNL     1     -15.384   3.127   5.256  1.00  0.00     0.074 A 
ATOM     61  C   UNL     1     -15.993   4.064   4.335  1.00  0.00     0.031 C 
ATOM     62  C   UNL     1     -16.081   2.304   6.081  1.00  0.00     0.034 A 
BRANCH  49  63
ATOM     63  C   UNL     1     -12.500  -1.312   9.641  1.00  0.00     0.023 A 
ATOM     64  C   UNL     1     -11.900  -1.105  10.895  1.00  0.00     0.031 A 
ATOM     65  C   UNL     1     -13.002  -2.595   9.357  1.00  0.00     0.131 A 
ATOM     66  C   UNL     1     -11.748  -2.177  11.787  1.00  0.00     0.055 A 
ATOM     67  C   UNL     1     -12.917  -3.640  10.280  1.00  0.00     0.041 A 
ATOM     68  F   UNL     1     -13.572  -2.859   8.171  1.00  0.00    -0.206 F 
ATOM     69  C   UNL     1     -12.273  -3.438  11.497  1.00  0.00     0.022 A 
BRANCH  66  70
ATOM     70  S   UNL     1     -10.730  -1.934  13.268  1.00  0.00     0.124 S 
ATOM     71  O   UNL     1      -9.449  -1.540  12.686  1.00  0.00    -0.237 OA
ATOM     72  O   UNL     1     -11.455  -0.889  13.982  1.00  0.00    -0.237 OA
ATOM     73  O   UNL     1     -10.737  -3.248  13.909  1.00  0.00    -0.744 OA
ENDBRANCH  66  70
ENDBRANCH  49  63
BRANCH  50  74
ATOM     74  C   UNL     1     -12.561   5.753   2.548  1.00  0.00     0.023 A 
ATOM     75  C   UNL     1     -13.091   7.037   2.742  1.00  0.00     0.031 A 
ATOM     76  C   UNL     1     -12.062   5.430   1.273  1.00  0.00     0.131 A 
ATOM     77  C   UNL     1     -13.148   7.940   1.669  1.00  0.00     0.055 A 
ATOM     78  C   UNL     1     -12.078   6.346   0.221  1.00  0.00     0.041 A 
ATOM     79  F   UNL     1     -11.534   4.218   1.038  1.00  0.00    -0.206 F 
ATOM     80  C   UNL     1     -12.634   7.607   0.413  1.00  0.00     0.022 A 
BRANCH  77  81
ATOM     81  S   UNL     1     -13.970   9.537   1.919  1.00  0.00     0.124 S 
ATOM     82  O   UNL     1     -15.306   9.124   2.331  1.00  0.00    -0.237 OA
ATOM     83  O   UNL     1     -13.138  10.145   2.952  1.00  0.00    -0.237 OA
ATOM     84  O   UNL     1     -13.889  10.171   0.605  1.00  0.00    -0.744 OA
ENDBRANCH  77  81
ENDBRANCH  50  74
BRANCH  62  85
ATOM     85  C   UNL     1     -17.585   2.416   6.041  1.00  0.00     0.023 A 
ATOM     86  C   UNL     1     -18.327   2.024   4.913  1.00  0.00     0.031 A 
ATOM     87  C   UNL     1     -18.283   2.946   7.141  1.00  0.00     0.131 A 
ATOM     88  C   UNL     1     -19.717   2.217   4.888  1.00  0.00     0.055 A 
ATOM     89  C   UNL     1     -19.672   3.084   7.132  1.00  0.00     0.041 A 
ATOM     90  F   UNL     1     -17.624   3.340   8.242  1.00  0.00    -0.206 F 
ATOM     91  C   UNL     1     -20.395   2.731   5.997  1.00  0.00     0.022 A 
BRANCH  88  92
ATOM     92  S   UNL     1     -20.620   1.869   3.354  1.00  0.00     0.124 S 
ATOM     93  O   UNL     1     -19.967   2.768   2.407  1.00  0.00    -0.237 OA
ATOM     94  O   UNL     1     -20.368   0.445   3.159  1.00  0.00    -0.237 OA
ATOM     95  O   UNL     1     -22.002   2.213   3.683  1.00  0.00    -0.744 OA
ENDBRANCH  88  92
ENDBRANCH  62  85
ENDBRANCH  36  37
ENDBRANCH  28  31
ENDBRANCH  26  27
ENDBRANCH   1  26
TORSDOF 16
