REMARK SMILES CCCNC(=O)N1[C@@H](C(=O)NCCCCNC(=O)c2ccc(-c3c4nc(c(-c5cc(S(=O)(=O)[O-])ccc5F)c5ccc([nH]5)c(-c5cc(S(=O)(=O)[O-])ccc5F)c5nc(c(-c6cc(S(=O)(=O)[O-])ccc6F)c6ccc3[nH]6)C=C5)C=C4)cc2)CC[C@H]2CCCC[C@@H]21
REMARK SMILES IDX 13 1 12 2 11 3 9 4 10 5 8 7 7 8 89 9 82 10 84 11 88 12 83 13
REMARK SMILES IDX 85 14 87 15 86 16 5 17 4 18 6 20 3 21 2 22 1 23 14 24 15 25
REMARK SMILES IDX 16 26 17 27 18 29 19 30 20 31 81 32 21 33 80 34 22 35 23 36
REMARK SMILES IDX 24 37 74 38 25 39 79 40 73 41 75 42 26 43 78 44 72 45 71 46
REMARK SMILES IDX 27 48 59 49 39 50 58 51 40 52 43 53 57 54 76 55 41 56 42 57
REMARK SMILES IDX 56 59 77 60 44 61 28 62 29 63 37 64 30 65 36 66 38 67 35 68
REMARK SMILES IDX 31 69 32 70 33 71 34 72 60 73 61 74 69 75 62 76 68 77 70 78
REMARK SMILES IDX 67 79 63 80 64 81 65 82 66 83 45 84 46 85 54 86 47 87 53 88
REMARK SMILES IDX 55 89 52 90 48 91 49 92 50 93 51 94
REMARK H PARENT 11 6 4 19 16 28 75 47 43 58
REMARK Flexibility Score: inf
ROOT
ATOM      1  C   UNL     1      -6.255  -6.125   1.530  1.00  0.00     0.023 C 
ENDROOT
BRANCH   1   2
ATOM      2  C   UNL     1      -5.157  -5.400   0.760  1.00  0.00     0.116 C 
BRANCH   2   3
ATOM      3  N   UNL     1      -4.348  -4.488   1.544  1.00  0.00    -0.354 N 
ATOM      4  C   UNL     1      -3.034  -4.117   1.380  1.00  0.00     0.242 C 
ATOM      5  O   UNL     1      -2.720  -3.038   1.888  1.00  0.00    -0.273 OA
ATOM      6  H   UNL     1      -4.808  -4.072   2.308  1.00  0.00     0.163 HD
BRANCH   4   7
ATOM      7  C   UNL     1      -2.035  -5.027   0.575  1.00  0.00     0.176 C 
ATOM      8  N   UNL     1      -0.597  -4.656   0.601  1.00  0.00    -0.310 N 
ATOM      9  C   UNL     1       0.347  -5.490  -0.155  1.00  0.00     0.091 C 
ATOM     10  C   UNL     1      -2.479  -5.039  -0.918  1.00  0.00     0.036 C 
ATOM     11  C   UNL     1      -0.356  -6.298  -1.254  1.00  0.00     0.012 C 
ATOM     12  C   UNL     1       1.221  -6.437   0.680  1.00  0.00     0.025 C 
ATOM     13  C   UNL     1      -1.380  -5.395  -1.926  1.00  0.00     0.008 C 
ATOM     14  C   UNL     1       0.686  -6.869  -2.215  1.00  0.00     0.006 C 
ATOM     15  C   UNL     1       2.281  -7.076  -0.229  1.00  0.00     0.002 C 
ATOM     16  C   UNL     1       1.675  -7.761  -1.458  1.00  0.00     0.000 C 
BRANCH   8  17
ATOM     17  C   UNL     1      -0.090  -3.823   1.569  1.00  0.00     0.318 C 
ATOM     18  N   UNL     1       0.590  -2.723   1.120  1.00  0.00    -0.338 N 
ATOM     19  H   UNL     1       0.978  -2.152   1.821  1.00  0.00     0.165 HD
ATOM     20  O   UNL     1      -0.205  -4.045   2.770  1.00  0.00    -0.249 OA
BRANCH  18  21
ATOM     21  C   UNL     1       0.820  -2.278  -0.246  1.00  0.00     0.117 C 
BRANCH  21  22
ATOM     22  C   UNL     1       0.271  -0.895  -0.576  1.00  0.00     0.018 C 
ATOM     23  C   UNL     1       0.964   0.228   0.171  1.00  0.00     0.006 C 
ENDBRANCH  21  22
ENDBRANCH  18  21
ENDBRANCH   8  17
ENDBRANCH   4   7
ENDBRANCH   2   3
ENDBRANCH   1   2
BRANCH   1  24
ATOM     24  C   UNL     1      -7.242  -5.261   2.307  1.00  0.00     0.023 C 
BRANCH  24  25
ATOM     25  C   UNL     1      -7.939  -4.160   1.516  1.00  0.00     0.116 C 
BRANCH  25  26
ATOM     26  N   UNL     1      -8.738  -4.664   0.408  1.00  0.00    -0.352 N 
ATOM     27  C   UNL     1     -10.080  -4.505   0.148  1.00  0.00     0.251 C 
ATOM     28  H   UNL     1      -8.245  -5.199  -0.254  1.00  0.00     0.163 HD
ATOM     29  O   UNL     1     -10.594  -5.130  -0.778  1.00  0.00    -0.269 OA
BRANCH  27  30
ATOM     30  C   UNL     1     -10.908  -3.620   0.999  1.00  0.00     0.039 A 
ATOM     31  C   UNL     1     -12.153  -4.074   1.440  1.00  0.00     0.014 A 
ATOM     32  C   UNL     1     -10.454  -2.354   1.378  1.00  0.00     0.014 A 
ATOM     33  C   UNL     1     -12.901  -3.297   2.329  1.00  0.00     0.010 A 
ATOM     34  C   UNL     1     -11.159  -1.621   2.331  1.00  0.00     0.010 A 
ATOM     35  C   UNL     1     -12.389  -2.085   2.822  1.00  0.00    -0.014 A 
BRANCH  35  36
ATOM     36  C   UNL     1     -13.121  -1.297   3.851  1.00  0.00     0.031 A 
ATOM     37  C   UNL     1     -13.593   0.099   3.542  1.00  0.00     0.074 A 
ATOM     38  C   UNL     1     -13.309  -1.816   5.082  1.00  0.00     0.049 A 
ATOM     39  N   UNL     1     -14.187   0.964   4.324  1.00  0.00    -0.248 NA
ATOM     40  C   UNL     1     -13.338   0.597   2.182  1.00  0.00     0.031 C 
ATOM     41  C   UNL     1     -12.862  -3.142   5.517  1.00  0.00     0.029 A 
ATOM     42  N   UNL     1     -13.919  -1.294   6.197  1.00  0.00    -0.354 N 
ATOM     43  C   UNL     1     -14.366   2.110   3.557  1.00  0.00     0.074 A 
ATOM     44  C   UNL     1     -13.759   1.850   2.269  1.00  0.00     0.031 C 
ATOM     45  C   UNL     1     -13.238  -3.338   6.791  1.00  0.00     0.029 A 
ATOM     46  C   UNL     1     -13.904  -2.138   7.285  1.00  0.00     0.049 A 
ATOM     47  H   UNL     1     -14.328  -0.399   6.216  1.00  0.00     0.167 HD
ATOM     48  C   UNL     1     -15.000   3.264   3.886  1.00  0.00     0.034 A 
ATOM     49  C   UNL     1     -14.361  -1.961   8.541  1.00  0.00     0.034 A 
ATOM     50  C   UNL     1     -15.607   3.505   5.173  1.00  0.00     0.049 A 
ATOM     51  C   UNL     1     -15.031  -0.655   8.895  1.00  0.00     0.074 A 
ATOM     52  C   UNL     1     -16.320   4.614   5.594  1.00  0.00     0.029 A 
ATOM     53  N   UNL     1     -15.566   2.630   6.251  1.00  0.00    -0.354 N 
ATOM     54  N   UNL     1     -15.241   0.398   8.138  1.00  0.00    -0.248 NA
ATOM     55  C   UNL     1     -15.534  -0.518  10.268  1.00  0.00     0.031 C 
ATOM     56  C   UNL     1     -16.639   4.446   6.944  1.00  0.00     0.029 A 
ATOM     57  C   UNL     1     -16.209   3.191   7.345  1.00  0.00     0.049 A 
ATOM     58  H   UNL     1     -15.143   1.741   6.241  1.00  0.00     0.167 HD
ATOM     59  C   UNL     1     -15.933   1.306   8.935  1.00  0.00     0.074 A 
ATOM     60  C   UNL     1     -16.117   0.670  10.223  1.00  0.00     0.031 C 
ATOM     61  C   UNL     1     -16.381   2.551   8.629  1.00  0.00     0.034 A 
BRANCH  48  62
ATOM     62  C   UNL     1     -15.043   4.359   2.846  1.00  0.00     0.023 A 
ATOM     63  C   UNL     1     -15.694   4.183   1.613  1.00  0.00     0.031 A 
ATOM     64  C   UNL     1     -14.414   5.594   3.086  1.00  0.00     0.131 A 
ATOM     65  C   UNL     1     -15.639   5.193   0.640  1.00  0.00     0.055 A 
ATOM     66  C   UNL     1     -14.436   6.627   2.147  1.00  0.00     0.041 A 
ATOM     67  F   UNL     1     -13.757   5.815   4.235  1.00  0.00    -0.206 F 
ATOM     68  C   UNL     1     -15.039   6.425   0.909  1.00  0.00     0.022 A 
BRANCH  65  69
ATOM     69  S   UNL     1     -16.239   4.820  -1.031  1.00  0.00     0.124 S 
ATOM     70  O   UNL     1     -15.396   3.684  -1.399  1.00  0.00    -0.237 OA
ATOM     71  O   UNL     1     -17.648   4.522  -0.802  1.00  0.00    -0.237 OA
ATOM     72  O   UNL     1     -15.973   6.050  -1.773  1.00  0.00    -0.744 OA
ENDBRANCH  65  69
ENDBRANCH  48  62
BRANCH  49  73
ATOM     73  C   UNL     1     -14.194  -3.031   9.569  1.00  0.00     0.023 A 
ATOM     74  C   UNL     1     -15.308  -3.643  10.167  1.00  0.00     0.031 A 
ATOM     75  C   UNL     1     -12.917  -3.418  10.012  1.00  0.00     0.131 A 
ATOM     76  C   UNL     1     -15.126  -4.565  11.209  1.00  0.00     0.055 A 
ATOM     77  C   UNL     1     -12.739  -4.382  11.006  1.00  0.00     0.041 A 
ATOM     78  F   UNL     1     -11.816  -2.866   9.476  1.00  0.00    -0.206 F 
ATOM     79  C   UNL     1     -13.849  -4.950  11.622  1.00  0.00     0.022 A 
BRANCH  76  80
ATOM     80  S   UNL     1     -16.588  -5.177  12.093  1.00  0.00     0.124 S 
ATOM     81  O   UNL     1     -17.193  -3.935  12.559  1.00  0.00    -0.237 OA
ATOM     82  O   UNL     1     -17.305  -5.884  11.037  1.00  0.00    -0.237 OA
ATOM     83  O   UNL     1     -16.023  -6.028  13.137  1.00  0.00    -0.744 OA
ENDBRANCH  76  80
ENDBRANCH  49  73
BRANCH  61  84
ATOM     84  C   UNL     1     -17.163   3.284   9.693  1.00  0.00     0.023 A 
ATOM     85  C   UNL     1     -16.573   3.692  10.902  1.00  0.00     0.031 A 
ATOM     86  C   UNL     1     -18.525   3.572   9.493  1.00  0.00     0.131 A 
ATOM     87  C   UNL     1     -17.357   4.312  11.888  1.00  0.00     0.055 A 
ATOM     88  C   UNL     1     -19.282   4.250  10.449  1.00  0.00     0.041 A 
ATOM     89  F   UNL     1     -19.143   3.203   8.359  1.00  0.00    -0.206 F 
ATOM     90  C   UNL     1     -18.702   4.611  11.661  1.00  0.00     0.022 A 
BRANCH  87  91
ATOM     91  S   UNL     1     -16.619   4.632  13.514  1.00  0.00     0.124 S 
ATOM     92  O   UNL     1     -16.209   3.295  13.929  1.00  0.00    -0.237 OA
ATOM     93  O   UNL     1     -15.539   5.559  13.190  1.00  0.00    -0.237 OA
ATOM     94  O   UNL     1     -17.721   5.209  14.283  1.00  0.00    -0.744 OA
ENDBRANCH  87  91
ENDBRANCH  61  84
ENDBRANCH  35  36
ENDBRANCH  27  30
ENDBRANCH  25  26
ENDBRANCH  24  25
ENDBRANCH   1  24
TORSDOF 17
