REMARK SMILES CCN(CCC#N)C(=O)c1ccncc1/C=C/C(=O)NCCCCNC(=O)c1ccc(-c2c3nc(c(-c4cc(S(=O)(=O)[O-])ccc4F)c4ccc([nH]4)c(-c4cc(S(=O)(=O)[O-])ccc4F)c4nc(c(-c5cc(S(=O)(=O)[O-])ccc5F)c5ccc2[nH]5)C=C4)C=C3)cc1
REMARK SMILES IDX 21 1 20 2 18 3 19 4 17 6 16 7 15 8 10 9 11 10 12 11 14 12
REMARK SMILES IDX 13 13 8 14 9 15 3 16 2 17 1 18 4 19 5 20 6 21 7 22 22 23
REMARK SMILES IDX 23 24 24 25 25 26 26 27 27 29 28 30 29 31 90 32 30 33 89 34
REMARK SMILES IDX 31 35 32 36 33 37 83 38 34 39 88 40 82 41 84 42 35 43 87 44
REMARK SMILES IDX 81 45 80 46 36 48 68 49 48 50 67 51 49 52 52 53 66 54 85 55
REMARK SMILES IDX 50 56 51 57 65 59 86 60 53 61 37 62 38 63 46 64 39 65 45 66
REMARK SMILES IDX 47 67 44 68 40 69 41 70 42 71 43 72 69 73 70 74 78 75 71 76
REMARK SMILES IDX 77 77 79 78 76 79 72 80 73 81 74 82 75 83 54 84 55 85 63 86
REMARK SMILES IDX 56 87 62 88 64 89 61 90 57 91 58 92 59 93 60 94
REMARK H PARENT 20 5 25 28 84 47 52 58
REMARK Flexibility Score: inf
ROOT
ATOM      1  C   UNL     1       5.241   0.394   1.870  1.00  0.00     0.116 C 
ENDROOT
BRANCH   1   2
ATOM      2  N   UNL     1       5.995   0.315   3.104  1.00  0.00    -0.353 N 
ATOM      3  C   UNL     1       6.067  -0.682   4.021  1.00  0.00     0.244 C 
ATOM      4  O   UNL     1       6.781  -0.551   5.014  1.00  0.00    -0.270 OA
ATOM      5  H   UNL     1       6.541   1.108   3.309  1.00  0.00     0.163 HD
BRANCH   3   6
ATOM      6  C   UNL     1       5.405  -1.989   3.783  1.00  0.00     0.072 C 
ATOM      7  C   UNL     1       4.177  -2.214   3.284  1.00  0.00     0.016 C 
BRANCH   7   8
ATOM      8  C   UNL     1       3.710  -3.571   2.951  1.00  0.00     0.006 A 
ATOM      9  C   UNL     1       3.024  -3.889   1.768  1.00  0.00     0.050 A 
ATOM     10  C   UNL     1       2.849  -5.225   1.411  1.00  0.00     0.034 A 
ATOM     11  C   UNL     1       3.158  -6.205   2.329  1.00  0.00     0.112 A 
ATOM     12  C   UNL     1       3.977  -4.643   3.803  1.00  0.00     0.119 A 
ATOM     13  N   UNL     1       3.684  -5.939   3.538  1.00  0.00    -0.264 NA
BRANCH   9  14
ATOM     14  C   UNL     1       2.519  -2.874   0.809  1.00  0.00     0.254 C 
ATOM     15  O   UNL     1       3.342  -2.132   0.281  1.00  0.00    -0.269 OA
BRANCH  14  16
ATOM     16  N   UNL     1       1.138  -2.809   0.535  1.00  0.00    -0.338 N 
BRANCH  16  17
ATOM     17  C   UNL     1       0.684  -1.790  -0.427  1.00  0.00     0.116 C 
ATOM     18  C   UNL     1       0.862  -0.360   0.063  1.00  0.00     0.027 C 
ENDBRANCH  16  17
BRANCH  16  19
ATOM     19  C   UNL     1       0.081  -3.589   1.217  1.00  0.00     0.135 C 
BRANCH  19  20
ATOM     20  C   UNL     1      -0.716  -4.545   0.310  1.00  0.00     0.141 C 
BRANCH  20  21
ATOM     21  C   UNL     1      -0.090  -5.861   0.137  1.00  0.00     0.064 C 
ATOM     22  N   UNL     1       0.376  -6.913  -0.001  1.00  0.00    -0.198 NA
ENDBRANCH  20  21
ENDBRANCH  19  20
ENDBRANCH  16  19
ENDBRANCH  14  16
ENDBRANCH   9  14
ENDBRANCH   7   8
ENDBRANCH   3   6
ENDBRANCH   1   2
BRANCH   1  23
ATOM     23  C   UNL     1       3.962   1.197   2.097  1.00  0.00     0.023 C 
BRANCH  23  24
ATOM     24  C   UNL     1       4.182   2.707   2.144  1.00  0.00     0.023 C 
BRANCH  24  25
ATOM     25  C   UNL     1       4.808   3.287   0.884  1.00  0.00     0.116 C 
BRANCH  25  26
ATOM     26  N   UNL     1       4.037   3.005  -0.320  1.00  0.00    -0.352 N 
ATOM     27  C   UNL     1       3.811   3.842  -1.387  1.00  0.00     0.251 C 
ATOM     28  H   UNL     1       3.631   2.111  -0.375  1.00  0.00     0.163 HD
ATOM     29  O   UNL     1       3.011   3.536  -2.264  1.00  0.00    -0.269 OA
BRANCH  27  30
ATOM     30  C   UNL     1       4.525   5.135  -1.423  1.00  0.00     0.039 A 
ATOM     31  C   UNL     1       3.797   6.310  -1.607  1.00  0.00     0.014 A 
ATOM     32  C   UNL     1       5.900   5.179  -1.175  1.00  0.00     0.014 A 
ATOM     33  C   UNL     1       4.443   7.539  -1.474  1.00  0.00     0.010 A 
ATOM     34  C   UNL     1       6.516   6.403  -0.946  1.00  0.00     0.010 A 
ATOM     35  C   UNL     1       5.797   7.597  -1.098  1.00  0.00    -0.014 A 
BRANCH  35  36
ATOM     36  C   UNL     1       6.479   8.899  -0.876  1.00  0.00     0.031 A 
ATOM     37  C   UNL     1       7.658   9.281  -1.730  1.00  0.00     0.074 A 
ATOM     38  C   UNL     1       6.066   9.714   0.116  1.00  0.00     0.049 A 
ATOM     39  N   UNL     1       8.418  10.343  -1.662  1.00  0.00    -0.248 NA
ATOM     40  C   UNL     1       8.051   8.329  -2.781  1.00  0.00     0.031 C 
ATOM     41  C   UNL     1       4.957   9.436   1.032  1.00  0.00     0.029 A 
ATOM     42  N   UNL     1       6.527  10.941   0.522  1.00  0.00    -0.354 N 
ATOM     43  C   UNL     1       9.378  10.185  -2.656  1.00  0.00     0.074 A 
ATOM     44  C   UNL     1       9.150   8.891  -3.259  1.00  0.00     0.031 C 
ATOM     45  C   UNL     1       4.799  10.479   1.862  1.00  0.00     0.029 A 
ATOM     46  C   UNL     1       5.831  11.473   1.584  1.00  0.00     0.049 A 
ATOM     47  H   UNL     1       7.286  11.399   0.094  1.00  0.00     0.167 HD
ATOM     48  C   UNL     1      10.342  11.053  -3.048  1.00  0.00     0.034 A 
ATOM     49  C   UNL     1       6.012  12.623   2.265  1.00  0.00     0.034 A 
ATOM     50  C   UNL     1      10.555  12.341  -2.437  1.00  0.00     0.049 A 
ATOM     51  C   UNL     1       7.133  13.544   1.848  1.00  0.00     0.074 A 
ATOM     52  C   UNL     1      11.476  13.314  -2.782  1.00  0.00     0.029 A 
ATOM     53  N   UNL     1       9.848  12.833  -1.347  1.00  0.00    -0.354 N 
ATOM     54  N   UNL     1       8.002  13.400   0.873  1.00  0.00    -0.248 NA
ATOM     55  C   UNL     1       7.293  14.785   2.616  1.00  0.00     0.031 C 
ATOM     56  C   UNL     1      11.389  14.350  -1.848  1.00  0.00     0.029 A 
ATOM     57  C   UNL     1      10.342  14.076  -0.983  1.00  0.00     0.049 A 
ATOM     58  H   UNL     1       9.105  12.367  -0.898  1.00  0.00     0.167 HD
ATOM     59  C   UNL     1       8.784  14.553   0.889  1.00  0.00     0.074 A 
ATOM     60  C   UNL     1       8.273  15.385   1.958  1.00  0.00     0.031 C 
ATOM     61  C   UNL     1       9.826  14.896   0.089  1.00  0.00     0.034 A 
BRANCH  48  62
ATOM     62  C   UNL     1      11.254  10.622  -4.172  1.00  0.00     0.023 A 
ATOM     63  C   UNL     1      10.761  10.349  -5.460  1.00  0.00     0.031 A 
ATOM     64  C   UNL     1      12.634  10.471  -3.951  1.00  0.00     0.131 A 
ATOM     65  C   UNL     1      11.627   9.872  -6.455  1.00  0.00     0.055 A 
ATOM     66  C   UNL     1      13.505  10.083  -4.971  1.00  0.00     0.041 A 
ATOM     67  F   UNL     1      13.160  10.690  -2.736  1.00  0.00    -0.206 F 
ATOM     68  C   UNL     1      13.001   9.767  -6.229  1.00  0.00     0.022 A 
BRANCH  65  69
ATOM     69  S   UNL     1      10.909   9.248  -7.999  1.00  0.00     0.124 S 
ATOM     70  O   UNL     1      10.023   8.195  -7.507  1.00  0.00    -0.237 OA
ATOM     71  O   UNL     1      10.255  10.431  -8.545  1.00  0.00    -0.237 OA
ATOM     72  O   UNL     1      12.070   8.774  -8.749  1.00  0.00    -0.744 OA
ENDBRANCH  65  69
ENDBRANCH  48  62
BRANCH  49  73
ATOM     73  C   UNL     1       5.136  12.970   3.425  1.00  0.00     0.023 A 
ATOM     74  C   UNL     1       4.354  14.136   3.419  1.00  0.00     0.031 A 
ATOM     75  C   UNL     1       5.122  12.177   4.586  1.00  0.00     0.131 A 
ATOM     76  C   UNL     1       3.644  14.510   4.571  1.00  0.00     0.055 A 
ATOM     77  C   UNL     1       4.357  12.515   5.704  1.00  0.00     0.041 A 
ATOM     78  F   UNL     1       5.853  11.053   4.652  1.00  0.00    -0.206 F 
ATOM     79  C   UNL     1       3.626  13.698   5.707  1.00  0.00     0.022 A 
BRANCH  76  80
ATOM     80  S   UNL     1       2.847  16.140   4.609  1.00  0.00     0.124 S 
ATOM     81  O   UNL     1       3.974  17.025   4.339  1.00  0.00    -0.237 OA
ATOM     82  O   UNL     1       1.857  16.017   3.544  1.00  0.00    -0.237 OA
ATOM     83  O   UNL     1       2.299  16.218   5.961  1.00  0.00    -0.744 OA
ENDBRANCH  76  80
ENDBRANCH  49  73
BRANCH  61  84
ATOM     84  C   UNL     1      10.446  16.257   0.303  1.00  0.00     0.023 A 
ATOM     85  C   UNL     1      11.107  16.597   1.496  1.00  0.00     0.031 A 
ATOM     86  C   UNL     1      10.370  17.232  -0.709  1.00  0.00     0.131 A 
ATOM     87  C   UNL     1      11.607  17.896   1.672  1.00  0.00     0.055 A 
ATOM     88  C   UNL     1      10.938  18.497  -0.558  1.00  0.00     0.041 A 
ATOM     89  F   UNL     1       9.745  16.968  -1.868  1.00  0.00    -0.206 F 
ATOM     90  C   UNL     1      11.549  18.840   0.644  1.00  0.00     0.022 A 
BRANCH  87  91
ATOM     91  S   UNL     1      12.233  18.372   3.306  1.00  0.00     0.124 S 
ATOM     92  O   UNL     1      11.077  18.118   4.159  1.00  0.00    -0.237 OA
ATOM     93  O   UNL     1      13.366  17.470   3.482  1.00  0.00    -0.237 OA
ATOM     94  O   UNL     1      12.584  19.782   3.141  1.00  0.00    -0.744 OA
ENDBRANCH  87  91
ENDBRANCH  61  84
ENDBRANCH  35  36
ENDBRANCH  27  30
ENDBRANCH  25  26
ENDBRANCH  24  25
ENDBRANCH  23  24
ENDBRANCH   1  23
TORSDOF 21
