REMARK SMILES O=C(COc1ccc(Cl)c2ccccc12)N[C@@H](Cc1c[nH]c2ccccc12)C(=O)NCCCCNC(=O)c1ccc(-c2c3nc(c(-c4cc(S(=O)(=O)[O-])ccc4F)c4ccc([nH]4)c(-c4cc(S(=O)(=O)[O-])ccc4F)c4nc(c(-c5cc(S(=O)(=O)[O-])ccc5F)c5ccc2[nH]5)C=C4)C=C3)cc1
REMARK SMILES IDX 32 1 31 2 30 3 28 4 29 5 17 7 16 8 1 9 2 10 3 12 4 13 5 14
REMARK SMILES IDX 6 15 15 16 7 17 10 18 14 19 8 20 11 21 13 22 9 23 12 24
REMARK SMILES IDX 18 25 19 26 20 27 27 28 21 29 22 30 26 31 23 33 25 34 24 35
REMARK SMILES IDX 33 36 34 37 35 38 36 39 37 41 38 42 39 43 100 44 40 45 99 46
REMARK SMILES IDX 41 47 42 48 43 49 93 50 44 51 98 52 92 53 94 54 45 55 97 56
REMARK SMILES IDX 91 57 90 58 46 60 78 61 58 62 77 63 59 64 62 65 76 66 95 67
REMARK SMILES IDX 60 68 61 69 75 71 96 72 63 73 47 74 48 75 56 76 49 77 55 78
REMARK SMILES IDX 57 79 54 80 50 81 51 82 52 83 53 84 79 85 80 86 88 87 81 88
REMARK SMILES IDX 87 89 89 90 86 91 82 92 83 93 84 94 85 95 64 96 65 97 73 98
REMARK SMILES IDX 66 99 72 100 74 101 71 102 67 103 68 104 69 105 70 106
REMARK H PARENT 30 6 16 11 21 32 35 40 94 59 62 70
REMARK Flexibility Score: inf
ROOT
ATOM      1  C   UNL     1       6.320   2.632   0.593  1.00  0.00     0.023 C 
ENDROOT
BRANCH   1   2
ATOM      2  C   UNL     1       5.319   2.372   1.709  1.00  0.00     0.116 C 
BRANCH   2   3
ATOM      3  N   UNL     1       4.043   3.036   1.531  1.00  0.00    -0.354 N 
ATOM      4  C   UNL     1       2.790   2.642   1.913  1.00  0.00     0.242 C 
ATOM      5  O   UNL     1       1.953   3.537   2.076  1.00  0.00    -0.273 OA
ATOM      6  H   UNL     1       4.085   3.902   1.064  1.00  0.00     0.163 HD
BRANCH   4   7
ATOM      7  C   UNL     1       2.414   1.167   2.203  1.00  0.00     0.175 C 
BRANCH   7   8
ATOM      8  N   UNL     1       2.952   0.258   1.185  1.00  0.00    -0.341 N 
ATOM      9  O   UNL     1       0.936  -0.380   0.280  1.00  0.00    -0.271 OA
ATOM     10  C   UNL     1       2.156  -0.272   0.191  1.00  0.00     0.258 C 
ATOM     11  H   UNL     1       3.906   0.018   1.212  1.00  0.00     0.164 HD
BRANCH  10  12
ATOM     12  C   UNL     1       2.925  -0.691  -1.064  1.00  0.00     0.329 C 
BRANCH  12  13
ATOM     13  O   UNL     1       3.828   0.316  -1.536  1.00  0.00    -0.483 OA
BRANCH  13  14
ATOM     14  C   UNL     1       3.227   1.202  -2.407  1.00  0.00     0.128 A 
ATOM     15  C   UNL     1       2.259   2.089  -1.933  1.00  0.00     0.048 A 
ATOM     16  C   UNL     1       3.672   1.264  -3.749  1.00  0.00     0.025 A 
ATOM     17  C   UNL     1       1.675   3.010  -2.794  1.00  0.00     0.025 A 
ATOM     18  C   UNL     1       3.081   2.208  -4.634  1.00  0.00     0.004 A 
ATOM     19  C   UNL     1       4.688   0.416  -4.243  1.00  0.00     0.012 A 
ATOM     20  C   UNL     1       2.072   3.066  -4.130  1.00  0.00     0.049 A 
ATOM     21  C   UNL     1       3.537   2.251  -5.974  1.00  0.00     0.010 A 
ATOM     22  C   UNL     1       5.119   0.484  -5.569  1.00  0.00     0.001 A 
ATOM     23  Cl  UNL     1       1.275   4.242  -5.126  1.00  0.00    -0.084 Cl
ATOM     24  C   UNL     1       4.543   1.401  -6.435  1.00  0.00     0.001 A 
ENDBRANCH  13  14
ENDBRANCH  12  13
ENDBRANCH  10  12
ENDBRANCH   7   8
BRANCH   7  25
ATOM     25  C   UNL     1       2.601   0.734   3.667  1.00  0.00     0.072 C 
BRANCH  25  26
ATOM     26  C   UNL     1       3.993   0.779   4.215  1.00  0.00    -0.020 A 
ATOM     27  C   UNL     1       4.559   1.830   4.915  1.00  0.00     0.087 A 
ATOM     28  C   UNL     1       4.990  -0.245   4.135  1.00  0.00     0.003 A 
ATOM     29  N   UNL     1       5.867   1.521   5.179  1.00  0.00    -0.361 N 
ATOM     30  C   UNL     1       6.164   0.273   4.685  1.00  0.00     0.046 A 
ATOM     31  C   UNL     1       5.013  -1.554   3.613  1.00  0.00     0.010 A 
ATOM     32  H   UNL     1       6.502   2.107   5.652  1.00  0.00     0.166 HD
ATOM     33  C   UNL     1       7.374  -0.430   4.689  1.00  0.00     0.026 A 
ATOM     34  C   UNL     1       6.206  -2.284   3.639  1.00  0.00     0.001 A 
ATOM     35  C   UNL     1       7.372  -1.722   4.156  1.00  0.00     0.002 A 
ENDBRANCH  25  26
ENDBRANCH   7  25
ENDBRANCH   4   7
ENDBRANCH   2   3
ENDBRANCH   1   2
BRANCH   1  36
ATOM     36  C   UNL     1       7.004   3.998   0.653  1.00  0.00     0.023 C 
BRANCH  36  37
ATOM     37  C   UNL     1       7.624   4.386   1.995  1.00  0.00     0.116 C 
BRANCH  37  38
ATOM     38  N   UNL     1       8.531   3.387   2.544  1.00  0.00    -0.352 N 
ATOM     39  C   UNL     1       9.778   3.567   3.106  1.00  0.00     0.251 C 
ATOM     40  H   UNL     1       8.211   2.457   2.509  1.00  0.00     0.163 HD
ATOM     41  O   UNL     1      10.433   2.603   3.472  1.00  0.00    -0.269 OA
BRANCH  39  42
ATOM     42  C   UNL     1      10.320   4.939   3.226  1.00  0.00     0.039 A 
ATOM     43  C   UNL     1      11.572   5.223   2.675  1.00  0.00     0.014 A 
ATOM     44  C   UNL     1       9.565   5.951   3.824  1.00  0.00     0.014 A 
ATOM     45  C   UNL     1      12.027   6.545   2.643  1.00  0.00     0.010 A 
ATOM     46  C   UNL     1       9.991   7.274   3.732  1.00  0.00     0.010 A 
ATOM     47  C   UNL     1      11.219   7.587   3.128  1.00  0.00    -0.014 A 
BRANCH  47  48
ATOM     48  C   UNL     1      11.627   9.011   2.993  1.00  0.00     0.031 A 
ATOM     49  C   UNL     1      11.874   9.845   4.219  1.00  0.00     0.074 A 
ATOM     50  C   UNL     1      11.692   9.575   1.770  1.00  0.00     0.049 A 
ATOM     51  N   UNL     1      12.139  11.123   4.314  1.00  0.00    -0.248 NA
ATOM     52  C   UNL     1      11.777   9.153   5.512  1.00  0.00     0.031 C 
ATOM     53  C   UNL     1      11.428   8.885   0.505  1.00  0.00     0.029 A 
ATOM     54  N   UNL     1      11.986  10.861   1.389  1.00  0.00    -0.354 N 
ATOM     55  C   UNL     1      12.226  11.393   5.675  1.00  0.00     0.074 A 
ATOM     56  C   UNL     1      11.924  10.155   6.365  1.00  0.00     0.031 C 
ATOM     57  C   UNL     1      11.588   9.750  -0.510  1.00  0.00     0.029 A 
ATOM     58  C   UNL     1      11.924  11.064   0.029  1.00  0.00     0.049 A 
ATOM     59  H   UNL     1      12.219  11.572   2.029  1.00  0.00     0.167 HD
ATOM     60  C   UNL     1      12.550  12.557   6.293  1.00  0.00     0.034 A 
ATOM     61  C   UNL     1      12.104  12.183  -0.700  1.00  0.00     0.034 A 
ATOM     62  C   UNL     1      12.860  13.779   5.591  1.00  0.00     0.049 A 
ATOM     63  C   UNL     1      12.446  13.470   0.007  1.00  0.00     0.074 A 
ATOM     64  C   UNL     1      13.261  14.997   6.115  1.00  0.00     0.029 A 
ATOM     65  N   UNL     1      12.797  13.945   4.213  1.00  0.00    -0.354 N 
ATOM     66  N   UNL     1      12.578  13.696   1.294  1.00  0.00    -0.248 NA
ATOM     67  C   UNL     1      12.672  14.649  -0.839  1.00  0.00     0.031 C 
ATOM     68  C   UNL     1      13.378  15.912   5.063  1.00  0.00     0.029 A 
ATOM     69  C   UNL     1      13.121  15.250   3.873  1.00  0.00     0.049 A 
ATOM     70  H   UNL     1      12.557  13.238   3.571  1.00  0.00     0.167 HD
ATOM     71  C   UNL     1      12.929  15.038   1.408  1.00  0.00     0.074 A 
ATOM     72  C   UNL     1      13.002  15.565   0.060  1.00  0.00     0.031 C 
ATOM     73  C   UNL     1      13.174  15.768   2.526  1.00  0.00     0.034 A 
BRANCH  60  74
ATOM     74  C   UNL     1      12.559  12.558   7.803  1.00  0.00     0.023 A 
ATOM     75  C   UNL     1      13.441  11.743   8.535  1.00  0.00     0.031 A 
ATOM     76  C   UNL     1      11.648  13.351   8.522  1.00  0.00     0.131 A 
ATOM     77  C   UNL     1      13.335  11.673   9.932  1.00  0.00     0.055 A 
ATOM     78  C   UNL     1      11.607  13.343   9.918  1.00  0.00     0.041 A 
ATOM     79  F   UNL     1      10.768  14.135   7.880  1.00  0.00    -0.206 F 
ATOM     80  C   UNL     1      12.441  12.487  10.631  1.00  0.00     0.022 A 
BRANCH  77  81
ATOM     81  S   UNL     1      14.273  10.389  10.805  1.00  0.00     0.124 S 
ATOM     82  O   UNL     1      13.766   9.174  10.172  1.00  0.00    -0.237 OA
ATOM     83  O   UNL     1      15.653  10.742  10.497  1.00  0.00    -0.237 OA
ATOM     84  O   UNL     1      13.878  10.567  12.201  1.00  0.00    -0.744 OA
ENDBRANCH  77  81
ENDBRANCH  60  74
BRANCH  61  85
ATOM     85  C   UNL     1      11.955  12.149  -2.183  1.00  0.00     0.023 A 
ATOM     86  C   UNL     1      13.056  12.373  -3.024  1.00  0.00     0.031 A 
ATOM     87  C   UNL     1      10.701  11.931  -2.780  1.00  0.00     0.131 A 
ATOM     88  C   UNL     1      12.875  12.416  -4.415  1.00  0.00     0.055 A 
ATOM     89  C   UNL     1      10.535  11.927  -4.166  1.00  0.00     0.041 A 
ATOM     90  F   UNL     1       9.617  11.705  -2.019  1.00  0.00    -0.206 F 
ATOM     91  C   UNL     1      11.625  12.183  -4.992  1.00  0.00     0.022 A 
BRANCH  88  92
ATOM     92  S   UNL     1      14.291  12.853  -5.461  1.00  0.00     0.124 S 
ATOM     93  O   UNL     1      14.642  14.173  -4.950  1.00  0.00    -0.237 OA
ATOM     94  O   UNL     1      15.232  11.778  -5.162  1.00  0.00    -0.237 OA
ATOM     95  O   UNL     1      13.735  12.833  -6.813  1.00  0.00    -0.744 OA
ENDBRANCH  88  92
ENDBRANCH  61  85
BRANCH  73  96
ATOM     96  C   UNL     1      13.584  17.206   2.327  1.00  0.00     0.023 A 
ATOM     97  C   UNL     1      12.692  18.167   1.819  1.00  0.00     0.031 A 
ATOM     98  C   UNL     1      14.893  17.617   2.638  1.00  0.00     0.131 A 
ATOM     99  C   UNL     1      13.135  19.478   1.587  1.00  0.00     0.055 A 
ATOM    100  C   UNL     1      15.311  18.936   2.458  1.00  0.00     0.041 A 
ATOM    101  F   UNL     1      15.787  16.741   3.123  1.00  0.00    -0.206 F 
ATOM    102  C   UNL     1      14.434  19.872   1.918  1.00  0.00     0.022 A 
BRANCH  99 103
ATOM    103  S   UNL     1      12.014  20.644   0.765  1.00  0.00     0.124 S 
ATOM    104  O   UNL     1      11.745  19.967  -0.499  1.00  0.00    -0.237 OA
ATOM    105  O   UNL     1      10.896  20.715   1.701  1.00  0.00    -0.237 OA
ATOM    106  O   UNL     1      12.809  21.866   0.657  1.00  0.00    -0.744 OA
ENDBRANCH  99 103
ENDBRANCH  73  96
ENDBRANCH  47  48
ENDBRANCH  39  42
ENDBRANCH  37  38
ENDBRANCH  36  37
ENDBRANCH   1  36
TORSDOF 20
