REMARK SMILES O=C(COc1ccc(/C=C/C(=O)c2ccc(F)cc2F)cc1[N+](=O)[O-])NCCCCNC(=O)c1ccc(-c2c3nc(c(-c4cc(S(=O)(=O)[O-])ccc4F)c4ccc([nH]4)c(-c4cc(S(=O)(=O)[O-])ccc4F)c4nc(c(-c5cc(S(=O)(=O)[O-])ccc5F)c5ccc2[nH]5)C=C4)C=C3)cc1
REMARK SMILES IDX 27 1 26 2 1 3 2 4 3 6 4 7 5 8 6 9 22 10 7 11 21 12 8 13
REMARK SMILES IDX 23 14 24 15 25 16 9 17 10 18 11 19 12 20 13 21 14 22 19 23
REMARK SMILES IDX 15 24 18 25 20 26 16 27 17 28 28 29 29 30 30 31 31 32 32 33
REMARK SMILES IDX 33 35 34 36 35 37 96 38 36 39 95 40 37 41 38 42 39 43 89 44
REMARK SMILES IDX 40 45 94 46 88 47 90 48 41 49 93 50 87 51 86 52 42 54 74 55
REMARK SMILES IDX 54 56 73 57 55 58 58 59 72 60 91 61 56 62 57 63 71 65 92 66
REMARK SMILES IDX 59 67 43 68 44 69 52 70 45 71 51 72 53 73 50 74 46 75 47 76
REMARK SMILES IDX 48 77 49 78 75 79 76 80 84 81 77 82 83 83 85 84 82 85 78 86
REMARK SMILES IDX 79 87 80 88 81 89 60 90 61 91 69 92 62 93 68 94 70 95 67 96
REMARK SMILES IDX 63 97 64 98 65 99 66 100
REMARK H PARENT 26 5 31 34 90 53 58 64
REMARK Flexibility Score: inf
ROOT
ATOM      1  C   UNL     1       1.976  -0.634   2.395  1.00  0.00     0.116 C 
ENDROOT
BRANCH   1   2
ATOM      2  N   UNL     1       2.721  -0.484   1.153  1.00  0.00    -0.353 N 
ATOM      3  O   UNL     1       0.974  -0.943  -0.279  1.00  0.00    -0.271 OA
ATOM      4  C   UNL     1       2.110  -0.520  -0.086  1.00  0.00     0.257 C 
ATOM      5  H   UNL     1       3.696  -0.352   1.198  1.00  0.00     0.163 HD
BRANCH   4   6
ATOM      6  C   UNL     1       2.968   0.034  -1.235  1.00  0.00     0.329 C 
BRANCH   6   7
ATOM      7  O   UNL     1       3.718   1.210  -0.905  1.00  0.00    -0.477 OA
BRANCH   7   8
ATOM      8  C   UNL     1       3.071   2.379  -1.207  1.00  0.00     0.197 A 
ATOM      9  C   UNL     1       3.464   3.084  -2.349  1.00  0.00     0.054 A 
ATOM     10  C   UNL     1       2.145   2.988  -0.362  1.00  0.00     0.311 A 
ATOM     11  C   UNL     1       2.912   4.351  -2.639  1.00  0.00     0.012 A 
ATOM     12  C   UNL     1       1.548   4.213  -0.667  1.00  0.00     0.098 A 
ATOM     13  C   UNL     1       1.946   4.921  -1.800  1.00  0.00    -0.018 A 
BRANCH  10  14
ATOM     14  N   UNL     1       1.891   2.491   0.964  1.00  0.00     0.066 N 
ATOM     15  O   UNL     1       0.714   2.234   1.252  1.00  0.00    -0.258 OA
ATOM     16  O   UNL     1       2.858   2.429   1.735  1.00  0.00    -0.258 OA
ENDBRANCH  10  14
BRANCH  13  17
ATOM     17  C   UNL     1       1.318   6.236  -1.977  1.00  0.00     0.012 C 
ATOM     18  C   UNL     1       1.919   7.340  -2.441  1.00  0.00     0.053 C 
BRANCH  18  19
ATOM     19  C   UNL     1       1.246   8.670  -2.448  1.00  0.00     0.188 C 
ATOM     20  O   UNL     1       1.525   9.488  -3.321  1.00  0.00    -0.289 OA
BRANCH  19  21
ATOM     21  C   UNL     1       0.222   9.012  -1.431  1.00  0.00     0.058 A 
ATOM     22  C   UNL     1      -0.929   9.695  -1.849  1.00  0.00     0.018 A 
ATOM     23  C   UNL     1       0.384   8.712  -0.075  1.00  0.00     0.137 A 
ATOM     24  C   UNL     1      -1.919  10.027  -0.921  1.00  0.00     0.040 A 
ATOM     25  C   UNL     1      -0.600   9.043   0.854  1.00  0.00     0.079 A 
ATOM     26  F   UNL     1       1.493   8.103   0.368  1.00  0.00    -0.206 F 
ATOM     27  C   UNL     1      -1.747   9.694   0.420  1.00  0.00     0.126 A 
ATOM     28  F   UNL     1      -2.701  10.011   1.304  1.00  0.00    -0.207 F 
ENDBRANCH  19  21
ENDBRANCH  18  19
ENDBRANCH  13  17
ENDBRANCH   7   8
ENDBRANCH   6   7
ENDBRANCH   4   6
ENDBRANCH   1   2
BRANCH   1  29
ATOM     29  C   UNL     1       2.577  -1.626   3.383  1.00  0.00     0.023 C 
BRANCH  29  30
ATOM     30  C   UNL     1       4.046  -1.401   3.748  1.00  0.00     0.023 C 
BRANCH  30  31
ATOM     31  C   UNL     1       4.406  -0.023   4.301  1.00  0.00     0.116 C 
BRANCH  31  32
ATOM     32  N   UNL     1       3.822   0.243   5.606  1.00  0.00    -0.352 N 
ATOM     33  C   UNL     1       4.424   0.455   6.827  1.00  0.00     0.251 C 
ATOM     34  H   UNL     1       2.838   0.276   5.618  1.00  0.00     0.163 HD
ATOM     35  O   UNL     1       3.729   0.516   7.835  1.00  0.00    -0.269 OA
BRANCH  33  36
ATOM     36  C   UNL     1       5.899   0.573   6.940  1.00  0.00     0.039 A 
ATOM     37  C   UNL     1       6.548  -0.091   7.986  1.00  0.00     0.014 A 
ATOM     38  C   UNL     1       6.645   1.345   6.047  1.00  0.00     0.014 A 
ATOM     39  C   UNL     1       7.944  -0.051   8.083  1.00  0.00     0.010 A 
ATOM     40  C   UNL     1       8.041   1.322   6.099  1.00  0.00     0.010 A 
ATOM     41  C   UNL     1       8.709   0.617   7.112  1.00  0.00    -0.014 A 
BRANCH  41  42
ATOM     42  C   UNL     1      10.199   0.573   7.136  1.00  0.00     0.031 A 
ATOM     43  C   UNL     1      10.999   1.837   7.304  1.00  0.00     0.074 A 
ATOM     44  C   UNL     1      10.837  -0.602   6.947  1.00  0.00     0.049 A 
ATOM     45  N   UNL     1      12.297   2.007   7.272  1.00  0.00    -0.248 NA
ATOM     46  C   UNL     1      10.237   3.077   7.508  1.00  0.00     0.031 C 
ATOM     47  C   UNL     1      10.180  -1.894   6.741  1.00  0.00     0.029 A 
ATOM     48  N   UNL     1      12.177  -0.901   6.889  1.00  0.00    -0.354 N 
ATOM     49  C   UNL     1      12.508   3.372   7.444  1.00  0.00     0.074 A 
ATOM     50  C   UNL     1      11.199   3.988   7.515  1.00  0.00     0.031 C 
ATOM     51  C   UNL     1      11.115  -2.848   6.604  1.00  0.00     0.029 A 
ATOM     52  C   UNL     1      12.438  -2.233   6.657  1.00  0.00     0.049 A 
ATOM     53  H   UNL     1      12.884  -0.226   7.002  1.00  0.00     0.167 HD
ATOM     54  C   UNL     1      13.681   4.046   7.554  1.00  0.00     0.034 A 
ATOM     55  C   UNL     1      13.606  -2.886   6.488  1.00  0.00     0.034 A 
ATOM     56  C   UNL     1      14.980   3.419   7.484  1.00  0.00     0.049 A 
ATOM     57  C   UNL     1      14.897  -2.109   6.568  1.00  0.00     0.074 A 
ATOM     58  C   UNL     1      16.227   4.002   7.630  1.00  0.00     0.029 A 
ATOM     59  N   UNL     1      15.204   2.070   7.236  1.00  0.00    -0.354 N 
ATOM     60  N   UNL     1      15.077  -0.825   6.777  1.00  0.00    -0.248 NA
ATOM     61  C   UNL     1      16.141  -2.871   6.399  1.00  0.00     0.031 C 
ATOM     62  C   UNL     1      17.201   3.027   7.393  1.00  0.00     0.029 A 
ATOM     63  C   UNL     1      16.567   1.812   7.188  1.00  0.00     0.049 A 
ATOM     64  H   UNL     1      14.498   1.395   7.112  1.00  0.00     0.167 HD
ATOM     65  C   UNL     1      16.457  -0.634   6.799  1.00  0.00     0.074 A 
ATOM     66  C   UNL     1      17.058  -1.936   6.597  1.00  0.00     0.031 C 
ATOM     67  C   UNL     1      17.161   0.513   6.975  1.00  0.00     0.034 A 
BRANCH  54  68
ATOM     68  C   UNL     1      13.609   5.545   7.734  1.00  0.00     0.023 A 
ATOM     69  C   UNL     1      12.992   6.127   8.856  1.00  0.00     0.031 A 
ATOM     70  C   UNL     1      14.149   6.408   6.763  1.00  0.00     0.131 A 
ATOM     71  C   UNL     1      12.859   7.521   8.940  1.00  0.00     0.055 A 
ATOM     72  C   UNL     1      14.091   7.797   6.896  1.00  0.00     0.041 A 
ATOM     73  F   UNL     1      14.733   5.915   5.659  1.00  0.00    -0.206 F 
ATOM     74  C   UNL     1      13.428   8.362   7.981  1.00  0.00     0.022 A 
BRANCH  71  75
ATOM     75  S   UNL     1      11.799   8.213  10.239  1.00  0.00     0.124 S 
ATOM     76  O   UNL     1      10.522   7.562   9.955  1.00  0.00    -0.237 OA
ATOM     77  O   UNL     1      12.476   7.788  11.458  1.00  0.00    -0.237 OA
ATOM     78  O   UNL     1      11.828   9.650   9.976  1.00  0.00    -0.744 OA
ENDBRANCH  71  75
ENDBRANCH  54  68
BRANCH  55  79
ATOM     79  C   UNL     1      13.620  -4.352   6.205  1.00  0.00     0.023 A 
ATOM     80  C   UNL     1      14.218  -5.258   7.095  1.00  0.00     0.031 A 
ATOM     81  C   UNL     1      13.078  -4.864   5.011  1.00  0.00     0.131 A 
ATOM     82  C   UNL     1      14.306  -6.618   6.758  1.00  0.00     0.055 A 
ATOM     83  C   UNL     1      13.113  -6.226   4.709  1.00  0.00     0.041 A 
ATOM     84  F   UNL     1      12.495  -4.044   4.123  1.00  0.00    -0.206 F 
ATOM     85  C   UNL     1      13.743  -7.111   5.578  1.00  0.00     0.022 A 
BRANCH  82  86
ATOM     86  S   UNL     1      15.255  -7.722   7.840  1.00  0.00     0.124 S 
ATOM     87  O   UNL     1      16.567  -7.085   7.835  1.00  0.00    -0.237 OA
ATOM     88  O   UNL     1      14.505  -7.641   9.089  1.00  0.00    -0.237 OA
ATOM     89  O   UNL     1      15.185  -9.011   7.155  1.00  0.00    -0.744 OA
ENDBRANCH  82  86
ENDBRANCH  55  79
BRANCH  67  90
ATOM     90  C   UNL     1      18.668   0.400   7.009  1.00  0.00     0.023 A 
ATOM     91  C   UNL     1      19.411   0.005   5.882  1.00  0.00     0.031 A 
ATOM     92  C   UNL     1      19.370   0.682   8.195  1.00  0.00     0.131 A 
ATOM     93  C   UNL     1      20.802  -0.152   5.980  1.00  0.00     0.055 A 
ATOM     94  C   UNL     1      20.761   0.589   8.268  1.00  0.00     0.041 A 
ATOM     95  F   UNL     1      18.715   1.058   9.305  1.00  0.00    -0.206 F 
ATOM     96  C   UNL     1      21.484   0.156   7.160  1.00  0.00     0.022 A 
BRANCH  93  97
ATOM     97  S   UNL     1      21.701  -0.862   4.574  1.00  0.00     0.124 S 
ATOM     98  O   UNL     1      21.035  -2.150   4.407  1.00  0.00    -0.237 OA
ATOM     99  O   UNL     1      21.462   0.121   3.522  1.00  0.00    -0.237 OA
ATOM    100  O   UNL     1      23.082  -0.934   5.050  1.00  0.00    -0.744 OA
ENDBRANCH  93  97
ENDBRANCH  67  90
ENDBRANCH  41  42
ENDBRANCH  33  36
ENDBRANCH  31  32
ENDBRANCH  30  31
ENDBRANCH  29  30
ENDBRANCH   1  29
TORSDOF 20
