REMARK SMILES Cc1cccc2nc(C(=O)N3CCC[C@@H](C(=O)NCCCCNC(=O)c4ccc(-c5c6nc(c(-c7cc(S(=O)(=O)[O-])ccc7F)c7ccc([nH]7)c(-c7cc(S(=O)(=O)[O-])ccc7F)c7nc(c(-c8cc(S(=O)(=O)[O-])ccc8F)c8ccc5[nH]8)C=C7)C=C6)cc4)C3)cn12
REMARK SMILES IDX 21 1 20 2 19 3 18 4 16 5 17 6 15 8 11 9 12 10 89 11 13 12
REMARK SMILES IDX 14 13 9 14 10 15 8 16 1 17 2 18 3 19 91 20 4 21 6 22 90 23
REMARK SMILES IDX 5 24 7 25 22 26 23 27 24 28 25 30 26 31 27 32 88 33 28 34
REMARK SMILES IDX 87 35 29 36 30 37 31 38 81 39 32 40 86 41 80 42 82 43 33 44
REMARK SMILES IDX 85 45 79 46 78 47 34 49 66 50 46 51 65 52 47 53 50 54 64 55
REMARK SMILES IDX 83 56 48 57 49 58 63 60 84 61 51 62 35 63 36 64 44 65 37 66
REMARK SMILES IDX 43 67 45 68 42 69 38 70 39 71 40 72 41 73 67 74 68 75 76 76
REMARK SMILES IDX 69 77 75 78 77 79 74 80 70 81 71 82 72 83 73 84 52 85 53 86
REMARK SMILES IDX 61 87 54 88 60 89 62 90 59 91 55 92 56 93 57 94 58 95
REMARK H PARENT 18 7 23 29 82 48 50 59
REMARK Flexibility Score: inf
ROOT
ATOM      1  C   UNL     1      -2.671   7.226  -3.334  1.00  0.00     0.023 C 
ENDROOT
BRANCH   1   2
ATOM      2  C   UNL     1      -1.192   7.303  -2.941  1.00  0.00     0.023 C 
BRANCH   2   3
ATOM      3  C   UNL     1      -0.600   8.718  -2.837  1.00  0.00     0.116 C 
BRANCH   3   4
ATOM      4  N   UNL     1      -1.061   9.398  -1.644  1.00  0.00    -0.356 N 
ATOM      5  C   UNL     1      -0.639   9.342  -0.356  1.00  0.00     0.224 C 
ATOM      6  O   UNL     1      -1.326   9.932   0.485  1.00  0.00    -0.275 OA
ATOM      7  H   UNL     1      -1.817  10.012  -1.796  1.00  0.00     0.163 HD
BRANCH   5   8
ATOM      8  C   UNL     1       0.659   8.671   0.085  1.00  0.00     0.098 C 
ATOM      9  N   UNL     1       2.191   6.720   0.053  1.00  0.00    -0.336 N 
ATOM     10  C   UNL     1       3.357   7.576  -0.108  1.00  0.00     0.120 C 
ATOM     11  C   UNL     1       0.921   7.255  -0.430  1.00  0.00     0.133 C 
ATOM     12  C   UNL     1       3.127   8.978   0.435  1.00  0.00     0.022 C 
ATOM     13  C   UNL     1       1.857   9.597  -0.149  1.00  0.00     0.017 C 
BRANCH   9  14
ATOM     14  C   UNL     1       2.400   5.377   0.355  1.00  0.00     0.274 C 
ATOM     15  O   UNL     1       3.304   5.022   1.113  1.00  0.00    -0.267 OA
BRANCH  14  16
ATOM     16  C   UNL     1       1.580   4.368  -0.339  1.00  0.00     0.147 A 
ATOM     17  C   UNL     1       0.987   0.054  -0.059  1.00  0.00     0.065 C 
ATOM     18  C   UNL     1       0.604   1.008  -1.148  1.00  0.00     0.021 A 
ATOM     19  C   UNL     1       0.025   0.605  -2.298  1.00  0.00     0.022 A 
ATOM     20  N   UNL     1       0.866   2.381  -0.987  1.00  0.00    -0.304 N 
ATOM     21  C   UNL     1      -0.302   1.586  -3.322  1.00  0.00     0.006 A 
ATOM     22  C   UNL     1       0.555   3.348  -1.942  1.00  0.00     0.137 A 
ATOM     23  C   UNL     1       1.486   3.042   0.041  1.00  0.00     0.127 A 
ATOM     24  C   UNL     1      -0.054   2.898  -3.148  1.00  0.00     0.048 A 
ATOM     25  N   UNL     1       0.941   4.549  -1.559  1.00  0.00    -0.223 NA
ENDBRANCH  14  16
ENDBRANCH   9  14
ENDBRANCH   5   8
ENDBRANCH   3   4
ENDBRANCH   2   3
ENDBRANCH   1   2
BRANCH   1  26
ATOM     26  C   UNL     1      -2.936   7.601  -4.780  1.00  0.00     0.116 C 
BRANCH  26  27
ATOM     27  N   UNL     1      -2.262   6.704  -5.721  1.00  0.00    -0.352 N 
ATOM     28  C   UNL     1      -2.178   6.835  -7.097  1.00  0.00     0.251 C 
ATOM     29  H   UNL     1      -1.817   5.917  -5.331  1.00  0.00     0.163 HD
ATOM     30  O   UNL     1      -1.912   5.889  -7.814  1.00  0.00    -0.269 OA
BRANCH  28  31
ATOM     31  C   UNL     1      -2.390   8.180  -7.653  1.00  0.00     0.039 A 
ATOM     32  C   UNL     1      -3.216   8.407  -8.757  1.00  0.00     0.014 A 
ATOM     33  C   UNL     1      -1.768   9.229  -6.981  1.00  0.00     0.014 A 
ATOM     34  C   UNL     1      -3.445   9.722  -9.151  1.00  0.00     0.010 A 
ATOM     35  C   UNL     1      -2.144  10.513  -7.248  1.00  0.00     0.010 A 
ATOM     36  C   UNL     1      -2.899  10.763  -8.387  1.00  0.00    -0.014 A 
BRANCH  36  37
ATOM     37  C   UNL     1      -3.081  12.156  -8.749  1.00  0.00     0.031 A 
ATOM     38  C   UNL     1      -4.476  12.662  -8.693  1.00  0.00     0.074 A 
ATOM     39  C   UNL     1      -2.016  12.975  -8.873  1.00  0.00     0.049 A 
ATOM     40  N   UNL     1      -5.244  12.988  -9.681  1.00  0.00    -0.248 NA
ATOM     41  C   UNL     1      -5.150  12.678  -7.385  1.00  0.00     0.031 C 
ATOM     42  C   UNL     1      -0.596  12.698  -8.599  1.00  0.00     0.029 A 
ATOM     43  N   UNL     1      -2.002  14.293  -9.176  1.00  0.00    -0.354 N 
ATOM     44  C   UNL     1      -6.425  13.456  -9.108  1.00  0.00     0.074 A 
ATOM     45  C   UNL     1      -6.384  13.057  -7.723  1.00  0.00     0.031 C 
ATOM     46  C   UNL     1       0.085  13.862  -8.517  1.00  0.00     0.029 A 
ATOM     47  C   UNL     1      -0.801  14.935  -8.922  1.00  0.00     0.049 A 
ATOM     48  H   UNL     1      -2.784  14.759  -9.549  1.00  0.00     0.167 HD
ATOM     49  C   UNL     1      -7.244  14.336  -9.755  1.00  0.00     0.034 A 
ATOM     50  C   UNL     1      -0.579  16.269  -8.994  1.00  0.00     0.034 A 
ATOM     51  C   UNL     1      -6.867  14.490 -11.134  1.00  0.00     0.049 A 
ATOM     52  C   UNL     1      -1.667  16.845  -9.826  1.00  0.00     0.074 A 
ATOM     53  C   UNL     1      -6.816  13.650 -12.227  1.00  0.00     0.029 A 
ATOM     54  N   UNL     1      -6.071  15.568 -11.447  1.00  0.00    -0.354 N 
ATOM     55  N   UNL     1      -1.818  16.585 -11.096  1.00  0.00    -0.248 NA
ATOM     56  C   UNL     1      -2.860  17.313  -9.136  1.00  0.00     0.031 C 
ATOM     57  C   UNL     1      -5.627  14.023 -12.918  1.00  0.00     0.029 A 
ATOM     58  C   UNL     1      -5.056  15.108 -12.248  1.00  0.00     0.049 A 
ATOM     59  H   UNL     1      -6.205  16.497 -11.152  1.00  0.00     0.167 HD
ATOM     60  C   UNL     1      -3.188  16.442 -11.268  1.00  0.00     0.074 A 
ATOM     61  C   UNL     1      -3.783  16.983 -10.044  1.00  0.00     0.031 C 
ATOM     62  C   UNL     1      -3.706  15.637 -12.243  1.00  0.00     0.034 A 
BRANCH  49  63
ATOM     63  C   UNL     1      -8.156  15.313  -9.061  1.00  0.00     0.023 A 
ATOM     64  C   UNL     1      -7.971  15.694  -7.719  1.00  0.00     0.031 A 
ATOM     65  C   UNL     1      -9.100  16.062  -9.791  1.00  0.00     0.131 A 
ATOM     66  C   UNL     1      -8.710  16.733  -7.141  1.00  0.00     0.055 A 
ATOM     67  C   UNL     1      -9.792  17.146  -9.234  1.00  0.00     0.041 A 
ATOM     68  F   UNL     1      -9.340  15.794 -11.085  1.00  0.00    -0.206 F 
ATOM     69  C   UNL     1      -9.601  17.485  -7.899  1.00  0.00     0.022 A 
BRANCH  66  70
ATOM     70  S   UNL     1      -8.499  17.136  -5.386  1.00  0.00     0.124 S 
ATOM     71  O   UNL     1      -8.053  18.523  -5.450  1.00  0.00    -0.237 OA
ATOM     72  O   UNL     1      -9.849  16.926  -4.871  1.00  0.00    -0.237 OA
ATOM     73  O   UNL     1      -7.506  16.166  -4.934  1.00  0.00    -0.744 OA
ENDBRANCH  66  70
ENDBRANCH  49  63
BRANCH  50  74
ATOM     74  C   UNL     1       0.152  17.067  -7.981  1.00  0.00     0.023 A 
ATOM     75  C   UNL     1       0.221  16.618  -6.647  1.00  0.00     0.031 A 
ATOM     76  C   UNL     1       0.513  18.400  -8.233  1.00  0.00     0.131 A 
ATOM     77  C   UNL     1       0.578  17.496  -5.616  1.00  0.00     0.055 A 
ATOM     78  C   UNL     1       0.883  19.273  -7.202  1.00  0.00     0.041 A 
ATOM     79  F   UNL     1       0.447  18.897  -9.477  1.00  0.00    -0.206 F 
ATOM     80  C   UNL     1       0.901  18.826  -5.883  1.00  0.00     0.022 A 
BRANCH  77  81
ATOM     81  S   UNL     1       0.563  16.927  -3.893  1.00  0.00     0.124 S 
ATOM     82  O   UNL     1       1.792  17.513  -3.361  1.00  0.00    -0.237 OA
ATOM     83  O   UNL     1      -0.678  17.510  -3.398  1.00  0.00    -0.237 OA
ATOM     84  O   UNL     1       0.581  15.472  -4.016  1.00  0.00    -0.744 OA
ENDBRANCH  77  81
ENDBRANCH  50  74
BRANCH  62  85
ATOM     85  C   UNL     1      -2.767  15.044 -13.271  1.00  0.00     0.023 A 
ATOM     86  C   UNL     1      -3.080  15.250 -14.623  1.00  0.00     0.031 A 
ATOM     87  C   UNL     1      -1.759  14.106 -12.975  1.00  0.00     0.131 A 
ATOM     88  C   UNL     1      -2.437  14.506 -15.618  1.00  0.00     0.055 A 
ATOM     89  C   UNL     1      -1.077  13.404 -13.975  1.00  0.00     0.041 A 
ATOM     90  F   UNL     1      -1.465  13.772 -11.716  1.00  0.00    -0.206 F 
ATOM     91  C   UNL     1      -1.427  13.592 -15.306  1.00  0.00     0.022 A 
BRANCH  88  92
ATOM     92  S   UNL     1      -2.989  14.617 -17.337  1.00  0.00     0.124 S 
ATOM     93  O   UNL     1      -1.768  15.017 -18.030  1.00  0.00    -0.237 OA
ATOM     94  O   UNL     1      -3.442  13.253 -17.602  1.00  0.00    -0.237 OA
ATOM     95  O   UNL     1      -4.045  15.625 -17.305  1.00  0.00    -0.744 OA
ENDBRANCH  88  92
ENDBRANCH  62  85
ENDBRANCH  36  37
ENDBRANCH  28  31
ENDBRANCH  26  27
ENDBRANCH   1  26
TORSDOF 16
