REMARK SMILES O=C(NCCCCNC(=O)c1ccc(NCCCO)c(F)c1F)c1ccc(-c2c3nc(c(-c4cc(S(=O)(=O)[O-])ccc4F)c4ccc([nH]4)c(-c4cc(S(=O)(=O)[O-])ccc4F)c4nc(c(-c5cc(S(=O)(=O)[O-])ccc5F)c5ccc2[nH]5)C=C4)C=C3)cc1
REMARK SMILES IDX 6 1 5 2 4 3 3 4 1 5 2 6 24 8 25 9 86 10 26 11 85 12 27 13
REMARK SMILES IDX 28 14 29 15 79 16 30 17 84 18 78 19 80 20 31 21 83 22 77 23
REMARK SMILES IDX 76 24 32 26 64 27 44 28 63 29 45 30 48 31 62 32 81 33 46 34
REMARK SMILES IDX 47 35 61 37 82 38 49 39 33 40 34 41 42 42 35 43 41 44 43 45
REMARK SMILES IDX 40 46 36 47 37 48 38 49 39 50 65 51 66 52 74 53 67 54 73 55
REMARK SMILES IDX 75 56 72 57 68 58 69 59 70 60 71 61 50 62 51 63 59 64 52 65
REMARK SMILES IDX 58 66 60 67 57 68 53 69 54 70 55 71 56 72 7 73 8 74 9 75
REMARK SMILES IDX 10 77 11 78 12 79 22 80 13 81 20 82 23 83 14 84 21 85 15 86
REMARK SMILES IDX 16 88 17 89 18 90 19 91
REMARK H PARENT 3 7 80 25 48 36 8 76 15 87 19 92
REMARK Flexibility Score: inf
ROOT
ATOM      1  C   UNL     1       4.535  -2.816  -2.737  1.00  0.00     0.023 C 
ENDROOT
BRANCH   1   2
ATOM      2  C   UNL     1       4.989  -2.295  -1.377  1.00  0.00     0.023 C 
BRANCH   2   3
ATOM      3  C   UNL     1       4.645  -0.840  -1.090  1.00  0.00     0.116 C 
BRANCH   3   4
ATOM      4  N   UNL     1       3.212  -0.582  -1.051  1.00  0.00    -0.352 N 
ATOM      5  O   UNL     1       1.230  -0.005  -0.136  1.00  0.00    -0.269 OA
ATOM      6  C   UNL     1       2.453  -0.042  -0.036  1.00  0.00     0.251 C 
ATOM      7  H   UNL     1       2.715  -0.827  -1.865  1.00  0.00     0.163 HD
BRANCH   6   8
ATOM      8  C   UNL     1       3.119   0.463   1.185  1.00  0.00     0.039 A 
ATOM      9  C   UNL     1       4.262   1.257   1.085  1.00  0.00     0.014 A 
ATOM     10  C   UNL     1       2.622   0.104   2.441  1.00  0.00     0.014 A 
ATOM     11  C   UNL     1       5.012   1.527   2.223  1.00  0.00     0.010 A 
ATOM     12  C   UNL     1       3.321   0.476   3.595  1.00  0.00     0.010 A 
ATOM     13  C   UNL     1       4.547   1.153   3.494  1.00  0.00    -0.014 A 
BRANCH  13  14
ATOM     14  C   UNL     1       5.348   1.522   4.692  1.00  0.00     0.031 A 
ATOM     15  C   UNL     1       5.933   0.472   5.599  1.00  0.00     0.074 A 
ATOM     16  C   UNL     1       5.587   2.828   4.929  1.00  0.00     0.049 A 
ATOM     17  N   UNL     1       6.685   0.625   6.661  1.00  0.00    -0.248 NA
ATOM     18  C   UNL     1       5.627  -0.929   5.281  1.00  0.00     0.031 C 
ATOM     19  C   UNL     1       5.073   3.935   4.117  1.00  0.00     0.029 A 
ATOM     20  N   UNL     1       6.341   3.448   5.891  1.00  0.00    -0.354 N 
ATOM     21  C   UNL     1       6.926  -0.655   7.151  1.00  0.00     0.074 A 
ATOM     22  C   UNL     1       6.205  -1.569   6.288  1.00  0.00     0.031 C 
ATOM     23  C   UNL     1       5.581   5.088   4.572  1.00  0.00     0.029 A 
ATOM     24  C   UNL     1       6.384   4.816   5.757  1.00  0.00     0.049 A 
ATOM     25  H   UNL     1       6.806   2.961   6.609  1.00  0.00     0.167 HD
ATOM     26  C   UNL     1       7.682  -1.030   8.215  1.00  0.00     0.034 A 
ATOM     27  C   UNL     1       6.985   5.755   6.513  1.00  0.00     0.034 A 
ATOM     28  C   UNL     1       8.395  -0.100   9.062  1.00  0.00     0.049 A 
ATOM     29  C   UNL     1       7.771   5.315   7.718  1.00  0.00     0.074 A 
ATOM     30  C   UNL     1       9.219  -0.373  10.141  1.00  0.00     0.029 A 
ATOM     31  N   UNL     1       8.361   1.285   8.936  1.00  0.00    -0.354 N 
ATOM     32  N   UNL     1       8.004   4.099   8.154  1.00  0.00    -0.248 NA
ATOM     33  C   UNL     1       8.376   6.377   8.530  1.00  0.00     0.031 C 
ATOM     34  C   UNL     1       9.613   0.842  10.715  1.00  0.00     0.029 A 
ATOM     35  C   UNL     1       9.114   1.877   9.941  1.00  0.00     0.049 A 
ATOM     36  H   UNL     1       7.873   1.775   8.235  1.00  0.00     0.167 HD
ATOM     37  C   UNL     1       8.809   4.250   9.279  1.00  0.00     0.074 A 
ATOM     38  C   UNL     1       9.035   5.673   9.437  1.00  0.00     0.031 C 
ATOM     39  C   UNL     1       9.318   3.299  10.104  1.00  0.00     0.034 A 
BRANCH  26  40
ATOM     40  C   UNL     1       7.730  -2.504   8.554  1.00  0.00     0.023 A 
ATOM     41  C   UNL     1       8.256  -3.459   7.666  1.00  0.00     0.031 A 
ATOM     42  C   UNL     1       7.216  -2.967   9.780  1.00  0.00     0.131 A 
ATOM     43  C   UNL     1       8.182  -4.826   7.979  1.00  0.00     0.055 A 
ATOM     44  C   UNL     1       7.226  -4.321  10.123  1.00  0.00     0.041 A 
ATOM     45  F   UNL     1       6.681  -2.110  10.664  1.00  0.00    -0.206 F 
ATOM     46  C   UNL     1       7.695  -5.262   9.213  1.00  0.00     0.022 A 
BRANCH  43  47
ATOM     47  S   UNL     1       8.582  -6.034   6.685  1.00  0.00     0.124 S 
ATOM     48  O   UNL     1       7.668  -5.636   5.616  1.00  0.00    -0.237 OA
ATOM     49  O   UNL     1       9.997  -5.780   6.443  1.00  0.00    -0.237 OA
ATOM     50  O   UNL     1       8.274  -7.319   7.309  1.00  0.00    -0.744 OA
ENDBRANCH  43  47
ENDBRANCH  26  40
BRANCH  27  51
ATOM     51  C   UNL     1       6.846   7.198   6.170  1.00  0.00     0.023 A 
ATOM     52  C   UNL     1       7.968   7.971   5.832  1.00  0.00     0.031 A 
ATOM     53  C   UNL     1       5.592   7.835   6.203  1.00  0.00     0.131 A 
ATOM     54  C   UNL     1       7.820   9.344   5.585  1.00  0.00     0.055 A 
ATOM     55  C   UNL     1       5.442   9.187   5.896  1.00  0.00     0.041 A 
ATOM     56  F   UNL     1       4.486   7.141   6.518  1.00  0.00    -0.206 F 
ATOM     57  C   UNL     1       6.563   9.954   5.598  1.00  0.00     0.022 A 
BRANCH  54  58
ATOM     58  S   UNL     1       9.311  10.344   5.332  1.00  0.00     0.124 S 
ATOM     59  O   UNL     1      10.045  10.100   6.568  1.00  0.00    -0.237 OA
ATOM     60  O   UNL     1       9.872   9.750   4.123  1.00  0.00    -0.237 OA
ATOM     61  O   UNL     1       8.788  11.699   5.173  1.00  0.00    -0.744 OA
ENDBRANCH  54  58
ENDBRANCH  27  51
BRANCH  39  62
ATOM     62  C   UNL     1      10.210   3.778  11.225  1.00  0.00     0.023 A 
ATOM     63  C   UNL     1       9.722   4.587  12.267  1.00  0.00     0.031 A 
ATOM     64  C   UNL     1      11.578   3.453  11.227  1.00  0.00     0.131 A 
ATOM     65  C   UNL     1      10.608   5.101  13.227  1.00  0.00     0.055 A 
ATOM     66  C   UNL     1      12.441   3.909  12.225  1.00  0.00     0.041 A 
ATOM     67  F   UNL     1      12.101   2.690  10.254  1.00  0.00    -0.206 F 
ATOM     68  C   UNL     1      11.960   4.752  13.223  1.00  0.00     0.022 A 
BRANCH  65  69
ATOM     69  S   UNL     1       9.991   6.328  14.412  1.00  0.00     0.124 S 
ATOM     70  O   UNL     1       9.482   7.372  13.530  1.00  0.00    -0.237 OA
ATOM     71  O   UNL     1       8.986   5.571  15.151  1.00  0.00    -0.237 OA
ATOM     72  O   UNL     1      11.181   6.691  15.180  1.00  0.00    -0.744 OA
ENDBRANCH  65  69
ENDBRANCH  39  62
ENDBRANCH  13  14
ENDBRANCH   6   8
ENDBRANCH   3   4
ENDBRANCH   2   3
ENDBRANCH   1   2
BRANCH   1  73
ATOM     73  C   UNL     1       4.967  -1.975  -3.934  1.00  0.00     0.116 C 
BRANCH  73  74
ATOM     74  N   UNL     1       6.412  -1.863  -4.067  1.00  0.00    -0.352 N 
ATOM     75  C   UNL     1       7.204  -2.135  -5.157  1.00  0.00     0.254 C 
ATOM     76  H   UNL     1       6.888  -1.549  -3.265  1.00  0.00     0.163 HD
ATOM     77  O   UNL     1       8.422  -2.013  -5.104  1.00  0.00    -0.269 OA
BRANCH  75  78
ATOM     78  C   UNL     1       6.569  -2.558  -6.411  1.00  0.00     0.078 A 
ATOM     79  C   UNL     1       5.625  -1.735  -7.035  1.00  0.00     0.019 A 
ATOM     80  C   UNL     1       6.887  -3.792  -6.957  1.00  0.00     0.173 A 
ATOM     81  C   UNL     1       4.926  -2.199  -8.154  1.00  0.00     0.030 A 
ATOM     82  C   UNL     1       6.195  -4.235  -8.078  1.00  0.00     0.182 A 
ATOM     83  F   UNL     1       7.806  -4.588  -6.393  1.00  0.00    -0.203 F 
ATOM     84  C   UNL     1       5.170  -3.473  -8.677  1.00  0.00     0.073 A 
ATOM     85  F   UNL     1       6.477  -5.448  -8.585  1.00  0.00    -0.201 F 
BRANCH  84  86
ATOM     86  N   UNL     1       4.457  -4.023  -9.727  1.00  0.00    -0.383 N 
ATOM     87  H   UNL     1       4.797  -4.870 -10.096  1.00  0.00     0.160 HD
BRANCH  86  88
ATOM     88  C   UNL     1       3.260  -3.481 -10.341  1.00  0.00     0.115 C 
BRANCH  88  89
ATOM     89  C   UNL     1       3.549  -3.037 -11.772  1.00  0.00     0.049 C 
BRANCH  89  90
ATOM     90  C   UNL     1       3.842  -4.197 -12.716  1.00  0.00     0.158 C 
BRANCH  90  91
ATOM     91  O   UNL     1       2.711  -5.051 -12.838  1.00  0.00    -0.396 OA
ATOM     92  H   UNL     1       2.487  -5.417 -11.968  1.00  0.00     0.210 HD
ENDBRANCH  90  91
ENDBRANCH  89  90
ENDBRANCH  88  89
ENDBRANCH  86  88
ENDBRANCH  84  86
ENDBRANCH  75  78
ENDBRANCH  73  74
ENDBRANCH   1  73
TORSDOF 19
