REMARK SMILES Cc1n[nH]c(CCC(=O)NCCCCNC(=O)c2ccc(-c3c4nc(c(-c5cc(S(=O)(=O)[O-])ccc5F)c5ccc([nH]5)c(-c5cc(S(=O)(=O)[O-])ccc5F)c5nc(c(-c6cc(S(=O)(=O)[O-])ccc6F)c6ccc3[nH]6)C=C5)C=C4)cc2)c1C
REMARK SMILES IDX 13 1 12 2 11 3 10 4 8 5 9 6 7 8 6 9 5 10 1 11 2 12 3 13
REMARK SMILES IDX 81 14 4 15 82 16 14 18 15 19 16 20 17 22 18 23 19 24 80 25
REMARK SMILES IDX 20 26 79 27 21 28 22 29 23 30 73 31 24 32 78 33 72 34 74 35
REMARK SMILES IDX 25 36 77 37 71 38 70 39 26 41 58 42 38 43 57 44 39 45 42 46
REMARK SMILES IDX 56 47 75 48 40 49 41 50 55 52 76 53 43 54 27 55 28 56 36 57
REMARK SMILES IDX 29 58 35 59 37 60 34 61 30 62 31 63 32 64 33 65 59 66 60 67
REMARK SMILES IDX 68 68 61 69 67 70 69 71 66 72 62 73 63 74 64 75 65 76 44 77
REMARK SMILES IDX 45 78 53 79 46 80 52 81 54 82 51 83 47 84 48 85 49 86 50 87
REMARK H PARENT 10 7 4 17 15 21 74 40 42 51
REMARK Flexibility Score: inf
ROOT
ATOM      1  C   UNL     1       0.743   1.400   1.223  1.00  0.00     0.023 C 
ENDROOT
BRANCH   1   2
ATOM      2  C   UNL     1      -0.172   1.621   0.013  1.00  0.00     0.023 C 
BRANCH   2   3
ATOM      3  C   UNL     1      -1.261   2.682   0.149  1.00  0.00     0.116 C 
BRANCH   3   4
ATOM      4  N   UNL     1      -0.692   4.024   0.083  1.00  0.00    -0.356 N 
ATOM      5  C   UNL     1      -0.348   4.782  -0.998  1.00  0.00     0.220 C 
ATOM      6  O   UNL     1       0.323   5.801  -0.811  1.00  0.00    -0.275 OA
ATOM      7  H   UNL     1      -0.530   4.449   0.956  1.00  0.00     0.163 HD
BRANCH   5   8
ATOM      8  C   UNL     1      -0.815   4.416  -2.397  1.00  0.00     0.106 C 
BRANCH   8   9
ATOM      9  C   UNL     1       0.341   4.154  -3.369  1.00  0.00     0.066 C 
BRANCH   9  10
ATOM     10  C   UNL     1       0.832   2.744  -3.309  1.00  0.00     0.039 A 
ATOM     11  C   UNL     1       2.390  -0.351  -2.122  1.00  0.00     0.069 C 
ATOM     12  C   UNL     1       1.692   0.761  -2.815  1.00  0.00     0.062 A 
ATOM     13  N   UNL     1       0.635   0.504  -3.593  1.00  0.00    -0.181 NA
ATOM     14  C   UNL     1       1.911   2.163  -2.665  1.00  0.00    -0.007 A 
ATOM     15  N   UNL     1       0.144   1.713  -3.890  1.00  0.00    -0.282 N 
ATOM     16  C   UNL     1       2.944   2.833  -1.833  1.00  0.00     0.048 C 
ATOM     17  H   UNL     1      -0.638   1.848  -4.472  1.00  0.00     0.190 HD
ENDBRANCH   9  10
ENDBRANCH   8   9
ENDBRANCH   5   8
ENDBRANCH   3   4
ENDBRANCH   2   3
ENDBRANCH   1   2
BRANCH   1  18
ATOM     18  C   UNL     1       0.330   0.213   2.083  1.00  0.00     0.116 C 
BRANCH  18  19
ATOM     19  N   UNL     1       0.449  -1.081   1.396  1.00  0.00    -0.352 N 
ATOM     20  C   UNL     1      -0.169  -2.285   1.721  1.00  0.00     0.251 C 
ATOM     21  H   UNL     1       1.038  -1.098   0.608  1.00  0.00     0.163 HD
ATOM     22  O   UNL     1       0.221  -3.349   1.296  1.00  0.00    -0.269 OA
BRANCH  20  23
ATOM     23  C   UNL     1      -1.337  -2.191   2.616  1.00  0.00     0.039 A 
ATOM     24  C   UNL     1      -1.310  -2.752   3.896  1.00  0.00     0.014 A 
ATOM     25  C   UNL     1      -2.301  -1.269   2.236  1.00  0.00     0.014 A 
ATOM     26  C   UNL     1      -2.173  -2.240   4.866  1.00  0.00     0.010 A 
ATOM     27  C   UNL     1      -3.023  -0.663   3.233  1.00  0.00     0.010 A 
ATOM     28  C   UNL     1      -2.983  -1.141   4.550  1.00  0.00    -0.014 A 
BRANCH  28  29
ATOM     29  C   UNL     1      -3.642  -0.346   5.596  1.00  0.00     0.031 A 
ATOM     30  C   UNL     1      -2.791   0.135   6.732  1.00  0.00     0.074 A 
ATOM     31  C   UNL     1      -4.837   0.248   5.386  1.00  0.00     0.049 A 
ATOM     32  N   UNL     1      -2.936  -0.111   7.993  1.00  0.00    -0.248 NA
ATOM     33  C   UNL     1      -1.591   0.932   6.436  1.00  0.00     0.031 C 
ATOM     34  C   UNL     1      -5.680   0.182   4.187  1.00  0.00     0.029 A 
ATOM     35  N   UNL     1      -5.441   1.221   6.120  1.00  0.00    -0.354 N 
ATOM     36  C   UNL     1      -1.994   0.665   8.673  1.00  0.00     0.074 A 
ATOM     37  C   UNL     1      -1.085   1.129   7.657  1.00  0.00     0.031 C 
ATOM     38  C   UNL     1      -6.463   1.278   4.132  1.00  0.00     0.029 A 
ATOM     39  C   UNL     1      -6.337   1.991   5.388  1.00  0.00     0.049 A 
ATOM     40  H   UNL     1      -5.262   1.365   7.078  1.00  0.00     0.167 HD
ATOM     41  C   UNL     1      -2.166   1.023   9.983  1.00  0.00     0.034 A 
ATOM     42  C   UNL     1      -6.910   3.161   5.763  1.00  0.00     0.034 A 
ATOM     43  C   UNL     1      -3.266   0.287  10.573  1.00  0.00     0.049 A 
ATOM     44  C   UNL     1      -6.910   3.166   7.248  1.00  0.00     0.074 A 
ATOM     45  C   UNL     1      -3.575  -1.053  10.715  1.00  0.00     0.029 A 
ATOM     46  N   UNL     1      -4.457   0.953  10.780  1.00  0.00    -0.354 N 
ATOM     47  N   UNL     1      -7.535   2.264   7.962  1.00  0.00    -0.248 NA
ATOM     48  C   UNL     1      -5.837   3.859   7.945  1.00  0.00     0.031 C 
ATOM     49  C   UNL     1      -4.970  -1.127  10.420  1.00  0.00     0.029 A 
ATOM     50  C   UNL     1      -5.439   0.175  10.223  1.00  0.00     0.049 A 
ATOM     51  H   UNL     1      -4.577   1.816  11.237  1.00  0.00     0.167 HD
ATOM     52  C   UNL     1      -6.660   1.954   8.993  1.00  0.00     0.074 A 
ATOM     53  C   UNL     1      -5.698   3.057   9.006  1.00  0.00     0.031 C 
ATOM     54  C   UNL     1      -6.609   0.701   9.542  1.00  0.00     0.034 A 
BRANCH  41  55
ATOM     55  C   UNL     1      -1.608   2.254  10.682  1.00  0.00     0.023 A 
ATOM     56  C   UNL     1      -1.968   2.440  12.037  1.00  0.00     0.031 A 
ATOM     57  C   UNL     1      -1.006   3.369  10.062  1.00  0.00     0.131 A 
ATOM     58  C   UNL     1      -1.869   3.698  12.657  1.00  0.00     0.055 A 
ATOM     59  C   UNL     1      -0.836   4.600  10.710  1.00  0.00     0.041 A 
ATOM     60  F   UNL     1      -0.627   3.367   8.781  1.00  0.00    -0.206 F 
ATOM     61  C   UNL     1      -1.306   4.785  11.999  1.00  0.00     0.022 A 
BRANCH  58  62
ATOM     62  S   UNL     1      -2.692   3.933  14.256  1.00  0.00     0.124 S 
ATOM     63  O   UNL     1      -4.033   3.434  13.969  1.00  0.00    -0.237 OA
ATOM     64  O   UNL     1      -1.872   3.110  15.139  1.00  0.00    -0.237 OA
ATOM     65  O   UNL     1      -2.597   5.374  14.478  1.00  0.00    -0.744 OA
ENDBRANCH  58  62
ENDBRANCH  41  55
BRANCH  42  66
ATOM     66  C   UNL     1      -7.170   4.327   4.877  1.00  0.00     0.023 A 
ATOM     67  C   UNL     1      -8.081   5.347   5.208  1.00  0.00     0.031 A 
ATOM     68  C   UNL     1      -6.355   4.553   3.739  1.00  0.00     0.131 A 
ATOM     69  C   UNL     1      -8.164   6.513   4.410  1.00  0.00     0.055 A 
ATOM     70  C   UNL     1      -6.454   5.697   2.945  1.00  0.00     0.041 A 
ATOM     71  F   UNL     1      -5.376   3.698   3.400  1.00  0.00    -0.206 F 
ATOM     72  C   UNL     1      -7.358   6.689   3.282  1.00  0.00     0.022 A 
BRANCH  69  73
ATOM     73  S   UNL     1      -9.260   7.882   4.900  1.00  0.00     0.124 S 
ATOM     74  O   UNL     1     -10.578   7.353   4.571  1.00  0.00    -0.237 OA
ATOM     75  O   UNL     1      -8.956   8.034   6.318  1.00  0.00    -0.237 OA
ATOM     76  O   UNL     1      -8.813   8.992   4.058  1.00  0.00    -0.744 OA
ENDBRANCH  69  73
ENDBRANCH  42  66
BRANCH  54  77
ATOM     77  C   UNL     1      -7.697  -0.307   9.219  1.00  0.00     0.023 A 
ATOM     78  C   UNL     1      -8.041  -0.728   7.915  1.00  0.00     0.031 A 
ATOM     79  C   UNL     1      -8.277  -1.001  10.297  1.00  0.00     0.131 A 
ATOM     80  C   UNL     1      -8.930  -1.806   7.729  1.00  0.00     0.055 A 
ATOM     81  C   UNL     1      -9.140  -2.081  10.111  1.00  0.00     0.041 A 
ATOM     82  F   UNL     1      -7.968  -0.674  11.563  1.00  0.00    -0.206 F 
ATOM     83  C   UNL     1      -9.472  -2.486   8.824  1.00  0.00     0.022 A 
BRANCH  80  84
ATOM     84  S   UNL     1      -9.399  -2.346   6.053  1.00  0.00     0.124 S 
ATOM     85  O   UNL     1      -9.712  -1.099   5.365  1.00  0.00    -0.237 OA
ATOM     86  O   UNL     1      -8.201  -3.045   5.596  1.00  0.00    -0.237 OA
ATOM     87  O   UNL     1     -10.554  -3.214   6.289  1.00  0.00    -0.744 OA
ENDBRANCH  80  84
ENDBRANCH  54  77
ENDBRANCH  28  29
ENDBRANCH  20  23
ENDBRANCH  18  19
ENDBRANCH   1  18
TORSDOF 16
