REMARK SMILES CCC[N@H+](CC)[C@H]1CC[C@]([NH2+]C)(C(=O)NCCCCNC(=O)c2ccc(-c3c4nc(c(-c5cc(S(=O)(=O)[O-])ccc5F)c5ccc([nH]5)c(-c5cc(S(=O)(=O)[O-])ccc5F)c5nc(c(-c6cc(S(=O)(=O)[O-])ccc6F)c6ccc3[nH]6)C=C5)C=C4)cc2)C1
REMARK SMILES IDX 17 1 16 2 15 3 13 4 14 5 10 7 7 8 8 9 86 10 9 11 4 12 3 14
REMARK SMILES IDX 2 15 1 16 5 17 6 18 11 19 12 20 18 23 19 24 20 25 21 26
REMARK SMILES IDX 22 28 23 29 24 30 85 31 25 32 84 33 26 34 27 35 28 36 78 37
REMARK SMILES IDX 29 38 83 39 77 40 79 41 30 42 82 43 76 44 75 45 31 47 63 48
REMARK SMILES IDX 43 49 62 50 44 51 47 52 61 53 80 54 45 55 46 56 60 58 81 59
REMARK SMILES IDX 48 60 32 61 33 62 41 63 34 64 40 65 42 66 39 67 35 68 36 69
REMARK SMILES IDX 37 70 38 71 64 72 65 73 73 74 66 75 72 76 74 77 71 78 67 79
REMARK SMILES IDX 68 80 69 81 70 82 49 83 50 84 58 85 51 86 57 87 59 88 56 89
REMARK SMILES IDX 52 90 53 91 54 92 55 93
REMARK H PARENT 15 6 4 13 11 21 11 22 20 27 79 46 47 57
REMARK Flexibility Score: inf
ROOT
ATOM      1  C   UNL     1      -1.403  -1.341  -6.216  1.00  0.00     0.023 C 
ENDROOT
BRANCH   1   2
ATOM      2  C   UNL     1      -1.173  -0.474  -4.982  1.00  0.00     0.116 C 
BRANCH   2   3
ATOM      3  N   UNL     1      -1.209  -1.199  -3.729  1.00  0.00    -0.351 N 
ATOM      4  C   UNL     1      -0.649  -0.864  -2.528  1.00  0.00     0.281 C 
ATOM      5  O   UNL     1      -0.961  -1.564  -1.557  1.00  0.00    -0.268 OA
ATOM      6  H   UNL     1      -1.704  -2.050  -3.744  1.00  0.00     0.163 HD
BRANCH   4   7
ATOM      7  C   UNL     1       0.401   0.286  -2.398  1.00  0.00     0.181 C 
ATOM      8  C   UNL     1       1.070   2.104  -0.853  1.00  0.00     0.191 C 
ATOM      9  C   UNL     1       0.057   2.675  -1.864  1.00  0.00     0.072 C 
ATOM     10  C   UNL     1       0.630   0.632  -0.904  1.00  0.00     0.144 C 
ATOM     11  C   UNL     1      -0.100   1.635  -2.969  1.00  0.00     0.085 C 
BRANCH   8  12
ATOM     12  N   UNL     1       2.538   2.301  -1.109  1.00  0.00    -0.333 N 
ATOM     13  H   UNL     1       2.847   1.613  -1.796  1.00  0.00     0.348 HD
BRANCH  12  14
ATOM     14  C   UNL     1       3.291   2.116   0.170  1.00  0.00     0.262 C 
BRANCH  14  15
ATOM     15  C   UNL     1       3.849   0.710   0.427  1.00  0.00     0.058 C 
ATOM     16  C   UNL     1       4.938   0.299  -0.551  1.00  0.00     0.010 C 
ENDBRANCH  14  15
ENDBRANCH  12  14
BRANCH  12  17
ATOM     17  C   UNL     1       2.801   3.656  -1.653  1.00  0.00     0.258 C 
ATOM     18  C   UNL     1       4.253   3.952  -2.039  1.00  0.00     0.071 C 
ENDBRANCH  12  17
ENDBRANCH   8  12
BRANCH   7  19
ATOM     19  N   UNL     1       1.657  -0.081  -3.111  1.00  0.00    -0.336 N 
ATOM     20  C   UNL     1       2.265  -1.325  -2.645  1.00  0.00     0.331 C 
ATOM     21  H   UNL     1       2.332   0.673  -2.981  1.00  0.00     0.346 HD
ATOM     22  H   UNL     1       1.409  -0.224  -4.090  1.00  0.00     0.346 HD
ENDBRANCH   7  19
ENDBRANCH   4   7
ENDBRANCH   2   3
ENDBRANCH   1   2
BRANCH   1  23
ATOM     23  C   UNL     1      -2.662  -2.209  -6.221  1.00  0.00     0.023 C 
BRANCH  23  24
ATOM     24  C   UNL     1      -3.949  -1.548  -5.740  1.00  0.00     0.116 C 
BRANCH  24  25
ATOM     25  N   UNL     1      -4.339  -0.387  -6.524  1.00  0.00    -0.352 N 
ATOM     26  C   UNL     1      -5.462  -0.169  -7.287  1.00  0.00     0.251 C 
ATOM     27  H   UNL     1      -3.698   0.361  -6.505  1.00  0.00     0.163 HD
ATOM     28  O   UNL     1      -5.552   0.860  -7.953  1.00  0.00    -0.269 OA
BRANCH  26  29
ATOM     29  C   UNL     1      -6.531  -1.190  -7.348  1.00  0.00     0.039 A 
ATOM     30  C   UNL     1      -7.027  -1.572  -8.598  1.00  0.00     0.014 A 
ATOM     31  C   UNL     1      -7.020  -1.794  -6.188  1.00  0.00     0.014 A 
ATOM     32  C   UNL     1      -7.936  -2.629  -8.689  1.00  0.00     0.010 A 
ATOM     33  C   UNL     1      -7.855  -2.904  -6.287  1.00  0.00     0.010 A 
ATOM     34  C   UNL     1      -8.316  -3.341  -7.539  1.00  0.00    -0.014 A 
BRANCH  34  35
ATOM     35  C   UNL     1      -9.181  -4.549  -7.624  1.00  0.00     0.031 A 
ATOM     36  C   UNL     1     -10.516  -4.571  -6.931  1.00  0.00     0.074 A 
ATOM     37  C   UNL     1      -8.725  -5.654  -8.248  1.00  0.00     0.049 A 
ATOM     38  N   UNL     1     -11.365  -5.558  -6.796  1.00  0.00    -0.248 NA
ATOM     39  C   UNL     1     -10.931  -3.326  -6.268  1.00  0.00     0.031 C 
ATOM     40  C   UNL     1      -7.421  -5.779  -8.905  1.00  0.00     0.029 A 
ATOM     41  N   UNL     1      -9.297  -6.891  -8.418  1.00  0.00    -0.354 N 
ATOM     42  C   UNL     1     -12.402  -5.061  -6.014  1.00  0.00     0.074 A 
ATOM     43  C   UNL     1     -12.040  -3.706  -5.653  1.00  0.00     0.031 C 
ATOM     44  C   UNL     1      -7.302  -7.013  -9.419  1.00  0.00     0.029 A 
ATOM     45  C   UNL     1      -8.498  -7.784  -9.094  1.00  0.00     0.049 A 
ATOM     46  H   UNL     1     -10.197  -7.117  -8.087  1.00  0.00     0.167 HD
ATOM     47  C   UNL     1     -13.560  -5.668  -5.652  1.00  0.00     0.034 A 
ATOM     48  C   UNL     1      -8.695  -9.081  -9.402  1.00  0.00     0.034 A 
ATOM     49  C   UNL     1     -13.914  -7.012  -6.039  1.00  0.00     0.049 A 
ATOM     50  C   UNL     1      -9.991  -9.736  -8.996  1.00  0.00     0.074 A 
ATOM     51  C   UNL     1     -15.088  -7.702  -5.792  1.00  0.00     0.029 A 
ATOM     52  N   UNL     1     -13.090  -7.878  -6.750  1.00  0.00    -0.354 N 
ATOM     53  N   UNL     1     -10.992  -9.231  -8.312  1.00  0.00    -0.248 NA
ATOM     54  C   UNL     1     -10.188 -11.130  -9.415  1.00  0.00     0.031 C 
ATOM     55  C   UNL     1     -14.951  -9.000  -6.296  1.00  0.00     0.029 A 
ATOM     56  C   UNL     1     -13.719  -9.102  -6.923  1.00  0.00     0.049 A 
ATOM     57  H   UNL     1     -12.191  -7.654  -7.082  1.00  0.00     0.167 HD
ATOM     58  C   UNL     1     -11.948 -10.240  -8.241  1.00  0.00     0.074 A 
ATOM     59  C   UNL     1     -11.410 -11.374  -8.965  1.00  0.00     0.031 C 
ATOM     60  C   UNL     1     -13.163 -10.229  -7.635  1.00  0.00     0.034 A 
BRANCH  47  61
ATOM     61  C   UNL     1     -14.509  -4.882  -4.776  1.00  0.00     0.023 A 
ATOM     62  C   UNL     1     -15.080  -3.671  -5.206  1.00  0.00     0.031 A 
ATOM     63  C   UNL     1     -14.811  -5.324  -3.475  1.00  0.00     0.131 A 
ATOM     64  C   UNL     1     -15.843  -2.899  -4.317  1.00  0.00     0.055 A 
ATOM     65  C   UNL     1     -15.645  -4.594  -2.625  1.00  0.00     0.041 A 
ATOM     66  F   UNL     1     -14.283  -6.462  -2.999  1.00  0.00    -0.206 F 
ATOM     67  C   UNL     1     -16.151  -3.364  -3.037  1.00  0.00     0.022 A 
BRANCH  64  68
ATOM     68  S   UNL     1     -16.284  -1.208  -4.801  1.00  0.00     0.124 S 
ATOM     69  O   UNL     1     -14.969  -0.617  -5.039  1.00  0.00    -0.237 OA
ATOM     70  O   UNL     1     -17.111  -1.424  -5.983  1.00  0.00    -0.237 OA
ATOM     71  O   UNL     1     -16.990  -0.689  -3.631  1.00  0.00    -0.744 OA
ENDBRANCH  64  68
ENDBRANCH  47  61
BRANCH  48  72
ATOM     72  C   UNL     1      -7.642  -9.853 -10.121  1.00  0.00     0.023 A 
ATOM     73  C   UNL     1      -7.852 -10.329 -11.425  1.00  0.00     0.031 A 
ATOM     74  C   UNL     1      -6.415 -10.151  -9.500  1.00  0.00     0.131 A 
ATOM     75  C   UNL     1      -6.869 -11.111 -12.052  1.00  0.00     0.055 A 
ATOM     76  C   UNL     1      -5.421 -10.888 -10.146  1.00  0.00     0.041 A 
ATOM     77  F   UNL     1      -6.160  -9.713  -8.257  1.00  0.00    -0.206 F 
ATOM     78  C   UNL     1      -5.650 -11.383 -11.426  1.00  0.00     0.022 A 
BRANCH  75  79
ATOM     79  S   UNL     1      -7.235 -11.830 -13.677  1.00  0.00     0.124 S 
ATOM     80  O   UNL     1      -8.423 -12.625 -13.390  1.00  0.00    -0.237 OA
ATOM     81  O   UNL     1      -7.441 -10.639 -14.495  1.00  0.00    -0.237 OA
ATOM     82  O   UNL     1      -6.030 -12.597 -13.989  1.00  0.00    -0.744 OA
ENDBRANCH  75  79
ENDBRANCH  48  72
BRANCH  60  83
ATOM     83  C   UNL     1     -14.005 -11.474  -7.769  1.00  0.00     0.023 A 
ATOM     84  C   UNL     1     -13.638 -12.685  -7.157  1.00  0.00     0.031 A 
ATOM     85  C   UNL     1     -15.188 -11.447  -8.529  1.00  0.00     0.131 A 
ATOM     86  C   UNL     1     -14.418 -13.834  -7.360  1.00  0.00     0.055 A 
ATOM     87  C   UNL     1     -15.991 -12.579  -8.679  1.00  0.00     0.041 A 
ATOM     88  F   UNL     1     -15.584 -10.318  -9.137  1.00  0.00    -0.206 F 
ATOM     89  C   UNL     1     -15.601 -13.784  -8.103  1.00  0.00     0.022 A 
BRANCH  86  90
ATOM     90  S   UNL     1     -13.822 -15.419  -6.709  1.00  0.00     0.124 S 
ATOM     91  O   UNL     1     -12.532 -15.555  -7.377  1.00  0.00    -0.237 OA
ATOM     92  O   UNL     1     -13.774 -15.168  -5.272  1.00  0.00    -0.237 OA
ATOM     93  O   UNL     1     -14.845 -16.372  -7.137  1.00  0.00    -0.744 OA
ENDBRANCH  86  90
ENDBRANCH  60  83
ENDBRANCH  34  35
ENDBRANCH  26  29
ENDBRANCH  24  25
ENDBRANCH  23  24
ENDBRANCH   1  23
TORSDOF 19
