REMARK SMILES CCn1cc(C(=O)NCCCCNC(=O)c2ccc(-c3c4nc(c(-c5cc(S(=O)(=O)[O-])ccc5F)c5ccc([nH]5)c(-c5cc(S(=O)(=O)[O-])ccc5F)c5nc(c(-c6cc(S(=O)(=O)[O-])ccc6F)c6ccc3[nH]6)C=C5)C=C4)cc2)c(=O)c2cc(F)c(NC3CCCCC3)cc21
REMARK SMILES IDX 11 1 10 2 9 3 8 4 6 5 7 6 5 8 3 9 4 10 94 11 81 12 93 13
REMARK SMILES IDX 79 14 82 15 85 16 80 17 83 18 84 19 2 20 1 21 86 22 87 24
REMARK SMILES IDX 88 25 92 26 89 27 91 28 90 29 12 30 13 31 14 32 15 34 16 35
REMARK SMILES IDX 17 36 78 37 18 38 77 39 19 40 20 41 21 42 71 43 22 44 76 45
REMARK SMILES IDX 70 46 72 47 23 48 75 49 69 50 68 51 24 53 56 54 36 55 55 56
REMARK SMILES IDX 37 57 40 58 54 59 73 60 38 61 39 62 53 64 74 65 41 66 25 67
REMARK SMILES IDX 26 68 34 69 27 70 33 71 35 72 32 73 28 74 29 75 30 76 31 77
REMARK SMILES IDX 57 78 58 79 66 80 59 81 65 82 67 83 64 84 60 85 61 86 62 87
REMARK SMILES IDX 63 88 42 89 43 90 51 91 44 92 50 93 52 94 49 95 45 96 46 97
REMARK SMILES IDX 47 98 48 99
REMARK H PARENT 8 7 86 23 13 33 72 52 40 63
REMARK Flexibility Score: inf
ROOT
ATOM      1  C   UNL     1       4.489  -0.562   3.858  1.00  0.00     0.023 C 
ENDROOT
BRANCH   1   2
ATOM      2  C   UNL     1       3.803  -0.830   2.521  1.00  0.00     0.023 C 
BRANCH   2   3
ATOM      3  C   UNL     1       4.587  -1.732   1.556  1.00  0.00     0.116 C 
BRANCH   3   4
ATOM      4  N   UNL     1       4.418  -3.134   1.895  1.00  0.00    -0.352 N 
ATOM      5  C   UNL     1       3.513  -4.091   1.531  1.00  0.00     0.256 C 
ATOM      6  O   UNL     1       3.648  -5.192   2.067  1.00  0.00    -0.269 OA
ATOM      7  H   UNL     1       5.102  -3.466   2.522  1.00  0.00     0.163 HD
BRANCH   5   8
ATOM      8  C   UNL     1       2.408  -3.854   0.549  1.00  0.00     0.104 A 
ATOM      9  N   UNL     1       0.833  -2.315  -0.542  1.00  0.00    -0.347 N 
ATOM     10  C   UNL     1       1.867  -2.651   0.312  1.00  0.00     0.104 A 
ATOM     11  C   UNL     1       0.126  -3.373  -1.159  1.00  0.00     0.054 A 
ATOM     12  C   UNL     1       0.507  -4.704  -0.934  1.00  0.00     0.050 A 
ATOM     13  C   UNL     1      -1.002  -3.156  -1.965  1.00  0.00     0.055 A 
ATOM     14  C   UNL     1       1.746  -4.990  -0.165  1.00  0.00     0.202 A 
ATOM     15  C   UNL     1      -0.261  -5.765  -1.430  1.00  0.00     0.055 A 
ATOM     16  C   UNL     1      -1.832  -4.182  -2.429  1.00  0.00     0.073 A 
ATOM     17  O   UNL     1       2.185  -6.136  -0.163  1.00  0.00    -0.288 OA
ATOM     18  C   UNL     1      -1.424  -5.493  -2.145  1.00  0.00     0.147 A 
ATOM     19  F   UNL     1      -2.179  -6.521  -2.566  1.00  0.00    -0.205 F 
BRANCH   9  20
ATOM     20  C   UNL     1       0.366  -0.932  -0.807  1.00  0.00     0.119 C 
ATOM     21  C   UNL     1       1.023   0.170   0.013  1.00  0.00     0.027 C 
ENDBRANCH   9  20
BRANCH  16  22
ATOM     22  N   UNL     1      -3.025  -3.939  -3.095  1.00  0.00    -0.380 N 
ATOM     23  H   UNL     1      -3.510  -4.733  -3.417  1.00  0.00     0.160 HD
BRANCH  22  24
ATOM     24  C   UNL     1      -3.648  -2.642  -3.376  1.00  0.00     0.079 C 
ATOM     25  C   UNL     1      -3.967  -1.867  -2.080  1.00  0.00     0.025 C 
ATOM     26  C   UNL     1      -2.852  -1.883  -4.454  1.00  0.00     0.025 C 
ATOM     27  C   UNL     1      -4.241  -0.381  -2.288  1.00  0.00     0.002 C 
ATOM     28  C   UNL     1      -3.222  -0.410  -4.566  1.00  0.00     0.002 C 
ATOM     29  C   UNL     1      -3.213   0.269  -3.204  1.00  0.00     0.000 C 
ENDBRANCH  22  24
ENDBRANCH  16  22
ENDBRANCH   5   8
ENDBRANCH   3   4
ENDBRANCH   2   3
ENDBRANCH   1   2
BRANCH   1  30
ATOM     30  C   UNL     1       5.782   0.232   3.756  1.00  0.00     0.116 C 
BRANCH  30  31
ATOM     31  N   UNL     1       5.622   1.542   3.142  1.00  0.00    -0.352 N 
ATOM     32  C   UNL     1       6.452   2.640   3.277  1.00  0.00     0.251 C 
ATOM     33  H   UNL     1       4.833   1.660   2.564  1.00  0.00     0.163 HD
ATOM     34  O   UNL     1       6.159   3.708   2.779  1.00  0.00    -0.269 OA
BRANCH  32  35
ATOM     35  C   UNL     1       7.670   2.482   4.105  1.00  0.00     0.039 A 
ATOM     36  C   UNL     1       8.536   1.413   3.874  1.00  0.00     0.014 A 
ATOM     37  C   UNL     1       7.865   3.334   5.194  1.00  0.00     0.014 A 
ATOM     38  C   UNL     1       9.481   1.083   4.835  1.00  0.00     0.010 A 
ATOM     39  C   UNL     1       8.880   3.052   6.113  1.00  0.00     0.010 A 
ATOM     40  C   UNL     1       9.654   1.890   5.973  1.00  0.00    -0.014 A 
BRANCH  40  41
ATOM     41  C   UNL     1      10.650   1.484   6.999  1.00  0.00     0.031 A 
ATOM     42  C   UNL     1      10.219   1.086   8.384  1.00  0.00     0.074 A 
ATOM     43  C   UNL     1      11.947   1.405   6.645  1.00  0.00     0.049 A 
ATOM     44  N   UNL     1      10.950   0.646   9.376  1.00  0.00    -0.248 NA
ATOM     45  C   UNL     1       8.786   1.198   8.703  1.00  0.00     0.031 C 
ATOM     46  C   UNL     1      12.472   1.761   5.326  1.00  0.00     0.029 A 
ATOM     47  N   UNL     1      13.049   0.972   7.338  1.00  0.00    -0.354 N 
ATOM     48  C   UNL     1      10.075   0.443  10.438  1.00  0.00     0.074 A 
ATOM     49  C   UNL     1       8.762   0.840   9.980  1.00  0.00     0.031 C 
ATOM     50  C   UNL     1      13.778   1.469   5.282  1.00  0.00     0.029 A 
ATOM     51  C   UNL     1      14.203   0.974   6.589  1.00  0.00     0.049 A 
ATOM     52  H   UNL     1      13.018   0.687   8.279  1.00  0.00     0.167 HD
ATOM     53  C   UNL     1      10.343  -0.043  11.674  1.00  0.00     0.034 A 
ATOM     54  C   UNL     1      15.464   0.625   6.913  1.00  0.00     0.034 A 
ATOM     55  C   UNL     1      11.654  -0.456  12.107  1.00  0.00     0.049 A 
ATOM     56  C   UNL     1      15.738   0.103   8.298  1.00  0.00     0.074 A 
ATOM     57  C   UNL     1      12.022  -0.983  13.333  1.00  0.00     0.029 A 
ATOM     58  N   UNL     1      12.807  -0.398  11.337  1.00  0.00    -0.354 N 
ATOM     59  N   UNL     1      14.892  -0.113   9.278  1.00  0.00    -0.248 NA
ATOM     60  C   UNL     1      17.132  -0.220   8.628  1.00  0.00     0.031 C 
ATOM     61  C   UNL     1      13.402  -1.195  13.322  1.00  0.00     0.029 A 
ATOM     62  C   UNL     1      13.890  -0.857  12.069  1.00  0.00     0.049 A 
ATOM     63  H   UNL     1      12.849  -0.077  10.407  1.00  0.00     0.167 HD
ATOM     64  C   UNL     1      15.649  -0.602  10.338  1.00  0.00     0.074 A 
ATOM     65  C   UNL     1      17.016  -0.686   9.865  1.00  0.00     0.031 C 
ATOM     66  C   UNL     1      15.249  -0.938  11.590  1.00  0.00     0.034 A 
BRANCH  53  67
ATOM     67  C   UNL     1       9.209  -0.177  12.660  1.00  0.00     0.023 A 
ATOM     68  C   UNL     1       9.210   0.584  13.844  1.00  0.00     0.031 A 
ATOM     69  C   UNL     1       8.199  -1.141  12.489  1.00  0.00     0.131 A 
ATOM     70  C   UNL     1       8.238   0.347  14.825  1.00  0.00     0.055 A 
ATOM     71  C   UNL     1       7.213  -1.349  13.455  1.00  0.00     0.041 A 
ATOM     72  F   UNL     1       8.153  -1.890  11.376  1.00  0.00    -0.206 F 
ATOM     73  C   UNL     1       7.237  -0.611  14.635  1.00  0.00     0.022 A 
BRANCH  70  74
ATOM     74  S   UNL     1       8.266   1.231  16.409  1.00  0.00     0.124 S 
ATOM     75  O   UNL     1       6.965   1.897  16.402  1.00  0.00    -0.237 OA
ATOM     76  O   UNL     1       8.402   0.138  17.367  1.00  0.00    -0.237 OA
ATOM     77  O   UNL     1       9.418   2.119  16.296  1.00  0.00    -0.744 OA
ENDBRANCH  70  74
ENDBRANCH  53  67
BRANCH  54  78
ATOM     78  C   UNL     1      16.530   0.721   5.874  1.00  0.00     0.023 A 
ATOM     79  C   UNL     1      16.845   1.956   5.277  1.00  0.00     0.031 A 
ATOM     80  C   UNL     1      17.152  -0.433   5.372  1.00  0.00     0.131 A 
ATOM     81  C   UNL     1      17.686   1.996   4.159  1.00  0.00     0.055 A 
ATOM     82  C   UNL     1      18.051  -0.380   4.306  1.00  0.00     0.041 A 
ATOM     83  F   UNL     1      16.874  -1.635   5.900  1.00  0.00    -0.206 F 
ATOM     84  C   UNL     1      18.305   0.837   3.679  1.00  0.00     0.022 A 
BRANCH  81  85
ATOM     85  S   UNL     1      17.874   3.522   3.194  1.00  0.00     0.124 S 
ATOM     86  O   UNL     1      19.298   3.802   3.343  1.00  0.00    -0.237 OA
ATOM     87  O   UNL     1      17.450   3.089   1.864  1.00  0.00    -0.237 OA
ATOM     88  O   UNL     1      16.971   4.459   3.854  1.00  0.00    -0.744 OA
ENDBRANCH  81  85
ENDBRANCH  54  78
BRANCH  66  89
ATOM     89  C   UNL     1      16.293  -1.417  12.569  1.00  0.00     0.023 A 
ATOM     90  C   UNL     1      16.237  -2.726  13.082  1.00  0.00     0.031 A 
ATOM     91  C   UNL     1      17.254  -0.535  13.094  1.00  0.00     0.131 A 
ATOM     92  C   UNL     1      17.103  -3.107  14.115  1.00  0.00     0.055 A 
ATOM     93  C   UNL     1      18.144  -0.932  14.093  1.00  0.00     0.041 A 
ATOM     94  F   UNL     1      17.340   0.726  12.643  1.00  0.00    -0.206 F 
ATOM     95  C   UNL     1      18.061  -2.219  14.617  1.00  0.00     0.022 A 
BRANCH  92  96
ATOM     96  S   UNL     1      16.965  -4.735  14.902  1.00  0.00     0.124 S 
ATOM     97  O   UNL     1      18.260  -5.333  14.586  1.00  0.00    -0.237 OA
ATOM     98  O   UNL     1      16.766  -4.383  16.306  1.00  0.00    -0.237 OA
ATOM     99  O   UNL     1      15.818  -5.349  14.242  1.00  0.00    -0.744 OA
ENDBRANCH  92  96
ENDBRANCH  66  89
ENDBRANCH  40  41
ENDBRANCH  32  35
ENDBRANCH  30  31
ENDBRANCH   1  30
TORSDOF 17
