REMARK SMILES CC(=O)N[C@@]1(C(=O)NCCCCNC(=O)c2ccc(-c3c4nc(c(-c5cc(S(=O)(=O)[O-])ccc5F)c5ccc([nH]5)c(-c5cc(S(=O)(=O)[O-])ccc5F)c5nc(c(-c6cc(S(=O)(=O)[O-])ccc6F)c6ccc3[nH]6)C=C5)C=C4)cc2)CCCc2ccccc21
REMARK SMILES IDX 11 1 10 2 9 3 8 4 6 5 7 6 5 8 79 9 87 10 80 11 82 12 86 13
REMARK SMILES IDX 81 14 83 15 85 16 84 17 4 18 1 19 2 20 3 21 12 23 13 24
REMARK SMILES IDX 14 25 15 27 16 28 17 29 78 30 18 31 77 32 19 33 20 34 21 35
REMARK SMILES IDX 71 36 22 37 76 38 70 39 72 40 23 41 75 42 69 43 68 44 24 46
REMARK SMILES IDX 56 47 36 48 55 49 37 50 40 51 54 52 73 53 38 54 39 55 53 57
REMARK SMILES IDX 74 58 41 59 25 60 26 61 34 62 27 63 33 64 35 65 32 66 28 67
REMARK SMILES IDX 29 68 30 69 31 70 57 71 58 72 66 73 59 74 65 75 67 76 64 77
REMARK SMILES IDX 60 78 61 79 62 80 63 81 42 82 43 83 51 84 44 85 50 86 52 87
REMARK SMILES IDX 49 88 45 89 46 90 47 91 48 92
REMARK H PARENT 8 7 4 22 13 26 72 45 40 56
REMARK Flexibility Score: inf
ROOT
ATOM      1  C   UNL     1      -1.134  -1.459   0.235  1.00  0.00     0.023 C 
ENDROOT
BRANCH   1   2
ATOM      2  C   UNL     1      -0.142  -0.401   0.716  1.00  0.00     0.023 C 
BRANCH   2   3
ATOM      3  C   UNL     1       1.054  -0.170  -0.212  1.00  0.00     0.116 C 
BRANCH   3   4
ATOM      4  N   UNL     1       0.647   0.546  -1.409  1.00  0.00    -0.354 N 
ATOM      5  C   UNL     1       0.704   1.880  -1.722  1.00  0.00     0.250 C 
ATOM      6  O   UNL     1       0.017   2.232  -2.686  1.00  0.00    -0.272 OA
ATOM      7  H   UNL     1       0.265  -0.024  -2.116  1.00  0.00     0.163 HD
BRANCH   5   8
ATOM      8  C   UNL     1       1.573   2.900  -0.863  1.00  0.00     0.144 C 
ATOM      9  C   UNL     1       0.917   3.064   0.530  1.00  0.00     0.044 C 
ATOM     10  C   UNL     1       1.654   4.251  -1.605  1.00  0.00    -0.010 A 
ATOM     11  C   UNL     1      -0.323   3.946   0.469  1.00  0.00     0.008 C 
ATOM     12  C   UNL     1       0.938   5.385  -1.158  1.00  0.00    -0.042 A 
ATOM     13  C   UNL     1       2.374   4.353  -2.813  1.00  0.00     0.007 A 
ATOM     14  C   UNL     1       0.101   5.359   0.096  1.00  0.00     0.036 C 
ATOM     15  C   UNL     1       1.003   6.586  -1.883  1.00  0.00     0.004 A 
ATOM     16  C   UNL     1       2.402   5.543  -3.541  1.00  0.00     0.000 A 
ATOM     17  C   UNL     1       1.724   6.662  -3.071  1.00  0.00     0.000 A 
BRANCH   8  18
ATOM     18  N   UNL     1       2.919   2.270  -0.807  1.00  0.00    -0.338 N 
ATOM     19  C   UNL     1       4.060   3.512   1.017  1.00  0.00     0.114 C 
ATOM     20  C   UNL     1       4.052   2.526  -0.112  1.00  0.00     0.217 C 
ATOM     21  O   UNL     1       5.065   1.884  -0.394  1.00  0.00    -0.275 OA
ATOM     22  H   UNL     1       3.005   1.496  -1.408  1.00  0.00     0.164 HD
ENDBRANCH   8  18
ENDBRANCH   5   8
ENDBRANCH   3   4
ENDBRANCH   2   3
ENDBRANCH   1   2
BRANCH   1  23
ATOM     23  C   UNL     1      -0.554  -2.857   0.064  1.00  0.00     0.116 C 
BRANCH  23  24
ATOM     24  N   UNL     1       0.068  -3.368   1.275  1.00  0.00    -0.352 N 
ATOM     25  C   UNL     1       0.046  -4.648   1.778  1.00  0.00     0.251 C 
ATOM     26  H   UNL     1       0.573  -2.710   1.806  1.00  0.00     0.163 HD
ATOM     27  O   UNL     1       0.522  -4.879   2.881  1.00  0.00    -0.269 OA
BRANCH  25  28
ATOM     28  C   UNL     1      -0.596  -5.723   0.990  1.00  0.00     0.039 A 
ATOM     29  C   UNL     1      -1.505  -6.572   1.625  1.00  0.00     0.014 A 
ATOM     30  C   UNL     1      -0.329  -5.868  -0.374  1.00  0.00     0.014 A 
ATOM     31  C   UNL     1      -2.202  -7.521   0.875  1.00  0.00     0.010 A 
ATOM     32  C   UNL     1      -1.076  -6.765  -1.131  1.00  0.00     0.010 A 
ATOM     33  C   UNL     1      -2.022  -7.599  -0.515  1.00  0.00    -0.014 A 
BRANCH  33  34
ATOM     34  C   UNL     1      -2.811  -8.545  -1.345  1.00  0.00     0.031 A 
ATOM     35  C   UNL     1      -2.112  -9.653  -2.086  1.00  0.00     0.074 A 
ATOM     36  C   UNL     1      -4.138  -8.358  -1.491  1.00  0.00     0.049 A 
ATOM     37  N   UNL     1      -2.605 -10.523  -2.929  1.00  0.00    -0.248 NA
ATOM     38  C   UNL     1      -0.661  -9.780  -1.874  1.00  0.00     0.031 C 
ATOM     39  C   UNL     1      -4.917  -7.289  -0.859  1.00  0.00     0.029 A 
ATOM     40  N   UNL     1      -5.068  -9.049  -2.228  1.00  0.00    -0.354 N 
ATOM     41  C   UNL     1      -1.524 -11.280  -3.369  1.00  0.00     0.074 A 
ATOM     42  C   UNL     1      -0.344 -10.739  -2.730  1.00  0.00     0.031 C 
ATOM     43  C   UNL     1      -6.205  -7.408  -1.221  1.00  0.00     0.029 A 
ATOM     44  C   UNL     1      -6.340  -8.530  -2.144  1.00  0.00     0.049 A 
ATOM     45  H   UNL     1      -4.845  -9.842  -2.766  1.00  0.00     0.167 HD
ATOM     46  C   UNL     1      -1.522 -12.339  -4.215  1.00  0.00     0.034 A 
ATOM     47  C   UNL     1      -7.482  -8.908  -2.754  1.00  0.00     0.034 A 
ATOM     48  C   UNL     1      -2.713 -12.891  -4.810  1.00  0.00     0.049 A 
ATOM     49  C   UNL     1      -7.449 -10.097  -3.684  1.00  0.00     0.074 A 
ATOM     50  C   UNL     1      -2.833 -14.018  -5.605  1.00  0.00     0.029 A 
ATOM     51  N   UNL     1      -3.987 -12.356  -4.683  1.00  0.00    -0.354 N 
ATOM     52  N   UNL     1      -6.428 -10.850  -4.026  1.00  0.00    -0.248 NA
ATOM     53  C   UNL     1      -8.722 -10.494  -4.300  1.00  0.00     0.031 C 
ATOM     54  C   UNL     1      -4.168 -14.127  -6.010  1.00  0.00     0.029 A 
ATOM     55  C   UNL     1      -4.894 -13.111  -5.411  1.00  0.00     0.049 A 
ATOM     56  H   UNL     1      -4.214 -11.558  -4.154  1.00  0.00     0.167 HD
ATOM     57  C   UNL     1      -6.948 -11.832  -4.865  1.00  0.00     0.074 A 
ATOM     58  C   UNL     1      -8.371 -11.584  -4.965  1.00  0.00     0.031 C 
ATOM     59  C   UNL     1      -6.310 -12.851  -5.494  1.00  0.00     0.034 A 
BRANCH  46  60
ATOM     60  C   UNL     1      -0.192 -12.956  -4.566  1.00  0.00     0.023 A 
ATOM     61  C   UNL     1       0.598 -13.616  -3.610  1.00  0.00     0.031 A 
ATOM     62  C   UNL     1       0.288 -12.891  -5.887  1.00  0.00     0.131 A 
ATOM     63  C   UNL     1       1.848 -14.137  -3.975  1.00  0.00     0.055 A 
ATOM     64  C   UNL     1       1.500 -13.474  -6.259  1.00  0.00     0.041 A 
ATOM     65  F   UNL     1      -0.415 -12.255  -6.838  1.00  0.00    -0.206 F 
ATOM     66  C   UNL     1       2.293 -14.093  -5.298  1.00  0.00     0.022 A 
BRANCH  63  67
ATOM     67  S   UNL     1       2.932 -14.786  -2.674  1.00  0.00     0.124 S 
ATOM     68  O   UNL     1       3.152 -13.597  -1.854  1.00  0.00    -0.237 OA
ATOM     69  O   UNL     1       2.114 -15.833  -2.073  1.00  0.00    -0.237 OA
ATOM     70  O   UNL     1       4.106 -15.255  -3.408  1.00  0.00    -0.744 OA
ENDBRANCH  63  67
ENDBRANCH  46  60
BRANCH  47  71
ATOM     71  C   UNL     1      -8.755  -8.163  -2.530  1.00  0.00     0.023 A 
ATOM     72  C   UNL     1      -9.867  -8.795  -1.950  1.00  0.00     0.031 A 
ATOM     73  C   UNL     1      -8.907  -6.834  -2.965  1.00  0.00     0.131 A 
ATOM     74  C   UNL     1     -11.099  -8.125  -1.884  1.00  0.00     0.055 A 
ATOM     75  C   UNL     1     -10.119  -6.151  -2.841  1.00  0.00     0.041 A 
ATOM     76  F   UNL     1      -7.876  -6.179  -3.522  1.00  0.00    -0.206 F 
ATOM     77  C   UNL     1     -11.230  -6.803  -2.315  1.00  0.00     0.022 A 
BRANCH  74  78
ATOM     78  S   UNL     1     -12.561  -9.052  -1.340  1.00  0.00     0.124 S 
ATOM     79  O   UNL     1     -12.543 -10.194  -2.248  1.00  0.00    -0.237 OA
ATOM     80  O   UNL     1     -12.236  -9.335   0.054  1.00  0.00    -0.237 OA
ATOM     81  O   UNL     1     -13.657  -8.108  -1.545  1.00  0.00    -0.744 OA
ENDBRANCH  74  78
ENDBRANCH  47  71
BRANCH  59  82
ATOM     82  C   UNL     1      -7.163 -13.803  -6.294  1.00  0.00     0.023 A 
ATOM     83  C   UNL     1      -7.817 -13.402  -7.471  1.00  0.00     0.031 A 
ATOM     84  C   UNL     1      -7.330 -15.131  -5.862  1.00  0.00     0.131 A 
ATOM     85  C   UNL     1      -8.655 -14.302  -8.146  1.00  0.00     0.055 A 
ATOM     86  C   UNL     1      -8.117 -16.040  -6.570  1.00  0.00     0.041 A 
ATOM     87  F   UNL     1      -6.728 -15.567  -4.744  1.00  0.00    -0.206 F 
ATOM     88  C   UNL     1      -8.795 -15.623  -7.712  1.00  0.00     0.022 A 
BRANCH  85  89
ATOM     89  S   UNL     1      -9.628 -13.700  -9.553  1.00  0.00     0.124 S 
ATOM     90  O   UNL     1     -10.414 -12.632  -8.943  1.00  0.00    -0.237 OA
ATOM     91  O   UNL     1      -8.592 -13.274 -10.489  1.00  0.00    -0.237 OA
ATOM     92  O   UNL     1     -10.393 -14.874  -9.968  1.00  0.00    -0.744 OA
ENDBRANCH  85  89
ENDBRANCH  59  82
ENDBRANCH  33  34
ENDBRANCH  25  28
ENDBRANCH  23  24
ENDBRANCH   1  23
TORSDOF 15
