REMARK SMILES C=C(C)C(=O)OCC[C@@H](C(C)=O)C(=O)NCCCCNC(=O)c1ccc(-c2c3nc(c(-c4cc(S(=O)(=O)[O-])ccc4F)c4ccc([nH]4)c(-c4cc(S(=O)(=O)[O-])ccc4F)c4nc(c(-c5cc(S(=O)(=O)[O-])ccc5F)c5ccc2[nH]5)C=C4)C=C3)cc1
REMARK SMILES IDX 16 1 15 2 13 3 14 4 9 6 8 7 7 8 6 9 4 10 5 11 2 12 1 13 3 14
REMARK SMILES IDX 10 15 11 16 12 17 17 18 18 19 19 20 20 21 21 22 22 24 23 25
REMARK SMILES IDX 24 26 85 27 25 28 84 29 26 30 27 31 28 32 78 33 29 34 83 35
REMARK SMILES IDX 77 36 79 37 30 38 82 39 76 40 75 41 31 43 63 44 43 45 62 46
REMARK SMILES IDX 44 47 47 48 61 49 80 50 45 51 46 52 60 54 81 55 48 56 32 57
REMARK SMILES IDX 33 58 41 59 34 60 40 61 42 62 39 63 35 64 36 65 37 66 38 67
REMARK SMILES IDX 64 68 65 69 73 70 66 71 72 72 74 73 71 74 67 75 68 76 69 77
REMARK SMILES IDX 70 78 49 79 50 80 58 81 51 82 57 83 59 84 56 85 52 86 53 87
REMARK SMILES IDX 54 88 55 89
REMARK H PARENT 15 5 20 23 79 42 47 53
REMARK Flexibility Score: inf
ROOT
ATOM      1  C   UNL     1       4.647  -0.020  -6.793  1.00  0.00     0.116 C 
ENDROOT
BRANCH   1   2
ATOM      2  N   UNL     1       4.519   1.108  -5.886  1.00  0.00    -0.355 N 
ATOM      3  C   UNL     1       3.896   1.185  -4.678  1.00  0.00     0.230 C 
ATOM      4  O   UNL     1       3.914   2.259  -4.074  1.00  0.00    -0.274 OA
ATOM      5  H   UNL     1       4.946   1.941  -6.191  1.00  0.00     0.163 HD
BRANCH   3   6
ATOM      6  C   UNL     1       3.181  -0.021  -4.098  1.00  0.00     0.148 C 
BRANCH   6   7
ATOM      7  C   UNL     1       1.876  -0.247  -4.887  1.00  0.00     0.063 C 
BRANCH   7   8
ATOM      8  C   UNL     1       0.896  -1.246  -4.275  1.00  0.00     0.234 C 
BRANCH   8   9
ATOM      9  O   UNL     1       0.258  -0.696  -3.117  1.00  0.00    -0.462 OA
BRANCH   9  10
ATOM     10  C   UNL     1       0.833  -0.979  -1.925  1.00  0.00     0.333 C 
ATOM     11  O   UNL     1       1.851  -1.629  -1.742  1.00  0.00    -0.247 OA
BRANCH  10  12
ATOM     12  C   UNL     1       0.069  -0.303  -0.849  1.00  0.00     0.027 C 
ATOM     13  C   UNL     1       0.759   0.137   0.216  1.00  0.00     0.020 C 
ATOM     14  C   UNL     1      -1.412  -0.178  -1.001  1.00  0.00     0.051 C 
ENDBRANCH  10  12
ENDBRANCH   9  10
ENDBRANCH   8   9
ENDBRANCH   7   8
ENDBRANCH   6   7
BRANCH   6  15
ATOM     15  C   UNL     1       4.095  -1.239  -4.011  1.00  0.00     0.142 C 
ATOM     16  C   UNL     1       5.463  -1.062  -3.394  1.00  0.00     0.088 C 
ATOM     17  O   UNL     1       3.746  -2.350  -4.419  1.00  0.00    -0.299 OA
ENDBRANCH   6  15
ENDBRANCH   3   6
ENDBRANCH   1   2
BRANCH   1  18
ATOM     18  C   UNL     1       4.111   0.312  -8.178  1.00  0.00     0.023 C 
BRANCH  18  19
ATOM     19  C   UNL     1       4.958   1.328  -8.939  1.00  0.00     0.023 C 
BRANCH  19  20
ATOM     20  C   UNL     1       6.435   0.971  -9.038  1.00  0.00     0.116 C 
BRANCH  20  21
ATOM     21  N   UNL     1       6.659  -0.334  -9.645  1.00  0.00    -0.352 N 
ATOM     22  C   UNL     1       7.559  -0.666 -10.629  1.00  0.00     0.251 C 
ATOM     23  H   UNL     1       6.096  -1.068  -9.310  1.00  0.00     0.163 HD
ATOM     24  O   UNL     1       7.524  -1.771 -11.159  1.00  0.00    -0.269 OA
BRANCH  22  25
ATOM     25  C   UNL     1       8.541   0.351 -11.053  1.00  0.00     0.039 A 
ATOM     26  C   UNL     1       8.655   0.664 -12.408  1.00  0.00     0.014 A 
ATOM     27  C   UNL     1       9.282   1.046 -10.093  1.00  0.00     0.014 A 
ATOM     28  C   UNL     1       9.470   1.728 -12.796  1.00  0.00     0.010 A 
ATOM     29  C   UNL     1      10.024   2.156 -10.475  1.00  0.00     0.010 A 
ATOM     30  C   UNL     1      10.130   2.506 -11.830  1.00  0.00    -0.014 A 
BRANCH  30  31
ATOM     31  C   UNL     1      10.962   3.676 -12.212  1.00  0.00     0.031 A 
ATOM     32  C   UNL     1      12.434   3.671 -11.903  1.00  0.00     0.074 A 
ATOM     33  C   UNL     1      10.386   4.760 -12.769  1.00  0.00     0.049 A 
ATOM     34  N   UNL     1      13.317   4.623 -12.056  1.00  0.00    -0.248 NA
ATOM     35  C   UNL     1      12.975   2.438 -11.310  1.00  0.00     0.031 C 
ATOM     36  C   UNL     1       8.963   4.894 -13.087  1.00  0.00     0.029 A 
ATOM     37  N   UNL     1      10.927   5.959 -13.160  1.00  0.00    -0.354 N 
ATOM     38  C   UNL     1      14.513   4.110 -11.566  1.00  0.00     0.074 A 
ATOM     39  C   UNL     1      14.221   2.793 -11.043  1.00  0.00     0.031 C 
ATOM     40  C   UNL     1       8.750   6.094 -13.651  1.00  0.00     0.029 A 
ATOM     41  C   UNL     1      10.006   6.836 -13.687  1.00  0.00     0.049 A 
ATOM     42  H   UNL     1      11.884   6.172 -13.073  1.00  0.00     0.167 HD
ATOM     43  C   UNL     1      15.746   4.673 -11.578  1.00  0.00     0.034 A 
ATOM     44  C   UNL     1      10.157   8.099 -14.135  1.00  0.00     0.034 A 
ATOM     45  C   UNL     1      16.018   5.985 -12.112  1.00  0.00     0.049 A 
ATOM     46  C   UNL     1      11.530   8.724 -14.098  1.00  0.00     0.074 A 
ATOM     47  C   UNL     1      17.233   6.640 -12.213  1.00  0.00     0.029 A 
ATOM     48  N   UNL     1      15.059   6.847 -12.631  1.00  0.00    -0.354 N 
ATOM     49  N   UNL     1      12.660   8.212 -13.666  1.00  0.00    -0.248 NA
ATOM     50  C   UNL     1      11.649  10.092 -14.617  1.00  0.00     0.031 C 
ATOM     51  C   UNL     1      17.000   7.921 -12.723  1.00  0.00     0.029 A 
ATOM     52  C   UNL     1      15.652   8.037 -13.024  1.00  0.00     0.049 A 
ATOM     53  H   UNL     1      14.100   6.642 -12.708  1.00  0.00     0.167 HD
ATOM     54  C   UNL     1      13.630   9.184 -13.900  1.00  0.00     0.074 A 
ATOM     55  C   UNL     1      12.953  10.305 -14.517  1.00  0.00     0.031 C 
ATOM     56  C   UNL     1      14.962   9.149 -13.636  1.00  0.00     0.034 A 
BRANCH  43  57
ATOM     57  C   UNL     1      16.877   3.876 -10.971  1.00  0.00     0.023 A 
ATOM     58  C   UNL     1      17.252   2.621 -11.483  1.00  0.00     0.031 A 
ATOM     59  C   UNL     1      17.562   4.353  -9.840  1.00  0.00     0.131 A 
ATOM     60  C   UNL     1      18.214   1.849 -10.815  1.00  0.00     0.055 A 
ATOM     61  C   UNL     1      18.585   3.620  -9.235  1.00  0.00     0.041 A 
ATOM     62  F   UNL     1      17.235   5.533  -9.289  1.00  0.00    -0.206 F 
ATOM     63  C   UNL     1      18.904   2.352  -9.710  1.00  0.00     0.022 A 
BRANCH  60  64
ATOM     64  S   UNL     1      18.426   0.117 -11.310  1.00  0.00     0.124 S 
ATOM     65  O   UNL     1      17.078  -0.412 -11.114  1.00  0.00    -0.237 OA
ATOM     66  O   UNL     1      18.871   0.236 -12.694  1.00  0.00    -0.237 OA
ATOM     67  O   UNL     1      19.427  -0.387 -10.372  1.00  0.00    -0.744 OA
ENDBRANCH  60  64
ENDBRANCH  43  57
BRANCH  44  68
ATOM     68  C   UNL     1       8.986   8.864 -14.653  1.00  0.00     0.023 A 
ATOM     69  C   UNL     1       8.932   9.281 -15.993  1.00  0.00     0.031 A 
ATOM     70  C   UNL     1       7.924   9.231 -13.807  1.00  0.00     0.131 A 
ATOM     71  C   UNL     1       7.868  10.081 -16.436  1.00  0.00     0.055 A 
ATOM     72  C   UNL     1       6.839   9.979 -14.267  1.00  0.00     0.041 A 
ATOM     73  F   UNL     1       7.922   8.857 -12.518  1.00  0.00    -0.206 F 
ATOM     74  C   UNL     1       6.814  10.421 -15.586  1.00  0.00     0.022 A 
BRANCH  71  75
ATOM     75  S   UNL     1       7.928  10.751 -18.120  1.00  0.00     0.124 S 
ATOM     76  O   UNL     1       9.178  11.502 -18.096  1.00  0.00    -0.237 OA
ATOM     77  O   UNL     1       7.925   9.536 -18.929  1.00  0.00    -0.237 OA
ATOM     78  O   UNL     1       6.714  11.559 -18.208  1.00  0.00    -0.744 OA
ENDBRANCH  71  75
ENDBRANCH  44  68
BRANCH  56  79
ATOM     79  C   UNL     1      15.783  10.339 -14.074  1.00  0.00     0.023 A 
ATOM     80  C   UNL     1      15.623  11.609 -13.494  1.00  0.00     0.031 A 
ATOM     81  C   UNL     1      16.744  10.193 -15.091  1.00  0.00     0.131 A 
ATOM     82  C   UNL     1      16.373  12.695 -13.973  1.00  0.00     0.055 A 
ATOM     83  C   UNL     1      17.532  11.261 -15.518  1.00  0.00     0.041 A 
ATOM     84  F   UNL     1      16.937   9.003 -15.683  1.00  0.00    -0.206 F 
ATOM     85  C   UNL     1      17.340  12.524 -14.967  1.00  0.00     0.022 A 
BRANCH  82  86
ATOM     86  S   UNL     1      16.004  14.355 -13.343  1.00  0.00     0.124 S 
ATOM     87  O   UNL     1      14.593  14.503 -13.687  1.00  0.00    -0.237 OA
ATOM     88  O   UNL     1      16.302  14.223 -11.920  1.00  0.00    -0.237 OA
ATOM     89  O   UNL     1      16.918  15.217 -14.089  1.00  0.00    -0.744 OA
ENDBRANCH  82  86
ENDBRANCH  56  79
ENDBRANCH  30  31
ENDBRANCH  22  25
ENDBRANCH  20  21
ENDBRANCH  19  20
ENDBRANCH  18  19
ENDBRANCH   1  18
TORSDOF 20
