REMARK SMILES COCC(=O)N1[C@@H](C(=O)NCCCCNC(=O)c2ccc(-c3c4nc(c(-c5cc(S(=O)(=O)[O-])ccc5F)c5ccc([nH]5)c(-c5cc(S(=O)(=O)[O-])ccc5F)c5nc(c(-c6cc(S(=O)(=O)[O-])ccc6F)c6ccc3[nH]6)C=C5)C=C4)cc2)CC[C@@H]2CCCC[C@H]21
REMARK SMILES IDX 12 1 11 2 10 3 8 4 9 5 7 7 6 8 88 9 81 10 83 11 87 12 82 13
REMARK SMILES IDX 84 14 86 15 85 16 4 17 5 18 3 19 2 20 1 21 13 22 14 23 15 24
REMARK SMILES IDX 16 25 17 27 18 28 19 29 80 30 20 31 79 32 21 33 22 34 23 35
REMARK SMILES IDX 73 36 24 37 78 38 72 39 74 40 25 41 77 42 71 43 70 44 26 46
REMARK SMILES IDX 58 47 38 48 57 49 39 50 42 51 56 52 75 53 40 54 41 55 55 57
REMARK SMILES IDX 76 58 43 59 27 60 28 61 36 62 29 63 35 64 37 65 34 66 30 67
REMARK SMILES IDX 31 68 32 69 33 70 59 71 60 72 68 73 61 74 67 75 69 76 66 77
REMARK SMILES IDX 62 78 63 79 64 80 65 81 44 82 45 83 53 84 46 85 52 86 54 87
REMARK SMILES IDX 51 88 47 89 48 90 49 91 50 92
REMARK H PARENT 10 6 15 26 74 45 42 56
REMARK Flexibility Score: inf
ROOT
ATOM      1  C   UNL     1      -0.219   0.263   3.429  1.00  0.00     0.023 C 
ENDROOT
BRANCH   1   2
ATOM      2  C   UNL     1      -0.132   0.918   2.054  1.00  0.00     0.116 C 
BRANCH   2   3
ATOM      3  N   UNL     1      -0.680   0.051   1.026  1.00  0.00    -0.354 N 
ATOM      4  C   UNL     1      -1.458   0.355  -0.052  1.00  0.00     0.242 C 
ATOM      5  O   UNL     1      -1.947  -0.582  -0.693  1.00  0.00    -0.273 OA
ATOM      6  H   UNL     1      -0.456  -0.903   1.123  1.00  0.00     0.163 HD
BRANCH   4   7
ATOM      7  C   UNL     1      -1.908   1.804  -0.335  1.00  0.00     0.174 C 
ATOM      8  N   UNL     1      -0.892   2.882  -0.237  1.00  0.00    -0.325 N 
ATOM      9  C   UNL     1      -1.446   4.260  -0.196  1.00  0.00     0.089 C 
ATOM     10  C   UNL     1      -3.071   2.001   0.676  1.00  0.00     0.036 C 
ATOM     11  C   UNL     1      -2.398   4.418   1.005  1.00  0.00     0.012 C 
ATOM     12  C   UNL     1      -0.439   5.422  -0.286  1.00  0.00     0.025 C 
ATOM     13  C   UNL     1      -3.556   3.427   0.858  1.00  0.00     0.008 C 
ATOM     14  C   UNL     1      -2.978   5.834   1.148  1.00  0.00     0.006 C 
ATOM     15  C   UNL     1      -1.128   6.783  -0.240  1.00  0.00     0.002 C 
ATOM     16  C   UNL     1      -1.924   6.926   1.047  1.00  0.00     0.000 C 
BRANCH   8  17
ATOM     17  C   UNL     1       0.435   2.707  -0.643  1.00  0.00     0.249 C 
ATOM     18  O   UNL     1       1.357   3.335  -0.113  1.00  0.00    -0.272 OA
BRANCH  17  19
ATOM     19  C   UNL     1       0.754   1.762  -1.818  1.00  0.00     0.259 C 
BRANCH  19  20
ATOM     20  O   UNL     1       0.849   0.379  -1.556  1.00  0.00    -0.375 OA
ATOM     21  C   UNL     1       2.054   0.005  -0.904  1.00  0.00     0.195 C 
ENDBRANCH  19  20
ENDBRANCH  17  19
ENDBRANCH   8  17
ENDBRANCH   4   7
ENDBRANCH   2   3
ENDBRANCH   1   2
BRANCH   1  22
ATOM     22  C   UNL     1       0.628  -1.002   3.580  1.00  0.00     0.023 C 
BRANCH  22  23
ATOM     23  C   UNL     1       2.110  -0.822   3.272  1.00  0.00     0.116 C 
BRANCH  23  24
ATOM     24  N   UNL     1       2.745   0.144   4.154  1.00  0.00    -0.352 N 
ATOM     25  C   UNL     1       3.821  -0.027   4.990  1.00  0.00     0.251 C 
ATOM     26  H   UNL     1       2.350   1.046   4.150  1.00  0.00     0.163 HD
ATOM     27  O   UNL     1       4.098   0.837   5.818  1.00  0.00    -0.269 OA
BRANCH  25  28
ATOM     28  C   UNL     1       4.620  -1.269   4.907  1.00  0.00     0.039 A 
ATOM     29  C   UNL     1       4.943  -1.947   6.084  1.00  0.00     0.014 A 
ATOM     30  C   UNL     1       5.028  -1.773   3.668  1.00  0.00     0.014 A 
ATOM     31  C   UNL     1       5.615  -3.169   6.012  1.00  0.00     0.010 A 
ATOM     32  C   UNL     1       5.627  -3.028   3.596  1.00  0.00     0.010 A 
ATOM     33  C   UNL     1       5.926  -3.741   4.767  1.00  0.00    -0.014 A 
BRANCH  33  34
ATOM     34  C   UNL     1       6.556  -5.086   4.674  1.00  0.00     0.031 A 
ATOM     35  C   UNL     1       7.923  -5.241   4.064  1.00  0.00     0.074 A 
ATOM     36  C   UNL     1       5.873  -6.172   5.091  1.00  0.00     0.049 A 
ATOM     37  N   UNL     1       8.609  -6.332   3.840  1.00  0.00    -0.248 NA
ATOM     38  C   UNL     1       8.594  -4.009   3.623  1.00  0.00     0.031 C 
ATOM     39  C   UNL     1       4.525  -6.153   5.664  1.00  0.00     0.029 A 
ATOM     40  N   UNL     1       6.212  -7.503   5.092  1.00  0.00    -0.354 N 
ATOM     41  C   UNL     1       9.786  -5.922   3.224  1.00  0.00     0.074 A 
ATOM     42  C   UNL     1       9.691  -4.487   3.055  1.00  0.00     0.031 C 
ATOM     43  C   UNL     1       4.165  -7.406   5.984  1.00  0.00     0.029 A 
ATOM     44  C   UNL     1       5.228  -8.325   5.593  1.00  0.00     0.049 A 
ATOM     45  H   UNL     1       7.078  -7.837   4.765  1.00  0.00     0.167 HD
ATOM     46  C   UNL     1      10.855  -6.669   2.853  1.00  0.00     0.034 A 
ATOM     47  C   UNL     1       5.179  -9.668   5.708  1.00  0.00     0.034 A 
ATOM     48  C   UNL     1      10.937  -8.098   3.037  1.00  0.00     0.049 A 
ATOM     49  C   UNL     1       6.368 -10.481   5.258  1.00  0.00     0.074 A 
ATOM     50  C   UNL     1      11.996  -8.943   2.751  1.00  0.00     0.029 A 
ATOM     51  N   UNL     1       9.919  -8.898   3.542  1.00  0.00    -0.354 N 
ATOM     52  N   UNL     1       7.498 -10.069   4.729  1.00  0.00    -0.248 NA
ATOM     53  C   UNL     1       6.281 -11.936   5.430  1.00  0.00     0.031 C 
ATOM     54  C   UNL     1      11.591 -10.257   3.004  1.00  0.00     0.029 A 
ATOM     55  C   UNL     1      10.312 -10.228   3.538  1.00  0.00     0.049 A 
ATOM     56  H   UNL     1       9.046  -8.569   3.856  1.00  0.00     0.167 HD
ATOM     57  C   UNL     1       8.267 -11.214   4.539  1.00  0.00     0.074 A 
ATOM     58  C   UNL     1       7.479 -12.328   5.025  1.00  0.00     0.031 C 
ATOM     59  C   UNL     1       9.515 -11.334   4.016  1.00  0.00     0.034 A 
BRANCH  46  60
ATOM     60  C   UNL     1      12.009  -5.958   2.185  1.00  0.00     0.023 A 
ATOM     61  C   UNL     1      12.755  -4.968   2.849  1.00  0.00     0.031 A 
ATOM     62  C   UNL     1      12.363  -6.268   0.860  1.00  0.00     0.131 A 
ATOM     63  C   UNL     1      13.769  -4.278   2.166  1.00  0.00     0.055 A 
ATOM     64  C   UNL     1      13.428  -5.637   0.214  1.00  0.00     0.041 A 
ATOM     65  F   UNL     1      11.674  -7.188   0.165  1.00  0.00    -0.206 F 
ATOM     66  C   UNL     1      14.129  -4.625   0.862  1.00  0.00     0.022 A 
BRANCH  63  67
ATOM     67  S   UNL     1      14.514  -2.827   2.958  1.00  0.00     0.124 S 
ATOM     68  O   UNL     1      13.346  -1.977   3.176  1.00  0.00    -0.237 OA
ATOM     69  O   UNL     1      15.122  -3.398   4.155  1.00  0.00    -0.237 OA
ATOM     70  O   UNL     1      15.455  -2.334   1.955  1.00  0.00    -0.744 OA
ENDBRANCH  63  67
ENDBRANCH  46  60
BRANCH  47  71
ATOM     71  C   UNL     1       3.961 -10.339   6.252  1.00  0.00     0.023 A 
ATOM     72  C   UNL     1       4.015 -11.098   7.432  1.00  0.00     0.031 A 
ATOM     73  C   UNL     1       2.734 -10.276   5.567  1.00  0.00     0.131 A 
ATOM     74  C   UNL     1       2.882 -11.807   7.861  1.00  0.00     0.055 A 
ATOM     75  C   UNL     1       1.593 -10.933   6.032  1.00  0.00     0.041 A 
ATOM     76  F   UNL     1       2.624  -9.565   4.433  1.00  0.00    -0.206 F 
ATOM     77  C   UNL     1       1.668 -11.717   7.178  1.00  0.00     0.022 A 
BRANCH  74  78
ATOM     78  S   UNL     1       3.047 -12.938   9.270  1.00  0.00     0.124 S 
ATOM     79  O   UNL     1       4.111 -13.825   8.815  1.00  0.00    -0.237 OA
ATOM     80  O   UNL     1       3.394 -12.023  10.353  1.00  0.00    -0.237 OA
ATOM     81  O   UNL     1       1.724 -13.549   9.373  1.00  0.00    -0.744 OA
ENDBRANCH  74  78
ENDBRANCH  47  71
BRANCH  59  82
ATOM     82  C   UNL     1      10.124 -12.716   3.993  1.00  0.00     0.023 A 
ATOM     83  C   UNL     1       9.592 -13.751   3.204  1.00  0.00     0.031 A 
ATOM     84  C   UNL     1      11.254 -13.001   4.782  1.00  0.00     0.131 A 
ATOM     85  C   UNL     1      10.154 -15.036   3.266  1.00  0.00     0.055 A 
ATOM     86  C   UNL     1      11.849 -14.263   4.787  1.00  0.00     0.041 A 
ATOM     87  F   UNL     1      11.802 -12.053   5.559  1.00  0.00    -0.206 F 
ATOM     88  C   UNL     1      11.291 -15.293   4.037  1.00  0.00     0.022 A 
BRANCH  85  89
ATOM     89  S   UNL     1       9.318 -16.395   2.403  1.00  0.00     0.124 S 
ATOM     90  O   UNL     1       7.991 -16.369   3.010  1.00  0.00    -0.237 OA
ATOM     91  O   UNL     1       9.390 -15.971   1.009  1.00  0.00    -0.237 OA
ATOM     92  O   UNL     1      10.129 -17.564   2.737  1.00  0.00    -0.744 OA
ENDBRANCH  85  89
ENDBRANCH  59  82
ENDBRANCH  33  34
ENDBRANCH  25  28
ENDBRANCH  23  24
ENDBRANCH  22  23
ENDBRANCH   1  22
TORSDOF 17
