REMARK SMILES Cc1ccc(C)c(S(=O)(=O)N[C@H](CC2=c3ccccc3=NC2)C(=O)NCCCCNC(=O)c2ccc(-c3c4nc(c(-c5cc(S(=O)(=O)[O-])ccc5F)c5ccc([nH]5)c(-c5cc(S(=O)(=O)[O-])ccc5F)c5nc(c(-c6cc(S(=O)(=O)[O-])ccc6F)c6ccc3[nH]6)C=C5)C=C4)cc2)c1
REMARK SMILES IDX 27 1 26 2 25 3 23 4 24 5 12 7 11 8 8 10 9 11 10 12 7 13 1 14
REMARK SMILES IDX 2 15 3 16 96 17 4 18 5 19 6 20 13 21 14 22 15 23 22 24 16 25
REMARK SMILES IDX 20 26 21 27 17 28 19 29 18 30 28 31 29 32 30 33 31 34 32 36
REMARK SMILES IDX 33 37 34 38 95 39 35 40 94 41 36 42 37 43 38 44 88 45 39 46
REMARK SMILES IDX 93 47 87 48 89 49 40 50 92 51 86 52 85 53 41 55 73 56 53 57
REMARK SMILES IDX 72 58 54 59 57 60 71 61 90 62 55 63 56 64 70 66 91 67 58 68
REMARK SMILES IDX 42 69 43 70 51 71 44 72 50 73 52 74 49 75 45 76 46 77 47 78
REMARK SMILES IDX 48 79 74 80 75 81 83 82 76 83 82 84 84 85 81 86 77 87 78 88
REMARK SMILES IDX 79 89 80 90 59 91 60 92 68 93 61 94 67 95 69 96 66 97 62 98
REMARK SMILES IDX 63 99 64 100 65 101
REMARK H PARENT 25 6 11 9 30 35 89 54 57 65
REMARK Flexibility Score: inf
ROOT
ATOM      1  C   UNL     1      -1.584   8.040  -0.828  1.00  0.00     0.023 C 
ENDROOT
BRANCH   1   2
ATOM      2  C   UNL     1      -0.944   6.995  -1.789  1.00  0.00     0.116 C 
BRANCH   2   3
ATOM      3  N   UNL     1       0.469   6.656  -1.659  1.00  0.00    -0.355 N 
ATOM      4  C   UNL     1       1.188   5.533  -1.330  1.00  0.00     0.238 C 
ATOM      5  O   UNL     1       2.394   5.708  -1.133  1.00  0.00    -0.273 OA
ATOM      6  H   UNL     1       1.052   7.424  -1.856  1.00  0.00     0.163 HD
BRANCH   4   7
ATOM      7  C   UNL     1       0.585   4.138  -1.068  1.00  0.00     0.163 C 
BRANCH   7   8
ATOM      8  N   UNL     1      -0.470   3.825  -2.098  1.00  0.00    -0.198 NA
ATOM      9  H   UNL     1      -1.282   3.469  -1.594  1.00  0.00     0.142 HD
BRANCH   8  10
ATOM     10  S   UNL     1      -0.124   2.708  -3.334  1.00  0.00     0.241 S 
ATOM     11  O   UNL     1       1.277   2.788  -3.630  1.00  0.00    -0.207 OA
ATOM     12  O   UNL     1      -1.148   2.956  -4.335  1.00  0.00    -0.207 OA
BRANCH  10  13
ATOM     13  C   UNL     1      -0.480   1.106  -2.649  1.00  0.00     0.085 A 
ATOM     14  C   UNL     1      -1.721  -0.183   0.703  1.00  0.00     0.044 C 
ATOM     15  C   UNL     1      -1.203  -0.165  -0.702  1.00  0.00    -0.050 A 
ATOM     16  C   UNL     1      -0.823  -1.341  -1.348  1.00  0.00     0.004 A 
ATOM     17  C   UNL     1      -1.072   1.046  -1.383  1.00  0.00     0.025 A 
ATOM     18  C   UNL     1      -0.310  -1.298  -2.648  1.00  0.00     0.005 A 
ATOM     19  C   UNL     1      -0.122  -0.076  -3.320  1.00  0.00    -0.031 A 
ATOM     20  C   UNL     1       0.427  -0.132  -4.720  1.00  0.00     0.046 C 
ENDBRANCH  10  13
ENDBRANCH   8  10
ENDBRANCH   7   8
BRANCH   7  21
ATOM     21  C   UNL     1       0.050   3.855   0.398  1.00  0.00     0.063 C 
BRANCH  21  22
ATOM     22  C   UNL     1       0.268   4.815   1.552  1.00  0.00    -0.037 C 
ATOM     23  C   UNL     1       0.694   4.732   2.816  1.00  0.00     0.001 A 
ATOM     24  C   UNL     1      -0.208   6.197   1.322  1.00  0.00     0.174 C 
ATOM     25  C   UNL     1       1.144   3.724   3.721  1.00  0.00     0.010 A 
ATOM     26  C   UNL     1       0.509   6.116   3.318  1.00  0.00     0.065 A 
ATOM     27  N   UNL     1      -0.091   6.969   2.558  1.00  0.00    -0.280 NA
ATOM     28  C   UNL     1       1.482   4.082   4.977  1.00  0.00     0.001 A 
ATOM     29  C   UNL     1       0.992   6.457   4.659  1.00  0.00     0.028 A 
ATOM     30  C   UNL     1       1.461   5.466   5.425  1.00  0.00     0.002 A 
ENDBRANCH  21  22
ENDBRANCH   7  21
ENDBRANCH   4   7
ENDBRANCH   2   3
ENDBRANCH   1   2
BRANCH   1  31
ATOM     31  C   UNL     1      -0.728   8.939   0.091  1.00  0.00     0.023 C 
BRANCH  31  32
ATOM     32  C   UNL     1      -0.643  10.444  -0.162  1.00  0.00     0.116 C 
BRANCH  32  33
ATOM     33  N   UNL     1      -1.938  11.072  -0.444  1.00  0.00    -0.352 N 
ATOM     34  C   UNL     1      -2.460  11.660  -1.586  1.00  0.00     0.251 C 
ATOM     35  H   UNL     1      -2.555  11.076   0.324  1.00  0.00     0.163 HD
ATOM     36  O   UNL     1      -3.528  12.262  -1.528  1.00  0.00    -0.269 OA
BRANCH  34  37
ATOM     37  C   UNL     1      -1.749  11.534  -2.875  1.00  0.00     0.039 A 
ATOM     38  C   UNL     1      -2.193  12.017  -4.107  1.00  0.00     0.014 A 
ATOM     39  C   UNL     1      -0.689  10.659  -2.912  1.00  0.00     0.014 A 
ATOM     40  C   UNL     1      -1.589  11.488  -5.264  1.00  0.00     0.010 A 
ATOM     41  C   UNL     1       0.195  10.730  -3.919  1.00  0.00     0.010 A 
ATOM     42  C   UNL     1      -0.464  10.668  -5.113  1.00  0.00    -0.014 A 
BRANCH  42  43
ATOM     43  C   UNL     1       0.342  10.073  -6.152  1.00  0.00     0.031 A 
ATOM     44  C   UNL     1       1.283  11.064  -6.716  1.00  0.00     0.074 A 
ATOM     45  C   UNL     1       0.543   8.751  -6.315  1.00  0.00     0.049 A 
ATOM     46  N   UNL     1       0.979  11.912  -7.640  1.00  0.00    -0.248 NA
ATOM     47  C   UNL     1       2.505  11.410  -5.960  1.00  0.00     0.031 C 
ATOM     48  C   UNL     1       0.078   7.601  -5.542  1.00  0.00     0.029 A 
ATOM     49  N   UNL     1       1.289   8.165  -7.282  1.00  0.00    -0.354 N 
ATOM     50  C   UNL     1       2.106  12.703  -7.769  1.00  0.00     0.074 A 
ATOM     51  C   UNL     1       2.793  12.591  -6.511  1.00  0.00     0.031 C 
ATOM     52  C   UNL     1       0.713   6.474  -5.961  1.00  0.00     0.029 A 
ATOM     53  C   UNL     1       1.489   6.799  -7.146  1.00  0.00     0.049 A 
ATOM     54  H   UNL     1       1.665   8.676  -8.034  1.00  0.00     0.167 HD
ATOM     55  C   UNL     1       2.558  13.083  -8.997  1.00  0.00     0.034 A 
ATOM     56  C   UNL     1       2.250   6.032  -7.971  1.00  0.00     0.034 A 
ATOM     57  C   UNL     1       1.630  12.649 -10.020  1.00  0.00     0.049 A 
ATOM     58  C   UNL     1       2.448   6.808  -9.229  1.00  0.00     0.074 A 
ATOM     59  C   UNL     1       0.311  12.928 -10.315  1.00  0.00     0.029 A 
ATOM     60  N   UNL     1       1.911  11.441 -10.623  1.00  0.00    -0.354 N 
ATOM     61  N   UNL     1       1.488   7.099 -10.064  1.00  0.00    -0.248 NA
ATOM     62  C   UNL     1       3.614   7.679  -9.292  1.00  0.00     0.031 C 
ATOM     63  C   UNL     1      -0.255  11.680 -10.707  1.00  0.00     0.029 A 
ATOM     64  C   UNL     1       0.753  10.711 -10.725  1.00  0.00     0.049 A 
ATOM     65  H   UNL     1       2.800  11.149 -10.930  1.00  0.00     0.167 HD
ATOM     66  C   UNL     1       1.721   8.421 -10.422  1.00  0.00     0.074 A 
ATOM     67  C   UNL     1       3.089   8.696  -9.981  1.00  0.00     0.031 C 
ATOM     68  C   UNL     1       0.692   9.257 -10.756  1.00  0.00     0.034 A 
BRANCH  55  69
ATOM     69  C   UNL     1       3.985  13.464  -9.304  1.00  0.00     0.023 A 
ATOM     70  C   UNL     1       5.051  13.335  -8.396  1.00  0.00     0.031 A 
ATOM     71  C   UNL     1       4.343  13.834 -10.614  1.00  0.00     0.131 A 
ATOM     72  C   UNL     1       6.379  13.567  -8.770  1.00  0.00     0.055 A 
ATOM     73  C   UNL     1       5.675  14.004 -11.009  1.00  0.00     0.041 A 
ATOM     74  F   UNL     1       3.410  14.001 -11.564  1.00  0.00    -0.206 F 
ATOM     75  C   UNL     1       6.704  13.870 -10.085  1.00  0.00     0.022 A 
BRANCH  72  76
ATOM     76  S   UNL     1       7.706  13.472  -7.535  1.00  0.00     0.124 S 
ATOM     77  O   UNL     1       8.574  12.446  -8.102  1.00  0.00    -0.237 OA
ATOM     78  O   UNL     1       8.231  14.834  -7.562  1.00  0.00    -0.237 OA
ATOM     79  O   UNL     1       7.006  13.105  -6.306  1.00  0.00    -0.744 OA
ENDBRANCH  72  76
ENDBRANCH  55  69
BRANCH  56  80
ATOM     80  C   UNL     1       3.219   4.974  -7.586  1.00  0.00     0.023 A 
ATOM     81  C   UNL     1       3.891   5.068  -6.353  1.00  0.00     0.031 A 
ATOM     82  C   UNL     1       3.766   4.112  -8.556  1.00  0.00     0.131 A 
ATOM     83  C   UNL     1       5.103   4.388  -6.154  1.00  0.00     0.055 A 
ATOM     84  C   UNL     1       4.958   3.406  -8.340  1.00  0.00     0.041 A 
ATOM     85  F   UNL     1       3.203   4.011  -9.771  1.00  0.00    -0.206 F 
ATOM     86  C   UNL     1       5.644   3.561  -7.141  1.00  0.00     0.022 A 
BRANCH  83  87
ATOM     87  S   UNL     1       6.102   4.697  -4.670  1.00  0.00     0.124 S 
ATOM     88  O   UNL     1       6.310   3.346  -4.152  1.00  0.00    -0.237 OA
ATOM     89  O   UNL     1       7.285   5.335  -5.239  1.00  0.00    -0.237 OA
ATOM     90  O   UNL     1       5.251   5.559  -3.858  1.00  0.00    -0.744 OA
ENDBRANCH  83  87
ENDBRANCH  56  80
BRANCH  68  91
ATOM     91  C   UNL     1      -0.684   8.660 -10.992  1.00  0.00     0.023 A 
ATOM     92  C   UNL     1      -1.335   9.042 -12.177  1.00  0.00     0.031 A 
ATOM     93  C   UNL     1      -1.446   7.958 -10.037  1.00  0.00     0.131 A 
ATOM     94  C   UNL     1      -2.700   8.795 -12.353  1.00  0.00     0.055 A 
ATOM     95  C   UNL     1      -2.795   7.642 -10.250  1.00  0.00     0.041 A 
ATOM     96  F   UNL     1      -0.944   7.632  -8.840  1.00  0.00    -0.206 F 
ATOM     97  C   UNL     1      -3.435   8.082 -11.404  1.00  0.00     0.022 A 
BRANCH  94  98
ATOM     98  S   UNL     1      -3.583   9.554 -13.739  1.00  0.00     0.124 S 
ATOM     99  O   UNL     1      -4.030   8.388 -14.496  1.00  0.00    -0.237 OA
ATOM    100  O   UNL     1      -4.638  10.304 -13.060  1.00  0.00    -0.237 OA
ATOM    101  O   UNL     1      -2.570  10.375 -14.397  1.00  0.00    -0.744 OA
ENDBRANCH  94  98
ENDBRANCH  68  91
ENDBRANCH  42  43
ENDBRANCH  34  37
ENDBRANCH  32  33
ENDBRANCH  31  32
ENDBRANCH   1  31
TORSDOF 19
