REMARK SMILES Cc1nsc(NC(=O)CC[C@H](C)CC[NH3+])c1C(=O)NCCCCNC(=O)c1ccc(-c2c3nc(c(-c4cc(S(=O)(=O)[O-])ccc4F)c4ccc([nH]4)c(-c4cc(S(=O)(=O)[O-])ccc4F)c4nc(c(-c5cc(S(=O)(=O)[O-])ccc5F)c5ccc2[nH]5)C=C4)C=C3)cc1
REMARK SMILES IDX 17 1 18 2 19 3 16 5 1 6 2 7 3 8 4 9 5 10 6 11 7 12 8 14 9 15
REMARK SMILES IDX 10 16 11 17 12 18 13 19 14 20 15 21 20 25 21 26 22 27 23 28
REMARK SMILES IDX 24 29 25 30 26 32 27 33 28 34 89 35 29 36 88 37 30 38 31 39
REMARK SMILES IDX 32 40 82 41 33 42 87 43 81 44 83 45 34 46 86 47 80 48 79 49
REMARK SMILES IDX 35 51 67 52 47 53 66 54 48 55 51 56 65 57 84 58 49 59 50 60
REMARK SMILES IDX 64 62 85 63 52 64 36 65 37 66 45 67 38 68 44 69 46 70 43 71
REMARK SMILES IDX 39 72 40 73 41 74 42 75 68 76 69 77 77 78 70 79 76 80 78 81
REMARK SMILES IDX 75 82 71 83 72 84 73 85 74 86 53 87 54 88 62 89 55 90 61 91
REMARK SMILES IDX 63 92 60 93 56 94 57 95 58 96 59 97
REMARK H PARENT 19 4 6 13 15 22 15 23 15 24 24 31 83 50 51 61
REMARK Flexibility Score: inf
ROOT
ATOM      1  C   UNL     1      -1.157   8.420  -1.709  1.00  0.00     0.256 C 
ATOM      2  O   UNL     1      -1.670   8.884  -0.683  1.00  0.00    -0.269 OA
ATOM      3  N   UNL     1      -1.698   8.914  -2.874  1.00  0.00    -0.352 N 
ATOM      4  H   UNL     1      -2.376   9.614  -2.735  1.00  0.00     0.163 HD
ENDROOT
BRANCH   1   5
ATOM      5  C   UNL     1      -0.083   7.409  -1.591  1.00  0.00     0.097 A 
ATOM      6  C   UNL     1       1.092   6.944  -3.977  1.00  0.00     0.069 C 
ATOM      7  C   UNL     1       0.897   6.811  -2.507  1.00  0.00     0.066 A 
ATOM      8  N   UNL     1       1.776   5.965  -1.961  1.00  0.00    -0.195 NA
ATOM      9  S   UNL     1       1.550   5.901  -0.345  1.00  0.00    -0.017 S 
ATOM     10  C   UNL     1       0.087   6.756  -0.356  1.00  0.00     0.129 A 
BRANCH  10  11
ATOM     11  N   UNL     1      -0.690   6.818   0.785  1.00  0.00    -0.316 N 
ATOM     12  C   UNL     1      -1.068   5.811   1.636  1.00  0.00     0.225 C 
ATOM     13  H   UNL     1      -1.019   7.715   1.022  1.00  0.00     0.170 HD
ATOM     14  O   UNL     1      -1.800   6.101   2.590  1.00  0.00    -0.275 OA
BRANCH  12  15
ATOM     15  C   UNL     1      -0.742   4.341   1.391  1.00  0.00     0.101 C 
BRANCH  15  16
ATOM     16  C   UNL     1      -1.701   3.566   0.464  1.00  0.00     0.013 C 
BRANCH  16  17
ATOM     17  C   UNL     1      -1.880   4.139  -0.957  1.00  0.00    -0.008 C 
ATOM     18  C   UNL     1      -3.036   5.149  -0.992  1.00  0.00     0.008 C 
BRANCH  17  19
ATOM     19  C   UNL     1      -2.127   3.043  -2.019  1.00  0.00     0.064 C 
BRANCH  19  20
ATOM     20  C   UNL     1      -1.777   3.507  -3.444  1.00  0.00     0.259 C 
BRANCH  20  21
ATOM     21  N   UNL     1      -0.343   3.426  -3.697  1.00  0.00    -0.358 N 
ATOM     22  H   UNL     1       0.152   4.034  -3.044  1.00  0.00     0.344 HD
ATOM     23  H   UNL     1      -0.149   3.724  -4.653  1.00  0.00     0.344 HD
ATOM     24  H   UNL     1      -0.029   2.464  -3.571  1.00  0.00     0.344 HD
ENDBRANCH  20  21
ENDBRANCH  19  20
ENDBRANCH  17  19
ENDBRANCH  16  17
ENDBRANCH  15  16
ENDBRANCH  12  15
ENDBRANCH  10  11
ENDBRANCH   1   5
BRANCH   3  25
ATOM     25  C   UNL     1      -1.458   8.597  -4.255  1.00  0.00     0.116 C 
BRANCH  25  26
ATOM     26  C   UNL     1      -2.604   8.870  -5.232  1.00  0.00     0.023 C 
BRANCH  26  27
ATOM     27  C   UNL     1      -3.019  10.324  -5.477  1.00  0.00     0.023 C 
BRANCH  27  28
ATOM     28  C   UNL     1      -1.905  11.275  -5.902  1.00  0.00     0.116 C 
BRANCH  28  29
ATOM     29  N   UNL     1      -1.343  10.976  -7.214  1.00  0.00    -0.352 N 
ATOM     30  C   UNL     1      -0.432  11.743  -7.918  1.00  0.00     0.251 C 
ATOM     31  H   UNL     1      -1.643  10.142  -7.643  1.00  0.00     0.163 HD
ATOM     32  O   UNL     1      -0.309  11.594  -9.133  1.00  0.00    -0.269 OA
BRANCH  30  33
ATOM     33  C   UNL     1       0.371  12.754  -7.199  1.00  0.00     0.039 A 
ATOM     34  C   UNL     1       0.527  14.041  -7.721  1.00  0.00     0.014 A 
ATOM     35  C   UNL     1       0.941  12.417  -5.969  1.00  0.00     0.014 A 
ATOM     36  C   UNL     1       1.166  15.012  -6.949  1.00  0.00     0.010 A 
ATOM     37  C   UNL     1       1.499  13.399  -5.171  1.00  0.00     0.010 A 
ATOM     38  C   UNL     1       1.617  14.702  -5.652  1.00  0.00    -0.014 A 
BRANCH  38  39
ATOM     39  C   UNL     1       1.973  15.794  -4.730  1.00  0.00     0.031 A 
ATOM     40  C   UNL     1       0.908  16.832  -4.614  1.00  0.00     0.074 A 
ATOM     41  C   UNL     1       3.016  15.783  -3.869  1.00  0.00     0.049 A 
ATOM     42  N   UNL     1       0.949  18.062  -5.005  1.00  0.00    -0.248 NA
ATOM     43  C   UNL     1      -0.431  16.401  -4.172  1.00  0.00     0.031 C 
ATOM     44  C   UNL     1       3.962  14.683  -3.654  1.00  0.00     0.029 A 
ATOM     45  N   UNL     1       3.391  16.693  -2.915  1.00  0.00    -0.354 N 
ATOM     46  C   UNL     1      -0.258  18.628  -4.598  1.00  0.00     0.074 A 
ATOM     47  C   UNL     1      -1.134  17.524  -4.327  1.00  0.00     0.031 C 
ATOM     48  C   UNL     1       4.636  14.884  -2.501  1.00  0.00     0.029 A 
ATOM     49  C   UNL     1       4.293  16.193  -1.972  1.00  0.00     0.049 A 
ATOM     50  H   UNL     1       3.053  17.617  -2.896  1.00  0.00     0.167 HD
ATOM     51  C   UNL     1      -0.318  19.936  -4.221  1.00  0.00     0.034 A 
ATOM     52  C   UNL     1       4.727  16.787  -0.827  1.00  0.00     0.034 A 
ATOM     53  C   UNL     1       0.862  20.641  -4.675  1.00  0.00     0.049 A 
ATOM     54  C   UNL     1       4.551  18.245  -1.005  1.00  0.00     0.074 A 
ATOM     55  C   UNL     1       1.419  20.967  -5.893  1.00  0.00     0.029 A 
ATOM     56  N   UNL     1       1.851  20.789  -3.733  1.00  0.00    -0.354 N 
ATOM     57  N   UNL     1       5.194  18.941  -1.901  1.00  0.00    -0.248 NA
ATOM     58  C   UNL     1       3.383  18.899  -0.433  1.00  0.00     0.031 C 
ATOM     59  C   UNL     1       2.829  20.987  -5.676  1.00  0.00     0.029 A 
ATOM     60  C   UNL     1       3.083  20.743  -4.325  1.00  0.00     0.049 A 
ATOM     61  H   UNL     1       1.694  20.911  -2.769  1.00  0.00     0.167 HD
ATOM     62  C   UNL     1       4.288  19.898  -2.318  1.00  0.00     0.074 A 
ATOM     63  C   UNL     1       3.274  19.934  -1.271  1.00  0.00     0.031 C 
ATOM     64  C   UNL     1       4.284  20.336  -3.611  1.00  0.00     0.034 A 
BRANCH  51  65
ATOM     65  C   UNL     1      -1.135  20.468  -3.044  1.00  0.00     0.023 A 
ATOM     66  C   UNL     1      -0.928  21.819  -2.687  1.00  0.00     0.031 A 
ATOM     67  C   UNL     1      -1.824  19.692  -2.085  1.00  0.00     0.131 A 
ATOM     68  C   UNL     1      -1.253  22.293  -1.403  1.00  0.00     0.055 A 
ATOM     69  C   UNL     1      -2.198  20.185  -0.829  1.00  0.00     0.041 A 
ATOM     70  F   UNL     1      -2.112  18.399  -2.258  1.00  0.00    -0.206 F 
ATOM     71  C   UNL     1      -1.879  21.481  -0.466  1.00  0.00     0.022 A 
BRANCH  68  72
ATOM     72  S   UNL     1      -0.674  23.940  -0.920  1.00  0.00     0.124 S 
ATOM     73  O   UNL     1       0.766  23.806  -1.110  1.00  0.00    -0.237 OA
ATOM     74  O   UNL     1      -1.377  24.796  -1.869  1.00  0.00    -0.237 OA
ATOM     75  O   UNL     1      -1.114  24.058   0.468  1.00  0.00    -0.744 OA
ENDBRANCH  68  72
ENDBRANCH  51  65
BRANCH  52  76
ATOM     76  C   UNL     1       5.075  16.154   0.481  1.00  0.00     0.023 A 
ATOM     77  C   UNL     1       5.803  16.824   1.492  1.00  0.00     0.031 A 
ATOM     78  C   UNL     1       4.459  14.938   0.854  1.00  0.00     0.131 A 
ATOM     79  C   UNL     1       5.879  16.283   2.800  1.00  0.00     0.055 A 
ATOM     80  C   UNL     1       4.541  14.408   2.144  1.00  0.00     0.041 A 
ATOM     81  F   UNL     1       3.679  14.262  -0.003  1.00  0.00    -0.206 F 
ATOM     82  C   UNL     1       5.241  15.086   3.128  1.00  0.00     0.022 A 
BRANCH  79  83
ATOM     83  S   UNL     1       6.728  17.189   4.139  1.00  0.00     0.124 S 
ATOM     84  O   UNL     1       8.130  17.066   3.756  1.00  0.00    -0.237 OA
ATOM     85  O   UNL     1       6.141  18.520   4.041  1.00  0.00    -0.237 OA
ATOM     86  O   UNL     1       6.355  16.446   5.344  1.00  0.00    -0.744 OA
ENDBRANCH  79  83
ENDBRANCH  52  76
BRANCH  64  87
ATOM     87  C   UNL     1       5.574  20.264  -4.395  1.00  0.00     0.023 A 
ATOM     88  C   UNL     1       6.317  19.095  -4.667  1.00  0.00     0.031 A 
ATOM     89  C   UNL     1       6.033  21.474  -4.949  1.00  0.00     0.131 A 
ATOM     90  C   UNL     1       7.475  19.172  -5.467  1.00  0.00     0.055 A 
ATOM     91  C   UNL     1       7.162  21.542  -5.760  1.00  0.00     0.041 A 
ATOM     92  F   UNL     1       5.365  22.619  -4.732  1.00  0.00    -0.206 F 
ATOM     93  C   UNL     1       7.892  20.390  -6.017  1.00  0.00     0.022 A 
BRANCH  90  94
ATOM     94  S   UNL     1       8.486  17.692  -5.790  1.00  0.00     0.124 S 
ATOM     95  O   UNL     1       8.652  17.095  -4.471  1.00  0.00    -0.237 OA
ATOM     96  O   UNL     1       7.658  16.943  -6.732  1.00  0.00    -0.237 OA
ATOM     97  O   UNL     1       9.716  18.239  -6.368  1.00  0.00    -0.744 OA
ENDBRANCH  90  94
ENDBRANCH  64  87
ENDBRANCH  38  39
ENDBRANCH  30  33
ENDBRANCH  28  29
ENDBRANCH  27  28
ENDBRANCH  26  27
ENDBRANCH  25  26
ENDBRANCH   3  25
TORSDOF 21
