REMARK SMILES C[C@@H]1CN(C(=O)N[C@@H]2CCCCC[C@@H]2C(=O)NCCCCNC(=O)c2ccc(-c3c4nc(c(-c5cc(S(=O)(=O)[O-])ccc5F)c5ccc([nH]5)c(-c5cc(S(=O)(=O)[O-])ccc5F)c5nc(c(-c6cc(S(=O)(=O)[O-])ccc6F)c6ccc3[nH]6)C=C5)C=C4)cc2)C[C@H]1C
REMARK SMILES IDX 19 1 18 2 17 3 15 4 16 5 14 7 8 8 7 9 1 10 2 11 3 12 89 13
REMARK SMILES IDX 4 14 88 15 90 16 5 17 6 18 9 20 10 21 11 22 13 24 12 25
REMARK SMILES IDX 20 27 21 28 22 29 23 30 24 32 25 33 26 34 87 35 27 36 86 37
REMARK SMILES IDX 28 38 29 39 30 40 80 41 31 42 85 43 79 44 81 45 32 46 84 47
REMARK SMILES IDX 78 48 77 49 33 51 65 52 45 53 64 54 46 55 49 56 63 57 82 58
REMARK SMILES IDX 47 59 48 60 62 62 83 63 50 64 34 65 35 66 43 67 36 68 42 69
REMARK SMILES IDX 44 70 41 71 37 72 38 73 39 74 40 75 66 76 67 77 75 78 68 79
REMARK SMILES IDX 74 80 76 81 73 82 69 83 70 84 71 85 72 86 51 87 52 88 60 89
REMARK SMILES IDX 53 90 59 91 61 92 58 93 54 94 55 95 56 96 57 97
REMARK H PARENT 17 6 7 19 22 31 81 50 49 61
REMARK Flexibility Score: 90.00
ROOT
ATOM      1  C   UNL     1      -8.462  -1.907   2.634  1.00  0.00     0.023 C 
ENDROOT
BRANCH   1   2
ATOM      2  C   UNL     1      -7.259  -2.858   2.632  1.00  0.00     0.116 C 
BRANCH   2   3
ATOM      3  N   UNL     1      -6.639  -2.906   1.322  1.00  0.00    -0.356 N 
ATOM      4  C   UNL     1      -5.761  -2.083   0.695  1.00  0.00     0.225 C 
ATOM      5  O   UNL     1      -5.612  -2.272  -0.519  1.00  0.00    -0.275 OA
ATOM      6  H   UNL     1      -6.908  -3.686   0.783  1.00  0.00     0.163 HD
BRANCH   4   7
ATOM      7  C   UNL     1      -4.912  -1.004   1.388  1.00  0.00     0.101 C 
BRANCH   7   8
ATOM      8  C   UNL     1      -3.395  -1.380   1.386  1.00  0.00     0.096 C 
BRANCH   8   9
ATOM      9  N   UNL     1      -3.103  -2.809   1.264  1.00  0.00    -0.334 N 
ATOM     10  C   UNL     1       1.292  -0.117  -0.438  1.00  0.00     0.010 C 
ATOM     11  C   UNL     1       0.630  -1.435  -0.825  1.00  0.00     0.010 C 
ATOM     12  C   UNL     1      -0.801  -1.531  -0.285  1.00  0.00     0.125 C 
ATOM     13  C   UNL     1       1.329  -2.654  -0.203  1.00  0.00     0.010 C 
ATOM     14  N   UNL     1      -0.969  -2.890   0.207  1.00  0.00    -0.324 N 
ATOM     15  C   UNL     1       0.204  -3.680  -0.130  1.00  0.00     0.125 C 
ATOM     16  C   UNL     1       2.529  -3.132  -1.003  1.00  0.00     0.010 C 
ATOM     17  C   UNL     1      -2.031  -3.499   0.810  1.00  0.00     0.317 C 
ATOM     18  O   UNL     1      -2.045  -4.718   1.007  1.00  0.00    -0.249 OA
ATOM     19  H   UNL     1      -3.837  -3.387   1.575  1.00  0.00     0.165 HD
ENDBRANCH   8   9
BRANCH   8  20
ATOM     20  C   UNL     1      -2.586  -0.834   2.579  1.00  0.00     0.026 C 
BRANCH  20  21
ATOM     21  C   UNL     1      -2.517   0.689   2.619  1.00  0.00     0.002 C 
BRANCH  21  22
ATOM     22  C   UNL     1      -3.631   1.305   3.448  1.00  0.00     0.000 CG0
ATOM     23  G   UNL     1      -5.020   1.113   2.862  1.00  0.00     0.000 G0
ENDBRANCH  21  22
ENDBRANCH  20  21
ENDBRANCH   8  20
ENDBRANCH   7   8
BRANCH   7  24
ATOM     24  C   UNL     1      -5.444  -0.347   2.669  1.00  0.00     0.015 C 
BRANCH  24  25
ATOM     25  C   UNL     1      -5.020   1.113   2.862  1.00  0.00     0.001 CG0
ATOM     26  G   UNL     1      -3.631   1.305   3.448  1.00  0.00     0.000 G0
ENDBRANCH  24  25
ENDBRANCH   7  24
ENDBRANCH   4   7
ENDBRANCH   2   3
ENDBRANCH   1   2
BRANCH   1  27
ATOM     27  C   UNL     1      -9.794  -2.547   2.249  1.00  0.00     0.023 C 
BRANCH  27  28
ATOM     28  C   UNL     1     -10.304  -3.602   3.221  1.00  0.00     0.116 C 
BRANCH  28  29
ATOM     29  N   UNL     1     -10.443  -3.120   4.588  1.00  0.00    -0.352 N 
ATOM     30  C   UNL     1     -11.321  -3.561   5.551  1.00  0.00     0.251 C 
ATOM     31  H   UNL     1      -9.835  -2.393   4.856  1.00  0.00     0.163 HD
ATOM     32  O   UNL     1     -11.379  -3.005   6.642  1.00  0.00    -0.269 OA
BRANCH  30  33
ATOM     33  C   UNL     1     -12.229  -4.676   5.216  1.00  0.00     0.039 A 
ATOM     34  C   UNL     1     -13.605  -4.487   5.350  1.00  0.00     0.014 A 
ATOM     35  C   UNL     1     -11.719  -5.858   4.673  1.00  0.00     0.014 A 
ATOM     36  C   UNL     1     -14.480  -5.456   4.858  1.00  0.00     0.010 A 
ATOM     37  C   UNL     1     -12.591  -6.788   4.122  1.00  0.00     0.010 A 
ATOM     38  C   UNL     1     -13.979  -6.590   4.199  1.00  0.00    -0.014 A 
BRANCH  38  39
ATOM     39  C   UNL     1     -14.886  -7.580   3.569  1.00  0.00     0.031 A 
ATOM     40  C   UNL     1     -14.936  -8.985   4.095  1.00  0.00     0.074 A 
ATOM     41  C   UNL     1     -15.594  -7.234   2.477  1.00  0.00     0.049 A 
ATOM     42  N   UNL     1     -15.581 -10.023   3.629  1.00  0.00    -0.248 NA
ATOM     43  C   UNL     1     -14.120  -9.264   5.286  1.00  0.00     0.031 C 
ATOM     44  C   UNL     1     -15.591  -5.910   1.849  1.00  0.00     0.029 A 
ATOM     45  N   UNL     1     -16.444  -7.970   1.692  1.00  0.00    -0.354 N 
ATOM     46  C   UNL     1     -15.242 -11.082   4.463  1.00  0.00     0.074 A 
ATOM     47  C   UNL     1     -14.280 -10.571   5.418  1.00  0.00     0.031 C 
ATOM     48  C   UNL     1     -16.417  -5.924   0.791  1.00  0.00     0.029 A 
ATOM     49  C   UNL     1     -16.974  -7.263   0.638  1.00  0.00     0.049 A 
ATOM     50  H   UNL     1     -16.655  -8.916   1.867  1.00  0.00     0.167 HD
ATOM     51  C   UNL     1     -15.710 -12.355   4.450  1.00  0.00     0.034 A 
ATOM     52  C   UNL     1     -17.806  -7.657  -0.346  1.00  0.00     0.034 A 
ATOM     53  C   UNL     1     -16.672 -12.842   3.493  1.00  0.00     0.049 A 
ATOM     54  C   UNL     1     -18.281  -9.085  -0.369  1.00  0.00     0.074 A 
ATOM     55  C   UNL     1     -17.265 -14.090   3.421  1.00  0.00     0.029 A 
ATOM     56  N   UNL     1     -17.173 -12.104   2.427  1.00  0.00    -0.354 N 
ATOM     57  N   UNL     1     -17.992 -10.065   0.457  1.00  0.00    -0.248 NA
ATOM     58  C   UNL     1     -19.194  -9.459  -1.456  1.00  0.00     0.031 C 
ATOM     59  C   UNL     1     -18.078 -14.125   2.280  1.00  0.00     0.029 A 
ATOM     60  C   UNL     1     -18.041 -12.880   1.673  1.00  0.00     0.049 A 
ATOM     61  H   UNL     1     -16.945 -11.165   2.235  1.00  0.00     0.167 HD
ATOM     62  C   UNL     1     -18.704 -11.169  -0.003  1.00  0.00     0.074 A 
ATOM     63  C   UNL     1     -19.445 -10.729  -1.168  1.00  0.00     0.031 C 
ATOM     64  C   UNL     1     -18.747 -12.430   0.497  1.00  0.00     0.034 A 
BRANCH  51  65
ATOM     65  C   UNL     1     -15.156 -13.297   5.493  1.00  0.00     0.023 A 
ATOM     66  C   UNL     1     -15.336 -13.057   6.867  1.00  0.00     0.031 A 
ATOM     67  C   UNL     1     -14.383 -14.408   5.116  1.00  0.00     0.131 A 
ATOM     68  C   UNL     1     -14.668 -13.851   7.811  1.00  0.00     0.055 A 
ATOM     69  C   UNL     1     -13.793 -15.249   6.063  1.00  0.00     0.041 A 
ATOM     70  F   UNL     1     -14.160 -14.679   3.820  1.00  0.00    -0.206 F 
ATOM     71  C   UNL     1     -13.916 -14.960   7.420  1.00  0.00     0.022 A 
BRANCH  68  72
ATOM     72  S   UNL     1     -14.653 -13.304   9.541  1.00  0.00     0.124 S 
ATOM     73  O   UNL     1     -14.063 -11.973   9.424  1.00  0.00    -0.237 OA
ATOM     74  O   UNL     1     -16.067 -13.348   9.897  1.00  0.00    -0.237 OA
ATOM     75  O   UNL     1     -13.810 -14.295  10.206  1.00  0.00    -0.744 OA
ENDBRANCH  68  72
ENDBRANCH  51  65
BRANCH  52  76
ATOM     76  C   UNL     1     -18.238  -6.693  -1.395  1.00  0.00     0.023 A 
ATOM     77  C   UNL     1     -19.571  -6.261  -1.468  1.00  0.00     0.031 A 
ATOM     78  C   UNL     1     -17.329  -6.207  -2.352  1.00  0.00     0.131 A 
ATOM     79  C   UNL     1     -19.968  -5.394  -2.498  1.00  0.00     0.055 A 
ATOM     80  C   UNL     1     -17.721  -5.314  -3.350  1.00  0.00     0.041 A 
ATOM     81  F   UNL     1     -16.041  -6.584  -2.317  1.00  0.00    -0.206 F 
ATOM     82  C   UNL     1     -19.050  -4.910  -3.433  1.00  0.00     0.022 A 
BRANCH  79  83
ATOM     83  S   UNL     1     -21.720  -4.944  -2.627  1.00  0.00     0.124 S 
ATOM     84  O   UNL     1     -22.347  -6.245  -2.831  1.00  0.00    -0.237 OA
ATOM     85  O   UNL     1     -21.966  -4.308  -1.337  1.00  0.00    -0.237 OA
ATOM     86  O   UNL     1     -21.757  -4.045  -3.778  1.00  0.00    -0.744 OA
ENDBRANCH  79  83
ENDBRANCH  52  76
BRANCH  64  87
ATOM     87  C   UNL     1     -19.647 -13.408  -0.214  1.00  0.00     0.023 A 
ATOM     88  C   UNL     1     -19.344 -13.884  -1.502  1.00  0.00     0.031 A 
ATOM     89  C   UNL     1     -20.831 -13.856   0.399  1.00  0.00     0.131 A 
ATOM     90  C   UNL     1     -20.240 -14.743  -2.156  1.00  0.00     0.055 A 
ATOM     91  C   UNL     1     -21.691 -14.752  -0.236  1.00  0.00     0.041 A 
ATOM     92  F   UNL     1     -21.167 -13.430   1.627  1.00  0.00    -0.206 F 
ATOM     93  C   UNL     1     -21.404 -15.191  -1.526  1.00  0.00     0.022 A 
BRANCH  90  94
ATOM     94  S   UNL     1     -19.901 -15.210  -3.876  1.00  0.00     0.124 S 
ATOM     95  O   UNL     1     -19.914 -13.915  -4.549  1.00  0.00    -0.237 OA
ATOM     96  O   UNL     1     -18.599 -15.861  -3.773  1.00  0.00    -0.237 OA
ATOM     97  O   UNL     1     -21.011 -16.097  -4.215  1.00  0.00    -0.744 OA
ENDBRANCH  90  94
ENDBRANCH  64  87
ENDBRANCH  38  39
ENDBRANCH  30  33
ENDBRANCH  28  29
ENDBRANCH  27  28
ENDBRANCH   1  27
TORSDOF 15
