REMARK SMILES Cc1cc(C)n(C)c(=O)c1C(=O)N1CCC2(CC1)C[NH2+][C@@H](C(=O)NCCCCNC(=O)c1ccc(-c3c4nc(c(-c5cc(S(=O)(=O)[O-])ccc5F)c5ccc([nH]5)c(-c5cc(S(=O)(=O)[O-])ccc5F)c5nc(c(-c6cc(S(=O)(=O)[O-])ccc6F)c6ccc3[nH]6)C=C5)C=C4)cc1)C2
REMARK SMILES IDX 27 1 26 2 25 3 24 4 22 5 23 6 21 8 11 9 12 10 13 11 14 12
REMARK SMILES IDX 18 13 15 14 17 15 16 16 19 17 95 18 20 19 10 22 1 23 2 24
REMARK SMILES IDX 3 25 4 26 8 27 5 28 6 29 9 30 7 31 28 32 29 33 30 34 31 36
REMARK SMILES IDX 32 37 33 38 94 39 34 40 93 41 35 42 36 43 37 44 87 45 38 46
REMARK SMILES IDX 92 47 86 48 88 49 39 50 91 51 85 52 84 53 40 55 72 56 52 57
REMARK SMILES IDX 71 58 53 59 56 60 70 61 89 62 54 63 55 64 69 66 90 67 57 68
REMARK SMILES IDX 41 69 42 70 50 71 43 72 49 73 51 74 48 75 44 76 45 77 46 78
REMARK SMILES IDX 47 79 73 80 74 81 82 82 75 83 81 84 83 85 80 86 76 87 77 88
REMARK SMILES IDX 78 89 79 90 58 91 59 92 67 93 60 94 66 95 68 96 65 97 61 98
REMARK SMILES IDX 62 99 63 100 64 101
REMARK H PARENT 24 7 20 20 20 21 29 35 88 54 56 65
REMARK Flexibility Score: inf
ROOT
ATOM      1  C   UNL     1       4.790   6.543   1.248  1.00  0.00     0.023 C 
ENDROOT
BRANCH   1   2
ATOM      2  C   UNL     1       3.832   5.356   1.238  1.00  0.00     0.023 C 
BRANCH   2   3
ATOM      3  C   UNL     1       3.154   5.078   2.575  1.00  0.00     0.116 C 
BRANCH   3   4
ATOM      4  N   UNL     1       2.256   6.148   2.966  1.00  0.00    -0.351 N 
ATOM      5  C   UNL     1       0.898   6.144   3.099  1.00  0.00     0.278 C 
ATOM      6  O   UNL     1       0.352   7.180   3.491  1.00  0.00    -0.268 OA
ATOM      7  H   UNL     1       2.692   7.008   3.166  1.00  0.00     0.163 HD
BRANCH   5   8
ATOM      8  C   UNL     1       0.054   4.914   2.748  1.00  0.00     0.273 C 
ATOM      9  C   UNL     1      -0.826   0.491  -1.990  1.00  0.00     0.259 C 
ATOM     10  O   UNL     1      -1.982   0.428  -2.424  1.00  0.00    -0.269 OA
ATOM     11  N   UNL     1      -0.376   1.643  -1.359  1.00  0.00    -0.338 N 
ATOM     12  C   UNL     1      -1.377   2.612  -0.940  1.00  0.00     0.120 C 
ATOM     13  C   UNL     1       0.989   2.045  -1.041  1.00  0.00     0.120 C 
ATOM     14  C   UNL     1      -1.413   2.592   0.578  1.00  0.00     0.034 C 
ATOM     15  C   UNL     1       1.174   2.431   0.443  1.00  0.00     0.034 C 
ATOM     16  C   UNL     1      -0.065   3.024   1.195  1.00  0.00     0.029 C 
ATOM     17  C   UNL     1      -0.069   2.599   2.687  1.00  0.00     0.268 C 
ATOM     18  C   UNL     1       0.023   4.571   1.262  1.00  0.00     0.088 C 
ATOM     19  N   UNL     1       0.550   3.695   3.411  1.00  0.00    -0.336 N 
ATOM     20  H   UNL     1       1.567   3.640   3.346  1.00  0.00     0.346 HD
ATOM     21  H   UNL     1       0.321   3.678   4.405  1.00  0.00     0.346 HD
BRANCH   9  22
ATOM     22  C   UNL     1      -0.013  -0.769  -2.058  1.00  0.00     0.108 A 
ATOM     23  C   UNL     1       0.564  -0.852   0.434  1.00  0.00     0.045 C 
ATOM     24  C   UNL     1       0.521  -1.370  -0.970  1.00  0.00    -0.031 A 
ATOM     25  C   UNL     1       0.976  -2.746  -1.040  1.00  0.00     0.026 A 
ATOM     26  C   UNL     1       0.646  -3.543  -2.065  1.00  0.00     0.018 A 
ATOM     27  C   UNL     1      -0.143  -1.599  -3.317  1.00  0.00     0.263 A 
ATOM     28  C   UNL     1       0.944  -5.014  -1.961  1.00  0.00     0.064 C 
ATOM     29  N   UNL     1       0.041  -2.988  -3.187  1.00  0.00    -0.315 N 
ATOM     30  O   UNL     1      -0.418  -1.065  -4.392  1.00  0.00    -0.268 OA
ATOM     31  C   UNL     1      -0.378  -3.829  -4.299  1.00  0.00     0.153 C 
ENDBRANCH   9  22
ENDBRANCH   5   8
ENDBRANCH   3   4
ENDBRANCH   2   3
ENDBRANCH   1   2
BRANCH   1  32
ATOM     32  C   UNL     1       5.870   6.484   2.320  1.00  0.00     0.116 C 
BRANCH  32  33
ATOM     33  N   UNL     1       6.697   5.291   2.224  1.00  0.00    -0.352 N 
ATOM     34  C   UNL     1       8.070   5.194   2.253  1.00  0.00     0.251 C 
ATOM     35  H   UNL     1       6.211   4.441   2.125  1.00  0.00     0.163 HD
ATOM     36  O   UNL     1       8.617   4.127   2.021  1.00  0.00    -0.269 OA
BRANCH  34  37
ATOM     37  C   UNL     1       8.863   6.410   2.533  1.00  0.00     0.039 A 
ATOM     38  C   UNL     1       9.899   6.755   1.663  1.00  0.00     0.014 A 
ATOM     39  C   UNL     1       8.545   7.229   3.621  1.00  0.00     0.014 A 
ATOM     40  C   UNL     1      10.573   7.963   1.846  1.00  0.00     0.010 A 
ATOM     41  C   UNL     1       9.171   8.463   3.760  1.00  0.00     0.010 A 
ATOM     42  C   UNL     1      10.190   8.842   2.873  1.00  0.00    -0.014 A 
BRANCH  42  43
ATOM     43  C   UNL     1      10.862  10.155   3.049  1.00  0.00     0.031 A 
ATOM     44  C   UNL     1      11.677  10.414   4.285  1.00  0.00     0.074 A 
ATOM     45  C   UNL     1      10.707  11.118   2.119  1.00  0.00     0.049 A 
ATOM     46  N   UNL     1      12.282  11.511   4.658  1.00  0.00    -0.248 NA
ATOM     47  C   UNL     1      11.813   9.299   5.238  1.00  0.00     0.031 C 
ATOM     48  C   UNL     1       9.917  10.991   0.891  1.00  0.00     0.029 A 
ATOM     49  N   UNL     1      11.206  12.395   2.058  1.00  0.00    -0.354 N 
ATOM     50  C   UNL     1      12.864  11.222   5.887  1.00  0.00     0.074 A 
ATOM     51  C   UNL     1      12.495   9.864   6.223  1.00  0.00     0.031 C 
ATOM     52  C   UNL     1      10.014  12.130   0.185  1.00  0.00     0.029 A 
ATOM     53  C   UNL     1      10.834  13.084   0.926  1.00  0.00     0.049 A 
ATOM     54  H   UNL     1      11.777  12.783   2.760  1.00  0.00     0.167 HD
ATOM     55  C   UNL     1      13.655  12.009   6.652  1.00  0.00     0.034 A 
ATOM     56  C   UNL     1      11.117  14.342   0.534  1.00  0.00     0.034 A 
ATOM     57  C   UNL     1      14.043  13.348   6.296  1.00  0.00     0.049 A 
ATOM     58  C   UNL     1      11.977  15.206   1.421  1.00  0.00     0.074 A 
ATOM     59  C   UNL     1      14.880  14.211   6.982  1.00  0.00     0.029 A 
ATOM     60  N   UNL     1      13.627  14.018   5.155  1.00  0.00    -0.354 N 
ATOM     61  N   UNL     1      12.527  14.910   2.575  1.00  0.00    -0.248 NA
ATOM     62  C   UNL     1      12.252  16.572   0.955  1.00  0.00     0.031 C 
ATOM     63  C   UNL     1      14.930  15.419   6.282  1.00  0.00     0.029 A 
ATOM     64  C   UNL     1      14.170  15.291   5.130  1.00  0.00     0.049 A 
ATOM     65  H   UNL     1      13.032  13.643   4.465  1.00  0.00     0.167 HD
ATOM     66  C   UNL     1      13.228  16.048   2.963  1.00  0.00     0.074 A 
ATOM     67  C   UNL     1      13.041  17.031   1.917  1.00  0.00     0.031 C 
ATOM     68  C   UNL     1      13.962  16.260   4.083  1.00  0.00     0.034 A 
BRANCH  55  69
ATOM     69  C   UNL     1      14.156  11.444   7.953  1.00  0.00     0.023 A 
ATOM     70  C   UNL     1      15.112  10.414   7.981  1.00  0.00     0.031 A 
ATOM     71  C   UNL     1      13.699  11.961   9.177  1.00  0.00     0.131 A 
ATOM     72  C   UNL     1      15.555   9.909   9.211  1.00  0.00     0.055 A 
ATOM     73  C   UNL     1      14.187  11.494  10.397  1.00  0.00     0.041 A 
ATOM     74  F   UNL     1      12.773  12.933   9.203  1.00  0.00    -0.206 F 
ATOM     75  C   UNL     1      15.118  10.459  10.419  1.00  0.00     0.022 A 
BRANCH  72  76
ATOM     76  S   UNL     1      16.672   8.481   9.214  1.00  0.00     0.124 S 
ATOM     77  O   UNL     1      15.798   7.425   8.711  1.00  0.00    -0.237 OA
ATOM     78  O   UNL     1      17.739   8.908   8.316  1.00  0.00    -0.237 OA
ATOM     79  O   UNL     1      17.055   8.351  10.618  1.00  0.00    -0.744 OA
ENDBRANCH  72  76
ENDBRANCH  55  69
BRANCH  56  80
ATOM     80  C   UNL     1      10.577  14.873  -0.748  1.00  0.00     0.023 A 
ATOM     81  C   UNL     1      11.432  15.174  -1.821  1.00  0.00     0.031 A 
ATOM     82  C   UNL     1       9.202  15.118  -0.909  1.00  0.00     0.131 A 
ATOM     83  C   UNL     1      10.907  15.736  -2.995  1.00  0.00     0.055 A 
ATOM     84  C   UNL     1       8.680  15.638  -2.095  1.00  0.00     0.041 A 
ATOM     85  F   UNL     1       8.343  14.841   0.085  1.00  0.00    -0.206 F 
ATOM     86  C   UNL     1       9.536  15.959  -3.143  1.00  0.00     0.022 A 
BRANCH  83  87
ATOM     87  S   UNL     1      12.054  16.222  -4.314  1.00  0.00     0.124 S 
ATOM     88  O   UNL     1      12.858  17.240  -3.647  1.00  0.00    -0.237 OA
ATOM     89  O   UNL     1      12.728  14.963  -4.611  1.00  0.00    -0.237 OA
ATOM     90  O   UNL     1      11.170  16.715  -5.368  1.00  0.00    -0.744 OA
ENDBRANCH  83  87
ENDBRANCH  56  80
BRANCH  68  91
ATOM     91  C   UNL     1      14.634  17.598   4.227  1.00  0.00     0.023 A 
ATOM     92  C   UNL     1      13.897  18.757   4.517  1.00  0.00     0.031 A 
ATOM     93  C   UNL     1      16.031  17.703   4.119  1.00  0.00     0.131 A 
ATOM     94  C   UNL     1      14.560  19.983   4.665  1.00  0.00     0.055 A 
ATOM     95  C   UNL     1      16.690  18.917   4.311  1.00  0.00     0.041 A 
ATOM     96  F   UNL     1      16.778  16.620   3.847  1.00  0.00    -0.206 F 
ATOM     97  C   UNL     1      15.953  20.067   4.581  1.00  0.00     0.022 A 
BRANCH  94  98
ATOM     98  S   UNL     1      13.575  21.479   4.945  1.00  0.00     0.124 S 
ATOM     99  O   UNL     1      12.837  21.592   3.691  1.00  0.00    -0.237 OA
ATOM    100  O   UNL     1      12.784  21.122   6.119  1.00  0.00    -0.237 OA
ATOM    101  O   UNL     1      14.581  22.515   5.170  1.00  0.00    -0.744 OA
ENDBRANCH  94  98
ENDBRANCH  68  91
ENDBRANCH  42  43
ENDBRANCH  34  37
ENDBRANCH  32  33
ENDBRANCH   1  32
TORSDOF 15
