REMARK SMILES Cc1cccc(C(=O)NCCCCNC(=O)c2ccc(-c3c4nc(c(-c5cc(S(=O)(=O)[O-])ccc5F)c5ccc([nH]5)c(-c5cc(S(=O)(=O)[O-])ccc5F)c5nc(c(-c6cc(S(=O)(=O)[O-])ccc6F)c6ccc3[nH]6)C=C5)C=C4)cc2)c1OC[C@@H]1C[C@H]2CC[C@@H]1C2
REMARK SMILES IDX 11 1 10 2 9 3 7 4 8 5 6 7 1 8 2 9 3 10 80 11 4 12 5 13 81 14
REMARK SMILES IDX 82 15 83 16 84 17 88 18 85 19 87 20 89 21 86 22 12 23 13 24
REMARK SMILES IDX 14 25 15 26 16 28 17 29 18 30 79 31 19 32 78 33 20 34 21 35
REMARK SMILES IDX 22 36 72 37 23 38 77 39 71 40 73 41 24 42 76 43 70 44 69 45
REMARK SMILES IDX 25 47 57 48 37 49 56 50 38 51 41 52 55 53 74 54 39 55 40 56
REMARK SMILES IDX 54 58 75 59 42 60 26 61 27 62 35 63 28 64 34 65 36 66 33 67
REMARK SMILES IDX 29 68 30 69 31 70 32 71 58 72 59 73 67 74 60 75 66 76 68 77
REMARK SMILES IDX 65 78 61 79 62 80 63 81 64 82 43 83 44 84 52 85 45 86 51 87
REMARK SMILES IDX 53 88 50 89 46 90 47 91 48 92 49 93
REMARK H PARENT 9 6 14 27 73 46 41 57
REMARK Flexibility Score: inf
ROOT
ATOM      1  C   UNL     1       0.997   4.441  -1.212  1.00  0.00     0.023 C 
ENDROOT
BRANCH   1   2
ATOM      2  C   UNL     1       0.296   4.118   0.120  1.00  0.00     0.116 C 
BRANCH   2   3
ATOM      3  N   UNL     1      -1.034   3.588  -0.091  1.00  0.00    -0.352 N 
ATOM      4  C   UNL     1      -1.559   2.328  -0.134  1.00  0.00     0.255 C 
ATOM      5  O   UNL     1      -2.786   2.296  -0.311  1.00  0.00    -0.269 OA
ATOM      6  H   UNL     1      -1.709   4.290  -0.237  1.00  0.00     0.163 HD
BRANCH   4   7
ATOM      7  C   UNL     1      -0.848   1.009   0.006  1.00  0.00     0.082 A 
ATOM      8  C   UNL     1       1.914  -1.191  -1.459  1.00  0.00     0.048 C 
ATOM      9  C   UNL     1       0.761  -0.717  -0.613  1.00  0.00    -0.008 A 
ATOM     10  C   UNL     1      -0.133  -1.711  -0.178  1.00  0.00     0.007 A 
ATOM     11  C   UNL     1       0.454   0.649  -0.409  1.00  0.00     0.134 A 
ATOM     12  C   UNL     1      -1.353  -1.368   0.377  1.00  0.00     0.001 A 
ATOM     13  C   UNL     1      -1.716  -0.026   0.433  1.00  0.00     0.018 A 
BRANCH  11  14
ATOM     14  O   UNL     1       1.357   1.605  -0.744  1.00  0.00    -0.492 OA
BRANCH  14  15
ATOM     15  C   UNL     1       2.649   1.665  -0.082  1.00  0.00     0.233 C 
BRANCH  15  16
ATOM     16  C   UNL     1       2.800   1.091   1.349  1.00  0.00     0.030 C 
ATOM     17  C   UNL     1       3.589   2.045   2.293  1.00  0.00     0.011 C 
ATOM     18  C   UNL     1       3.730  -0.155   1.364  1.00  0.00    -0.004 C 
ATOM     19  C   UNL     1       4.834   1.233   2.697  1.00  0.00    -0.010 C 
ATOM     20  C   UNL     1       3.635  -0.843   2.736  1.00  0.00     0.004 C 
ATOM     21  C   UNL     1       5.130   0.460   1.419  1.00  0.00     0.007 C 
ATOM     22  C   UNL     1       4.412   0.109   3.654  1.00  0.00     0.004 C 
ENDBRANCH  15  16
ENDBRANCH  14  15
ENDBRANCH  11  14
ENDBRANCH   4   7
ENDBRANCH   2   3
ENDBRANCH   1   2
BRANCH   1  23
ATOM     23  C   UNL     1       0.446   5.655  -1.958  1.00  0.00     0.023 C 
BRANCH  23  24
ATOM     24  C   UNL     1       0.807   6.977  -1.292  1.00  0.00     0.116 C 
BRANCH  24  25
ATOM     25  N   UNL     1       2.010   7.617  -1.788  1.00  0.00    -0.352 N 
ATOM     26  C   UNL     1       2.658   8.747  -1.284  1.00  0.00     0.251 C 
ATOM     27  H   UNL     1       2.422   7.203  -2.580  1.00  0.00     0.163 HD
ATOM     28  O   UNL     1       3.588   9.262  -1.886  1.00  0.00    -0.269 OA
BRANCH  26  29
ATOM     29  C   UNL     1       2.273   9.242   0.056  1.00  0.00     0.039 A 
ATOM     30  C   UNL     1       3.286   9.366   1.014  1.00  0.00     0.014 A 
ATOM     31  C   UNL     1       0.933   9.322   0.436  1.00  0.00     0.014 A 
ATOM     32  C   UNL     1       2.959   9.300   2.365  1.00  0.00     0.010 A 
ATOM     33  C   UNL     1       0.613   9.145   1.769  1.00  0.00     0.010 A 
ATOM     34  C   UNL     1       1.633   9.054   2.721  1.00  0.00    -0.014 A 
BRANCH  34  35
ATOM     35  C   UNL     1       1.249   8.522   4.026  1.00  0.00     0.031 A 
ATOM     36  C   UNL     1       0.479   9.348   4.979  1.00  0.00     0.074 A 
ATOM     37  C   UNL     1       1.586   7.253   4.351  1.00  0.00     0.049 A 
ATOM     38  N   UNL     1       0.361   9.081   6.235  1.00  0.00    -0.248 NA
ATOM     39  C   UNL     1      -0.144  10.616   4.608  1.00  0.00     0.031 C 
ATOM     40  C   UNL     1       1.088   6.447   5.464  1.00  0.00     0.029 A 
ATOM     41  N   UNL     1       2.656   6.517   3.862  1.00  0.00    -0.354 N 
ATOM     42  C   UNL     1      -0.548   9.957   6.774  1.00  0.00     0.074 A 
ATOM     43  C   UNL     1      -0.729  10.962   5.759  1.00  0.00     0.031 C 
ATOM     44  C   UNL     1       1.971   5.468   5.723  1.00  0.00     0.029 A 
ATOM     45  C   UNL     1       3.139   5.706   4.893  1.00  0.00     0.049 A 
ATOM     46  H   UNL     1       3.015   6.560   2.946  1.00  0.00     0.167 HD
ATOM     47  C   UNL     1      -1.124   9.651   7.969  1.00  0.00     0.034 A 
ATOM     48  C   UNL     1       4.407   5.866   5.374  1.00  0.00     0.034 A 
ATOM     49  C   UNL     1      -0.363   8.604   8.659  1.00  0.00     0.049 A 
ATOM     50  C   UNL     1       4.460   6.266   6.837  1.00  0.00     0.074 A 
ATOM     51  C   UNL     1      -0.589   7.264   8.920  1.00  0.00     0.029 A 
ATOM     52  N   UNL     1       0.973   8.844   8.979  1.00  0.00    -0.354 N 
ATOM     53  N   UNL     1       3.452   6.747   7.516  1.00  0.00    -0.248 NA
ATOM     54  C   UNL     1       5.676   6.171   7.638  1.00  0.00     0.031 C 
ATOM     55  C   UNL     1       0.653   6.681   9.306  1.00  0.00     0.029 A 
ATOM     56  C   UNL     1       1.618   7.674   9.332  1.00  0.00     0.049 A 
ATOM     57  H   UNL     1       1.400   9.730   8.957  1.00  0.00     0.167 HD
ATOM     58  C   UNL     1       3.866   7.072   8.787  1.00  0.00     0.074 A 
ATOM     59  C   UNL     1       5.256   6.651   8.820  1.00  0.00     0.031 C 
ATOM     60  C   UNL     1       3.036   7.685   9.689  1.00  0.00     0.034 A 
BRANCH  47  61
ATOM     61  C   UNL     1      -2.483  10.149   8.445  1.00  0.00     0.023 A 
ATOM     62  C   UNL     1      -3.023   9.623   9.642  1.00  0.00     0.031 A 
ATOM     63  C   UNL     1      -3.356  11.003   7.731  1.00  0.00     0.131 A 
ATOM     64  C   UNL     1      -4.340   9.924  10.056  1.00  0.00     0.055 A 
ATOM     65  C   UNL     1      -4.642  11.342   8.170  1.00  0.00     0.041 A 
ATOM     66  F   UNL     1      -3.055  11.517   6.535  1.00  0.00    -0.206 F 
ATOM     67  C   UNL     1      -5.147  10.796   9.332  1.00  0.00     0.022 A 
BRANCH  64  68
ATOM     68  S   UNL     1      -5.034   9.094  11.513  1.00  0.00     0.124 S 
ATOM     69  O   UNL     1      -4.968   7.688  11.127  1.00  0.00    -0.237 OA
ATOM     70  O   UNL     1      -4.130   9.521  12.574  1.00  0.00    -0.237 OA
ATOM     71  O   UNL     1      -6.389   9.641  11.601  1.00  0.00    -0.744 OA
ENDBRANCH  64  68
ENDBRANCH  47  61
BRANCH  48  72
ATOM     72  C   UNL     1       5.393   6.304   4.341  1.00  0.00     0.023 A 
ATOM     73  C   UNL     1       5.592   5.471   3.220  1.00  0.00     0.031 A 
ATOM     74  C   UNL     1       5.845   7.628   4.259  1.00  0.00     0.131 A 
ATOM     75  C   UNL     1       6.086   6.005   2.020  1.00  0.00     0.055 A 
ATOM     76  C   UNL     1       6.396   8.140   3.077  1.00  0.00     0.041 A 
ATOM     77  F   UNL     1       5.652   8.480   5.276  1.00  0.00    -0.206 F 
ATOM     78  C   UNL     1       6.487   7.338   1.939  1.00  0.00     0.022 A 
BRANCH  75  79
ATOM     79  S   UNL     1       6.047   4.972   0.528  1.00  0.00     0.124 S 
ATOM     80  O   UNL     1       6.607   3.709   0.998  1.00  0.00    -0.237 OA
ATOM     81  O   UNL     1       4.618   4.950   0.220  1.00  0.00    -0.237 OA
ATOM     82  O   UNL     1       6.881   5.704  -0.420  1.00  0.00    -0.744 OA
ENDBRANCH  75  79
ENDBRANCH  48  72
BRANCH  60  83
ATOM     83  C   UNL     1       3.463   8.296  11.017  1.00  0.00     0.023 A 
ATOM     84  C   UNL     1       4.799   8.534  11.379  1.00  0.00     0.031 A 
ATOM     85  C   UNL     1       2.501   8.738  11.961  1.00  0.00     0.131 A 
ATOM     86  C   UNL     1       5.140   9.080  12.632  1.00  0.00     0.055 A 
ATOM     87  C   UNL     1       2.837   9.357  13.171  1.00  0.00     0.041 A 
ATOM     88  F   UNL     1       1.184   8.601  11.746  1.00  0.00    -0.206 F 
ATOM     89  C   UNL     1       4.167   9.514  13.524  1.00  0.00     0.022 A 
BRANCH  86  90
ATOM     90  S   UNL     1       6.893   9.143  13.094  1.00  0.00     0.124 S 
ATOM     91  O   UNL     1       7.258   7.729  13.082  1.00  0.00    -0.237 OA
ATOM     92  O   UNL     1       7.470   9.954  12.027  1.00  0.00    -0.237 OA
ATOM     93  O   UNL     1       6.881   9.769  14.415  1.00  0.00    -0.744 OA
ENDBRANCH  86  90
ENDBRANCH  60  83
ENDBRANCH  34  35
ENDBRANCH  26  29
ENDBRANCH  24  25
ENDBRANCH  23  24
ENDBRANCH   1  23
TORSDOF 17
