REMARK SMILES N#Cc1ccn2cc(C(=O)NCCCCNC(=O)c3ccc(-c4c5nc(c(-c6cc(S(=O)(=O)[O-])ccc6F)c6ccc([nH]6)c(-c6cc(S(=O)(=O)[O-])ccc6F)c6nc(c(-c7cc(S(=O)(=O)[O-])ccc7F)c7ccc4[nH]7)C=C6)C=C5)cc3)nc2c1
REMARK SMILES IDX 14 1 13 2 12 3 11 4 9 5 10 6 8 8 3 9 4 10 84 11 5 12 83 13
REMARK SMILES IDX 6 14 82 15 7 16 2 17 1 18 15 19 16 20 17 21 18 23 19 24
REMARK SMILES IDX 20 25 81 26 21 27 80 28 22 29 23 30 24 31 74 32 25 33 79 34
REMARK SMILES IDX 73 35 75 36 26 37 78 38 72 39 71 40 27 42 59 43 39 44 58 45
REMARK SMILES IDX 40 46 43 47 57 48 76 49 41 50 42 51 56 53 77 54 44 55 28 56
REMARK SMILES IDX 29 57 37 58 30 59 36 60 38 61 35 62 31 63 32 64 33 65 34 66
REMARK SMILES IDX 60 67 61 68 69 69 62 70 68 71 70 72 67 73 63 74 64 75 65 76
REMARK SMILES IDX 66 77 45 78 46 79 54 80 47 81 53 82 55 83 52 84 48 85 49 86
REMARK SMILES IDX 50 87 51 88
REMARK H PARENT 11 7 16 22 75 41 43 52
REMARK Flexibility Score: inf
ROOT
ATOM      1  C   UNL     1       9.331   6.685   1.166  1.00  0.00     0.023 C 
ENDROOT
BRANCH   1   2
ATOM      2  C   UNL     1       8.169   5.686   1.120  1.00  0.00     0.023 C 
BRANCH   2   3
ATOM      3  C   UNL     1       8.147   4.774  -0.105  1.00  0.00     0.116 C 
BRANCH   3   4
ATOM      4  N   UNL     1       9.234   3.804  -0.094  1.00  0.00    -0.351 N 
ATOM      5  C   UNL     1       9.220   2.431  -0.103  1.00  0.00     0.271 C 
ATOM      6  O   UNL     1      10.311   1.844  -0.135  1.00  0.00    -0.267 OA
ATOM      7  H   UNL     1      10.134   4.202  -0.078  1.00  0.00     0.163 HD
BRANCH   5   8
ATOM      8  C   UNL     1       7.962   1.680  -0.087  1.00  0.00     0.147 A 
ATOM      9  C   UNL     1       3.777   0.068  -0.073  1.00  0.00     0.057 A 
ATOM     10  C   UNL     1       4.492  -1.209  -0.071  1.00  0.00     0.038 A 
ATOM     11  C   UNL     1       4.434   1.242  -0.075  1.00  0.00     0.067 A 
ATOM     12  C   UNL     1       5.838  -1.202  -0.070  1.00  0.00     0.094 A 
ATOM     13  C   UNL     1       5.852   1.244  -0.078  1.00  0.00     0.138 A 
ATOM     14  N   UNL     1       6.507   0.021  -0.074  1.00  0.00    -0.306 N 
ATOM     15  N   UNL     1       6.700   2.239  -0.089  1.00  0.00    -0.223 NA
ATOM     16  C   UNL     1       7.848   0.297  -0.080  1.00  0.00     0.127 A 
BRANCH   9  17
ATOM     17  C   UNL     1       2.257   0.068  -0.073  1.00  0.00     0.099 C 
ATOM     18  N   UNL     1       0.997   0.068  -0.073  1.00  0.00    -0.192 NA
ENDBRANCH   9  17
ENDBRANCH   5   8
ENDBRANCH   3   4
ENDBRANCH   2   3
ENDBRANCH   1   2
BRANCH   1  19
ATOM     19  C   UNL     1       9.481   7.563  -0.077  1.00  0.00     0.116 C 
BRANCH  19  20
ATOM     20  N   UNL     1       8.294   8.314  -0.429  1.00  0.00    -0.352 N 
ATOM     21  C   UNL     1       7.819   9.560  -0.125  1.00  0.00     0.251 C 
ATOM     22  H   UNL     1       7.690   7.812  -1.023  1.00  0.00     0.163 HD
ATOM     23  O   UNL     1       6.864   9.945  -0.806  1.00  0.00    -0.269 OA
BRANCH  21  24
ATOM     24  C   UNL     1       8.303  10.419   0.991  1.00  0.00     0.039 A 
ATOM     25  C   UNL     1       9.438  10.185   1.768  1.00  0.00     0.014 A 
ATOM     26  C   UNL     1       7.490  11.526   1.308  1.00  0.00     0.014 A 
ATOM     27  C   UNL     1       9.694  10.970   2.890  1.00  0.00     0.010 A 
ATOM     28  C   UNL     1       7.747  12.319   2.421  1.00  0.00     0.010 A 
ATOM     29  C   UNL     1       8.827  12.011   3.238  1.00  0.00    -0.014 A 
BRANCH  29  30
ATOM     30  C   UNL     1       9.211  12.881   4.352  1.00  0.00     0.031 A 
ATOM     31  C   UNL     1      10.479  13.620   4.087  1.00  0.00     0.074 A 
ATOM     32  C   UNL     1       8.449  13.099   5.445  1.00  0.00     0.049 A 
ATOM     33  N   UNL     1      11.613  13.500   4.696  1.00  0.00    -0.248 NA
ATOM     34  C   UNL     1      10.543  14.451   2.872  1.00  0.00     0.031 C 
ATOM     35  C   UNL     1       7.065  12.662   5.653  1.00  0.00     0.029 A 
ATOM     36  N   UNL     1       8.699  13.844   6.565  1.00  0.00    -0.354 N 
ATOM     37  C   UNL     1      12.466  14.424   4.089  1.00  0.00     0.074 A 
ATOM     38  C   UNL     1      11.826  14.812   2.862  1.00  0.00     0.031 C 
ATOM     39  C   UNL     1       6.527  13.345   6.689  1.00  0.00     0.029 A 
ATOM     40  C   UNL     1       7.562  14.156   7.308  1.00  0.00     0.049 A 
ATOM     41  H   UNL     1       9.603  14.136   6.822  1.00  0.00     0.167 HD
ATOM     42  C   UNL     1      13.487  15.001   4.785  1.00  0.00     0.034 A 
ATOM     43  C   UNL     1       7.456  15.058   8.319  1.00  0.00     0.034 A 
ATOM     44  C   UNL     1      13.751  14.262   5.990  1.00  0.00     0.049 A 
ATOM     45  C   UNL     1       8.813  15.354   8.818  1.00  0.00     0.074 A 
ATOM     46  C   UNL     1      14.276  13.030   6.306  1.00  0.00     0.029 A 
ATOM     47  N   UNL     1      13.056  14.704   7.086  1.00  0.00    -0.354 N 
ATOM     48  N   UNL     1       9.542  14.514   9.494  1.00  0.00    -0.248 NA
ATOM     49  C   UNL     1       9.525  16.491   8.254  1.00  0.00     0.031 C 
ATOM     50  C   UNL     1      13.635  12.639   7.516  1.00  0.00     0.029 A 
ATOM     51  C   UNL     1      12.791  13.670   7.937  1.00  0.00     0.049 A 
ATOM     52  H   UNL     1      12.786  15.639   7.238  1.00  0.00     0.167 HD
ATOM     53  C   UNL     1      10.823  14.741   9.030  1.00  0.00     0.074 A 
ATOM     54  C   UNL     1      10.779  16.070   8.429  1.00  0.00     0.031 C 
ATOM     55  C   UNL     1      11.700  13.704   8.894  1.00  0.00     0.034 A 
BRANCH  42  56
ATOM     56  C   UNL     1      13.887  16.462   4.639  1.00  0.00     0.023 A 
ATOM     57  C   UNL     1      13.214  17.375   3.806  1.00  0.00     0.031 A 
ATOM     58  C   UNL     1      14.809  17.038   5.542  1.00  0.00     0.131 A 
ATOM     59  C   UNL     1      13.437  18.757   3.882  1.00  0.00     0.055 A 
ATOM     60  C   UNL     1      14.989  18.424   5.663  1.00  0.00     0.041 A 
ATOM     61  F   UNL     1      15.521  16.276   6.387  1.00  0.00    -0.206 F 
ATOM     62  C   UNL     1      14.295  19.294   4.833  1.00  0.00     0.022 A 
BRANCH  59  63
ATOM     63  S   UNL     1      12.578  19.883   2.746  1.00  0.00     0.124 S 
ATOM     64  O   UNL     1      11.912  20.797   3.668  1.00  0.00    -0.237 OA
ATOM     65  O   UNL     1      13.696  20.446   1.993  1.00  0.00    -0.237 OA
ATOM     66  O   UNL     1      11.702  18.998   1.984  1.00  0.00    -0.744 OA
ENDBRANCH  59  63
ENDBRANCH  42  56
BRANCH  43  67
ATOM     67  C   UNL     1       6.331  15.980   8.618  1.00  0.00     0.023 A 
ATOM     68  C   UNL     1       5.506  16.417   7.569  1.00  0.00     0.031 A 
ATOM     69  C   UNL     1       6.282  16.709   9.823  1.00  0.00     0.131 A 
ATOM     70  C   UNL     1       4.737  17.581   7.707  1.00  0.00     0.055 A 
ATOM     71  C   UNL     1       5.494  17.858   9.967  1.00  0.00     0.041 A 
ATOM     72  F   UNL     1       7.066  16.369  10.859  1.00  0.00    -0.206 F 
ATOM     73  C   UNL     1       4.731  18.312   8.896  1.00  0.00     0.022 A 
BRANCH  70  74
ATOM     74  S   UNL     1       3.819  18.236   6.287  1.00  0.00     0.124 S 
ATOM     75  O   UNL     1       2.513  18.532   6.872  1.00  0.00    -0.237 OA
ATOM     76  O   UNL     1       4.624  19.397   5.926  1.00  0.00    -0.237 OA
ATOM     77  O   UNL     1       3.832  17.130   5.334  1.00  0.00    -0.744 OA
ENDBRANCH  70  74
ENDBRANCH  43  67
BRANCH  55  78
ATOM     78  C   UNL     1      11.427  12.428   9.653  1.00  0.00     0.023 A 
ATOM     79  C   UNL     1      12.487  11.928  10.428  1.00  0.00     0.031 A 
ATOM     80  C   UNL     1      10.284  11.619   9.513  1.00  0.00     0.131 A 
ATOM     81  C   UNL     1      12.421  10.646  10.978  1.00  0.00     0.055 A 
ATOM     82  C   UNL     1      10.187  10.370  10.138  1.00  0.00     0.041 A 
ATOM     83  F   UNL     1       9.266  11.968   8.714  1.00  0.00    -0.206 F 
ATOM     84  C   UNL     1      11.268   9.868  10.857  1.00  0.00     0.022 A 
BRANCH  81  85
ATOM     85  S   UNL     1      13.900   9.900  11.709  1.00  0.00     0.124 S 
ATOM     86  O   UNL     1      13.517   9.768  13.112  1.00  0.00    -0.237 OA
ATOM     87  O   UNL     1      14.013   8.646  10.968  1.00  0.00    -0.237 OA
ATOM     88  O   UNL     1      14.957  10.871  11.438  1.00  0.00    -0.744 OA
ENDBRANCH  81  85
ENDBRANCH  55  78
ENDBRANCH  29  30
ENDBRANCH  21  24
ENDBRANCH  19  20
ENDBRANCH   1  19
TORSDOF 15
