REMARK SMILES CCC1(C(=O)NCCCCNC(=O)c2ccc(-c3c4nc(c(-c5cc(S(=O)(=O)[O-])ccc5F)c5ccc([nH]5)c(-c5cc(S(=O)(=O)[O-])ccc5F)c5nc(c(-c6cc(S(=O)(=O)[O-])ccc6F)c6ccc3[nH]6)C=C5)C=C4)cc2)CCN(c2ncnc3c2CCCC3)CC1
REMARK SMILES IDX 9 1 8 2 7 3 6 4 4 5 5 6 3 8 77 9 91 10 78 11 90 12 79 13
REMARK SMILES IDX 2 14 1 15 80 16 81 17 85 18 82 19 84 20 86 21 83 22 89 23
REMARK SMILES IDX 87 24 88 25 10 26 11 27 12 28 13 30 14 31 15 32 76 33 16 34
REMARK SMILES IDX 75 35 17 36 18 37 19 38 69 39 20 40 74 41 68 42 70 43 21 44
REMARK SMILES IDX 73 45 67 46 66 47 22 49 54 50 34 51 53 52 35 53 38 54 52 55
REMARK SMILES IDX 71 56 36 57 37 58 51 60 72 61 39 62 23 63 24 64 32 65 25 66
REMARK SMILES IDX 31 67 33 68 30 69 26 70 27 71 28 72 29 73 55 74 56 75 64 76
REMARK SMILES IDX 57 77 63 78 65 79 62 80 58 81 59 82 60 83 61 84 40 85 41 86
REMARK SMILES IDX 49 87 42 88 48 89 50 90 47 91 43 92 44 93 45 94 46 95
REMARK H PARENT 6 7 11 29 70 48 38 59
REMARK Flexibility Score: inf
ROOT
ATOM      1  C   UNL     1       2.803  -3.428   5.559  1.00  0.00     0.023 C 
ENDROOT
BRANCH   1   2
ATOM      2  C   UNL     1       2.956  -3.621   4.055  1.00  0.00     0.023 C 
BRANCH   2   3
ATOM      3  C   UNL     1       1.662  -3.897   3.292  1.00  0.00     0.116 C 
BRANCH   3   4
ATOM      4  N   UNL     1       0.853  -2.702   3.120  1.00  0.00    -0.356 N 
ATOM      5  C   UNL     1       0.479  -1.999   2.012  1.00  0.00     0.226 C 
ATOM      6  O   UNL     1      -0.319  -1.077   2.209  1.00  0.00    -0.274 OA
ATOM      7  H   UNL     1       0.509  -2.329   3.964  1.00  0.00     0.163 HD
BRANCH   5   8
ATOM      8  C   UNL     1       0.989  -2.336   0.584  1.00  0.00     0.052 C 
ATOM      9  C   UNL     1       2.541  -2.259   0.542  1.00  0.00     0.038 C 
ATOM     10  C   UNL     1       0.413  -3.739   0.192  1.00  0.00     0.038 C 
ATOM     11  C   UNL     1       3.157  -3.044  -0.609  1.00  0.00     0.119 C 
ATOM     12  C   UNL     1       1.215  -4.500  -0.868  1.00  0.00     0.119 C 
ATOM     13  N   UNL     1       2.630  -4.397  -0.538  1.00  0.00    -0.356 N 
BRANCH   8  14
ATOM     14  C   UNL     1       0.384  -1.316  -0.444  1.00  0.00     0.013 C 
ATOM     15  C   UNL     1       0.871   0.130  -0.349  1.00  0.00     0.005 C 
ENDBRANCH   8  14
BRANCH  13  16
ATOM     16  C   UNL     1       3.456  -5.475  -0.817  1.00  0.00     0.135 A 
ATOM     17  N   UNL     1       3.144  -6.242  -1.877  1.00  0.00    -0.219 NA
ATOM     18  C   UNL     1       4.522  -5.811   0.027  1.00  0.00     0.016 A 
ATOM     19  C   UNL     1       3.911  -7.317  -2.099  1.00  0.00     0.224 A 
ATOM     20  C   UNL     1       5.242  -6.961  -0.290  1.00  0.00     0.049 A 
ATOM     21  C   UNL     1       4.888  -4.999   1.237  1.00  0.00     0.041 C 
ATOM     22  N   UNL     1       4.951  -7.722  -1.362  1.00  0.00    -0.241 NA
ATOM     23  C   UNL     1       6.319  -7.499   0.622  1.00  0.00     0.057 C 
ATOM     24  C   UNL     1       5.673  -5.767   2.295  1.00  0.00     0.005 C 
ATOM     25  C   UNL     1       6.838  -6.487   1.639  1.00  0.00     0.007 C 
ENDBRANCH  13  16
ENDBRANCH   5   8
ENDBRANCH   3   4
ENDBRANCH   2   3
ENDBRANCH   1   2
BRANCH   1  26
ATOM     26  C   UNL     1       2.172  -4.601   6.299  1.00  0.00     0.116 C 
BRANCH  26  27
ATOM     27  N   UNL     1       2.845  -5.872   6.067  1.00  0.00    -0.352 N 
ATOM     28  C   UNL     1       3.131  -6.876   6.962  1.00  0.00     0.251 C 
ATOM     29  H   UNL     1       3.135  -6.035   5.140  1.00  0.00     0.163 HD
ATOM     30  O   UNL     1       3.809  -7.835   6.605  1.00  0.00    -0.269 OA
BRANCH  28  31
ATOM     31  C   UNL     1       2.654  -6.768   8.358  1.00  0.00     0.039 A 
ATOM     32  C   UNL     1       3.541  -7.050   9.400  1.00  0.00     0.014 A 
ATOM     33  C   UNL     1       1.351  -6.351   8.639  1.00  0.00     0.014 A 
ATOM     34  C   UNL     1       3.144  -6.835  10.721  1.00  0.00     0.010 A 
ATOM     35  C   UNL     1       0.987  -6.055   9.949  1.00  0.00     0.010 A 
ATOM     36  C   UNL     1       1.879  -6.294  11.005  1.00  0.00    -0.014 A 
BRANCH  36  37
ATOM     37  C   UNL     1       1.470  -5.976  12.398  1.00  0.00     0.031 A 
ATOM     38  C   UNL     1       0.298  -6.686  13.019  1.00  0.00     0.074 A 
ATOM     39  C   UNL     1       2.112  -5.003  13.075  1.00  0.00     0.049 A 
ATOM     40  N   UNL     1      -0.252  -6.506  14.193  1.00  0.00    -0.248 NA
ATOM     41  C   UNL     1      -0.364  -7.709  12.196  1.00  0.00     0.031 C 
ATOM     42  C   UNL     1       3.226  -4.205  12.556  1.00  0.00     0.029 A 
ATOM     43  N   UNL     1       1.919  -4.514  14.342  1.00  0.00    -0.354 N 
ATOM     44  C   UNL     1      -1.331  -7.383  14.243  1.00  0.00     0.074 A 
ATOM     45  C   UNL     1      -1.397  -8.039  12.955  1.00  0.00     0.031 C 
ATOM     46  C   UNL     1       3.636  -3.350  13.508  1.00  0.00     0.029 A 
ATOM     47  C   UNL     1       2.791  -3.507  14.687  1.00  0.00     0.049 A 
ATOM     48  H   UNL     1       1.221  -4.852  14.949  1.00  0.00     0.167 HD
ATOM     49  C   UNL     1      -2.171  -7.638  15.277  1.00  0.00     0.034 A 
ATOM     50  C   UNL     1       2.894  -2.788  15.822  1.00  0.00     0.034 A 
ATOM     51  C   UNL     1      -2.080  -6.984  16.561  1.00  0.00     0.049 A 
ATOM     52  C   UNL     1       1.948  -3.086  16.958  1.00  0.00     0.074 A 
ATOM     53  C   UNL     1      -2.841  -7.202  17.696  1.00  0.00     0.029 A 
ATOM     54  N   UNL     1      -1.175  -5.979  16.878  1.00  0.00    -0.354 N 
ATOM     55  N   UNL     1       0.968  -3.960  17.010  1.00  0.00    -0.248 NA
ATOM     56  C   UNL     1       2.133  -2.312  18.192  1.00  0.00     0.031 C 
ATOM     57  C   UNL     1      -2.438  -6.289  18.677  1.00  0.00     0.029 A 
ATOM     58  C   UNL     1      -1.375  -5.550  18.182  1.00  0.00     0.049 A 
ATOM     59  H   UNL     1      -0.490  -5.623  16.267  1.00  0.00     0.167 HD
ATOM     60  C   UNL     1       0.441  -3.860  18.295  1.00  0.00     0.074 A 
ATOM     61  C   UNL     1       1.223  -2.856  18.987  1.00  0.00     0.031 C 
ATOM     62  C   UNL     1      -0.594  -4.538  18.854  1.00  0.00     0.034 A 
BRANCH  49  63
ATOM     63  C   UNL     1      -3.268  -8.651  15.046  1.00  0.00     0.023 A 
ATOM     64  C   UNL     1      -2.979  -9.993  14.740  1.00  0.00     0.031 A 
ATOM     65  C   UNL     1      -4.619  -8.266  15.095  1.00  0.00     0.131 A 
ATOM     66  C   UNL     1      -4.017 -10.878  14.413  1.00  0.00     0.055 A 
ATOM     67  C   UNL     1      -5.653  -9.174  14.853  1.00  0.00     0.041 A 
ATOM     68  F   UNL     1      -4.959  -6.995  15.361  1.00  0.00    -0.206 F 
ATOM     69  C   UNL     1      -5.354 -10.485  14.493  1.00  0.00     0.022 A 
BRANCH  66  70
ATOM     70  S   UNL     1      -3.586 -12.504  13.733  1.00  0.00     0.124 S 
ATOM     71  O   UNL     1      -2.824 -12.132  12.543  1.00  0.00    -0.237 OA
ATOM     72  O   UNL     1      -2.821 -13.107  14.818  1.00  0.00    -0.237 OA
ATOM     73  O   UNL     1      -4.884 -13.119  13.466  1.00  0.00    -0.744 OA
ENDBRANCH  66  70
ENDBRANCH  49  63
BRANCH  50  74
ATOM     74  C   UNL     1       3.928  -1.721  15.952  1.00  0.00     0.023 A 
ATOM     75  C   UNL     1       4.970  -1.835  16.886  1.00  0.00     0.031 A 
ATOM     76  C   UNL     1       3.865  -0.553  15.172  1.00  0.00     0.131 A 
ATOM     77  C   UNL     1       5.879  -0.778  17.052  1.00  0.00     0.055 A 
ATOM     78  C   UNL     1       4.803   0.473  15.305  1.00  0.00     0.041 A 
ATOM     79  F   UNL     1       2.894  -0.397  14.259  1.00  0.00    -0.206 F 
ATOM     80  C   UNL     1       5.810   0.369  16.259  1.00  0.00     0.022 A 
BRANCH  77  81
ATOM     81  S   UNL     1       7.108  -0.892  18.382  1.00  0.00     0.124 S 
ATOM     82  O   UNL     1       6.260  -1.054  19.557  1.00  0.00    -0.237 OA
ATOM     83  O   UNL     1       7.880  -2.062  17.980  1.00  0.00    -0.237 OA
ATOM     84  O   UNL     1       7.820   0.382  18.296  1.00  0.00    -0.744 OA
ENDBRANCH  77  81
ENDBRANCH  50  74
BRANCH  62  85
ATOM     85  C   UNL     1      -0.902  -4.240  20.301  1.00  0.00     0.023 A 
ATOM     86  C   UNL     1      -1.384  -2.985  20.712  1.00  0.00     0.031 A 
ATOM     87  C   UNL     1      -0.687  -5.221  21.286  1.00  0.00     0.131 A 
ATOM     88  C   UNL     1      -1.575  -2.723  22.077  1.00  0.00     0.055 A 
ATOM     89  C   UNL     1      -0.940  -4.975  22.636  1.00  0.00     0.041 A 
ATOM     90  F   UNL     1      -0.226  -6.437  20.950  1.00  0.00    -0.206 F 
ATOM     91  C   UNL     1      -1.372  -3.715  23.040  1.00  0.00     0.022 A 
BRANCH  88  92
ATOM     92  S   UNL     1      -1.994  -1.034  22.588  1.00  0.00     0.124 S 
ATOM     93  O   UNL     1      -0.878  -0.266  22.043  1.00  0.00    -0.237 OA
ATOM     94  O   UNL     1      -3.286  -0.825  21.945  1.00  0.00    -0.237 OA
ATOM     95  O   UNL     1      -2.034  -1.117  24.047  1.00  0.00    -0.744 OA
ENDBRANCH  88  92
ENDBRANCH  62  85
ENDBRANCH  36  37
ENDBRANCH  28  31
ENDBRANCH  26  27
ENDBRANCH   1  26
TORSDOF 16
