REMARK SMILES O=C(NCCCCNC(=O)[C@@]12C[C@H]3C[C@@H](C1)C[C@](n1cc([N+](=O)[O-])cn1)(C3)C2)c1ccc(-c2c3nc(c(-c4cc(S(=O)(=O)[O-])ccc4F)c4ccc([nH]4)c(-c4cc(S(=O)(=O)[O-])ccc4F)c4nc(c(-c5cc(S(=O)(=O)[O-])ccc5F)c5ccc2[nH]5)C=C4)C=C3)cc1
REMARK SMILES IDX 5 1 4 2 3 3 1 4 2 5 29 7 30 8 91 9 31 10 90 11 32 12 33 13
REMARK SMILES IDX 34 14 84 15 35 16 89 17 83 18 85 19 36 20 88 21 82 22 81 23
REMARK SMILES IDX 37 25 69 26 49 27 68 28 50 29 53 30 67 31 86 32 51 33 52 34
REMARK SMILES IDX 66 36 87 37 54 38 38 39 39 40 47 41 40 42 46 43 48 44 45 45
REMARK SMILES IDX 41 46 42 47 43 48 44 49 70 50 71 51 79 52 72 53 78 54 80 55
REMARK SMILES IDX 77 56 73 57 74 58 75 59 76 60 55 61 56 62 64 63 57 64 63 65
REMARK SMILES IDX 65 66 62 67 58 68 59 69 60 70 61 71 6 72 7 73 8 74 9 75
REMARK SMILES IDX 10 77 11 78 12 79 16 80 28 81 13 82 15 83 18 84 14 85 27 86
REMARK SMILES IDX 17 87 19 88 20 89 26 90 21 91 25 92 22 93 23 94 24 95
REMARK H PARENT 3 6 85 24 53 35 8 76
REMARK Flexibility Score: inf
ROOT
ATOM      1  C   UNL     1       5.122  -0.796   2.003  1.00  0.00     0.023 C 
ENDROOT
BRANCH   1   2
ATOM      2  C   UNL     1       4.847  -0.822   0.498  1.00  0.00     0.116 C 
BRANCH   2   3
ATOM      3  N   UNL     1       3.458  -1.002   0.124  1.00  0.00    -0.352 N 
ATOM      4  O   UNL     1       1.372  -0.630  -0.508  1.00  0.00    -0.269 OA
ATOM      5  C   UNL     1       2.376  -0.165   0.040  1.00  0.00     0.251 C 
ATOM      6  H   UNL     1       3.245  -1.930  -0.125  1.00  0.00     0.163 HD
BRANCH   5   7
ATOM      7  C   UNL     1       2.311   1.208   0.612  1.00  0.00     0.039 A 
ATOM      8  C   UNL     1       3.407   1.985   0.987  1.00  0.00     0.014 A 
ATOM      9  C   UNL     1       1.020   1.744   0.789  1.00  0.00     0.014 A 
ATOM     10  C   UNL     1       3.221   3.222   1.602  1.00  0.00     0.010 A 
ATOM     11  C   UNL     1       0.828   2.987   1.386  1.00  0.00     0.010 A 
ATOM     12  C   UNL     1       1.932   3.717   1.817  1.00  0.00    -0.014 A 
BRANCH  12  13
ATOM     13  C   UNL     1       1.793   5.093   2.296  1.00  0.00     0.031 A 
ATOM     14  C   UNL     1       2.278   6.124   1.335  1.00  0.00     0.074 A 
ATOM     15  C   UNL     1       1.143   5.459   3.419  1.00  0.00     0.049 A 
ATOM     16  N   UNL     1       3.239   6.973   1.490  1.00  0.00    -0.248 NA
ATOM     17  C   UNL     1       1.696   6.126  -0.016  1.00  0.00     0.031 C 
ATOM     18  C   UNL     1       0.370   4.604   4.319  1.00  0.00     0.029 A 
ATOM     19  N   UNL     1       0.946   6.710   3.936  1.00  0.00    -0.354 N 
ATOM     20  C   UNL     1       3.239   7.769   0.346  1.00  0.00     0.074 A 
ATOM     21  C   UNL     1       2.401   7.091  -0.606  1.00  0.00     0.031 C 
ATOM     22  C   UNL     1      -0.384   5.379   5.131  1.00  0.00     0.029 A 
ATOM     23  C   UNL     1      -0.062   6.778   4.894  1.00  0.00     0.049 A 
ATOM     24  H   UNL     1       1.471   7.495   3.654  1.00  0.00     0.167 HD
ATOM     25  C   UNL     1       3.747   9.033   0.356  1.00  0.00     0.034 A 
ATOM     26  C   UNL     1      -0.643   7.897   5.410  1.00  0.00     0.034 A 
ATOM     27  C   UNL     1       4.632   9.231   1.482  1.00  0.00     0.049 A 
ATOM     28  C   UNL     1       0.303   9.020   5.208  1.00  0.00     0.074 A 
ATOM     29  C   UNL     1       5.776   8.602   1.938  1.00  0.00     0.029 A 
ATOM     30  N   UNL     1       4.191   9.993   2.541  1.00  0.00    -0.354 N 
ATOM     31  N   UNL     1       1.456   9.108   5.810  1.00  0.00    -0.248 NA
ATOM     32  C   UNL     1       0.173   9.824   4.002  1.00  0.00     0.031 C 
ATOM     33  C   UNL     1       5.655   8.607   3.359  1.00  0.00     0.029 A 
ATOM     34  C   UNL     1       4.489   9.299   3.686  1.00  0.00     0.049 A 
ATOM     35  H   UNL     1       3.747  10.870   2.486  1.00  0.00     0.167 HD
ATOM     36  C   UNL     1       2.322   9.605   4.851  1.00  0.00     0.074 A 
ATOM     37  C   UNL     1       1.457  10.129   3.796  1.00  0.00     0.031 C 
ATOM     38  C   UNL     1       3.653   9.297   4.870  1.00  0.00     0.034 A 
BRANCH  25  39
ATOM     39  C   UNL     1       3.167  10.200  -0.421  1.00  0.00     0.023 A 
ATOM     40  C   UNL     1       3.778  11.456  -0.239  1.00  0.00     0.031 A 
ATOM     41  C   UNL     1       1.904  10.225  -1.056  1.00  0.00     0.131 A 
ATOM     42  C   UNL     1       3.091  12.646  -0.534  1.00  0.00     0.055 A 
ATOM     43  C   UNL     1       1.258  11.411  -1.421  1.00  0.00     0.041 A 
ATOM     44  F   UNL     1       1.179   9.123  -1.280  1.00  0.00    -0.206 F 
ATOM     45  C   UNL     1       1.832  12.633  -1.122  1.00  0.00     0.022 A 
BRANCH  42  46
ATOM     46  S   UNL     1       3.790  14.205   0.069  1.00  0.00     0.124 S 
ATOM     47  O   UNL     1       3.963  13.912   1.488  1.00  0.00    -0.237 OA
ATOM     48  O   UNL     1       5.012  14.310  -0.721  1.00  0.00    -0.237 OA
ATOM     49  O   UNL     1       2.755  15.185  -0.246  1.00  0.00    -0.744 OA
ENDBRANCH  42  46
ENDBRANCH  25  39
BRANCH  26  50
ATOM     50  C   UNL     1      -2.071   8.088   5.795  1.00  0.00     0.023 A 
ATOM     51  C   UNL     1      -2.512   9.144   6.625  1.00  0.00     0.031 A 
ATOM     52  C   UNL     1      -3.076   7.347   5.133  1.00  0.00     0.131 A 
ATOM     53  C   UNL     1      -3.897   9.411   6.766  1.00  0.00     0.055 A 
ATOM     54  C   UNL     1      -4.439   7.609   5.282  1.00  0.00     0.041 A 
ATOM     55  F   UNL     1      -2.764   6.391   4.244  1.00  0.00    -0.206 F 
ATOM     56  C   UNL     1      -4.856   8.650   6.093  1.00  0.00     0.022 A 
BRANCH  53  57
ATOM     57  S   UNL     1      -4.476  10.831   7.754  1.00  0.00     0.124 S 
ATOM     58  O   UNL     1      -4.172  10.403   9.118  1.00  0.00    -0.237 OA
ATOM     59  O   UNL     1      -3.686  11.929   7.226  1.00  0.00    -0.237 OA
ATOM     60  O   UNL     1      -5.907  10.901   7.444  1.00  0.00    -0.744 OA
ENDBRANCH  53  57
ENDBRANCH  26  50
BRANCH  38  61
ATOM     61  C   UNL     1       4.246   8.698   6.128  1.00  0.00     0.023 A 
ATOM     62  C   UNL     1       3.787   7.521   6.761  1.00  0.00     0.031 A 
ATOM     63  C   UNL     1       5.412   9.299   6.637  1.00  0.00     0.131 A 
ATOM     64  C   UNL     1       4.484   6.999   7.868  1.00  0.00     0.055 A 
ATOM     65  C   UNL     1       6.111   8.767   7.719  1.00  0.00     0.041 A 
ATOM     66  F   UNL     1       5.917  10.404   6.063  1.00  0.00    -0.206 F 
ATOM     67  C   UNL     1       5.644   7.618   8.344  1.00  0.00     0.022 A 
BRANCH  64  68
ATOM     68  S   UNL     1       3.884   5.507   8.724  1.00  0.00     0.124 S 
ATOM     69  O   UNL     1       2.460   5.762   8.904  1.00  0.00    -0.237 OA
ATOM     70  O   UNL     1       4.230   4.443   7.784  1.00  0.00    -0.237 OA
ATOM     71  O   UNL     1       4.661   5.492   9.966  1.00  0.00    -0.744 OA
ENDBRANCH  64  68
ENDBRANCH  38  61
ENDBRANCH  12  13
ENDBRANCH   5   7
ENDBRANCH   2   3
ENDBRANCH   1   2
BRANCH   1  72
ATOM     72  C   UNL     1       4.690  -2.047   2.766  1.00  0.00     0.023 C 
BRANCH  72  73
ATOM     73  C   UNL     1       5.342  -3.341   2.294  1.00  0.00     0.116 C 
BRANCH  73  74
ATOM     74  N   UNL     1       6.755  -3.445   2.664  1.00  0.00    -0.356 N 
ATOM     75  C   UNL     1       7.465  -4.394   3.354  1.00  0.00     0.226 C 
ATOM     76  H   UNL     1       7.302  -2.686   2.357  1.00  0.00     0.163 HD
ATOM     77  O   UNL     1       8.688  -4.256   3.425  1.00  0.00    -0.274 OA
BRANCH  75  78
ATOM     78  C   UNL     1       6.768  -5.620   3.964  1.00  0.00     0.052 C 
ATOM     79  C   UNL     1       7.741  -6.620   4.649  1.00  0.00     0.020 C 
ATOM     80  C   UNL     1       5.737  -5.196   5.032  1.00  0.00     0.020 C 
ATOM     81  C   UNL     1       6.164  -6.423   2.813  1.00  0.00     0.047 C 
ATOM     82  C   UNL     1       6.960  -7.861   5.165  1.00  0.00    -0.007 C 
ATOM     83  C   UNL     1       4.949  -6.409   5.540  1.00  0.00    -0.007 C 
ATOM     84  C   UNL     1       5.258  -7.577   3.300  1.00  0.00     0.065 C 
ATOM     85  C   UNL     1       5.923  -7.396   6.197  1.00  0.00     0.007 C 
ATOM     86  C   UNL     1       6.213  -8.576   4.010  1.00  0.00     0.034 C 
ATOM     87  C   UNL     1       4.235  -7.072   4.348  1.00  0.00     0.034 C 
BRANCH  84  88
ATOM     88  N   UNL     1       4.576  -8.098   2.093  1.00  0.00    -0.259 N 
ATOM     89  C   UNL     1       3.964  -7.245   1.183  1.00  0.00     0.195 A 
ATOM     90  N   UNL     1       5.038  -9.214   1.473  1.00  0.00    -0.173 NA
ATOM     91  C   UNL     1       4.567  -7.569  -0.017  1.00  0.00     0.307 A 
ATOM     92  C   UNL     1       5.096  -8.852   0.183  1.00  0.00     0.220 A 
BRANCH  91  93
ATOM     93  N   UNL     1       4.745  -6.706  -1.138  1.00  0.00     0.066 N 
ATOM     94  O   UNL     1       4.895  -7.242  -2.241  1.00  0.00    -0.258 OA
ATOM     95  O   UNL     1       4.808  -5.492  -0.896  1.00  0.00    -0.258 OA
ENDBRANCH  91  93
ENDBRANCH  84  88
ENDBRANCH  75  78
ENDBRANCH  73  74
ENDBRANCH  72  73
ENDBRANCH   1  72
TORSDOF 16
