REMARK SMILES Cc1cc(C)c(C(=O)N[C@@H]2C=C[C@@H](C(=O)NCCCCNC(=O)c3ccc(-c4c5nc(c(-c6cc(S(=O)(=O)[O-])ccc6F)c6ccc([nH]6)c(-c6cc(S(=O)(=O)[O-])ccc6F)c6nc(c(-c7cc(S(=O)(=O)[O-])ccc7F)c7ccc4[nH]7)C=C6)C=C5)cc3)C2)c(C)c1
REMARK SMILES IDX 19 1 18 2 17 3 16 4 14 5 15 6 13 8 10 9 11 10 87 11 12 12
REMARK SMILES IDX 9 13 7 14 8 15 6 17 1 18 2 19 3 20 90 21 4 22 88 23 5 24
REMARK SMILES IDX 89 25 20 26 21 27 22 28 23 30 24 31 25 32 86 33 26 34 85 35
REMARK SMILES IDX 27 36 28 37 29 38 79 39 30 40 84 41 78 42 80 43 31 44 83 45
REMARK SMILES IDX 77 46 76 47 32 49 64 50 44 51 63 52 45 53 48 54 62 55 81 56
REMARK SMILES IDX 46 57 47 58 61 60 82 61 49 62 33 63 34 64 42 65 35 66 41 67
REMARK SMILES IDX 43 68 40 69 36 70 37 71 38 72 39 73 65 74 66 75 74 76 67 77
REMARK SMILES IDX 73 78 75 79 72 80 68 81 69 82 70 83 71 84 50 85 51 86 59 87
REMARK SMILES IDX 52 88 58 89 60 90 57 91 53 92 54 93 55 94 56 95
REMARK H PARENT 16 7 9 16 21 29 80 48 48 59
REMARK Flexibility Score: inf
ROOT
ATOM      1  C   UNL     1      -3.045  -5.915   4.447  1.00  0.00     0.023 C 
ENDROOT
BRANCH   1   2
ATOM      2  C   UNL     1      -2.462  -5.224   3.216  1.00  0.00     0.023 C 
BRANCH   2   3
ATOM      3  C   UNL     1      -1.145  -4.470   3.410  1.00  0.00     0.116 C 
BRANCH   3   4
ATOM      4  N   UNL     1      -0.041  -5.366   3.683  1.00  0.00    -0.356 N 
ATOM      5  C   UNL     1       1.217  -5.469   3.185  1.00  0.00     0.227 C 
ATOM      6  O   UNL     1       1.950  -6.291   3.750  1.00  0.00    -0.274 OA
ATOM      7  H   UNL     1      -0.244  -6.040   4.372  1.00  0.00     0.163 HD
BRANCH   5   8
ATOM      8  C   UNL     1       1.752  -4.734   1.940  1.00  0.00     0.103 C 
ATOM      9  C   UNL     1       0.299  -4.186   0.062  1.00  0.00     0.106 C 
ATOM     10  C   UNL     1       0.883  -2.951   0.672  1.00  0.00    -0.006 C 
ATOM     11  C   UNL     1       1.184  -5.293   0.631  1.00  0.00     0.047 C 
ATOM     12  C   UNL     1       1.587  -3.254   1.774  1.00  0.00    -0.016 C 
BRANCH   9  13
ATOM     13  N   UNL     1       0.185  -4.111  -1.376  1.00  0.00    -0.346 N 
ATOM     14  C   UNL     1      -0.438  -5.014  -2.224  1.00  0.00     0.252 C 
ATOM     15  O   UNL     1      -0.680  -4.705  -3.386  1.00  0.00    -0.269 OA
ATOM     16  H   UNL     1       0.599  -3.327  -1.804  1.00  0.00     0.164 HD
BRANCH  14  17
ATOM     17  C   UNL     1      -0.726  -6.395  -1.737  1.00  0.00     0.045 A 
ATOM     18  C   UNL     1      -0.626 -10.139   0.381  1.00  0.00     0.044 C 
ATOM     19  C   UNL     1      -0.723  -8.861  -0.398  1.00  0.00    -0.051 A 
ATOM     20  C   UNL     1       0.013  -8.698  -1.574  1.00  0.00     0.007 A 
ATOM     21  C   UNL     1      -1.605  -7.847  -0.010  1.00  0.00     0.007 A 
ATOM     22  C   UNL     1       0.025  -7.470  -2.257  1.00  0.00    -0.038 A 
ATOM     23  C   UNL     1      -1.660  -6.628  -0.709  1.00  0.00    -0.038 A 
ATOM     24  C   UNL     1       0.734  -7.413  -3.583  1.00  0.00     0.045 C 
ATOM     25  C   UNL     1      -2.730  -5.636  -0.350  1.00  0.00     0.045 C 
ENDBRANCH  14  17
ENDBRANCH   9  13
ENDBRANCH   5   8
ENDBRANCH   3   4
ENDBRANCH   2   3
ENDBRANCH   1   2
BRANCH   1  26
ATOM     26  C   UNL     1      -3.309  -5.016   5.645  1.00  0.00     0.116 C 
BRANCH  26  27
ATOM     27  N   UNL     1      -4.240  -3.937   5.361  1.00  0.00    -0.352 N 
ATOM     28  C   UNL     1      -5.329  -3.509   6.084  1.00  0.00     0.251 C 
ATOM     29  H   UNL     1      -4.067  -3.440   4.529  1.00  0.00     0.163 HD
ATOM     30  O   UNL     1      -6.071  -2.654   5.598  1.00  0.00    -0.269 OA
BRANCH  28  31
ATOM     31  C   UNL     1      -5.631  -4.093   7.412  1.00  0.00     0.039 A 
ATOM     32  C   UNL     1      -6.963  -4.347   7.750  1.00  0.00     0.014 A 
ATOM     33  C   UNL     1      -4.616  -4.394   8.323  1.00  0.00     0.014 A 
ATOM     34  C   UNL     1      -7.266  -4.950   8.973  1.00  0.00     0.010 A 
ATOM     35  C   UNL     1      -4.910  -5.091   9.491  1.00  0.00     0.010 A 
ATOM     36  C   UNL     1      -6.240  -5.359   9.842  1.00  0.00    -0.014 A 
BRANCH  36  37
ATOM     37  C   UNL     1      -6.551  -6.035  11.130  1.00  0.00     0.031 A 
ATOM     38  C   UNL     1      -6.143  -5.404  12.436  1.00  0.00     0.074 A 
ATOM     39  C   UNL     1      -7.162  -7.237  11.123  1.00  0.00     0.049 A 
ATOM     40  N   UNL     1      -6.317  -5.838  13.658  1.00  0.00    -0.248 NA
ATOM     41  C   UNL     1      -5.404  -4.136  12.353  1.00  0.00     0.031 C 
ATOM     42  C   UNL     1      -7.539  -7.984   9.921  1.00  0.00     0.029 A 
ATOM     43  N   UNL     1      -7.571  -8.043  12.155  1.00  0.00    -0.354 N 
ATOM     44  C   UNL     1      -5.695  -4.907  14.485  1.00  0.00     0.074 A 
ATOM     45  C   UNL     1      -5.072  -3.932  13.617  1.00  0.00     0.031 C 
ATOM     46  C   UNL     1      -8.153  -9.121  10.284  1.00  0.00     0.029 A 
ATOM     47  C   UNL     1      -8.178  -9.206  11.741  1.00  0.00     0.049 A 
ATOM     48  H   UNL     1      -7.442  -7.812  13.103  1.00  0.00     0.167 HD
ATOM     49  C   UNL     1      -5.671  -4.854  15.841  1.00  0.00     0.034 A 
ATOM     50  C   UNL     1      -8.692 -10.229  12.451  1.00  0.00     0.034 A 
ATOM     51  C   UNL     1      -6.310  -5.835  16.686  1.00  0.00     0.049 A 
ATOM     52  C   UNL     1      -8.675 -10.146  13.955  1.00  0.00     0.074 A 
ATOM     53  C   UNL     1      -6.417  -5.847  18.065  1.00  0.00     0.029 A 
ATOM     54  N   UNL     1      -6.937  -6.990  16.231  1.00  0.00    -0.354 N 
ATOM     55  N   UNL     1      -8.160  -9.214  14.726  1.00  0.00    -0.248 NA
ATOM     56  C   UNL     1      -9.329 -11.238  14.683  1.00  0.00     0.031 C 
ATOM     57  C   UNL     1      -7.030  -7.046  18.447  1.00  0.00     0.029 A 
ATOM     58  C   UNL     1      -7.397  -7.740  17.305  1.00  0.00     0.049 A 
ATOM     59  H   UNL     1      -7.040  -7.240  15.285  1.00  0.00     0.167 HD
ATOM     60  C   UNL     1      -8.452  -9.597  16.032  1.00  0.00     0.074 A 
ATOM     61  C   UNL     1      -9.208 -10.831  15.938  1.00  0.00     0.031 C 
ATOM     62  C   UNL     1      -8.128  -8.984  17.202  1.00  0.00     0.034 A 
BRANCH  49  63
ATOM     63  C   UNL     1      -4.899  -3.717  16.477  1.00  0.00     0.023 A 
ATOM     64  C   UNL     1      -5.218  -2.369  16.229  1.00  0.00     0.031 A 
ATOM     65  C   UNL     1      -3.790  -3.983  17.299  1.00  0.00     0.131 A 
ATOM     66  C   UNL     1      -4.380  -1.348  16.703  1.00  0.00     0.055 A 
ATOM     67  C   UNL     1      -3.018  -2.958  17.853  1.00  0.00     0.041 A 
ATOM     68  F   UNL     1      -3.417  -5.245  17.560  1.00  0.00    -0.206 F 
ATOM     69  C   UNL     1      -3.297  -1.632  17.538  1.00  0.00     0.022 A 
BRANCH  66  70
ATOM     70  S   UNL     1      -4.610   0.331  16.054  1.00  0.00     0.124 S 
ATOM     71  O   UNL     1      -4.496   0.110  14.614  1.00  0.00    -0.237 OA
ATOM     72  O   UNL     1      -5.939   0.679  16.544  1.00  0.00    -0.237 OA
ATOM     73  O   UNL     1      -3.507   1.083  16.649  1.00  0.00    -0.744 OA
ENDBRANCH  66  70
ENDBRANCH  49  63
BRANCH  50  74
ATOM     74  C   UNL     1      -9.260 -11.416  11.748  1.00  0.00     0.023 A 
ATOM     75  C   UNL     1     -10.627 -11.727  11.815  1.00  0.00     0.031 A 
ATOM     76  C   UNL     1      -8.427 -12.267  10.998  1.00  0.00     0.131 A 
ATOM     77  C   UNL     1     -11.116 -12.876  11.171  1.00  0.00     0.055 A 
ATOM     78  C   UNL     1      -8.926 -13.378  10.317  1.00  0.00     0.041 A 
ATOM     79  F   UNL     1      -7.113 -12.011  10.895  1.00  0.00    -0.206 F 
ATOM     80  C   UNL     1     -10.277 -13.694  10.410  1.00  0.00     0.022 A 
BRANCH  77  81
ATOM     81  S   UNL     1     -12.860 -13.326  11.391  1.00  0.00     0.124 S 
ATOM     82  O   UNL     1     -12.945 -13.492  12.837  1.00  0.00    -0.237 OA
ATOM     83  O   UNL     1     -13.545 -12.163  10.836  1.00  0.00    -0.237 OA
ATOM     84  O   UNL     1     -12.995 -14.555  10.611  1.00  0.00    -0.744 OA
ENDBRANCH  77  81
ENDBRANCH  50  74
BRANCH  62  85
ATOM     85  C   UNL     1      -8.631  -9.629  18.473  1.00  0.00     0.023 A 
ATOM     86  C   UNL     1      -8.220 -10.915  18.867  1.00  0.00     0.031 A 
ATOM     87  C   UNL     1      -9.566  -8.961  19.285  1.00  0.00     0.131 A 
ATOM     88  C   UNL     1      -8.804 -11.524  19.989  1.00  0.00     0.055 A 
ATOM     89  C   UNL     1     -10.082  -9.540  20.445  1.00  0.00     0.041 A 
ATOM     90  F   UNL     1     -10.001  -7.733  18.959  1.00  0.00    -0.206 F 
ATOM     91  C   UNL     1      -9.717 -10.837  20.792  1.00  0.00     0.022 A 
BRANCH  88  92
ATOM     92  S   UNL     1      -8.462 -13.278  20.301  1.00  0.00     0.124 S 
ATOM     93  O   UNL     1      -8.848 -13.890  19.034  1.00  0.00    -0.237 OA
ATOM     94  O   UNL     1      -7.033 -13.269  20.596  1.00  0.00    -0.237 OA
ATOM     95  O   UNL     1      -9.328 -13.599  21.434  1.00  0.00    -0.744 OA
ENDBRANCH  88  92
ENDBRANCH  62  85
ENDBRANCH  36  37
ENDBRANCH  28  31
ENDBRANCH  26  27
ENDBRANCH   1  26
TORSDOF 16
