REMARK SMILES CCOC(=O)NC(=O)C[N@H+]1CC[C@@H](C(=O)NCCCCNC(=O)c2ccc(-c3c4nc(c(-c5cc(S(=O)(=O)[O-])ccc5F)c5ccc([nH]5)c(-c5cc(S(=O)(=O)[O-])ccc5F)c5nc(c(-c6cc(S(=O)(=O)[O-])ccc6F)c6ccc3[nH]6)C=C5)C=C4)cc2)[C@@H]1C
REMARK SMILES IDX 18 1 17 2 16 3 14 4 15 5 13 7 10 8 11 9 87 10 12 12 88 13
REMARK SMILES IDX 9 14 7 15 4 16 5 17 6 18 8 20 3 21 2 22 1 23 19 24 20 25
REMARK SMILES IDX 21 26 22 27 23 29 24 30 25 31 86 32 26 33 85 34 27 35 28 36
REMARK SMILES IDX 29 37 79 38 30 39 84 40 78 41 80 42 31 43 83 44 77 45 76 46
REMARK SMILES IDX 32 48 64 49 44 50 63 51 45 52 48 53 62 54 81 55 46 56 47 57
REMARK SMILES IDX 61 59 82 60 49 61 33 62 34 63 42 64 35 65 41 66 43 67 40 68
REMARK SMILES IDX 36 69 37 70 38 71 39 72 65 73 66 74 74 75 67 76 73 77 75 78
REMARK SMILES IDX 72 79 68 80 69 81 70 82 71 83 50 84 51 85 59 86 52 87 58 88
REMARK SMILES IDX 60 89 57 90 53 91 54 92 55 93 56 94
REMARK H PARENT 16 6 10 11 6 19 21 28 80 47 48 58
REMARK Flexibility Score: inf
ROOT
ATOM      1  C   UNL     1       0.496  -1.830   7.543  1.00  0.00     0.023 C 
ENDROOT
BRANCH   1   2
ATOM      2  C   UNL     1      -0.987  -1.683   7.208  1.00  0.00     0.116 C 
BRANCH   2   3
ATOM      3  N   UNL     1      -1.494  -0.362   7.505  1.00  0.00    -0.356 N 
ATOM      4  C   UNL     1      -1.778   0.680   6.679  1.00  0.00     0.229 C 
ATOM      5  O   UNL     1      -2.231   1.705   7.199  1.00  0.00    -0.275 OA
ATOM      6  H   UNL     1      -1.660  -0.190   8.460  1.00  0.00     0.163 HD
BRANCH   4   7
ATOM      7  C   UNL     1      -1.577   0.626   5.167  1.00  0.00     0.142 C 
ATOM      8  N   UNL     1      -0.163  -0.593   3.610  1.00  0.00    -0.324 N 
ATOM      9  C   UNL     1      -1.568  -0.803   3.247  1.00  0.00     0.263 C 
ATOM     10  C   UNL     1      -0.129   0.384   4.718  1.00  0.00     0.194 C 
ATOM     11  H   UNL     1       0.360  -0.201   2.828  1.00  0.00     0.348 HD
ATOM     12  C   UNL     1      -2.422  -0.401   4.435  1.00  0.00     0.081 C 
ATOM     13  C   UNL     1       0.490   1.679   4.181  1.00  0.00     0.076 C 
BRANCH   8  14
ATOM     14  C   UNL     1       0.544  -1.861   3.875  1.00  0.00     0.364 C 
BRANCH  14  15
ATOM     15  C   UNL     1       2.058  -1.661   3.995  1.00  0.00     0.284 C 
ATOM     16  C   UNL     1       2.544  -1.551   1.526  1.00  0.00     0.414 C 
ATOM     17  O   UNL     1       3.416  -1.423   0.679  1.00  0.00    -0.224 OA
ATOM     18  N   UNL     1       2.844  -1.630   2.867  1.00  0.00    -0.256 N 
ATOM     19  H   UNL     1       3.810  -1.673   3.055  1.00  0.00     0.176 HD
ATOM     20  O   UNL     1       2.603  -1.524   5.095  1.00  0.00    -0.268 OA
BRANCH  16  21
ATOM     21  O   UNL     1       1.221  -1.590   1.269  1.00  0.00    -0.450 OA
BRANCH  21  22
ATOM     22  C   UNL     1       0.780  -1.284  -0.055  1.00  0.00     0.231 C 
ATOM     23  C   UNL     1       0.900   0.205  -0.320  1.00  0.00     0.049 C 
ENDBRANCH  21  22
ENDBRANCH  16  21
ENDBRANCH  14  15
ENDBRANCH   8  14
ENDBRANCH   4   7
ENDBRANCH   2   3
ENDBRANCH   1   2
BRANCH   1  24
ATOM     24  C   UNL     1       0.777  -2.285   8.966  1.00  0.00     0.023 C 
BRANCH  24  25
ATOM     25  C   UNL     1       0.202  -3.651   9.307  1.00  0.00     0.116 C 
BRANCH  25  26
ATOM     26  N   UNL     1       0.683  -4.728   8.451  1.00  0.00    -0.352 N 
ATOM     27  C   UNL     1       0.983  -6.022   8.815  1.00  0.00     0.251 C 
ATOM     28  H   UNL     1       0.808  -4.504   7.500  1.00  0.00     0.163 HD
ATOM     29  O   UNL     1       1.475  -6.801   8.006  1.00  0.00    -0.269 OA
BRANCH  27  30
ATOM     30  C   UNL     1       0.748  -6.425  10.216  1.00  0.00     0.039 A 
ATOM     31  C   UNL     1       1.794  -6.991  10.944  1.00  0.00     0.014 A 
ATOM     32  C   UNL     1      -0.468  -6.122  10.835  1.00  0.00     0.014 A 
ATOM     33  C   UNL     1       1.644  -7.182  12.318  1.00  0.00     0.010 A 
ATOM     34  C   UNL     1      -0.573  -6.210  12.216  1.00  0.00     0.010 A 
ATOM     35  C   UNL     1       0.479  -6.748  12.973  1.00  0.00    -0.014 A 
BRANCH  35  36
ATOM     36  C   UNL     1       0.335  -6.862  14.448  1.00  0.00     0.031 A 
ATOM     37  C   UNL     1      -0.777  -7.695  15.027  1.00  0.00     0.074 A 
ATOM     38  C   UNL     1       1.166  -6.178  15.260  1.00  0.00     0.049 A 
ATOM     39  N   UNL     1      -1.108  -7.880  16.278  1.00  0.00    -0.248 NA
ATOM     40  C   UNL     1      -1.655  -8.384  14.067  1.00  0.00     0.031 C 
ATOM     41  C   UNL     1       2.250  -5.298  14.816  1.00  0.00     0.029 A 
ATOM     42  N   UNL     1       1.231  -6.112  16.630  1.00  0.00    -0.354 N 
ATOM     43  C   UNL     1      -2.236  -8.694  16.255  1.00  0.00     0.074 A 
ATOM     44  C   UNL     1      -2.577  -8.900  14.864  1.00  0.00     0.031 C 
ATOM     45  C   UNL     1       2.895  -4.816  15.890  1.00  0.00     0.029 A 
ATOM     46  C   UNL     1       2.242  -5.305  17.099  1.00  0.00     0.049 A 
ATOM     47  H   UNL     1       0.612  -6.598  17.221  1.00  0.00     0.167 HD
ATOM     48  C   UNL     1      -2.906  -9.246  17.296  1.00  0.00     0.034 A 
ATOM     49  C   UNL     1       2.596  -4.988  18.361  1.00  0.00     0.034 A 
ATOM     50  C   UNL     1      -2.543  -9.039  18.676  1.00  0.00     0.049 A 
ATOM     51  C   UNL     1       1.816  -5.590  19.504  1.00  0.00     0.074 A 
ATOM     52  C   UNL     1      -3.118  -9.587  19.808  1.00  0.00     0.029 A 
ATOM     53  N   UNL     1      -1.518  -8.209  19.114  1.00  0.00    -0.354 N 
ATOM     54  N   UNL     1       0.787  -6.406  19.465  1.00  0.00    -0.248 NA
ATOM     55  C   UNL     1       2.255  -5.240  20.860  1.00  0.00     0.031 C 
ATOM     56  C   UNL     1      -2.497  -9.028  20.929  1.00  0.00     0.029 A 
ATOM     57  C   UNL     1      -1.469  -8.204  20.500  1.00  0.00     0.049 A 
ATOM     58  H   UNL     1      -0.915  -7.699  18.526  1.00  0.00     0.167 HD
ATOM     59  C   UNL     1       0.479  -6.692  20.792  1.00  0.00     0.074 A 
ATOM     60  C   UNL     1       1.444  -5.978  21.603  1.00  0.00     0.031 C 
ATOM     61  C   UNL     1      -0.507  -7.478  21.297  1.00  0.00     0.034 A 
BRANCH  48  62
ATOM     62  C   UNL     1      -4.108 -10.103  16.973  1.00  0.00     0.023 A 
ATOM     63  C   UNL     1      -3.997 -11.277  16.206  1.00  0.00     0.031 A 
ATOM     64  C   UNL     1      -5.389  -9.728  17.414  1.00  0.00     0.131 A 
ATOM     65  C   UNL     1      -5.150 -11.985  15.835  1.00  0.00     0.055 A 
ATOM     66  C   UNL     1      -6.522 -10.488  17.119  1.00  0.00     0.041 A 
ATOM     67  F   UNL     1      -5.565  -8.605  18.128  1.00  0.00    -0.206 F 
ATOM     68  C   UNL     1      -6.409 -11.616  16.312  1.00  0.00     0.022 A 
BRANCH  65  69
ATOM     69  S   UNL     1      -4.997 -13.300  14.595  1.00  0.00     0.124 S 
ATOM     70  O   UNL     1      -4.429 -12.571  13.462  1.00  0.00    -0.237 OA
ATOM     71  O   UNL     1      -4.109 -14.252  15.251  1.00  0.00    -0.237 OA
ATOM     72  O   UNL     1      -6.373 -13.754  14.406  1.00  0.00    -0.744 OA
ENDBRANCH  65  69
ENDBRANCH  48  62
BRANCH  49  73
ATOM     73  C   UNL     1       3.731  -4.053  18.622  1.00  0.00     0.023 A 
ATOM     74  C   UNL     1       4.875  -4.476  19.318  1.00  0.00     0.031 A 
ATOM     75  C   UNL     1       3.667  -2.706  18.223  1.00  0.00     0.131 A 
ATOM     76  C   UNL     1       5.880  -3.552  19.643  1.00  0.00     0.055 A 
ATOM     77  C   UNL     1       4.698  -1.804  18.494  1.00  0.00     0.041 A 
ATOM     78  F   UNL     1       2.597  -2.246  17.554  1.00  0.00    -0.206 F 
ATOM     79  C   UNL     1       5.807  -2.223  19.222  1.00  0.00     0.022 A 
BRANCH  76  80
ATOM     80  S   UNL     1       7.241  -4.089  20.717  1.00  0.00     0.124 S 
ATOM     81  O   UNL     1       6.521  -4.544  21.901  1.00  0.00    -0.237 OA
ATOM     82  O   UNL     1       7.872  -5.128  19.910  1.00  0.00    -0.237 OA
ATOM     83  O   UNL     1       8.033  -2.874  20.896  1.00  0.00    -0.744 OA
ENDBRANCH  76  80
ENDBRANCH  49  73
BRANCH  61  84
ATOM     84  C   UNL     1      -0.555  -7.643  22.798  1.00  0.00     0.023 A 
ATOM     85  C   UNL     1      -0.816  -6.562  23.657  1.00  0.00     0.031 A 
ATOM     86  C   UNL     1      -0.317  -8.903  23.377  1.00  0.00     0.131 A 
ATOM     87  C   UNL     1      -0.763  -6.745  25.047  1.00  0.00     0.055 A 
ATOM     88  C   UNL     1      -0.341  -9.095  24.759  1.00  0.00     0.041 A 
ATOM     89  F   UNL     1      -0.058  -9.972  22.607  1.00  0.00    -0.206 F 
ATOM     90  C   UNL     1      -0.547  -8.009  25.603  1.00  0.00     0.022 A 
BRANCH  87  91
ATOM     91  S   UNL     1      -0.859  -5.286  26.121  1.00  0.00     0.124 S 
ATOM     92  O   UNL     1       0.250  -4.475  25.629  1.00  0.00    -0.237 OA
ATOM     93  O   UNL     1      -2.196  -4.777  25.836  1.00  0.00    -0.237 OA
ATOM     94  O   UNL     1      -0.678  -5.836  27.463  1.00  0.00    -0.744 OA
ENDBRANCH  87  91
ENDBRANCH  61  84
ENDBRANCH  35  36
ENDBRANCH  27  30
ENDBRANCH  25  26
ENDBRANCH  24  25
ENDBRANCH   1  24
TORSDOF 18
