REMARK SMILES C[C@H]1OCC[C@@H]1C(=O)Nc1ccc(Cl)c(C(=O)NCCCCNC(=O)c2ccc(-c3c4nc(c(-c5cc(S(=O)(=O)[O-])ccc5F)c5ccc([nH]5)c(-c5cc(S(=O)(=O)[O-])ccc5F)c5nc(c(-c6cc(S(=O)(=O)[O-])ccc6F)c6ccc3[nH]6)C=C5)C=C4)cc2)c1
REMARK SMILES IDX 21 1 20 2 19 3 18 4 16 5 17 6 15 8 10 9 11 10 89 11 12 12
REMARK SMILES IDX 13 13 14 14 9 15 7 16 8 17 6 19 1 20 2 21 3 22 4 23 5 24
REMARK SMILES IDX 22 25 23 26 24 27 25 29 26 30 27 31 88 32 28 33 87 34 29 35
REMARK SMILES IDX 30 36 31 37 81 38 32 39 86 40 80 41 82 42 33 43 85 44 79 45
REMARK SMILES IDX 78 46 34 48 66 49 46 50 65 51 47 52 50 53 64 54 83 55 48 56
REMARK SMILES IDX 49 57 63 59 84 60 51 61 35 62 36 63 44 64 37 65 43 66 45 67
REMARK SMILES IDX 42 68 38 69 39 70 40 71 41 72 67 73 68 74 76 75 69 76 75 77
REMARK SMILES IDX 77 78 74 79 70 80 71 81 72 82 73 83 52 84 53 85 61 86 54 87
REMARK SMILES IDX 60 88 62 89 59 90 55 91 56 92 57 93 58 94
REMARK H PARENT 18 7 9 18 23 28 82 47 50 58
REMARK Flexibility Score: inf
ROOT
ATOM      1  C   UNL     1      -2.606   4.697   7.898  1.00  0.00     0.023 C 
ENDROOT
BRANCH   1   2
ATOM      2  C   UNL     1      -3.173   3.695   6.898  1.00  0.00     0.023 C 
BRANCH   2   3
ATOM      3  C   UNL     1      -2.299   3.371   5.698  1.00  0.00     0.116 C 
BRANCH   3   4
ATOM      4  N   UNL     1      -1.013   2.760   5.984  1.00  0.00    -0.352 N 
ATOM      5  C   UNL     1      -0.285   1.863   5.228  1.00  0.00     0.252 C 
ATOM      6  O   UNL     1       0.831   1.517   5.612  1.00  0.00    -0.269 OA
ATOM      7  H   UNL     1      -0.602   3.023   6.839  1.00  0.00     0.163 HD
BRANCH   5   8
ATOM      8  C   UNL     1      -0.869   1.198   4.035  1.00  0.00     0.060 A 
ATOM      9  C   UNL     1      -1.181  -0.867   2.816  1.00  0.00     0.042 A 
ATOM     10  C   UNL     1      -2.205  -0.274   2.093  1.00  0.00     0.028 A 
ATOM     11  C   UNL     1      -0.620  -0.181   3.891  1.00  0.00     0.041 A 
ATOM     12  C   UNL     1      -2.398   1.097   2.177  1.00  0.00     0.023 A 
ATOM     13  C   UNL     1      -1.612   1.848   3.046  1.00  0.00     0.053 A 
ATOM     14  Cl  UNL     1      -1.481   3.534   2.693  1.00  0.00    -0.083 Cl
BRANCH   9  15
ATOM     15  N   UNL     1      -0.686  -2.120   2.450  1.00  0.00    -0.326 N 
ATOM     16  C   UNL     1      -0.263  -2.545   1.216  1.00  0.00     0.230 C 
ATOM     17  O   UNL     1      -0.037  -3.756   1.084  1.00  0.00    -0.274 OA
ATOM     18  H   UNL     1      -0.633  -2.787   3.172  1.00  0.00     0.169 HD
BRANCH  16  19
ATOM     19  C   UNL     1       0.045  -1.609   0.028  1.00  0.00     0.110 C 
ATOM     20  C   UNL     1       2.080  -0.163  -0.467  1.00  0.00     0.039 C 
ATOM     21  C   UNL     1       0.827  -0.346   0.385  1.00  0.00     0.127 C 
ATOM     22  O   UNL     1      -0.043   0.764   0.118  1.00  0.00    -0.378 OA
ATOM     23  C   UNL     1      -0.979   0.372  -0.886  1.00  0.00     0.161 C 
ATOM     24  C   UNL     1      -1.128  -1.136  -0.806  1.00  0.00     0.044 C 
ENDBRANCH  16  19
ENDBRANCH   9  15
ENDBRANCH   5   8
ENDBRANCH   3   4
ENDBRANCH   2   3
ENDBRANCH   1   2
BRANCH   1  25
ATOM     25  C   UNL     1      -1.940   5.944   7.322  1.00  0.00     0.116 C 
BRANCH  25  26
ATOM     26  N   UNL     1      -2.804   6.747   6.465  1.00  0.00    -0.352 N 
ATOM     27  C   UNL     1      -3.220   8.053   6.597  1.00  0.00     0.251 C 
ATOM     28  H   UNL     1      -3.144   6.282   5.667  1.00  0.00     0.163 HD
ATOM     29  O   UNL     1      -4.006   8.528   5.779  1.00  0.00    -0.269 OA
BRANCH  27  30
ATOM     30  C   UNL     1      -2.771   8.862   7.751  1.00  0.00     0.039 A 
ATOM     31  C   UNL     1      -3.729   9.536   8.512  1.00  0.00     0.014 A 
ATOM     32  C   UNL     1      -1.425   8.906   8.120  1.00  0.00     0.014 A 
ATOM     33  C   UNL     1      -3.356  10.142   9.715  1.00  0.00     0.010 A 
ATOM     34  C   UNL     1      -1.070   9.435   9.358  1.00  0.00     0.010 A 
ATOM     35  C   UNL     1      -2.036  10.032  10.183  1.00  0.00    -0.014 A 
BRANCH  35  36
ATOM     36  C   UNL     1      -1.653  10.478  11.549  1.00  0.00     0.031 A 
ATOM     37  C   UNL     1      -0.614  11.548  11.733  1.00  0.00     0.074 A 
ATOM     38  C   UNL     1      -2.167   9.843  12.623  1.00  0.00     0.049 A 
ATOM     39  N   UNL     1      -0.047  11.972  12.834  1.00  0.00    -0.248 NA
ATOM     40  C   UNL     1      -0.124  12.203  10.512  1.00  0.00     0.031 C 
ATOM     41  C   UNL     1      -3.150   8.757  12.575  1.00  0.00     0.029 A 
ATOM     42  N   UNL     1      -1.921  10.002  13.965  1.00  0.00    -0.354 N 
ATOM     43  C   UNL     1       0.880  12.930  12.438  1.00  0.00     0.074 A 
ATOM     44  C   UNL     1       0.835  12.981  10.991  1.00  0.00     0.031 C 
ATOM     45  C   UNL     1      -3.433   8.362  13.827  1.00  0.00     0.029 A 
ATOM     46  C   UNL     1      -2.617   9.124  14.765  1.00  0.00     0.049 A 
ATOM     47  H   UNL     1      -1.304  10.681  14.322  1.00  0.00     0.167 HD
ATOM     48  C   UNL     1       1.679  13.707  13.211  1.00  0.00     0.034 A 
ATOM     49  C   UNL     1      -2.585   8.935  16.099  1.00  0.00     0.034 A 
ATOM     50  C   UNL     1       1.700  13.654  14.653  1.00  0.00     0.049 A 
ATOM     51  C   UNL     1      -1.667   9.789  16.935  1.00  0.00     0.074 A 
ATOM     52  C   UNL     1       2.416  14.446  15.534  1.00  0.00     0.029 A 
ATOM     53  N   UNL     1       0.981  12.752  15.427  1.00  0.00    -0.354 N 
ATOM     54  N   UNL     1      -0.834  10.727  16.548  1.00  0.00    -0.248 NA
ATOM     55  C   UNL     1      -1.685   9.559  18.385  1.00  0.00     0.031 C 
ATOM     56  C   UNL     1       2.180  13.983  16.833  1.00  0.00     0.029 A 
ATOM     57  C   UNL     1       1.263  12.945  16.771  1.00  0.00     0.049 A 
ATOM     58  H   UNL     1       0.361  12.074  15.073  1.00  0.00     0.167 HD
ATOM     59  C   UNL     1      -0.247  11.215  17.712  1.00  0.00     0.074 A 
ATOM     60  C   UNL     1      -0.830  10.477  18.813  1.00  0.00     0.031 C 
ATOM     61  C   UNL     1       0.687  12.189  17.857  1.00  0.00     0.034 A 
BRANCH  48  62
ATOM     62  C   UNL     1       2.611  14.661  12.503  1.00  0.00     0.023 A 
ATOM     63  C   UNL     1       2.124  15.712  11.707  1.00  0.00     0.031 A 
ATOM     64  C   UNL     1       4.004  14.502  12.602  1.00  0.00     0.131 A 
ATOM     65  C   UNL     1       3.017  16.511  10.979  1.00  0.00     0.055 A 
ATOM     66  C   UNL     1       4.891  15.352  11.939  1.00  0.00     0.041 A 
ATOM     67  F   UNL     1       4.528  13.505  13.334  1.00  0.00    -0.206 F 
ATOM     68  C   UNL     1       4.399  16.355  11.108  1.00  0.00     0.022 A 
BRANCH  65  69
ATOM     69  S   UNL     1       2.343  17.663   9.751  1.00  0.00     0.124 S 
ATOM     70  O   UNL     1       1.613  16.757   8.867  1.00  0.00    -0.237 OA
ATOM     71  O   UNL     1       1.527  18.553  10.568  1.00  0.00    -0.237 OA
ATOM     72  O   UNL     1       3.533  18.272   9.161  1.00  0.00    -0.744 OA
ENDBRANCH  65  69
ENDBRANCH  48  62
BRANCH  49  73
ATOM     73  C   UNL     1      -3.427   7.881  16.733  1.00  0.00     0.023 A 
ATOM     74  C   UNL     1      -4.468   8.219  17.612  1.00  0.00     0.031 A 
ATOM     75  C   UNL     1      -3.177   6.516  16.500  1.00  0.00     0.131 A 
ATOM     76  C   UNL     1      -5.195   7.207  18.258  1.00  0.00     0.055 A 
ATOM     77  C   UNL     1      -3.935   5.514  17.107  1.00  0.00     0.041 A 
ATOM     78  F   UNL     1      -2.197   6.139  15.664  1.00  0.00    -0.206 F 
ATOM     79  C   UNL     1      -4.943   5.857  18.002  1.00  0.00     0.022 A 
BRANCH  76  80
ATOM     80  S   UNL     1      -6.429   7.682  19.499  1.00  0.00     0.124 S 
ATOM     81  O   UNL     1      -5.619   8.431  20.453  1.00  0.00    -0.237 OA
ATOM     82  O   UNL     1      -7.372   8.462  18.705  1.00  0.00    -0.237 OA
ATOM     83  O   UNL     1      -6.936   6.399  19.982  1.00  0.00    -0.744 OA
ENDBRANCH  76  80
ENDBRANCH  49  73
BRANCH  61  84
ATOM     84  C   UNL     1       1.105  12.531  19.265  1.00  0.00     0.023 A 
ATOM     85  C   UNL     1       1.856  11.639  20.049  1.00  0.00     0.031 A 
ATOM     86  C   UNL     1       0.741  13.766  19.829  1.00  0.00     0.131 A 
ATOM     87  C   UNL     1       2.183  11.976  21.371  1.00  0.00     0.055 A 
ATOM     88  C   UNL     1       1.114  14.119  21.127  1.00  0.00     0.041 A 
ATOM     89  F   UNL     1       0.020  14.653  19.124  1.00  0.00    -0.206 F 
ATOM     90  C   UNL     1       1.831  13.217  21.909  1.00  0.00     0.022 A 
BRANCH  87  91
ATOM     91  S   UNL     1       3.018  10.743  22.406  1.00  0.00     0.124 S 
ATOM     92  O   UNL     1       2.043   9.658  22.431  1.00  0.00    -0.237 OA
ATOM     93  O   UNL     1       4.243  10.482  21.656  1.00  0.00    -0.237 OA
ATOM     94  O   UNL     1       3.209  11.436  23.679  1.00  0.00    -0.744 OA
ENDBRANCH  87  91
ENDBRANCH  61  84
ENDBRANCH  35  36
ENDBRANCH  27  30
ENDBRANCH  25  26
ENDBRANCH   1  25
TORSDOF 16
