REMARK SMILES COc1cccc(-c2ccc(=O)n(CC(=O)N[C@@H](C(=O)NCCCCNC(=O)c3ccc(-c4c5nc(c(-c6cc(S(=O)(=O)[O-])ccc6F)c6ccc([nH]6)c(-c6cc(S(=O)(=O)[O-])ccc6F)c6nc(c(-c7cc(S(=O)(=O)[O-])ccc7F)c7ccc4[nH]7)C=C6)C=C5)cc3)C(C)C)n2)c1
REMARK SMILES IDX 22 1 21 2 19 3 20 4 18 6 17 7 15 8 16 9 14 11 13 12 8 13
REMARK SMILES IDX 9 14 95 15 10 16 11 17 12 18 7 19 3 20 4 21 96 22 5 23 6 24
REMARK SMILES IDX 2 25 1 26 92 27 93 28 94 29 23 30 24 31 25 32 26 33 27 34
REMARK SMILES IDX 28 36 29 37 30 38 91 39 31 40 90 41 32 42 33 43 34 44 84 45
REMARK SMILES IDX 35 46 89 47 83 48 85 49 36 50 88 51 82 52 81 53 37 55 69 56
REMARK SMILES IDX 49 57 68 58 50 59 53 60 67 61 86 62 51 63 52 64 66 66 87 67
REMARK SMILES IDX 54 68 38 69 39 70 47 71 40 72 46 73 48 74 45 75 41 76 42 77
REMARK SMILES IDX 43 78 44 79 70 80 71 81 79 82 72 83 78 84 80 85 77 86 73 87
REMARK SMILES IDX 74 88 75 89 76 90 55 91 56 92 64 93 57 94 63 95 65 96 62 97
REMARK SMILES IDX 58 98 59 99 60 100 61 101
REMARK H PARENT 21 5 17 10 26 35 85 54 53 65
REMARK Flexibility Score: inf
ROOT
ATOM      1  C   UNL     1       6.282   5.788  -3.427  1.00  0.00     0.116 C 
ENDROOT
BRANCH   1   2
ATOM      2  N   UNL     1       5.766   6.131  -4.732  1.00  0.00    -0.354 N 
ATOM      3  C   UNL     1       5.470   5.299  -5.779  1.00  0.00     0.242 C 
ATOM      4  O   UNL     1       4.890   5.807  -6.742  1.00  0.00    -0.273 OA
ATOM      5  H   UNL     1       5.606   7.089  -4.889  1.00  0.00     0.163 HD
BRANCH   3   6
ATOM      6  C   UNL     1       5.772   3.766  -5.694  1.00  0.00     0.173 C 
BRANCH   6   7
ATOM      7  N   UNL     1       7.202   3.582  -5.418  1.00  0.00    -0.342 N 
ATOM      8  C   UNL     1       7.848   2.758  -4.540  1.00  0.00     0.242 C 
ATOM      9  O   UNL     1       9.082   2.743  -4.611  1.00  0.00    -0.273 OA
ATOM     10  H   UNL     1       7.798   4.150  -5.958  1.00  0.00     0.164 HD
BRANCH   8  11
ATOM     11  C   UNL     1       7.105   1.790  -3.605  1.00  0.00     0.248 C 
BRANCH  11  12
ATOM     12  N   UNL     1       6.234   2.408  -2.608  1.00  0.00    -0.220 N 
ATOM     13  C   UNL     1       4.091   2.845  -1.950  1.00  0.00     0.091 A 
ATOM     14  C   UNL     1       4.526   3.593  -0.757  1.00  0.00     0.036 A 
ATOM     15  N   UNL     1       4.876   2.288  -2.814  1.00  0.00    -0.169 NA
ATOM     16  C   UNL     1       5.840   3.624  -0.532  1.00  0.00     0.075 A 
ATOM     17  C   UNL     1       6.792   2.994  -1.476  1.00  0.00     0.267 A 
ATOM     18  O   UNL     1       7.994   3.077  -1.251  1.00  0.00    -0.268 OA
BRANCH  13  19
ATOM     19  C   UNL     1       2.638   2.700  -2.108  1.00  0.00     0.006 A 
ATOM     20  C   UNL     1       0.662   1.403  -1.653  1.00  0.00     0.119 A 
ATOM     21  C   UNL     1      -0.083   2.311  -2.411  1.00  0.00     0.046 A 
ATOM     22  C   UNL     1       2.035   1.586  -1.519  1.00  0.00     0.056 A 
ATOM     23  C   UNL     1       0.531   3.420  -3.004  1.00  0.00     0.005 A 
ATOM     24  C   UNL     1       1.902   3.621  -2.853  1.00  0.00     0.011 A 
BRANCH  20  25
ATOM     25  O   UNL     1      -0.035   0.355  -1.118  1.00  0.00    -0.497 OA
ATOM     26  C   UNL     1       0.502  -0.166   0.096  1.00  0.00     0.278 C 
ENDBRANCH  20  25
ENDBRANCH  13  19
ENDBRANCH  11  12
ENDBRANCH   8  11
ENDBRANCH   6   7
BRANCH   6  27
ATOM     27  C   UNL     1       5.341   3.046  -7.006  1.00  0.00     0.015 C 
ATOM     28  C   UNL     1       5.998   1.677  -7.214  1.00  0.00     0.010 C 
ATOM     29  C   UNL     1       3.816   2.861  -7.045  1.00  0.00     0.010 C 
ENDBRANCH   6  27
ENDBRANCH   3   6
ENDBRANCH   1   2
BRANCH   1  30
ATOM     30  C   UNL     1       7.570   6.523  -3.075  1.00  0.00     0.023 C 
BRANCH  30  31
ATOM     31  C   UNL     1       7.356   7.891  -2.430  1.00  0.00     0.023 C 
BRANCH  31  32
ATOM     32  C   UNL     1       6.588   7.884  -1.108  1.00  0.00     0.116 C 
BRANCH  32  33
ATOM     33  N   UNL     1       7.196   7.072  -0.066  1.00  0.00    -0.352 N 
ATOM     34  C   UNL     1       7.195   7.293   1.297  1.00  0.00     0.251 C 
ATOM     35  H   UNL     1       7.667   6.263  -0.370  1.00  0.00     0.163 HD
ATOM     36  O   UNL     1       7.768   6.522   2.050  1.00  0.00    -0.269 OA
BRANCH  34  37
ATOM     37  C   UNL     1       6.531   8.507   1.825  1.00  0.00     0.039 A 
ATOM     38  C   UNL     1       7.275   9.387   2.614  1.00  0.00     0.014 A 
ATOM     39  C   UNL     1       5.212   8.810   1.477  1.00  0.00     0.014 A 
ATOM     40  C   UNL     1       6.726  10.620   2.976  1.00  0.00     0.010 A 
ATOM     41  C   UNL     1       4.691  10.065   1.785  1.00  0.00     0.010 A 
ATOM     42  C   UNL     1       5.450  10.990   2.520  1.00  0.00    -0.014 A 
BRANCH  42  43
ATOM     43  C   UNL     1       4.916  12.357   2.761  1.00  0.00     0.031 A 
ATOM     44  C   UNL     1       3.691  12.559   3.608  1.00  0.00     0.074 A 
ATOM     45  C   UNL     1       5.493  13.410   2.147  1.00  0.00     0.049 A 
ATOM     46  N   UNL     1       3.044  13.664   3.878  1.00  0.00    -0.248 NA
ATOM     47  C   UNL     1       3.097  11.352   4.199  1.00  0.00     0.031 C 
ATOM     48  C   UNL     1       6.649  13.335   1.250  1.00  0.00     0.029 A 
ATOM     49  N   UNL     1       5.180  14.746   2.171  1.00  0.00    -0.354 N 
ATOM     50  C   UNL     1       1.960  13.287   4.663  1.00  0.00     0.074 A 
ATOM     51  C   UNL     1       2.006  11.843   4.769  1.00  0.00     0.031 C 
ATOM     52  C   UNL     1       6.958  14.570   0.826  1.00  0.00     0.029 A 
ATOM     53  C   UNL     1       6.004  15.521   1.387  1.00  0.00     0.049 A 
ATOM     54  H   UNL     1       4.436  15.115   2.699  1.00  0.00     0.167 HD
ATOM     55  C   UNL     1       1.026  14.073   5.256  1.00  0.00     0.034 A 
ATOM     56  C   UNL     1       5.989  16.846   1.140  1.00  0.00     0.034 A 
ATOM     57  C   UNL     1       1.001  15.513   5.147  1.00  0.00     0.049 A 
ATOM     58  C   UNL     1       4.944  17.701   1.809  1.00  0.00     0.074 A 
ATOM     59  C   UNL     1       0.148  16.410   5.765  1.00  0.00     0.029 A 
ATOM     60  N   UNL     1       1.861  16.267   4.357  1.00  0.00    -0.354 N 
ATOM     61  N   UNL     1       3.967  17.337   2.607  1.00  0.00    -0.248 NA
ATOM     62  C   UNL     1       5.010  19.145   1.554  1.00  0.00     0.031 C 
ATOM     63  C   UNL     1       0.449  17.696   5.301  1.00  0.00     0.029 A 
ATOM     64  C   UNL     1       1.536  17.613   4.447  1.00  0.00     0.049 A 
ATOM     65  H   UNL     1       2.595  15.899   3.813  1.00  0.00     0.167 HD
ATOM     66  C   UNL     1       3.316  18.513   2.967  1.00  0.00     0.074 A 
ATOM     67  C   UNL     1       4.022  19.596   2.313  1.00  0.00     0.031 C 
ATOM     68  C   UNL     1       2.234  18.682   3.770  1.00  0.00     0.034 A 
BRANCH  55  69
ATOM     69  C   UNL     1      -0.056  13.380   6.051  1.00  0.00     0.023 A 
ATOM     70  C   UNL     1       0.244  12.605   7.186  1.00  0.00     0.031 A 
ATOM     71  C   UNL     1      -1.400  13.460   5.648  1.00  0.00     0.131 A 
ATOM     72  C   UNL     1      -0.768  11.871   7.821  1.00  0.00     0.055 A 
ATOM     73  C   UNL     1      -2.417  12.796   6.338  1.00  0.00     0.041 A 
ATOM     74  F   UNL     1      -1.748  14.168   4.562  1.00  0.00    -0.206 F 
ATOM     75  C   UNL     1      -2.101  11.980   7.421  1.00  0.00     0.022 A 
BRANCH  72  76
ATOM     76  S   UNL     1      -0.291  10.646   9.072  1.00  0.00     0.124 S 
ATOM     77  O   UNL     1       0.613   9.786   8.312  1.00  0.00    -0.237 OA
ATOM     78  O   UNL     1       0.328  11.472  10.102  1.00  0.00    -0.237 OA
ATOM     79  O   UNL     1      -1.561  10.027   9.446  1.00  0.00    -0.744 OA
ENDBRANCH  72  76
ENDBRANCH  55  69
BRANCH  56  80
ATOM     80  C   UNL     1       6.988  17.448   0.214  1.00  0.00     0.023 A 
ATOM     81  C   UNL     1       7.974  18.329   0.685  1.00  0.00     0.031 A 
ATOM     82  C   UNL     1       6.955  17.168  -1.164  1.00  0.00     0.131 A 
ATOM     83  C   UNL     1       8.863  18.930  -0.219  1.00  0.00     0.055 A 
ATOM     84  C   UNL     1       7.870  17.733  -2.053  1.00  0.00     0.041 A 
ATOM     85  F   UNL     1       6.038  16.323  -1.662  1.00  0.00    -0.206 F 
ATOM     86  C   UNL     1       8.826  18.629  -1.583  1.00  0.00     0.022 A 
BRANCH  83  87
ATOM     87  S   UNL     1      10.037  20.164   0.407  1.00  0.00     0.124 S 
ATOM     88  O   UNL     1       9.141  21.168   0.968  1.00  0.00    -0.237 OA
ATOM     89  O   UNL     1      10.810  19.385   1.368  1.00  0.00    -0.237 OA
ATOM     90  O   UNL     1      10.767  20.576  -0.790  1.00  0.00    -0.744 OA
ENDBRANCH  83  87
ENDBRANCH  56  80
BRANCH  68  91
ATOM     91  C   UNL     1       1.774  20.100   4.004  1.00  0.00     0.023 A 
ATOM     92  C   UNL     1       1.219  20.876   2.971  1.00  0.00     0.031 A 
ATOM     93  C   UNL     1       1.913  20.690   5.273  1.00  0.00     0.131 A 
ATOM     94  C   UNL     1       0.875  22.215   3.210  1.00  0.00     0.055 A 
ATOM     95  C   UNL     1       1.516  22.004   5.520  1.00  0.00     0.041 A 
ATOM     96  F   UNL     1       2.439  19.995   6.294  1.00  0.00    -0.206 F 
ATOM     97  C   UNL     1       1.005  22.779   4.482  1.00  0.00     0.022 A 
BRANCH  94  98
ATOM     98  S   UNL     1       0.337  23.240   1.813  1.00  0.00     0.124 S 
ATOM     99  O   UNL     1       1.483  23.152   0.914  1.00  0.00    -0.237 OA
ATOM    100  O   UNL     1      -0.873  22.556   1.372  1.00  0.00    -0.237 OA
ATOM    101  O   UNL     1       0.121  24.554   2.415  1.00  0.00    -0.744 OA
ENDBRANCH  94  98
ENDBRANCH  68  91
ENDBRANCH  42  43
ENDBRANCH  34  37
ENDBRANCH  32  33
ENDBRANCH  31  32
ENDBRANCH  30  31
ENDBRANCH   1  30
TORSDOF 20
