REMARK SMILES COc1cc(/C=N/NC(=O)c2cccnc2)ccc1OCC(=O)NCCCCNC(=O)c1ccc(-c2c3nc(c(-c4cc(S(=O)(=O)[O-])ccc4F)c4ccc([nH]4)c(-c4cc(S(=O)(=O)[O-])ccc4F)c4nc(c(-c5cc(S(=O)(=O)[O-])ccc5F)c5ccc2[nH]5)C=C4)C=C3)cc1
REMARK SMILES IDX 25 1 24 2 22 3 23 4 21 6 20 7 19 8 3 9 4 10 5 11 18 12 17 13
REMARK SMILES IDX 2 14 1 15 6 16 7 17 8 18 9 19 10 21 11 22 12 23 16 24 13 25
REMARK SMILES IDX 15 26 14 27 26 28 27 29 28 30 29 31 30 32 31 34 32 35 33 36
REMARK SMILES IDX 94 37 34 38 93 39 35 40 36 41 37 42 87 43 38 44 92 45 86 46
REMARK SMILES IDX 88 47 39 48 91 49 85 50 84 51 40 53 72 54 52 55 71 56 53 57
REMARK SMILES IDX 56 58 70 59 89 60 54 61 55 62 69 64 90 65 57 66 41 67 42 68
REMARK SMILES IDX 50 69 43 70 49 71 51 72 48 73 44 74 45 75 46 76 47 77 73 78
REMARK SMILES IDX 74 79 82 80 75 81 81 82 83 83 80 84 76 85 77 86 78 87 79 88
REMARK SMILES IDX 58 89 59 90 67 91 60 92 66 93 68 94 65 95 61 96 62 97 63 98
REMARK SMILES IDX 64 99
REMARK H PARENT 24 5 8 20 29 33 88 52 56 63
REMARK Flexibility Score: inf
ROOT
ATOM      1  C   UNL     1       3.625   1.769   2.157  1.00  0.00     0.116 C 
ENDROOT
BRANCH   1   2
ATOM      2  N   UNL     1       2.534   0.832   1.997  1.00  0.00    -0.353 N 
ATOM      3  C   UNL     1       2.306  -0.037   0.969  1.00  0.00     0.257 C 
ATOM      4  O   UNL     1       1.475  -0.931   1.142  1.00  0.00    -0.271 OA
ATOM      5  H   UNL     1       1.870   0.818   2.724  1.00  0.00     0.163 HD
BRANCH   3   6
ATOM      6  C   UNL     1       3.127   0.067  -0.324  1.00  0.00     0.329 C 
BRANCH   6   7
ATOM      7  O   UNL     1       3.315   1.347  -0.902  1.00  0.00    -0.480 OA
BRANCH   7   8
ATOM      8  C   UNL     1       2.236   2.063  -1.341  1.00  0.00     0.161 A 
ATOM      9  C   UNL     1       0.984   1.586  -1.752  1.00  0.00     0.161 A 
ATOM     10  C   UNL     1       0.018   2.482  -2.236  1.00  0.00     0.060 A 
ATOM     11  C   UNL     1       0.285   3.853  -2.261  1.00  0.00    -0.002 A 
ATOM     12  C   UNL     1       2.490   3.442  -1.396  1.00  0.00     0.051 A 
ATOM     13  C   UNL     1       1.515   4.341  -1.827  1.00  0.00     0.014 A 
BRANCH   9  14
ATOM     14  O   UNL     1       0.742   0.241  -1.810  1.00  0.00    -0.493 OA
ATOM     15  C   UNL     1      -0.406  -0.148  -1.052  1.00  0.00     0.278 C 
ENDBRANCH   9  14
BRANCH  11  16
ATOM     16  C   UNL     1      -0.675   4.811  -2.838  1.00  0.00     0.141 C 
ATOM     17  N   UNL     1      -1.493   4.453  -3.776  1.00  0.00    -0.180 NA
BRANCH  17  18
ATOM     18  N   UNL     1      -2.243   5.422  -4.381  1.00  0.00    -0.243 N 
ATOM     19  C   UNL     1      -1.863   6.663  -4.868  1.00  0.00     0.272 C 
ATOM     20  H   UNL     1      -3.197   5.206  -4.489  1.00  0.00     0.194 HD
ATOM     21  O   UNL     1      -2.692   7.418  -5.373  1.00  0.00    -0.267 OA
BRANCH  19  22
ATOM     22  C   UNL     1      -0.461   7.112  -4.800  1.00  0.00     0.059 A 
ATOM     23  C   UNL     1       0.621   6.310  -5.164  1.00  0.00     0.017 A 
ATOM     24  C   UNL     1      -0.203   8.394  -4.334  1.00  0.00     0.124 A 
ATOM     25  C   UNL     1       1.915   6.791  -4.975  1.00  0.00     0.021 A 
ATOM     26  N   UNL     1       1.047   8.885  -4.144  1.00  0.00    -0.264 NA
ATOM     27  C   UNL     1       2.076   8.068  -4.458  1.00  0.00     0.111 A 
ENDBRANCH  19  22
ENDBRANCH  17  18
ENDBRANCH  11  16
ENDBRANCH   7   8
ENDBRANCH   6   7
ENDBRANCH   3   6
ENDBRANCH   1   2
BRANCH   1  28
ATOM     28  C   UNL     1       3.158   3.215   2.307  1.00  0.00     0.023 C 
BRANCH  28  29
ATOM     29  C   UNL     1       2.187   3.486   3.456  1.00  0.00     0.023 C 
BRANCH  29  30
ATOM     30  C   UNL     1       2.578   2.902   4.808  1.00  0.00     0.116 C 
BRANCH  30  31
ATOM     31  N   UNL     1       3.899   3.317   5.248  1.00  0.00    -0.352 N 
ATOM     32  C   UNL     1       4.295   3.825   6.462  1.00  0.00     0.251 C 
ATOM     33  H   UNL     1       4.615   3.221   4.579  1.00  0.00     0.163 HD
ATOM     34  O   UNL     1       5.444   4.234   6.600  1.00  0.00    -0.269 OA
BRANCH  32  35
ATOM     35  C   UNL     1       3.325   3.915   7.575  1.00  0.00     0.039 A 
ATOM     36  C   UNL     1       3.251   5.102   8.307  1.00  0.00     0.014 A 
ATOM     37  C   UNL     1       2.478   2.847   7.881  1.00  0.00     0.014 A 
ATOM     38  C   UNL     1       2.275   5.244   9.296  1.00  0.00     0.010 A 
ATOM     39  C   UNL     1       1.454   3.021   8.809  1.00  0.00     0.010 A 
ATOM     40  C   UNL     1       1.341   4.221   9.526  1.00  0.00    -0.014 A 
BRANCH  40  41
ATOM     41  C   UNL     1       0.243   4.388  10.514  1.00  0.00     0.031 A 
ATOM     42  C   UNL     1       0.169   3.495  11.722  1.00  0.00     0.074 A 
ATOM     43  C   UNL     1      -0.717   5.308  10.297  1.00  0.00     0.049 A 
ATOM     44  N   UNL     1      -0.735   3.450  12.667  1.00  0.00    -0.248 NA
ATOM     45  C   UNL     1       1.239   2.498  11.863  1.00  0.00     0.031 C 
ATOM     46  C   UNL     1      -0.773   6.215   9.149  1.00  0.00     0.029 A 
ATOM     47  N   UNL     1      -1.828   5.636  11.032  1.00  0.00    -0.354 N 
ATOM     48  C   UNL     1      -0.346   2.417  13.513  1.00  0.00     0.074 A 
ATOM     49  C   UNL     1       0.827   1.812  12.916  1.00  0.00     0.031 C 
ATOM     50  C   UNL     1      -1.836   7.025   9.281  1.00  0.00     0.029 A 
ATOM     51  C   UNL     1      -2.566   6.663  10.492  1.00  0.00     0.049 A 
ATOM     52  H   UNL     1      -2.075   5.178  11.868  1.00  0.00     0.167 HD
ATOM     53  C   UNL     1      -0.894   2.029  14.693  1.00  0.00     0.034 A 
ATOM     54  C   UNL     1      -3.702   7.245  10.921  1.00  0.00     0.034 A 
ATOM     55  C   UNL     1      -2.070   2.638  15.267  1.00  0.00     0.049 A 
ATOM     56  C   UNL     1      -4.338   6.753  12.196  1.00  0.00     0.074 A 
ATOM     57  C   UNL     1      -2.692   2.353  16.470  1.00  0.00     0.029 A 
ATOM     58  N   UNL     1      -2.816   3.648  14.669  1.00  0.00    -0.354 N 
ATOM     59  N   UNL     1      -3.934   5.806  13.011  1.00  0.00    -0.248 NA
ATOM     60  C   UNL     1      -5.581   7.415  12.610  1.00  0.00     0.031 C 
ATOM     61  C   UNL     1      -3.853   3.130  16.562  1.00  0.00     0.029 A 
ATOM     62  C   UNL     1      -3.911   3.968  15.459  1.00  0.00     0.049 A 
ATOM     63  H   UNL     1      -2.598   4.075  13.809  1.00  0.00     0.167 HD
ATOM     64  C   UNL     1      -4.856   5.785  14.054  1.00  0.00     0.074 A 
ATOM     65  C   UNL     1      -5.829   6.820  13.767  1.00  0.00     0.031 C 
ATOM     66  C   UNL     1      -4.889   4.989  15.155  1.00  0.00     0.034 A 
BRANCH  53  67
ATOM     67  C   UNL     1      -0.232   0.871  15.409  1.00  0.00     0.023 A 
ATOM     68  C   UNL     1       1.117   0.926  15.804  1.00  0.00     0.031 A 
ATOM     69  C   UNL     1      -0.929  -0.329  15.633  1.00  0.00     0.131 A 
ATOM     70  C   UNL     1       1.756  -0.226  16.287  1.00  0.00     0.055 A 
ATOM     71  C   UNL     1      -0.314  -1.441  16.215  1.00  0.00     0.041 A 
ATOM     72  F   UNL     1      -2.213  -0.455  15.263  1.00  0.00    -0.206 F 
ATOM     73  C   UNL     1       1.042  -1.402  16.522  1.00  0.00     0.022 A 
BRANCH  70  74
ATOM     74  S   UNL     1       3.567  -0.221  16.399  1.00  0.00     0.124 S 
ATOM     75  O   UNL     1       3.946   0.130  15.032  1.00  0.00    -0.237 OA
ATOM     76  O   UNL     1       3.818   0.796  17.413  1.00  0.00    -0.237 OA
ATOM     77  O   UNL     1       3.889  -1.591  16.793  1.00  0.00    -0.744 OA
ENDBRANCH  70  74
ENDBRANCH  53  67
BRANCH  54  78
ATOM     78  C   UNL     1      -4.308   8.370  10.154  1.00  0.00     0.023 A 
ATOM     79  C   UNL     1      -4.379   9.658  10.709  1.00  0.00     0.031 A 
ATOM     80  C   UNL     1      -4.844   8.175   8.869  1.00  0.00     0.131 A 
ATOM     81  C   UNL     1      -5.006  10.693   9.999  1.00  0.00     0.055 A 
ATOM     82  C   UNL     1      -5.421   9.220   8.145  1.00  0.00     0.041 A 
ATOM     83  F   UNL     1      -4.797   6.964   8.290  1.00  0.00    -0.206 F 
ATOM     84  C   UNL     1      -5.514  10.486   8.714  1.00  0.00     0.022 A 
BRANCH  81  85
ATOM     85  S   UNL     1      -5.207  12.302  10.809  1.00  0.00     0.124 S 
ATOM     86  O   UNL     1      -6.014  11.950  11.972  1.00  0.00    -0.237 OA
ATOM     87  O   UNL     1      -3.824  12.682  11.077  1.00  0.00    -0.237 OA
ATOM     88  O   UNL     1      -5.887  13.109   9.797  1.00  0.00    -0.744 OA
ENDBRANCH  81  85
ENDBRANCH  54  78
BRANCH  66  89
ATOM     89  C   UNL     1      -5.994   5.244  16.153  1.00  0.00     0.023 A 
ATOM     90  C   UNL     1      -7.347   5.029  15.837  1.00  0.00     0.031 A 
ATOM     91  C   UNL     1      -5.687   5.726  17.439  1.00  0.00     0.131 A 
ATOM     92  C   UNL     1      -8.344   5.351  16.770  1.00  0.00     0.055 A 
ATOM     93  C   UNL     1      -6.678   5.981  18.387  1.00  0.00     0.041 A 
ATOM     94  F   UNL     1      -4.413   5.956  17.796  1.00  0.00    -0.206 F 
ATOM     95  C   UNL     1      -8.017   5.808  18.050  1.00  0.00     0.022 A 
BRANCH  92  96
ATOM     96  S   UNL     1     -10.082   5.266  16.255  1.00  0.00     0.124 S 
ATOM     97  O   UNL     1     -10.107   6.182  15.120  1.00  0.00    -0.237 OA
ATOM     98  O   UNL     1     -10.243   3.851  15.936  1.00  0.00    -0.237 OA
ATOM     99  O   UNL     1     -10.813   5.721  17.436  1.00  0.00    -0.744 OA
ENDBRANCH  92  96
ENDBRANCH  66  89
ENDBRANCH  40  41
ENDBRANCH  32  35
ENDBRANCH  30  31
ENDBRANCH  29  30
ENDBRANCH  28  29
ENDBRANCH   1  28
TORSDOF 20
