REMARK SMILES Cc1ccc(O)c(C(=O)NCc2ccc(C(=O)NCCCCNC(=O)c3ccc(-c4c5nc(c(-c6cc(S(=O)(=O)[O-])ccc6F)c6ccc([nH]6)c(-c6cc(S(=O)(=O)[O-])ccc6F)c6nc(c(-c7cc(S(=O)(=O)[O-])ccc7F)c7ccc4[nH]7)C=C6)C=C5)cc3)o2)c1
REMARK SMILES IDX 20 1 19 2 18 3 16 4 17 5 15 7 12 8 13 9 89 10 14 11 11 12
REMARK SMILES IDX 10 13 8 14 9 15 7 17 1 18 2 19 3 20 90 21 4 22 5 23 6 24
REMARK SMILES IDX 21 26 22 27 23 28 24 29 25 31 26 32 27 33 88 34 28 35 87 36
REMARK SMILES IDX 29 37 30 38 31 39 81 40 32 41 86 42 80 43 82 44 33 45 85 46
REMARK SMILES IDX 79 47 78 48 34 50 66 51 46 52 65 53 47 54 50 55 64 56 83 57
REMARK SMILES IDX 48 58 49 59 63 61 84 62 51 63 35 64 36 65 44 66 37 67 43 68
REMARK SMILES IDX 45 69 42 70 38 71 39 72 40 73 41 74 67 75 68 76 76 77 69 78
REMARK SMILES IDX 75 79 77 80 74 81 70 82 71 83 72 84 73 85 52 86 53 87 61 88
REMARK SMILES IDX 54 89 60 90 62 91 59 92 55 93 56 94 57 95 58 96
REMARK H PARENT 18 6 10 16 6 25 23 30 82 49 50 60
REMARK Flexibility Score: inf
ROOT
ATOM      1  C   UNL     1       1.990  -6.440   6.409  1.00  0.00     0.023 C 
ENDROOT
BRANCH   1   2
ATOM      2  C   UNL     1       2.935  -6.780   5.258  1.00  0.00     0.116 C 
BRANCH   2   3
ATOM      3  N   UNL     1       2.279  -7.613   4.274  1.00  0.00    -0.349 N 
ATOM      4  C   UNL     1       1.714  -7.320   3.057  1.00  0.00     0.286 C 
ATOM      5  O   UNL     1       1.250  -8.287   2.442  1.00  0.00    -0.266 OA
ATOM      6  H   UNL     1       2.228  -8.564   4.522  1.00  0.00     0.163 HD
BRANCH   4   7
ATOM      7  C   UNL     1       1.678  -5.971   2.523  1.00  0.00     0.191 A 
ATOM      8  C   UNL     1       1.255  -4.533   0.880  1.00  0.00     0.124 A 
ATOM      9  C   UNL     1       1.723  -3.789   1.938  1.00  0.00     0.048 A 
ATOM     10  O   UNL     1       1.245  -5.850   1.222  1.00  0.00    -0.454 OA
ATOM     11  C   UNL     1       1.951  -4.699   2.997  1.00  0.00     0.056 A 
BRANCH   8  12
ATOM     12  C   UNL     1       0.721  -4.212  -0.466  1.00  0.00     0.191 C 
BRANCH  12  13
ATOM     13  N   UNL     1      -0.629  -3.713  -0.303  1.00  0.00    -0.345 N 
ATOM     14  C   UNL     1      -1.202  -2.483  -0.154  1.00  0.00     0.255 C 
ATOM     15  O   UNL     1      -2.433  -2.473  -0.027  1.00  0.00    -0.269 OA
ATOM     16  H   UNL     1      -1.296  -4.437  -0.299  1.00  0.00     0.164 HD
BRANCH  14  17
ATOM     17  C   UNL     1      -0.496  -1.163  -0.134  1.00  0.00     0.081 A 
ATOM     18  C   UNL     1       2.992   0.400   0.057  1.00  0.00     0.044 C 
ATOM     19  C   UNL     1       1.499   0.267  -0.028  1.00  0.00    -0.050 A 
ATOM     20  C   UNL     1       0.696   1.408  -0.031  1.00  0.00     0.007 A 
ATOM     21  C   UNL     1       0.894  -1.002  -0.090  1.00  0.00     0.021 A 
ATOM     22  C   UNL     1      -0.689   1.280  -0.078  1.00  0.00     0.047 A 
ATOM     23  C   UNL     1      -1.274   0.013  -0.119  1.00  0.00     0.128 A 
BRANCH  23  24
ATOM     24  O   UNL     1      -2.648   0.018  -0.134  1.00  0.00    -0.507 OA
ATOM     25  H   UNL     1      -3.114   0.831  -0.123  1.00  0.00     0.293 HD
ENDBRANCH  23  24
ENDBRANCH  14  17
ENDBRANCH  12  13
ENDBRANCH   8  12
ENDBRANCH   4   7
ENDBRANCH   2   3
ENDBRANCH   1   2
BRANCH   1  26
ATOM     26  C   UNL     1       1.824  -7.577   7.422  1.00  0.00     0.023 C 
BRANCH  26  27
ATOM     27  C   UNL     1       3.121  -8.059   8.068  1.00  0.00     0.116 C 
BRANCH  27  28
ATOM     28  N   UNL     1       3.871  -6.990   8.711  1.00  0.00    -0.352 N 
ATOM     29  C   UNL     1       4.595  -7.041   9.879  1.00  0.00     0.251 C 
ATOM     30  H   UNL     1       3.859  -6.120   8.251  1.00  0.00     0.163 HD
ATOM     31  O   UNL     1       5.061  -6.013  10.358  1.00  0.00    -0.269 OA
BRANCH  29  32
ATOM     32  C   UNL     1       4.761  -8.340  10.561  1.00  0.00     0.039 A 
ATOM     33  C   UNL     1       4.457  -8.434  11.920  1.00  0.00     0.014 A 
ATOM     34  C   UNL     1       5.155  -9.472   9.842  1.00  0.00     0.014 A 
ATOM     35  C   UNL     1       4.480  -9.683  12.543  1.00  0.00     0.010 A 
ATOM     36  C   UNL     1       5.098 -10.724  10.445  1.00  0.00     0.010 A 
ATOM     37  C   UNL     1       4.758 -10.844  11.801  1.00  0.00    -0.014 A 
BRANCH  37  38
ATOM     38  C   UNL     1       4.694 -12.190  12.428  1.00  0.00     0.031 A 
ATOM     39  C   UNL     1       5.929 -13.044  12.506  1.00  0.00     0.074 A 
ATOM     40  C   UNL     1       3.512 -12.661  12.876  1.00  0.00     0.049 A 
ATOM     41  N   UNL     1       6.064 -14.263  12.960  1.00  0.00    -0.248 NA
ATOM     42  C   UNL     1       7.170 -12.460  11.975  1.00  0.00     0.031 C 
ATOM     43  C   UNL     1       2.238 -11.941  12.816  1.00  0.00     0.029 A 
ATOM     44  N   UNL     1       3.187 -13.857  13.466  1.00  0.00    -0.354 N 
ATOM     45  C   UNL     1       7.400 -14.595  12.764  1.00  0.00     0.074 A 
ATOM     46  C   UNL     1       8.014 -13.475  12.084  1.00  0.00     0.031 C 
ATOM     47  C   UNL     1       1.279 -12.695  13.377  1.00  0.00     0.029 A 
ATOM     48  C   UNL     1       1.854 -13.972  13.789  1.00  0.00     0.049 A 
ATOM     49  H   UNL     1       3.846 -14.567  13.642  1.00  0.00     0.167 HD
ATOM     50  C   UNL     1       8.060 -15.719  13.139  1.00  0.00     0.034 A 
ATOM     51  C   UNL     1       1.169 -14.994  14.341  1.00  0.00     0.034 A 
ATOM     52  C   UNL     1       7.431 -16.825  13.821  1.00  0.00     0.049 A 
ATOM     53  C   UNL     1       1.917 -16.250  14.712  1.00  0.00     0.074 A 
ATOM     54  C   UNL     1       8.014 -17.988  14.293  1.00  0.00     0.029 A 
ATOM     55  N   UNL     1       6.077 -16.911  14.120  1.00  0.00    -0.354 N 
ATOM     56  N   UNL     1       3.193 -16.526  14.570  1.00  0.00    -0.248 NA
ATOM     57  C   UNL     1       1.133 -17.329  15.328  1.00  0.00     0.031 C 
ATOM     58  C   UNL     1       7.003 -18.811  14.800  1.00  0.00     0.029 A 
ATOM     59  C   UNL     1       5.801 -18.124  14.733  1.00  0.00     0.049 A 
ATOM     60  H   UNL     1       5.410 -16.213  13.924  1.00  0.00     0.167 HD
ATOM     61  C   UNL     1       3.369 -17.797  15.111  1.00  0.00     0.074 A 
ATOM     62  C   UNL     1       2.073 -18.223  15.597  1.00  0.00     0.031 C 
ATOM     63  C   UNL     1       4.500 -18.543  15.203  1.00  0.00     0.034 A 
BRANCH  50  64
ATOM     64  C   UNL     1       9.528 -15.814  12.794  1.00  0.00     0.023 A 
ATOM     65  C   UNL     1      10.467 -14.900  13.303  1.00  0.00     0.031 A 
ATOM     66  C   UNL     1       9.993 -16.817  11.925  1.00  0.00     0.131 A 
ATOM     67  C   UNL     1      11.803 -14.957  12.879  1.00  0.00     0.055 A 
ATOM     68  C   UNL     1      11.341 -16.924  11.578  1.00  0.00     0.041 A 
ATOM     69  F   UNL     1       9.142 -17.705  11.387  1.00  0.00    -0.206 F 
ATOM     70  C   UNL     1      12.253 -15.981  12.042  1.00  0.00     0.022 A 
BRANCH  67  71
ATOM     71  S   UNL     1      12.908 -13.586  13.312  1.00  0.00     0.124 S 
ATOM     72  O   UNL     1      12.206 -12.446  12.727  1.00  0.00    -0.237 OA
ATOM     73  O   UNL     1      12.929 -13.645  14.769  1.00  0.00    -0.237 OA
ATOM     74  O   UNL     1      14.165 -13.937  12.654  1.00  0.00    -0.744 OA
ENDBRANCH  67  71
ENDBRANCH  50  64
BRANCH  51  75
ATOM     75  C   UNL     1      -0.302 -14.887  14.567  1.00  0.00     0.023 A 
ATOM     76  C   UNL     1      -0.843 -14.946  15.862  1.00  0.00     0.031 A 
ATOM     77  C   UNL     1      -1.196 -14.776  13.486  1.00  0.00     0.131 A 
ATOM     78  C   UNL     1      -2.235 -14.947  16.040  1.00  0.00     0.055 A 
ATOM     79  C   UNL     1      -2.578 -14.715  13.674  1.00  0.00     0.041 A 
ATOM     80  F   UNL     1      -0.735 -14.714  12.227  1.00  0.00    -0.206 F 
ATOM     81  C   UNL     1      -3.106 -14.816  14.957  1.00  0.00     0.022 A 
BRANCH  78  82
ATOM     82  S   UNL     1      -2.896 -15.226  17.707  1.00  0.00     0.124 S 
ATOM     83  O   UNL     1      -2.307 -16.516  18.047  1.00  0.00    -0.237 OA
ATOM     84  O   UNL     1      -2.379 -14.072  18.434  1.00  0.00    -0.237 OA
ATOM     85  O   UNL     1      -4.343 -15.233  17.502  1.00  0.00    -0.744 OA
ENDBRANCH  78  82
ENDBRANCH  51  75
BRANCH  63  86
ATOM     86  C   UNL     1       4.390 -19.879  15.899  1.00  0.00     0.023 A 
ATOM     87  C   UNL     1       3.619 -20.930  15.372  1.00  0.00     0.031 A 
ATOM     88  C   UNL     1       5.062 -20.099  17.115  1.00  0.00     0.131 A 
ATOM     89  C   UNL     1       3.490 -22.130  16.089  1.00  0.00     0.055 A 
ATOM     90  C   UNL     1       4.987 -21.319  17.788  1.00  0.00     0.041 A 
ATOM     91  F   UNL     1       5.809 -19.131  17.668  1.00  0.00    -0.206 F 
ATOM     92  C   UNL     1       4.185 -22.338  17.282  1.00  0.00     0.022 A 
BRANCH  89  93
ATOM     93  S   UNL     1       2.316 -23.378  15.493  1.00  0.00     0.124 S 
ATOM     94  O   UNL     1       1.062 -22.631  15.478  1.00  0.00    -0.237 OA
ATOM     95  O   UNL     1       2.866 -23.726  14.188  1.00  0.00    -0.237 OA
ATOM     96  O   UNL     1       2.397 -24.434  16.501  1.00  0.00    -0.744 OA
ENDBRANCH  89  93
ENDBRANCH  63  86
ENDBRANCH  37  38
ENDBRANCH  29  32
ENDBRANCH  27  28
ENDBRANCH  26  27
ENDBRANCH   1  26
TORSDOF 18
