REMARK SMILES C[C@@H]1CN(S(=O)(=O)c2cccc(C(=O)N3CCC[C@@H]3C(=O)NCCCCNC(=O)c3ccc(-c4c5nc(c(-c6cc(S(=O)(=O)[O-])ccc6F)c6ccc([nH]6)c(-c6cc(S(=O)(=O)[O-])ccc6F)c6nc(c(-c7cc(S(=O)(=O)[O-])ccc7F)c7ccc4[nH]7)C=C6)C=C5)cc3)c2)C[C@H](C)O1
REMARK SMILES IDX 24 1 23 2 22 3 20 4 21 5 19 7 15 8 16 9 17 10 18 11 13 12
REMARK SMILES IDX 14 13 12 14 8 15 9 16 93 17 10 18 11 19 5 20 6 21 7 22 4 23
REMARK SMILES IDX 1 24 2 25 3 26 97 27 95 28 94 29 96 30 25 31 26 32 27 33
REMARK SMILES IDX 28 34 29 36 30 37 31 38 92 39 32 40 91 41 33 42 34 43 35 44
REMARK SMILES IDX 85 45 36 46 90 47 84 48 86 49 37 50 89 51 83 52 82 53 38 55
REMARK SMILES IDX 70 56 50 57 69 58 51 59 54 60 68 61 87 62 52 63 53 64 67 66
REMARK SMILES IDX 88 67 55 68 39 69 40 70 48 71 41 72 47 73 49 74 46 75 42 76
REMARK SMILES IDX 43 77 44 78 45 79 71 80 72 81 80 82 73 83 79 84 81 85 78 86
REMARK SMILES IDX 74 87 75 88 76 89 77 90 56 91 57 92 65 93 58 94 64 95 66 96
REMARK SMILES IDX 63 97 59 98 60 99 61 100 62 101
REMARK H PARENT 22 6 27 35 86 54 54 65
REMARK Flexibility Score: inf
ROOT
ATOM      1  C   UNL     1       2.827  -0.985   0.585  1.00  0.00     0.023 C 
ENDROOT
BRANCH   1   2
ATOM      2  C   UNL     1       3.085  -2.470   0.756  1.00  0.00     0.116 C 
BRANCH   2   3
ATOM      3  N   UNL     1       4.484  -2.780   0.886  1.00  0.00    -0.354 N 
ATOM      4  C   UNL     1       5.112  -3.539   1.831  1.00  0.00     0.242 C 
ATOM      5  O   UNL     1       6.348  -3.525   1.827  1.00  0.00    -0.273 OA
ATOM      6  H   UNL     1       5.070  -2.391   0.198  1.00  0.00     0.163 HD
BRANCH   4   7
ATOM      7  C   UNL     1       4.352  -4.216   2.998  1.00  0.00     0.174 C 
ATOM      8  N   UNL     1       3.018  -4.767   2.765  1.00  0.00    -0.327 N 
ATOM      9  C   UNL     1       2.303  -4.771   4.027  1.00  0.00     0.121 C 
ATOM     10  C   UNL     1       2.658  -3.412   4.588  1.00  0.00     0.024 C 
ATOM     11  C   UNL     1       4.114  -3.206   4.143  1.00  0.00     0.037 C 
BRANCH   8  12
ATOM     12  C   UNL     1       2.800  -5.683   1.754  1.00  0.00     0.254 C 
ATOM     13  O   UNL     1       3.688  -6.424   1.344  1.00  0.00    -0.269 OA
BRANCH  12  14
ATOM     14  C   UNL     1       1.511  -5.554   0.988  1.00  0.00     0.041 A 
ATOM     15  C   UNL     1      -0.639  -4.491   0.540  1.00  0.00     0.083 A 
ATOM     16  C   UNL     1      -0.737  -5.182  -0.670  1.00  0.00     0.022 A 
ATOM     17  C   UNL     1       0.482  -4.673   1.355  1.00  0.00     0.035 A 
ATOM     18  C   UNL     1       0.282  -6.060  -1.050  1.00  0.00     0.002 A 
ATOM     19  C   UNL     1       1.394  -6.252  -0.223  1.00  0.00     0.014 A 
BRANCH  15  20
ATOM     20  S   UNL     1      -2.074  -3.676   1.220  1.00  0.00     0.243 S 
ATOM     21  O   UNL     1      -2.131  -4.077   2.620  1.00  0.00    -0.207 OA
ATOM     22  O   UNL     1      -3.180  -3.969   0.346  1.00  0.00    -0.207 OA
BRANCH  20  23
ATOM     23  N   UNL     1      -1.790  -1.958   1.204  1.00  0.00    -0.193 NA
ATOM     24  C   UNL     1      -0.055   0.926   1.421  1.00  0.00     0.040 C 
ATOM     25  C   UNL     1      -0.823   0.076   2.429  1.00  0.00     0.130 C 
ATOM     26  C   UNL     1      -0.809  -1.457   2.219  1.00  0.00     0.134 C 
ATOM     27  O   UNL     1      -2.140   0.587   2.640  1.00  0.00    -0.373 OA
ATOM     28  C   UNL     1      -3.084   0.232   1.627  1.00  0.00     0.130 C 
ATOM     29  C   UNL     1      -3.134  -1.276   1.361  1.00  0.00     0.134 C 
ATOM     30  C   UNL     1      -2.969   1.089   0.374  1.00  0.00     0.040 C 
ENDBRANCH  20  23
ENDBRANCH  15  20
ENDBRANCH  12  14
ENDBRANCH   8  12
ENDBRANCH   4   7
ENDBRANCH   2   3
ENDBRANCH   1   2
BRANCH   1  31
ATOM     31  C   UNL     1       2.744  -0.457  -0.840  1.00  0.00     0.023 C 
BRANCH  31  32
ATOM     32  C   UNL     1       1.872  -1.236  -1.822  1.00  0.00     0.116 C 
BRANCH  32  33
ATOM     33  N   UNL     1       0.474  -1.403  -1.438  1.00  0.00    -0.352 N 
ATOM     34  C   UNL     1      -0.677  -0.977  -2.068  1.00  0.00     0.251 C 
ATOM     35  H   UNL     1       0.330  -1.896  -0.599  1.00  0.00     0.163 HD
ATOM     36  O   UNL     1      -1.782  -1.305  -1.652  1.00  0.00    -0.269 OA
BRANCH  34  37
ATOM     37  C   UNL     1      -0.594  -0.075  -3.225  1.00  0.00     0.039 A 
ATOM     38  C   UNL     1      -1.296   1.138  -3.203  1.00  0.00     0.014 A 
ATOM     39  C   UNL     1       0.188  -0.425  -4.319  1.00  0.00     0.014 A 
ATOM     40  C   UNL     1      -1.125   2.057  -4.236  1.00  0.00     0.010 A 
ATOM     41  C   UNL     1       0.420   0.517  -5.304  1.00  0.00     0.010 A 
ATOM     42  C   UNL     1      -0.231   1.764  -5.268  1.00  0.00    -0.014 A 
BRANCH  42  43
ATOM     43  C   UNL     1       0.022   2.669  -6.407  1.00  0.00     0.031 A 
ATOM     44  C   UNL     1      -0.359   2.162  -7.763  1.00  0.00     0.074 A 
ATOM     45  C   UNL     1       0.763   3.778  -6.238  1.00  0.00     0.049 A 
ATOM     46  N   UNL     1       0.141   2.456  -8.929  1.00  0.00    -0.248 NA
ATOM     47  C   UNL     1      -1.391   1.111  -7.786  1.00  0.00     0.031 C 
ATOM     48  C   UNL     1       1.163   4.347  -4.950  1.00  0.00     0.029 A 
ATOM     49  N   UNL     1       1.371   4.586  -7.165  1.00  0.00    -0.354 N 
ATOM     50  C   UNL     1      -0.452   1.567  -9.818  1.00  0.00     0.074 A 
ATOM     51  C   UNL     1      -1.344   0.725  -9.051  1.00  0.00     0.031 C 
ATOM     52  C   UNL     1       1.983   5.389  -5.168  1.00  0.00     0.029 A 
ATOM     53  C   UNL     1       2.222   5.511  -6.602  1.00  0.00     0.049 A 
ATOM     54  H   UNL     1       1.214   4.512  -8.134  1.00  0.00     0.167 HD
ATOM     55  C   UNL     1      -0.241   1.464 -11.151  1.00  0.00     0.034 A 
ATOM     56  C   UNL     1       3.137   6.312  -7.184  1.00  0.00     0.034 A 
ATOM     57  C   UNL     1       0.628   2.360 -11.870  1.00  0.00     0.049 A 
ATOM     58  C   UNL     1       3.313   6.217  -8.681  1.00  0.00     0.074 A 
ATOM     59  C   UNL     1       0.881   2.417 -13.227  1.00  0.00     0.029 A 
ATOM     60  N   UNL     1       1.381   3.368 -11.278  1.00  0.00    -0.354 N 
ATOM     61  N   UNL     1       2.750   5.380  -9.525  1.00  0.00    -0.248 NA
ATOM     62  C   UNL     1       4.243   7.166  -9.305  1.00  0.00     0.031 C 
ATOM     63  C   UNL     1       1.820   3.431 -13.450  1.00  0.00     0.029 A 
ATOM     64  C   UNL     1       2.105   4.047 -12.240  1.00  0.00     0.049 A 
ATOM     65  H   UNL     1       1.397   3.568 -10.314  1.00  0.00     0.167 HD
ATOM     66  C   UNL     1       3.233   5.728 -10.783  1.00  0.00     0.074 A 
ATOM     67  C   UNL     1       4.128   6.851 -10.587  1.00  0.00     0.031 C 
ATOM     68  C   UNL     1       2.967   5.177 -11.995  1.00  0.00     0.034 A 
BRANCH  55  69
ATOM     69  C   UNL     1      -0.911   0.329 -11.881  1.00  0.00     0.023 A 
ATOM     70  C   UNL     1      -2.309   0.221 -11.967  1.00  0.00     0.031 A 
ATOM     71  C   UNL     1      -0.136  -0.688 -12.466  1.00  0.00     0.131 A 
ATOM     72  C   UNL     1      -2.889  -0.914 -12.555  1.00  0.00     0.055 A 
ATOM     73  C   UNL     1      -0.718  -1.774 -13.122  1.00  0.00     0.041 A 
ATOM     74  F   UNL     1       1.204  -0.654 -12.393  1.00  0.00    -0.206 F 
ATOM     75  C   UNL     1      -2.103  -1.899 -13.157  1.00  0.00     0.022 A 
BRANCH  72  76
ATOM     76  S   UNL     1      -4.681  -1.144 -12.411  1.00  0.00     0.124 S 
ATOM     77  O   UNL     1      -4.842  -1.284 -10.965  1.00  0.00    -0.237 OA
ATOM     78  O   UNL     1      -5.207   0.085 -12.995  1.00  0.00    -0.237 OA
ATOM     79  O   UNL     1      -4.934  -2.359 -13.182  1.00  0.00    -0.744 OA
ENDBRANCH  72  76
ENDBRANCH  55  69
BRANCH  56  80
ATOM     80  C   UNL     1       3.990   7.223  -6.367  1.00  0.00     0.023 A 
ATOM     81  C   UNL     1       3.894   8.616  -6.511  1.00  0.00     0.031 A 
ATOM     82  C   UNL     1       4.943   6.721  -5.463  1.00  0.00     0.131 A 
ATOM     83  C   UNL     1       4.771   9.457  -5.807  1.00  0.00     0.055 A 
ATOM     84  C   UNL     1       5.777   7.564  -4.724  1.00  0.00     0.041 A 
ATOM     85  F   UNL     1       5.073   5.397  -5.277  1.00  0.00    -0.206 F 
ATOM     86  C   UNL     1       5.704   8.941  -4.906  1.00  0.00     0.022 A 
BRANCH  83  87
ATOM     87  S   UNL     1       4.737  11.236  -6.162  1.00  0.00     0.124 S 
ATOM     88  O   UNL     1       4.934  11.254  -7.608  1.00  0.00    -0.237 OA
ATOM     89  O   UNL     1       3.409  11.611  -5.690  1.00  0.00    -0.237 OA
ATOM     90  O   UNL     1       5.850  11.761  -5.374  1.00  0.00    -0.744 OA
ENDBRANCH  83  87
ENDBRANCH  56  80
BRANCH  68  91
ATOM     91  C   UNL     1       3.589   5.838 -13.194  1.00  0.00     0.023 A 
ATOM     92  C   UNL     1       4.961   5.730 -13.469  1.00  0.00     0.031 A 
ATOM     93  C   UNL     1       2.780   6.562 -14.088  1.00  0.00     0.131 A 
ATOM     94  C   UNL     1       5.493   6.371 -14.596  1.00  0.00     0.055 A 
ATOM     95  C   UNL     1       3.306   7.155 -15.233  1.00  0.00     0.041 A 
ATOM     96  F   UNL     1       1.461   6.688 -13.865  1.00  0.00    -0.206 F 
ATOM     97  C   UNL     1       4.672   7.068 -15.488  1.00  0.00     0.022 A 
BRANCH  94  98
ATOM     98  S   UNL     1       7.286   6.324 -14.858  1.00  0.00     0.124 S 
ATOM     99  O   UNL     1       7.783   7.019 -13.675  1.00  0.00    -0.237 OA
ATOM    100  O   UNL     1       7.557   4.891 -14.917  1.00  0.00    -0.237 OA
ATOM    101  O   UNL     1       7.467   7.040 -16.120  1.00  0.00    -0.744 OA
ENDBRANCH  94  98
ENDBRANCH  68  91
ENDBRANCH  42  43
ENDBRANCH  34  37
ENDBRANCH  32  33
ENDBRANCH  31  32
ENDBRANCH   1  31
TORSDOF 18
