REMARK SMILES COc1ccc(/C=C2/SC(=S)N(NC(=O)c3ccc(C(C)(C)C)cc3)C2=O)c(C(=O)NCCCCNC(=O)c2ccc(-c3c4nc(c(-c5cc(S(=O)(=O)[O-])ccc5F)c5ccc([nH]5)c(-c5cc(S(=O)(=O)[O-])ccc5F)c5nc(c(-c6cc(S(=O)(=O)[O-])ccc6F)c6ccc3[nH]6)C=C5)C=C4)cc2)c1OC
REMARK SMILES IDX 33 1 32 2 31 3 29 4 30 5 28 7 3 8 4 9 102 10 5 11 6 12 2 13
REMARK SMILES IDX 1 14 103 15 104 16 7 17 8 18 9 19 26 20 10 21 12 22 27 23
REMARK SMILES IDX 11 24 13 25 14 26 15 28 16 29 17 30 25 31 18 32 24 33 19 34
REMARK SMILES IDX 20 35 21 36 22 37 23 38 34 39 35 40 36 41 37 42 38 44 39 45
REMARK SMILES IDX 40 46 101 47 41 48 100 49 42 50 43 51 44 52 94 53 45 54
REMARK SMILES IDX 99 55 93 56 95 57 46 58 98 59 92 60 91 61 47 63 79 64 59 65
REMARK SMILES IDX 78 66 60 67 63 68 77 69 96 70 61 71 62 72 76 74 97 75 64 76
REMARK SMILES IDX 48 77 49 78 57 79 50 80 56 81 58 82 55 83 51 84 52 85 53 86
REMARK SMILES IDX 54 87 80 88 81 89 89 90 82 91 88 92 90 93 87 94 83 95 84 96
REMARK SMILES IDX 85 97 86 98 65 99 66 100 74 101 67 102 73 103 75 104 72 105
REMARK SMILES IDX 68 106 69 107 70 108 71 109
REMARK H PARENT 31 6 13 27 36 43 95 62 63 73
REMARK Flexibility Score: inf
ROOT
ATOM      1  C   UNL     1       5.802   0.159  -1.901  1.00  0.00     0.023 C 
ENDROOT
BRANCH   1   2
ATOM      2  C   UNL     1       4.913   1.206  -1.255  1.00  0.00     0.116 C 
BRANCH   2   3
ATOM      3  N   UNL     1       5.148   2.596  -1.536  1.00  0.00    -0.352 N 
ATOM      4  C   UNL     1       4.205   3.607  -1.597  1.00  0.00     0.255 C 
ATOM      5  O   UNL     1       4.588   4.772  -1.706  1.00  0.00    -0.269 OA
ATOM      6  H   UNL     1       6.082   2.858  -1.703  1.00  0.00     0.163 HD
BRANCH   4   7
ATOM      7  C   UNL     1       2.737   3.309  -1.689  1.00  0.00     0.092 A 
ATOM      8  C   UNL     1       0.627   2.349  -0.869  1.00  0.00     0.161 A 
ATOM      9  C   UNL     1       0.018   2.810  -2.048  1.00  0.00     0.051 A 
ATOM     10  C   UNL     1       2.005   2.597  -0.670  1.00  0.00     0.174 A 
ATOM     11  C   UNL     1       0.709   3.539  -3.004  1.00  0.00     0.013 A 
ATOM     12  C   UNL     1       2.067   3.817  -2.837  1.00  0.00    -0.007 A 
BRANCH   8  13
ATOM     13  O   UNL     1      -0.341   1.735  -0.132  1.00  0.00    -0.493 OA
ATOM     14  C   UNL     1      -0.168   1.223   1.165  1.00  0.00     0.278 C 
ENDBRANCH   8  13
BRANCH  10  15
ATOM     15  O   UNL     1       2.673   2.351   0.508  1.00  0.00    -0.492 OA
ATOM     16  C   UNL     1       2.723   1.006   0.980  1.00  0.00     0.278 C 
ENDBRANCH  10  15
BRANCH  12  17
ATOM     17  C   UNL     1       2.588   4.749  -3.862  1.00  0.00     0.030 C 
ATOM     18  C   UNL     1       3.502   4.562  -4.823  1.00  0.00     0.082 C 
ATOM     19  S   UNL     1       3.756   5.743  -6.069  1.00  0.00    -0.052 SA
ATOM     20  C   UNL     1       4.350   3.364  -5.079  1.00  0.00     0.285 C 
ATOM     21  C   UNL     1       4.784   4.673  -7.008  1.00  0.00     0.168 C 
ATOM     22  N   UNL     1       4.919   3.468  -6.345  1.00  0.00    -0.198 N 
ATOM     23  O   UNL     1       4.508   2.463  -4.282  1.00  0.00    -0.266 OA
ATOM     24  S   UNL     1       5.469   5.119  -8.464  1.00  0.00    -0.050 S 
BRANCH  22  25
ATOM     25  N   UNL     1       5.792   2.487  -6.852  1.00  0.00    -0.255 N 
ATOM     26  C   UNL     1       5.665   1.113  -6.839  1.00  0.00     0.270 C 
ATOM     27  H   UNL     1       6.611   2.831  -7.278  1.00  0.00     0.192 HD
ATOM     28  O   UNL     1       6.573   0.429  -7.312  1.00  0.00    -0.267 OA
BRANCH  26  29
ATOM     29  C   UNL     1       4.513   0.419  -6.221  1.00  0.00     0.041 A 
ATOM     30  C   UNL     1       4.795  -0.615  -5.325  1.00  0.00     0.014 A 
ATOM     31  C   UNL     1       3.188   0.793  -6.437  1.00  0.00     0.014 A 
ATOM     32  C   UNL     1       3.777  -1.169  -4.543  1.00  0.00     0.005 A 
ATOM     33  C   UNL     1       2.171   0.238  -5.645  1.00  0.00     0.005 A 
ATOM     34  C   UNL     1       2.450  -0.716  -4.645  1.00  0.00    -0.043 A 
BRANCH  34  35
ATOM     35  C   UNL     1       1.400  -1.181  -3.616  1.00  0.00    -0.013 C 
ATOM     36  C   UNL     1       1.278  -2.714  -3.574  1.00  0.00     0.016 C 
ATOM     37  C   UNL     1       1.843  -0.710  -2.222  1.00  0.00     0.016 C 
ATOM     38  C   UNL     1      -0.006  -0.592  -3.854  1.00  0.00     0.016 C 
ENDBRANCH  34  35
ENDBRANCH  26  29
ENDBRANCH  22  25
ENDBRANCH  12  17
ENDBRANCH   4   7
ENDBRANCH   2   3
ENDBRANCH   1   2
BRANCH   1  39
ATOM     39  C   UNL     1       7.246   0.106  -1.433  1.00  0.00     0.023 C 
BRANCH  39  40
ATOM     40  C   UNL     1       7.472   0.228   0.066  1.00  0.00     0.116 C 
BRANCH  40  41
ATOM     41  N   UNL     1       6.885  -0.848   0.858  1.00  0.00    -0.352 N 
ATOM     42  C   UNL     1       7.492  -1.658   1.797  1.00  0.00     0.251 C 
ATOM     43  H   UNL     1       5.927  -1.018   0.703  1.00  0.00     0.163 HD
ATOM     44  O   UNL     1       6.865  -2.570   2.327  1.00  0.00    -0.269 OA
BRANCH  42  45
ATOM     45  C   UNL     1       8.924  -1.444   2.104  1.00  0.00     0.039 A 
ATOM     46  C   UNL     1       9.808  -2.522   2.040  1.00  0.00     0.014 A 
ATOM     47  C   UNL     1       9.403  -0.152   2.325  1.00  0.00     0.014 A 
ATOM     48  C   UNL     1      11.184  -2.284   2.084  1.00  0.00     0.010 A 
ATOM     49  C   UNL     1      10.766   0.093   2.230  1.00  0.00     0.010 A 
ATOM     50  C   UNL     1      11.676  -0.968   2.114  1.00  0.00    -0.014 A 
BRANCH  50  51
ATOM     51  C   UNL     1      13.133  -0.672   2.040  1.00  0.00     0.031 A 
ATOM     52  C   UNL     1      13.792   0.106   3.149  1.00  0.00     0.074 A 
ATOM     53  C   UNL     1      13.844  -1.032   0.952  1.00  0.00     0.049 A 
ATOM     54  N   UNL     1      15.023   0.538   3.243  1.00  0.00    -0.248 NA
ATOM     55  C   UNL     1      12.938   0.487   4.285  1.00  0.00     0.031 C 
ATOM     56  C   UNL     1      13.311  -1.743  -0.214  1.00  0.00     0.029 A 
ATOM     57  N   UNL     1      15.171  -0.851   0.644  1.00  0.00    -0.354 N 
ATOM     58  C   UNL     1      15.080   1.261   4.430  1.00  0.00     0.074 A 
ATOM     59  C   UNL     1      13.741   1.278   4.975  1.00  0.00     0.031 C 
ATOM     60  C   UNL     1      14.308  -1.981  -1.081  1.00  0.00     0.029 A 
ATOM     61  C   UNL     1      15.540  -1.393  -0.567  1.00  0.00     0.049 A 
ATOM     62  H   UNL     1      15.799  -0.377   1.235  1.00  0.00     0.167 HD
ATOM     63  C   UNL     1      16.155   1.831   5.028  1.00  0.00     0.034 A 
ATOM     64  C   UNL     1      16.735  -1.409  -1.193  1.00  0.00     0.034 A 
ATOM     65  C   UNL     1      17.487   1.784   4.479  1.00  0.00     0.049 A 
ATOM     66  C   UNL     1      17.913  -0.746  -0.523  1.00  0.00     0.074 A 
ATOM     67  C   UNL     1      18.663   2.261   5.030  1.00  0.00     0.029 A 
ATOM     68  N   UNL     1      17.819   1.236   3.245  1.00  0.00    -0.354 N 
ATOM     69  N   UNL     1      17.965  -0.123   0.633  1.00  0.00    -0.248 NA
ATOM     70  C   UNL     1      19.194  -0.794  -1.239  1.00  0.00     0.031 C 
ATOM     71  C   UNL     1      19.687   2.081   4.095  1.00  0.00     0.029 A 
ATOM     72  C   UNL     1      19.174   1.404   3.000  1.00  0.00     0.049 A 
ATOM     73  H   UNL     1      17.186   0.794   2.635  1.00  0.00     0.167 HD
ATOM     74  C   UNL     1      19.293   0.262   0.797  1.00  0.00     0.074 A 
ATOM     75  C   UNL     1      20.008  -0.210  -0.372  1.00  0.00     0.031 C 
ATOM     76  C   UNL     1      19.871   0.938   1.823  1.00  0.00     0.034 A 
BRANCH  63  77
ATOM     77  C   UNL     1      15.917   2.575   6.323  1.00  0.00     0.023 A 
ATOM     78  C   UNL     1      15.387   1.938   7.460  1.00  0.00     0.031 A 
ATOM     79  C   UNL     1      16.177   3.955   6.408  1.00  0.00     0.131 A 
ATOM     80  C   UNL     1      15.045   2.693   8.592  1.00  0.00     0.055 A 
ATOM     81  C   UNL     1      15.926   4.682   7.573  1.00  0.00     0.041 A 
ATOM     82  F   UNL     1      16.660   4.627   5.351  1.00  0.00    -0.206 F 
ATOM     83  C   UNL     1      15.338   4.056   8.668  1.00  0.00     0.022 A 
BRANCH  80  84
ATOM     84  S   UNL     1      14.051   1.903   9.888  1.00  0.00     0.124 S 
ATOM     85  O   UNL     1      12.877   1.466   9.135  1.00  0.00    -0.237 OA
ATOM     86  O   UNL     1      14.934   0.846  10.364  1.00  0.00    -0.237 OA
ATOM     87  O   UNL     1      13.803   2.986  10.838  1.00  0.00    -0.744 OA
ENDBRANCH  80  84
ENDBRANCH  63  77
BRANCH  64  88
ATOM     88  C   UNL     1      16.890  -2.079  -2.518  1.00  0.00     0.023 A 
ATOM     89  C   UNL     1      17.729  -3.195  -2.668  1.00  0.00     0.031 A 
ATOM     90  C   UNL     1      16.235  -1.592  -3.663  1.00  0.00     0.131 A 
ATOM     91  C   UNL     1      17.926  -3.761  -3.938  1.00  0.00     0.055 A 
ATOM     92  C   UNL     1      16.389  -2.193  -4.914  1.00  0.00     0.041 A 
ATOM     93  F   UNL     1      15.421  -0.528  -3.579  1.00  0.00    -0.206 F 
ATOM     94  C   UNL     1      17.250  -3.277  -5.059  1.00  0.00     0.022 A 
BRANCH  91  95
ATOM     95  S   UNL     1      19.151  -5.088  -4.118  1.00  0.00     0.124 S 
ATOM     96  O   UNL     1      20.367  -4.434  -3.651  1.00  0.00    -0.237 OA
ATOM     97  O   UNL     1      18.605  -6.125  -3.249  1.00  0.00    -0.237 OA
ATOM     98  O   UNL     1      19.114  -5.393  -5.547  1.00  0.00    -0.744 OA
ENDBRANCH  91  95
ENDBRANCH  64  88
BRANCH  76  99
ATOM     99  C   UNL     1      21.363   1.162   1.748  1.00  0.00     0.023 A 
ATOM    100  C   UNL     1      21.945   1.971   0.757  1.00  0.00     0.031 A 
ATOM    101  C   UNL     1      22.215   0.549   2.685  1.00  0.00     0.131 A 
ATOM    102  C   UNL     1      23.341   2.098   0.689  1.00  0.00     0.055 A 
ATOM    103  C   UNL     1      23.597   0.738   2.656  1.00  0.00     0.041 A 
ATOM    104  F   UNL     1      21.717  -0.239   3.651  1.00  0.00    -0.206 F 
ATOM    105  C   UNL     1      24.169   1.504   1.645  1.00  0.00     0.022 A 
BRANCH 102 106
ATOM    106  S   UNL     1      24.068   2.964  -0.729  1.00  0.00     0.124 S 
ATOM    107  O   UNL     1      23.549   2.192  -1.853  1.00  0.00    -0.237 OA
ATOM    108  O   UNL     1      23.533   4.313  -0.580  1.00  0.00    -0.237 OA
ATOM    109  O   UNL     1      25.508   2.841  -0.504  1.00  0.00    -0.744 OA
ENDBRANCH 102 106
ENDBRANCH  76  99
ENDBRANCH  50  51
ENDBRANCH  42  45
ENDBRANCH  40  41
ENDBRANCH  39  40
ENDBRANCH   1  39
TORSDOF 20
