REMARK SMILES [NH3+][C@H]1CCCCC[C@H]1C(=O)N1CCCC[C@@H]1C(=O)NCCCCNC(=O)c1ccc(-c2c3nc(c(-c4cc(S(=O)(=O)[O-])ccc4F)c4ccc([nH]4)c(-c4cc(S(=O)(=O)[O-])ccc4F)c4nc(c(-c5cc(S(=O)(=O)[O-])ccc5F)c5ccc2[nH]5)C=C4)C=C3)cc1
REMARK SMILES IDX 20 1 19 2 17 3 18 4 16 6 11 7 12 8 13 9 15 10 14 11 9 12
REMARK SMILES IDX 10 13 8 14 2 15 1 16 3 20 7 22 6 23 5 24 4 25 21 27 22 28
REMARK SMILES IDX 23 29 24 30 25 31 26 33 27 34 28 35 89 36 29 37 88 38 30 39
REMARK SMILES IDX 31 40 32 41 82 42 33 43 87 44 81 45 83 46 34 47 86 48 80 49
REMARK SMILES IDX 79 50 35 52 67 53 47 54 66 55 48 56 51 57 65 58 84 59 49 60
REMARK SMILES IDX 50 61 64 63 85 64 52 65 36 66 37 67 45 68 38 69 44 70 46 71
REMARK SMILES IDX 43 72 39 73 40 74 41 75 42 76 68 77 69 78 77 79 70 80 76 81
REMARK SMILES IDX 78 82 75 83 71 84 72 85 73 86 74 87 53 88 54 89 62 90 55 91
REMARK SMILES IDX 61 92 63 93 60 94 56 95 57 96 58 97 59 98
REMARK H PARENT 19 5 1 17 1 18 1 19 24 32 83 51 51 62
REMARK Flexibility Score: 90.00
ROOT
ATOM      1  C   UNL     1       0.858   2.762   0.013  1.00  0.00     0.116 C 
ENDROOT
BRANCH   1   2
ATOM      2  N   UNL     1       1.895   1.836   0.435  1.00  0.00    -0.354 N 
ATOM      3  C   UNL     1       2.247   1.422   1.682  1.00  0.00     0.242 C 
ATOM      4  O   UNL     1       3.304   0.791   1.799  1.00  0.00    -0.273 OA
ATOM      5  H   UNL     1       2.426   1.448  -0.296  1.00  0.00     0.163 HD
BRANCH   3   6
ATOM      6  C   UNL     1       1.443   1.813   2.934  1.00  0.00     0.174 C 
ATOM      7  N   UNL     1      -0.031   1.658   2.888  1.00  0.00    -0.330 N 
ATOM      8  C   UNL     1      -0.787   2.341   3.935  1.00  0.00     0.120 C 
ATOM      9  C   UNL     1      -0.419   3.810   4.056  1.00  0.00     0.022 C 
ATOM     10  C   UNL     1       1.879   3.272   3.244  1.00  0.00     0.035 C 
ATOM     11  C   UNL     1       1.069   3.945   4.341  1.00  0.00     0.004 C 
BRANCH   7  12
ATOM     12  C   UNL     1      -0.778   0.895   2.011  1.00  0.00     0.232 C 
ATOM     13  O   UNL     1      -1.765   1.435   1.482  1.00  0.00    -0.274 OA
BRANCH  12  14
ATOM     14  C   UNL     1      -0.650  -0.638   1.860  1.00  0.00     0.136 C 
BRANCH  14  15
ATOM     15  C   UNL     1       0.712  -1.301   1.622  1.00  0.00     0.193 C 
BRANCH  15  16
ATOM     16  N   UNL     1       1.548  -1.444   2.813  1.00  0.00    -0.354 N 
ATOM     17  H   UNL     1       2.428  -1.893   2.558  1.00  0.00     0.344 HD
ATOM     18  H   UNL     1       1.062  -2.017   3.503  1.00  0.00     0.344 HD
ATOM     19  H   UNL     1       1.738  -0.523   3.208  1.00  0.00     0.344 HD
ENDBRANCH  15  16
BRANCH  15  20
ATOM     20  C   UNL     1       0.581  -2.684   0.952  1.00  0.00     0.066 CG0
ATOM     21  G   UNL     1       0.290  -3.869   1.873  1.00  0.00     0.000 G0
ENDBRANCH  15  20
ENDBRANCH  14  15
BRANCH  14  22
ATOM     22  C   UNL     1      -1.503  -1.336   2.931  1.00  0.00     0.020 C 
BRANCH  22  23
ATOM     23  C   UNL     1      -1.986  -2.724   2.496  1.00  0.00     0.001 C 
BRANCH  23  24
ATOM     24  C   UNL     1      -0.980  -3.845   2.723  1.00  0.00     0.000 C 
BRANCH  24  25
ATOM     25  C   UNL     1       0.290  -3.869   1.873  1.00  0.00     0.006 CG0
ATOM     26  G   UNL     1       0.581  -2.684   0.952  1.00  0.00     0.000 G0
ENDBRANCH  24  25
ENDBRANCH  23  24
ENDBRANCH  22  23
ENDBRANCH  14  22
ENDBRANCH  12  14
ENDBRANCH   7  12
ENDBRANCH   3   6
ENDBRANCH   1   2
BRANCH   1  27
ATOM     27  C   UNL     1       1.448   3.862  -0.866  1.00  0.00     0.023 C 
BRANCH  27  28
ATOM     28  C   UNL     1       1.968   3.371  -2.220  1.00  0.00     0.023 C 
BRANCH  28  29
ATOM     29  C   UNL     1       0.925   2.673  -3.087  1.00  0.00     0.116 C 
BRANCH  29  30
ATOM     30  N   UNL     1      -0.195   3.546  -3.406  1.00  0.00    -0.352 N 
ATOM     31  C   UNL     1      -0.662   3.925  -4.644  1.00  0.00     0.251 C 
ATOM     32  H   UNL     1      -0.682   3.915  -2.634  1.00  0.00     0.163 HD
ATOM     33  O   UNL     1      -1.481   4.825  -4.751  1.00  0.00    -0.269 OA
BRANCH  31  34
ATOM     34  C   UNL     1      -0.133   3.235  -5.838  1.00  0.00     0.039 A 
ATOM     35  C   UNL     1       0.421   3.991  -6.872  1.00  0.00     0.014 A 
ATOM     36  C   UNL     1      -0.131   1.838  -5.892  1.00  0.00     0.014 A 
ATOM     37  C   UNL     1       1.058   3.339  -7.930  1.00  0.00     0.010 A 
ATOM     38  C   UNL     1       0.557   1.194  -6.914  1.00  0.00     0.010 A 
ATOM     39  C   UNL     1       1.172   1.939  -7.934  1.00  0.00    -0.014 A 
BRANCH  39  40
ATOM     40  C   UNL     1       1.961   1.228  -8.971  1.00  0.00     0.031 A 
ATOM     41  C   UNL     1       1.277   0.284  -9.918  1.00  0.00     0.074 A 
ATOM     42  C   UNL     1       3.302   1.361  -8.990  1.00  0.00     0.049 A 
ATOM     43  N   UNL     1       1.802  -0.521 -10.806  1.00  0.00    -0.248 NA
ATOM     44  C   UNL     1      -0.189   0.215  -9.833  1.00  0.00     0.031 C 
ATOM     45  C   UNL     1       4.079   2.218  -8.090  1.00  0.00     0.029 A 
ATOM     46  N   UNL     1       4.253   0.763  -9.778  1.00  0.00    -0.354 N 
ATOM     47  C   UNL     1       0.733  -1.203 -11.376  1.00  0.00     0.074 A 
ATOM     48  C   UNL     1      -0.463  -0.752 -10.695  1.00  0.00     0.031 C 
ATOM     49  C   UNL     1       5.384   2.095  -8.383  1.00  0.00     0.029 A 
ATOM     50  C   UNL     1       5.543   1.118  -9.455  1.00  0.00     0.049 A 
ATOM     51  H   UNL     1       4.034   0.139 -10.507  1.00  0.00     0.167 HD
ATOM     52  C   UNL     1       0.749  -2.108 -12.385  1.00  0.00     0.034 A 
ATOM     53  C   UNL     1       6.721   0.686  -9.947  1.00  0.00     0.034 A 
ATOM     54  C   UNL     1       1.950  -2.534 -13.060  1.00  0.00     0.049 A 
ATOM     55  C   UNL     1       6.715  -0.347 -11.044  1.00  0.00     0.074 A 
ATOM     56  C   UNL     1       2.074  -3.380 -14.149  1.00  0.00     0.029 A 
ATOM     57  N   UNL     1       3.239  -2.159 -12.702  1.00  0.00    -0.354 N 
ATOM     58  N   UNL     1       5.690  -0.936 -11.616  1.00  0.00    -0.248 NA
ATOM     59  C   UNL     1       8.021  -0.774 -11.561  1.00  0.00     0.031 C 
ATOM     60  C   UNL     1       3.437  -3.569 -14.405  1.00  0.00     0.029 A 
ATOM     61  C   UNL     1       4.164  -2.789 -13.521  1.00  0.00     0.049 A 
ATOM     62  H   UNL     1       3.463  -1.536 -11.973  1.00  0.00     0.167 HD
ATOM     63  C   UNL     1       6.230  -1.789 -12.574  1.00  0.00     0.074 A 
ATOM     64  C   UNL     1       7.668  -1.625 -12.513  1.00  0.00     0.031 C 
ATOM     65  C   UNL     1       5.596  -2.631 -13.430  1.00  0.00     0.034 A 
BRANCH  52  66
ATOM     66  C   UNL     1      -0.570  -2.713 -12.798  1.00  0.00     0.023 A 
ATOM     67  C   UNL     1      -1.600  -1.932 -13.351  1.00  0.00     0.031 A 
ATOM     68  C   UNL     1      -0.809  -4.087 -12.618  1.00  0.00     0.131 A 
ATOM     69  C   UNL     1      -2.843  -2.515 -13.638  1.00  0.00     0.055 A 
ATOM     70  C   UNL     1      -2.023  -4.676 -12.977  1.00  0.00     0.041 A 
ATOM     71  F   UNL     1       0.130  -4.879 -12.076  1.00  0.00    -0.206 F 
ATOM     72  C   UNL     1      -3.055  -3.886 -13.477  1.00  0.00     0.022 A 
BRANCH  69  73
ATOM     73  S   UNL     1      -4.221  -1.431 -14.102  1.00  0.00     0.124 S 
ATOM     74  O   UNL     1      -4.319  -0.561 -12.932  1.00  0.00    -0.237 OA
ATOM     75  O   UNL     1      -3.731  -0.804 -15.324  1.00  0.00    -0.237 OA
ATOM     76  O   UNL     1      -5.340  -2.354 -14.279  1.00  0.00    -0.744 OA
ENDBRANCH  69  73
ENDBRANCH  52  66
BRANCH  53  77
ATOM     77  C   UNL     1       8.006   1.198  -9.392  1.00  0.00     0.023 A 
ATOM     78  C   UNL     1       8.880   1.964 -10.178  1.00  0.00     0.031 A 
ATOM     79  C   UNL     1       8.396   0.894  -8.075  1.00  0.00     0.131 A 
ATOM     80  C   UNL     1      10.120   2.365  -9.657  1.00  0.00     0.055 A 
ATOM     81  C   UNL     1       9.610   1.337  -7.545  1.00  0.00     0.041 A 
ATOM     82  F   UNL     1       7.594   0.169  -7.279  1.00  0.00    -0.206 F 
ATOM     83  C   UNL     1      10.485   2.067  -8.342  1.00  0.00     0.022 A 
BRANCH  80  84
ATOM     84  S   UNL     1      11.286   3.220 -10.752  1.00  0.00     0.124 S 
ATOM     85  O   UNL     1      11.450   2.250 -11.828  1.00  0.00    -0.237 OA
ATOM     86  O   UNL     1      10.550   4.434 -11.088  1.00  0.00    -0.237 OA
ATOM     87  O   UNL     1      12.461   3.420  -9.907  1.00  0.00    -0.744 OA
ENDBRANCH  80  84
ENDBRANCH  53  77
BRANCH  65  88
ATOM     88  C   UNL     1       6.462  -3.416 -14.381  1.00  0.00     0.023 A 
ATOM     89  C   UNL     1       7.304  -4.446 -13.928  1.00  0.00     0.031 A 
ATOM     90  C   UNL     1       6.446  -3.127 -15.757  1.00  0.00     0.131 A 
ATOM     91  C   UNL     1       8.130  -5.122 -14.838  1.00  0.00     0.055 A 
ATOM     92  C   UNL     1       7.230  -3.839 -16.665  1.00  0.00     0.041 A 
ATOM     93  F   UNL     1       5.661  -2.151 -16.241  1.00  0.00    -0.206 F 
ATOM     94  C   UNL     1       8.085  -4.837 -16.206  1.00  0.00     0.022 A 
BRANCH  91  95
ATOM     95  S   UNL     1       9.314  -6.340 -14.203  1.00  0.00     0.124 S 
ATOM     96  O   UNL     1      10.162  -5.518 -13.346  1.00  0.00    -0.237 OA
ATOM     97  O   UNL     1       8.448  -7.293 -13.517  1.00  0.00    -0.237 OA
ATOM     98  O   UNL     1       9.962  -6.851 -15.410  1.00  0.00    -0.744 OA
ENDBRANCH  91  95
ENDBRANCH  65  88
ENDBRANCH  39  40
ENDBRANCH  31  34
ENDBRANCH  29  30
ENDBRANCH  28  29
ENDBRANCH  27  28
ENDBRANCH   1  27
TORSDOF 17
