REMARK SMILES O=C(NCCCCNC(=O)c1ccc(F)c(S(=O)(=O)N2CCOc3ccccc32)c1)c1ccc(-c2c3nc(c(-c4cc(S(=O)(=O)[O-])ccc4F)c4ccc([nH]4)c(-c4cc(S(=O)(=O)[O-])ccc4F)c4nc(c(-c5cc(S(=O)(=O)[O-])ccc5F)c5ccc2[nH]5)C=C4)C=C3)cc1
REMARK SMILES IDX 5 1 4 2 3 3 1 4 2 5 31 7 32 8 93 9 33 10 92 11 34 12 35 13
REMARK SMILES IDX 36 14 86 15 37 16 91 17 85 18 87 19 38 20 90 21 84 22 83 23
REMARK SMILES IDX 39 25 71 26 51 27 70 28 52 29 55 30 69 31 88 32 53 33 54 34
REMARK SMILES IDX 68 36 89 37 56 38 40 39 41 40 49 41 42 42 48 43 50 44 47 45
REMARK SMILES IDX 43 46 44 47 45 48 46 49 72 50 73 51 81 52 74 53 80 54 82 55
REMARK SMILES IDX 79 56 75 57 76 58 77 59 78 60 57 61 58 62 66 63 59 64 65 65
REMARK SMILES IDX 67 66 64 67 60 68 61 69 62 70 63 71 6 72 7 73 8 74 9 75
REMARK SMILES IDX 10 77 11 78 12 79 30 80 13 81 16 82 14 83 15 84 17 85 18 86
REMARK SMILES IDX 19 87 20 88 21 89 29 90 22 91 24 92 28 93 23 94 25 95 27 96
REMARK SMILES IDX 26 97
REMARK H PARENT 3 6 87 24 55 35 8 76
REMARK Flexibility Score: inf
ROOT
ATOM      1  C   UNL     1       4.902  -1.893  -1.850  1.00  0.00     0.023 C 
ENDROOT
BRANCH   1   2
ATOM      2  C   UNL     1       4.548  -0.567  -1.189  1.00  0.00     0.116 C 
BRANCH   2   3
ATOM      3  N   UNL     1       3.112  -0.336  -1.099  1.00  0.00    -0.352 N 
ATOM      4  O   UNL     1       1.123  -0.018  -0.083  1.00  0.00    -0.269 OA
ATOM      5  C   UNL     1       2.346  -0.061   0.011  1.00  0.00     0.251 C 
ATOM      6  H   UNL     1       2.622  -0.382  -1.951  1.00  0.00     0.163 HD
BRANCH   5   7
ATOM      7  C   UNL     1       3.005   0.152   1.319  1.00  0.00     0.039 A 
ATOM      8  C   UNL     1       4.128   0.975   1.418  1.00  0.00     0.014 A 
ATOM      9  C   UNL     1       2.509  -0.499   2.452  1.00  0.00     0.014 A 
ATOM     10  C   UNL     1       4.847   1.017   2.605  1.00  0.00     0.010 A 
ATOM     11  C   UNL     1       3.182  -0.379   3.671  1.00  0.00     0.010 A 
ATOM     12  C   UNL     1       4.376   0.354   3.750  1.00  0.00    -0.014 A 
BRANCH  12  13
ATOM     13  C   UNL     1       5.125   0.496   5.026  1.00  0.00     0.031 A 
ATOM     14  C   UNL     1       5.785  -0.685   5.682  1.00  0.00     0.074 A 
ATOM     15  C   UNL     1       5.248   1.727   5.563  1.00  0.00     0.049 A 
ATOM     16  N   UNL     1       6.481  -0.726   6.789  1.00  0.00    -0.248 NA
ATOM     17  C   UNL     1       5.644  -1.990   5.016  1.00  0.00     0.031 C 
ATOM     18  C   UNL     1       4.660   2.948   5.006  1.00  0.00     0.029 A 
ATOM     19  N   UNL     1       5.927   2.164   6.671  1.00  0.00    -0.354 N 
ATOM     20  C   UNL     1       6.851  -2.054   6.963  1.00  0.00     0.074 A 
ATOM     21  C   UNL     1       6.279  -2.795   5.858  1.00  0.00     0.031 C 
ATOM     22  C   UNL     1       5.055   4.000   5.736  1.00  0.00     0.029 A 
ATOM     23  C   UNL     1       5.857   3.525   6.856  1.00  0.00     0.049 A 
ATOM     24  H   UNL     1       6.417   1.562   7.276  1.00  0.00     0.167 HD
ATOM     25  C   UNL     1       7.601  -2.600   7.951  1.00  0.00     0.034 A 
ATOM     26  C   UNL     1       6.360   4.307   7.830  1.00  0.00     0.034 A 
ATOM     27  C   UNL     1       8.176  -1.845   9.039  1.00  0.00     0.049 A 
ATOM     28  C   UNL     1       7.145   3.669   8.940  1.00  0.00     0.074 A 
ATOM     29  C   UNL     1       8.972  -2.302  10.076  1.00  0.00     0.029 A 
ATOM     30  N   UNL     1       8.017  -0.480   9.234  1.00  0.00    -0.354 N 
ATOM     31  N   UNL     1       7.457   2.405   9.102  1.00  0.00    -0.248 NA
ATOM     32  C   UNL     1       7.632   4.556  10.003  1.00  0.00     0.031 C 
ATOM     33  C   UNL     1       9.242  -1.228  10.929  1.00  0.00     0.029 A 
ATOM     34  C   UNL     1       8.673  -0.086  10.390  1.00  0.00     0.049 A 
ATOM     35  H   UNL     1       7.511   0.120   8.639  1.00  0.00     0.167 HD
ATOM     36  C   UNL     1       8.185   2.346  10.284  1.00  0.00     0.074 A 
ATOM     37  C   UNL     1       8.275   3.702  10.787  1.00  0.00     0.031 C 
ATOM     38  C   UNL     1       8.733   1.265  10.893  1.00  0.00     0.034 A 
BRANCH  25  39
ATOM     39  C   UNL     1       7.821  -4.091   7.931  1.00  0.00     0.023 A 
ATOM     40  C   UNL     1       8.632  -4.706   6.963  1.00  0.00     0.031 A 
ATOM     41  C   UNL     1       7.242  -4.903   8.923  1.00  0.00     0.131 A 
ATOM     42  C   UNL     1       8.816  -6.098   6.989  1.00  0.00     0.055 A 
ATOM     43  C   UNL     1       7.475  -6.278   8.978  1.00  0.00     0.041 A 
ATOM     44  F   UNL     1       6.446  -4.368   9.862  1.00  0.00    -0.206 F 
ATOM     45  C   UNL     1       8.262  -6.884   8.004  1.00  0.00     0.022 A 
BRANCH  42  46
ATOM     46  S   UNL     1       9.735  -6.882   5.637  1.00  0.00     0.124 S 
ATOM     47  O   UNL     1       8.871  -6.603   4.493  1.00  0.00    -0.237 OA
ATOM     48  O   UNL     1      11.008  -6.170   5.663  1.00  0.00    -0.237 OA
ATOM     49  O   UNL     1       9.799  -8.287   6.034  1.00  0.00    -0.744 OA
ENDBRANCH  42  46
ENDBRANCH  25  39
BRANCH  26  50
ATOM     50  C   UNL     1       6.096   5.771   7.807  1.00  0.00     0.023 A 
ATOM     51  C   UNL     1       7.125   6.689   7.556  1.00  0.00     0.031 A 
ATOM     52  C   UNL     1       4.794   6.266   8.003  1.00  0.00     0.131 A 
ATOM     53  C   UNL     1       6.837   8.062   7.518  1.00  0.00     0.055 A 
ATOM     54  C   UNL     1       4.505   7.629   7.925  1.00  0.00     0.041 A 
ATOM     55  F   UNL     1       3.775   5.423   8.233  1.00  0.00    -0.206 F 
ATOM     56  C   UNL     1       5.532   8.536   7.686  1.00  0.00     0.022 A 
BRANCH  53  57
ATOM     57  S   UNL     1       8.198   9.232   7.261  1.00  0.00     0.124 S 
ATOM     58  O   UNL     1       8.998   9.025   8.463  1.00  0.00    -0.237 OA
ATOM     59  O   UNL     1       8.780   8.753   6.011  1.00  0.00    -0.237 OA
ATOM     60  O   UNL     1       7.523  10.525   7.174  1.00  0.00    -0.744 OA
ENDBRANCH  53  57
ENDBRANCH  26  50
BRANCH  38  61
ATOM     61  C   UNL     1       9.496   1.508  12.166  1.00  0.00     0.023 A 
ATOM     62  C   UNL     1       8.837   1.823  13.366  1.00  0.00     0.031 A 
ATOM     63  C   UNL     1      10.896   1.386  12.184  1.00  0.00     0.131 A 
ATOM     64  C   UNL     1       9.584   2.034  14.534  1.00  0.00     0.055 A 
ATOM     65  C   UNL     1      11.630   1.553  13.358  1.00  0.00     0.041 A 
ATOM     66  F   UNL     1      11.569   1.086  11.062  1.00  0.00    -0.206 F 
ATOM     67  C   UNL     1      10.974   1.883  14.541  1.00  0.00     0.022 A 
BRANCH  64  68
ATOM     68  S   UNL     1       8.718   2.537  16.046  1.00  0.00     0.124 S 
ATOM     69  O   UNL     1       8.221   3.860  15.682  1.00  0.00    -0.237 OA
ATOM     70  O   UNL     1       7.707   1.495  16.195  1.00  0.00    -0.237 OA
ATOM     71  O   UNL     1       9.769   2.527  17.062  1.00  0.00    -0.744 OA
ENDBRANCH  64  68
ENDBRANCH  38  61
ENDBRANCH  12  13
ENDBRANCH   5   7
ENDBRANCH   2   3
ENDBRANCH   1   2
BRANCH   1  72
ATOM     72  C   UNL     1       4.430  -2.047  -3.291  1.00  0.00     0.023 C 
BRANCH  72  73
ATOM     73  C   UNL     1       4.835  -0.920  -4.233  1.00  0.00     0.116 C 
BRANCH  73  74
ATOM     74  N   UNL     1       6.277  -0.790  -4.389  1.00  0.00    -0.352 N 
ATOM     75  C   UNL     1       7.025  -0.790  -5.542  1.00  0.00     0.251 C 
ATOM     76  H   UNL     1       6.787  -0.689  -3.553  1.00  0.00     0.163 HD
ATOM     77  O   UNL     1       8.249  -0.772  -5.512  1.00  0.00    -0.269 OA
BRANCH  75  78
ATOM     78  C   UNL     1       6.333  -0.841  -6.845  1.00  0.00     0.041 A 
ATOM     79  C   UNL     1       5.329   0.085  -7.145  1.00  0.00     0.017 A 
ATOM     80  C   UNL     1       6.668  -1.850  -7.753  1.00  0.00     0.039 A 
ATOM     81  C   UNL     1       4.561  -0.089  -8.289  1.00  0.00     0.041 A 
ATOM     82  C   UNL     1       5.917  -1.990  -8.929  1.00  0.00     0.124 A 
ATOM     83  C   UNL     1       4.837  -1.143  -9.158  1.00  0.00     0.143 A 
ATOM     84  F   UNL     1       4.003  -1.291 -10.190  1.00  0.00    -0.205 F 
BRANCH  82  85
ATOM     85  S   UNL     1       6.385  -3.287 -10.044  1.00  0.00     0.267 S 
ATOM     86  O   UNL     1       7.648  -2.875 -10.623  1.00  0.00    -0.201 OA
ATOM     87  O   UNL     1       6.296  -4.506  -9.267  1.00  0.00    -0.201 OA
BRANCH  85  88
ATOM     88  N   UNL     1       5.232  -3.265 -11.281  1.00  0.00    -0.259 N 
ATOM     89  C   UNL     1       5.382  -2.213 -12.322  1.00  0.00     0.177 C 
ATOM     90  C   UNL     1       4.540  -4.455 -11.718  1.00  0.00     0.094 A 
ATOM     91  C   UNL     1       5.715  -2.876 -13.646  1.00  0.00     0.252 C 
ATOM     92  C   UNL     1       4.235  -4.604 -13.087  1.00  0.00     0.143 A 
ATOM     93  C   UNL     1       4.017  -5.389 -10.819  1.00  0.00     0.031 A 
ATOM     94  O   UNL     1       4.649  -3.734 -14.072  1.00  0.00    -0.489 OA
ATOM     95  C   UNL     1       3.434  -5.658 -13.531  1.00  0.00     0.049 A 
ATOM     96  C   UNL     1       3.246  -6.465 -11.270  1.00  0.00     0.002 A 
ATOM     97  C   UNL     1       2.949  -6.596 -12.624  1.00  0.00     0.004 A 
ENDBRANCH  85  88
ENDBRANCH  82  85
ENDBRANCH  75  78
ENDBRANCH  73  74
ENDBRANCH  72  73
ENDBRANCH   1  72
TORSDOF 16
