REMARK SMILES CCC[N@H+]1CCC[C@H]([C@@H](C)Nc2cccc(C(=O)NCCCCNC(=O)c3ccc(-c4c5nc(c(-c6cc(S(=O)(=O)[O-])ccc6F)c6ccc([nH]6)c(-c6cc(S(=O)(=O)[O-])ccc6F)c6nc(c(-c7cc(S(=O)(=O)[O-])ccc7F)c7ccc4[nH]7)C=C6)C=C5)cc3)c2)C1
REMARK SMILES IDX 20 1 19 2 17 3 18 4 16 6 12 7 13 8 90 9 14 10 15 11 11 12
REMARK SMILES IDX 9 14 10 15 8 16 4 17 5 18 91 19 6 21 7 22 3 23 2 24 1 25
REMARK SMILES IDX 21 26 22 27 23 28 24 29 25 30 26 32 27 33 28 34 89 35 29 36
REMARK SMILES IDX 88 37 30 38 31 39 32 40 82 41 33 42 87 43 81 44 83 45 34 46
REMARK SMILES IDX 86 47 80 48 79 49 35 51 67 52 47 53 66 54 48 55 51 56 65 57
REMARK SMILES IDX 84 58 49 59 50 60 64 62 85 63 52 64 36 65 37 66 45 67 38 68
REMARK SMILES IDX 44 69 46 70 43 71 39 72 40 73 41 74 42 75 68 76 69 77 77 78
REMARK SMILES IDX 70 79 76 80 78 81 75 82 71 83 72 84 73 85 74 86 53 87 54 88
REMARK SMILES IDX 62 89 55 90 61 91 63 92 60 93 56 94 57 95 58 96 59 97
REMARK H PARENT 19 5 11 13 4 20 24 31 83 50 51 61
REMARK Flexibility Score: inf
ROOT
ATOM      1  C   UNL     1       3.111  -2.418   7.490  1.00  0.00     0.116 C 
ENDROOT
BRANCH   1   2
ATOM      2  N   UNL     1       4.191  -3.255   6.982  1.00  0.00    -0.352 N 
ATOM      3  C   UNL     1       4.187  -4.252   6.024  1.00  0.00     0.251 C 
ATOM      4  O   UNL     1       5.239  -4.828   5.754  1.00  0.00    -0.269 OA
ATOM      5  H   UNL     1       5.070  -3.081   7.389  1.00  0.00     0.163 HD
BRANCH   3   6
ATOM      6  C   UNL     1       2.929  -4.699   5.369  1.00  0.00     0.041 A 
ATOM      7  C   UNL     1       0.607  -4.237   4.805  1.00  0.00     0.035 A 
ATOM      8  C   UNL     1       0.434  -5.602   4.554  1.00  0.00     0.026 A 
ATOM      9  C   UNL     1       1.906  -3.800   5.066  1.00  0.00     0.039 A 
ATOM     10  C   UNL     1       1.501  -6.502   4.657  1.00  0.00     0.003 A 
ATOM     11  C   UNL     1       2.743  -6.056   5.104  1.00  0.00     0.014 A 
BRANCH   7  12
ATOM     12  N   UNL     1      -0.488  -3.391   4.789  1.00  0.00    -0.382 N 
ATOM     13  H   UNL     1      -1.369  -3.789   4.604  1.00  0.00     0.160 HD
BRANCH  12  14
ATOM     14  C   UNL     1      -0.430  -1.946   5.029  1.00  0.00     0.084 C 
ATOM     15  C   UNL     1      -0.891  -1.669   6.463  1.00  0.00     0.031 C 
BRANCH  14  16
ATOM     16  C   UNL     1      -1.283  -1.206   3.962  1.00  0.00     0.066 C 
ATOM     17  N   UNL     1       0.516  -1.168   2.265  1.00  0.00    -0.335 N 
ATOM     18  C   UNL     1       0.635   0.286   2.303  1.00  0.00     0.262 C 
ATOM     19  C   UNL     1      -0.857  -1.607   2.532  1.00  0.00     0.267 C 
ATOM     20  H   UNL     1       1.101  -1.495   3.034  1.00  0.00     0.348 HD
ATOM     21  C   UNL     1       0.209   0.837   3.668  1.00  0.00     0.062 C 
ATOM     22  C   UNL     1      -1.177   0.329   4.075  1.00  0.00     0.017 C 
BRANCH  17  23
ATOM     23  C   UNL     1       1.113  -1.823   1.100  1.00  0.00     0.261 C 
BRANCH  23  24
ATOM     24  C   UNL     1       0.607  -1.431  -0.296  1.00  0.00     0.058 C 
ATOM     25  C   UNL     1       1.301  -0.209  -0.882  1.00  0.00     0.010 C 
ENDBRANCH  23  24
ENDBRANCH  17  23
ENDBRANCH  14  16
ENDBRANCH  12  14
ENDBRANCH   7  12
ENDBRANCH   3   6
ENDBRANCH   1   2
BRANCH   1  26
ATOM     26  C   UNL     1       3.021  -2.323   9.007  1.00  0.00     0.023 C 
BRANCH  26  27
ATOM     27  C   UNL     1       4.186  -1.653   9.719  1.00  0.00     0.023 C 
BRANCH  27  28
ATOM     28  C   UNL     1       4.611  -0.290   9.183  1.00  0.00     0.116 C 
BRANCH  28  29
ATOM     29  N   UNL     1       3.543   0.698   9.159  1.00  0.00    -0.352 N 
ATOM     30  C   UNL     1       3.522   1.986   9.650  1.00  0.00     0.251 C 
ATOM     31  H   UNL     1       2.709   0.402   8.726  1.00  0.00     0.163 HD
ATOM     32  O   UNL     1       2.490   2.641   9.589  1.00  0.00    -0.269 OA
BRANCH  30  33
ATOM     33  C   UNL     1       4.731   2.553  10.294  1.00  0.00     0.039 A 
ATOM     34  C   UNL     1       4.597   3.202  11.525  1.00  0.00     0.014 A 
ATOM     35  C   UNL     1       5.993   2.416   9.712  1.00  0.00     0.014 A 
ATOM     36  C   UNL     1       5.738   3.624  12.215  1.00  0.00     0.010 A 
ATOM     37  C   UNL     1       7.131   2.763  10.437  1.00  0.00     0.010 A 
ATOM     38  C   UNL     1       7.018   3.361  11.702  1.00  0.00    -0.014 A 
BRANCH  38  39
ATOM     39  C   UNL     1       8.249   3.688  12.473  1.00  0.00     0.031 A 
ATOM     40  C   UNL     1       9.245   4.674  11.921  1.00  0.00     0.074 A 
ATOM     41  C   UNL     1       8.511   3.036  13.625  1.00  0.00     0.049 A 
ATOM     42  N   UNL     1      10.420   5.012  12.386  1.00  0.00    -0.248 NA
ATOM     43  C   UNL     1       8.885   5.343  10.660  1.00  0.00     0.031 C 
ATOM     44  C   UNL     1       7.650   2.021  14.239  1.00  0.00     0.029 A 
ATOM     45  N   UNL     1       9.585   3.112  14.480  1.00  0.00    -0.354 N 
ATOM     46  C   UNL     1      10.952   5.907  11.464  1.00  0.00     0.074 A 
ATOM     47  C   UNL     1       9.988   6.027  10.391  1.00  0.00     0.031 C 
ATOM     48  C   UNL     1       8.220   1.584  15.374  1.00  0.00     0.029 A 
ATOM     49  C   UNL     1       9.507   2.249  15.551  1.00  0.00     0.049 A 
ATOM     50  H   UNL     1      10.340   3.728  14.339  1.00  0.00     0.167 HD
ATOM     51  C   UNL     1      12.129   6.578  11.515  1.00  0.00     0.034 A 
ATOM     52  C   UNL     1      10.379   2.009  16.551  1.00  0.00     0.034 A 
ATOM     53  C   UNL     1      13.062   6.482  12.610  1.00  0.00     0.049 A 
ATOM     54  C   UNL     1      11.674   2.784  16.589  1.00  0.00     0.074 A 
ATOM     55  C   UNL     1      14.236   7.189  12.803  1.00  0.00     0.029 A 
ATOM     56  N   UNL     1      12.932   5.625  13.694  1.00  0.00    -0.354 N 
ATOM     57  N   UNL     1      12.123   3.686  15.746  1.00  0.00    -0.248 NA
ATOM     58  C   UNL     1      12.574   2.521  17.721  1.00  0.00     0.031 C 
ATOM     59  C   UNL     1      14.847   6.716  13.969  1.00  0.00     0.029 A 
ATOM     60  C   UNL     1      14.019   5.765  14.543  1.00  0.00     0.049 A 
ATOM     61  H   UNL     1      12.178   5.008  13.839  1.00  0.00     0.167 HD
ATOM     62  C   UNL     1      13.337   4.123  16.270  1.00  0.00     0.074 A 
ATOM     63  C   UNL     1      13.541   3.400  17.507  1.00  0.00     0.031 C 
ATOM     64  C   UNL     1      14.205   5.042  15.777  1.00  0.00     0.034 A 
BRANCH  51  65
ATOM     65  C   UNL     1      12.488   7.460  10.346  1.00  0.00     0.023 A 
ATOM     66  C   UNL     1      11.752   8.616  10.034  1.00  0.00     0.031 A 
ATOM     67  C   UNL     1      13.597   7.146   9.540  1.00  0.00     0.131 A 
ATOM     68  C   UNL     1      12.101   9.386   8.914  1.00  0.00     0.055 A 
ATOM     69  C   UNL     1      13.982   7.955   8.470  1.00  0.00     0.041 A 
ATOM     70  F   UNL     1      14.325   6.044   9.780  1.00  0.00    -0.206 F 
ATOM     71  C   UNL     1      13.227   9.078   8.145  1.00  0.00     0.022 A 
BRANCH  68  72
ATOM     72  S   UNL     1      11.006  10.743   8.416  1.00  0.00     0.124 S 
ATOM     73  O   UNL     1       9.772  10.025   8.104  1.00  0.00    -0.237 OA
ATOM     74  O   UNL     1      10.974  11.579   9.611  1.00  0.00    -0.237 OA
ATOM     75  O   UNL     1      11.687  11.328   7.263  1.00  0.00    -0.744 OA
ENDBRANCH  68  72
ENDBRANCH  51  65
BRANCH  52  76
ATOM     76  C   UNL     1      10.086   0.984  17.597  1.00  0.00     0.023 A 
ATOM     77  C   UNL     1       9.967   1.347  18.949  1.00  0.00     0.031 A 
ATOM     78  C   UNL     1      10.007  -0.382  17.274  1.00  0.00     0.131 A 
ATOM     79  C   UNL     1       9.848   0.353  19.934  1.00  0.00     0.055 A 
ATOM     80  C   UNL     1       9.825  -1.362  18.252  1.00  0.00     0.041 A 
ATOM     81  F   UNL     1      10.110  -0.786  15.998  1.00  0.00    -0.206 F 
ATOM     82  C   UNL     1       9.765  -0.998  19.594  1.00  0.00     0.022 A 
BRANCH  79  83
ATOM     83  S   UNL     1       9.935   0.847  21.678  1.00  0.00     0.124 S 
ATOM     84  O   UNL     1      11.190   1.591  21.714  1.00  0.00    -0.237 OA
ATOM     85  O   UNL     1       8.717   1.636  21.828  1.00  0.00    -0.237 OA
ATOM     86  O   UNL     1       9.944  -0.428  22.392  1.00  0.00    -0.744 OA
ENDBRANCH  79  83
ENDBRANCH  52  76
BRANCH  64  87
ATOM     87  C   UNL     1      15.420   5.358  16.613  1.00  0.00     0.023 A 
ATOM     88  C   UNL     1      16.438   4.413  16.830  1.00  0.00     0.031 A 
ATOM     89  C   UNL     1      15.551   6.623  17.213  1.00  0.00     0.131 A 
ATOM     90  C   UNL     1      17.515   4.729  17.671  1.00  0.00     0.055 A 
ATOM     91  C   UNL     1      16.655   6.952  18.000  1.00  0.00     0.041 A 
ATOM     92  F   UNL     1      14.608   7.563  17.039  1.00  0.00    -0.206 F 
ATOM     93  C   UNL     1      17.638   5.997  18.245  1.00  0.00     0.022 A 
BRANCH  90  94
ATOM     94  S   UNL     1      18.711   3.428  18.080  1.00  0.00     0.124 S 
ATOM     95  O   UNL     1      17.859   2.411  18.688  1.00  0.00    -0.237 OA
ATOM     96  O   UNL     1      19.268   3.094  16.773  1.00  0.00    -0.237 OA
ATOM     97  O   UNL     1      19.638   4.090  18.997  1.00  0.00    -0.744 OA
ENDBRANCH  90  94
ENDBRANCH  64  87
ENDBRANCH  38  39
ENDBRANCH  30  33
ENDBRANCH  28  29
ENDBRANCH  27  28
ENDBRANCH  26  27
ENDBRANCH   1  26
TORSDOF 19
