REMARK SMILES COc1ccc(C(=O)Nc2cc(C(=O)NCCCCNC(=O)c3ccc(-c4c5nc(c(-c6cc(S(=O)(=O)[O-])ccc6F)c6ccc([nH]6)c(-c6cc(S(=O)(=O)[O-])ccc6F)c6nc(c(-c7cc(S(=O)(=O)[O-])ccc7F)c7ccc4[nH]7)C=C6)C=C5)cc3)c(Cl)cc2Cl)cc1Cl
REMARK SMILES IDX 17 1 16 2 15 3 13 4 14 5 12 7 10 8 11 9 89 10 88 11 90 12
REMARK SMILES IDX 86 13 87 14 9 15 7 16 8 17 6 19 3 20 4 21 92 22 5 23 91 24
REMARK SMILES IDX 93 25 2 26 1 27 18 28 19 29 20 30 21 31 22 33 23 34 24 35
REMARK SMILES IDX 85 36 25 37 84 38 26 39 27 40 28 41 78 42 29 43 83 44 77 45
REMARK SMILES IDX 79 46 30 47 82 48 76 49 75 50 31 52 63 53 43 54 62 55 44 56
REMARK SMILES IDX 47 57 61 58 80 59 45 60 46 61 60 63 81 64 48 65 32 66 33 67
REMARK SMILES IDX 41 68 34 69 40 70 42 71 39 72 35 73 36 74 37 75 38 76 64 77
REMARK SMILES IDX 65 78 73 79 66 80 72 81 74 82 71 83 67 84 68 85 69 86 70 87
REMARK SMILES IDX 49 88 50 89 58 90 51 91 57 92 59 93 56 94 52 95 53 96 54 97
REMARK SMILES IDX 55 98
REMARK H PARENT 15 6 9 18 20 32 79 51 47 62
REMARK Flexibility Score: inf
ROOT
ATOM      1  C   UNL     1       6.787   0.534  -0.111  1.00  0.00     0.023 C 
ENDROOT
BRANCH   1   2
ATOM      2  C   UNL     1       7.162  -0.005  -1.489  1.00  0.00     0.116 C 
BRANCH   2   3
ATOM      3  N   UNL     1       6.634  -1.321  -1.804  1.00  0.00    -0.352 N 
ATOM      4  C   UNL     1       6.200  -1.851  -2.998  1.00  0.00     0.252 C 
ATOM      5  O   UNL     1       5.870  -3.035  -3.040  1.00  0.00    -0.269 OA
ATOM      6  H   UNL     1       6.576  -1.935  -1.036  1.00  0.00     0.163 HD
BRANCH   4   7
ATOM      7  C   UNL     1       5.988  -1.031  -4.218  1.00  0.00     0.060 A 
ATOM      8  C   UNL     1       4.368  -0.427  -5.961  1.00  0.00     0.061 A 
ATOM      9  C   UNL     1       4.730  -1.190  -4.844  1.00  0.00     0.043 A 
ATOM     10  C   UNL     1       5.314   0.459  -6.497  1.00  0.00     0.066 A 
ATOM     11  C   UNL     1       6.582   0.580  -5.927  1.00  0.00     0.044 A 
ATOM     12  Cl  UNL     1       4.932   1.463  -7.854  1.00  0.00    -0.082 Cl
ATOM     13  C   UNL     1       6.934  -0.192  -4.814  1.00  0.00     0.055 A 
ATOM     14  Cl  UNL     1       8.593  -0.132  -4.342  1.00  0.00    -0.083 Cl
BRANCH   8  15
ATOM     15  N   UNL     1       3.106  -0.518  -6.587  1.00  0.00    -0.321 N 
ATOM     16  C   UNL     1       1.856  -0.891  -6.145  1.00  0.00     0.255 C 
ATOM     17  O   UNL     1       0.987  -1.149  -6.980  1.00  0.00    -0.269 OA
ATOM     18  H   UNL     1       3.123  -0.263  -7.537  1.00  0.00     0.170 HD
BRANCH  16  19
ATOM     19  C   UNL     1       1.475  -0.875  -4.707  1.00  0.00     0.041 A 
ATOM     20  C   UNL     1       0.730  -0.927  -1.980  1.00  0.00     0.137 A 
ATOM     21  C   UNL     1       0.017  -1.658  -2.943  1.00  0.00     0.049 A 
ATOM     22  C   UNL     1       1.807  -0.142  -2.406  1.00  0.00     0.083 A 
ATOM     23  C   UNL     1       0.387  -1.644  -4.291  1.00  0.00     0.018 A 
ATOM     24  C   UNL     1       2.120  -0.066  -3.769  1.00  0.00     0.038 A 
ATOM     25  Cl  UNL     1       2.897   0.710  -1.370  1.00  0.00    -0.080 Cl
BRANCH  20  26
ATOM     26  O   UNL     1       0.251  -1.132  -0.717  1.00  0.00    -0.495 OA
ATOM     27  C   UNL     1       0.514  -0.160   0.284  1.00  0.00     0.278 C 
ENDBRANCH  20  26
ENDBRANCH  16  19
ENDBRANCH   8  15
ENDBRANCH   4   7
ENDBRANCH   2   3
ENDBRANCH   1   2
BRANCH   1  28
ATOM     28  C   UNL     1       7.266  -0.257   1.106  1.00  0.00     0.023 C 
BRANCH  28  29
ATOM     29  C   UNL     1       8.734  -0.673   1.136  1.00  0.00     0.116 C 
BRANCH  29  30
ATOM     30  N   UNL     1       9.673   0.429   0.995  1.00  0.00    -0.352 N 
ATOM     31  C   UNL     1      10.799   0.731   1.729  1.00  0.00     0.251 C 
ATOM     32  H   UNL     1       9.473   1.055   0.262  1.00  0.00     0.163 HD
ATOM     33  O   UNL     1      11.426   1.755   1.469  1.00  0.00    -0.269 OA
BRANCH  31  34
ATOM     34  C   UNL     1      11.223  -0.135   2.856  1.00  0.00     0.039 A 
ATOM     35  C   UNL     1      11.613   0.469   4.056  1.00  0.00     0.014 A 
ATOM     36  C   UNL     1      11.222  -1.527   2.751  1.00  0.00     0.014 A 
ATOM     37  C   UNL     1      11.907  -0.323   5.171  1.00  0.00     0.010 A 
ATOM     38  C   UNL     1      11.429  -2.311   3.886  1.00  0.00     0.010 A 
ATOM     39  C   UNL     1      11.768  -1.720   5.112  1.00  0.00    -0.014 A 
BRANCH  39  40
ATOM     40  C   UNL     1      11.967  -2.564   6.323  1.00  0.00     0.031 A 
ATOM     41  C   UNL     1      13.057  -3.604   6.358  1.00  0.00     0.074 A 
ATOM     42  C   UNL     1      11.135  -2.428   7.376  1.00  0.00     0.049 A 
ATOM     43  N   UNL     1      13.362  -4.454   7.306  1.00  0.00    -0.248 NA
ATOM     44  C   UNL     1      13.891  -3.727   5.154  1.00  0.00     0.031 C 
ATOM     45  C   UNL     1      10.004  -1.498   7.446  1.00  0.00     0.029 A 
ATOM     46  N   UNL     1      11.106  -3.069   8.591  1.00  0.00    -0.354 N 
ATOM     47  C   UNL     1      14.418  -5.214   6.811  1.00  0.00     0.074 A 
ATOM     48  C   UNL     1      14.645  -4.774   5.451  1.00  0.00     0.031 C 
ATOM     49  C   UNL     1       9.422  -1.599   8.652  1.00  0.00     0.029 A 
ATOM     50  C   UNL     1      10.106  -2.628   9.428  1.00  0.00     0.049 A 
ATOM     51  H   UNL     1      11.742  -3.778   8.840  1.00  0.00     0.167 HD
ATOM     52  C   UNL     1      15.150  -6.168   7.440  1.00  0.00     0.034 A 
ATOM     53  C   UNL     1       9.779  -3.006  10.680  1.00  0.00     0.034 A 
ATOM     54  C   UNL     1      14.919  -6.592   8.800  1.00  0.00     0.049 A 
ATOM     55  C   UNL     1      10.606  -4.072  11.357  1.00  0.00     0.074 A 
ATOM     56  C   UNL     1      15.620  -7.525   9.546  1.00  0.00     0.029 A 
ATOM     57  N   UNL     1      13.906  -6.112   9.622  1.00  0.00    -0.354 N 
ATOM     58  N   UNL     1      11.634  -4.743  10.890  1.00  0.00    -0.248 NA
ATOM     59  C   UNL     1      10.240  -4.412  12.737  1.00  0.00     0.031 C 
ATOM     60  C   UNL     1      14.997  -7.652  10.793  1.00  0.00     0.029 A 
ATOM     61  C   UNL     1      13.954  -6.742  10.857  1.00  0.00     0.049 A 
ATOM     62  H   UNL     1      13.250  -5.425   9.364  1.00  0.00     0.167 HD
ATOM     63  C   UNL     1      12.060  -5.556  11.938  1.00  0.00     0.074 A 
ATOM     64  C   UNL     1      11.192  -5.273  13.061  1.00  0.00     0.031 C 
ATOM     65  C   UNL     1      13.079  -6.455  11.970  1.00  0.00     0.034 A 
BRANCH  52  66
ATOM     66  C   UNL     1      16.261  -6.821   6.649  1.00  0.00     0.023 A 
ATOM     67  C   UNL     1      17.350  -6.077   6.159  1.00  0.00     0.031 A 
ATOM     68  C   UNL     1      16.221  -8.195   6.354  1.00  0.00     0.131 A 
ATOM     69  C   UNL     1      18.306  -6.691   5.335  1.00  0.00     0.055 A 
ATOM     70  C   UNL     1      17.223  -8.818   5.606  1.00  0.00     0.041 A 
ATOM     71  F   UNL     1      15.198  -8.956   6.776  1.00  0.00    -0.206 F 
ATOM     72  C   UNL     1      18.265  -8.062   5.078  1.00  0.00     0.022 A 
BRANCH  69  73
ATOM     73  S   UNL     1      19.518  -5.641   4.486  1.00  0.00     0.124 S 
ATOM     74  O   UNL     1      18.650  -4.770   3.697  1.00  0.00    -0.237 OA
ATOM     75  O   UNL     1      20.220  -5.008   5.596  1.00  0.00    -0.237 OA
ATOM     76  O   UNL     1      20.309  -6.592   3.707  1.00  0.00    -0.744 OA
ENDBRANCH  69  73
ENDBRANCH  52  66
BRANCH  53  77
ATOM     77  C   UNL     1       8.629  -2.376  11.393  1.00  0.00     0.023 A 
ATOM     78  C   UNL     1       8.828  -1.632  12.568  1.00  0.00     0.031 A 
ATOM     79  C   UNL     1       7.308  -2.559  10.948  1.00  0.00     0.131 A 
ATOM     80  C   UNL     1       7.724  -1.152  13.290  1.00  0.00     0.055 A 
ATOM     81  C   UNL     1       6.216  -2.028  11.638  1.00  0.00     0.041 A 
ATOM     82  F   UNL     1       7.059  -3.256   9.827  1.00  0.00    -0.206 F 
ATOM     83  C   UNL     1       6.420  -1.334  12.826  1.00  0.00     0.022 A 
BRANCH  80  84
ATOM     84  S   UNL     1       8.015  -0.372  14.903  1.00  0.00     0.124 S 
ATOM     85  O   UNL     1       8.727  -1.425  15.617  1.00  0.00    -0.237 OA
ATOM     86  O   UNL     1       8.801   0.800  14.534  1.00  0.00    -0.237 OA
ATOM     87  O   UNL     1       6.667  -0.087  15.390  1.00  0.00    -0.744 OA
ENDBRANCH  80  84
ENDBRANCH  53  77
BRANCH  65  88
ATOM     88  C   UNL     1      13.335  -7.149  13.287  1.00  0.00     0.023 A 
ATOM     89  C   UNL     1      12.389  -8.011  13.869  1.00  0.00     0.031 A 
ATOM     90  C   UNL     1      14.527  -6.906  13.993  1.00  0.00     0.131 A 
ATOM     91  C   UNL     1      12.614  -8.533  15.152  1.00  0.00     0.055 A 
ATOM     92  C   UNL     1      14.777  -7.486  15.237  1.00  0.00     0.041 A 
ATOM     93  F   UNL     1      15.467  -6.090  13.488  1.00  0.00    -0.206 F 
ATOM     94  C   UNL     1      13.809  -8.289  15.833  1.00  0.00     0.022 A 
BRANCH  91  95
ATOM     95  S   UNL     1      11.266  -9.427  15.975  1.00  0.00     0.124 S 
ATOM     96  O   UNL     1      10.179  -8.454  15.921  1.00  0.00    -0.237 OA
ATOM     97  O   UNL     1      11.110 -10.604  15.126  1.00  0.00    -0.237 OA
ATOM     98  O   UNL     1      11.796  -9.691  17.311  1.00  0.00    -0.744 OA
ENDBRANCH  91  95
ENDBRANCH  65  88
ENDBRANCH  39  40
ENDBRANCH  31  34
ENDBRANCH  29  30
ENDBRANCH  28  29
ENDBRANCH   1  28
TORSDOF 17
