REMARK SMILES CC(C)[C@@H](C)C(=O)N[C@@](C)(C(=O)NCCCCNC(=O)c1ccc(-c2c3nc(c(-c4cc(S(=O)(=O)[O-])ccc4F)c4ccc([nH]4)c(-c4cc(S(=O)(=O)[O-])ccc4F)c4nc(c(-c5cc(S(=O)(=O)[O-])ccc5F)c5ccc2[nH]5)C=C4)C=C3)cc1)C(F)(F)F
REMARK SMILES IDX 15 1 14 2 13 3 11 4 12 5 9 7 10 8 8 9 6 10 7 11 4 13 5 14
REMARK SMILES IDX 2 15 1 16 3 17 84 18 85 19 86 20 87 21 16 22 17 23 18 24
REMARK SMILES IDX 19 25 20 27 21 28 22 29 83 30 23 31 82 32 24 33 25 34 26 35
REMARK SMILES IDX 76 36 27 37 81 38 75 39 77 40 28 41 80 42 74 43 73 44 29 46
REMARK SMILES IDX 61 47 41 48 60 49 42 50 45 51 59 52 78 53 43 54 44 55 58 57
REMARK SMILES IDX 79 58 46 59 30 60 31 61 39 62 32 63 38 64 40 65 37 66 33 67
REMARK SMILES IDX 34 68 35 69 36 70 62 71 63 72 71 73 64 74 70 75 72 76 69 77
REMARK SMILES IDX 65 78 66 79 67 80 68 81 47 82 48 83 56 84 49 85 55 86 57 87
REMARK SMILES IDX 54 88 50 89 51 90 52 91 53 92
REMARK H PARENT 13 6 8 12 18 26 77 45 45 56
REMARK Flexibility Score: inf
ROOT
ATOM      1  C   UNL     1      -2.633  -3.999   5.938  1.00  0.00     0.023 C 
ENDROOT
BRANCH   1   2
ATOM      2  C   UNL     1      -1.252  -4.271   5.344  1.00  0.00     0.116 C 
BRANCH   2   3
ATOM      3  N   UNL     1      -1.345  -4.794   3.990  1.00  0.00    -0.354 N 
ATOM      4  C   UNL     1      -0.843  -4.411   2.780  1.00  0.00     0.254 C 
ATOM      5  O   UNL     1      -1.194  -5.118   1.831  1.00  0.00    -0.272 OA
ATOM      6  H   UNL     1      -1.894  -5.609   3.933  1.00  0.00     0.163 HD
BRANCH   4   7
ATOM      7  C   UNL     1       0.044  -3.157   2.592  1.00  0.00     0.212 C 
ATOM      8  C   UNL     1       1.298  -3.211   3.488  1.00  0.00     0.056 C 
BRANCH   7   9
ATOM      9  N   UNL     1      -0.865  -2.039   3.057  1.00  0.00    -0.334 N 
ATOM     10  C   UNL     1      -1.275  -0.793   2.759  1.00  0.00     0.224 C 
ATOM     11  O   UNL     1      -2.022  -0.275   3.600  1.00  0.00    -0.275 OA
ATOM     12  H   UNL     1      -1.323  -2.330   3.878  1.00  0.00     0.164 HD
BRANCH  10  13
ATOM     13  C   UNL     1      -0.950  -0.028   1.494  1.00  0.00     0.078 C 
ATOM     14  C   UNL     1      -1.723  -0.659   0.335  1.00  0.00     0.018 C 
BRANCH  13  15
ATOM     15  C   UNL     1       0.566   0.235   1.385  1.00  0.00    -0.005 C 
ATOM     16  C   UNL     1       1.064   0.478  -0.037  1.00  0.00     0.008 C 
ATOM     17  C   UNL     1       0.967   1.419   2.280  1.00  0.00     0.008 C 
ENDBRANCH  13  15
ENDBRANCH  10  13
ENDBRANCH   7   9
BRANCH   7  18
ATOM     18  C   UNL     1       0.568  -3.268   1.130  1.00  0.00     0.420 C 
ATOM     19  F   UNL     1      -0.366  -3.094   0.181  1.00  0.00    -0.168 F 
ATOM     20  F   UNL     1       1.551  -2.366   0.882  1.00  0.00    -0.168 F 
ATOM     21  F   UNL     1       1.161  -4.470   0.906  1.00  0.00    -0.168 F 
ENDBRANCH   7  18
ENDBRANCH   4   7
ENDBRANCH   2   3
ENDBRANCH   1   2
BRANCH   1  22
ATOM     22  C   UNL     1      -3.525  -5.233   6.083  1.00  0.00     0.023 C 
BRANCH  22  23
ATOM     23  C   UNL     1      -2.884  -6.413   6.804  1.00  0.00     0.116 C 
BRANCH  23  24
ATOM     24  N   UNL     1      -2.426  -6.073   8.142  1.00  0.00    -0.352 N 
ATOM     25  C   UNL     1      -2.630  -6.753   9.320  1.00  0.00     0.251 C 
ATOM     26  H   UNL     1      -1.899  -5.245   8.214  1.00  0.00     0.163 HD
ATOM     27  O   UNL     1      -2.295  -6.242  10.384  1.00  0.00    -0.269 OA
BRANCH  25  28
ATOM     28  C   UNL     1      -3.286  -8.077   9.291  1.00  0.00     0.039 A 
ATOM     29  C   UNL     1      -4.339  -8.328  10.172  1.00  0.00     0.014 A 
ATOM     30  C   UNL     1      -2.886  -9.050   8.371  1.00  0.00     0.014 A 
ATOM     31  C   UNL     1      -5.039  -9.534  10.083  1.00  0.00     0.010 A 
ATOM     32  C   UNL     1      -3.633 -10.216   8.233  1.00  0.00     0.010 A 
ATOM     33  C   UNL     1      -4.717 -10.471   9.087  1.00  0.00    -0.014 A 
BRANCH  33  34
ATOM     34  C   UNL     1      -5.497 -11.726   8.927  1.00  0.00     0.031 A 
ATOM     35  C   UNL     1      -4.825 -13.057   9.130  1.00  0.00     0.074 A 
ATOM     36  C   UNL     1      -6.786 -11.670   8.539  1.00  0.00     0.049 A 
ATOM     37  N   UNL     1      -5.304 -14.262   8.956  1.00  0.00    -0.248 NA
ATOM     38  C   UNL     1      -3.418 -13.025   9.555  1.00  0.00     0.031 C 
ATOM     39  C   UNL     1      -7.537 -10.440   8.276  1.00  0.00     0.029 A 
ATOM     40  N   UNL     1      -7.693 -12.669   8.290  1.00  0.00    -0.354 N 
ATOM     41  C   UNL     1      -4.255 -15.131   9.238  1.00  0.00     0.074 A 
ATOM     42  C   UNL     1      -3.098 -14.309   9.527  1.00  0.00     0.031 C 
ATOM     43  C   UNL     1      -8.795 -10.758   7.929  1.00  0.00     0.029 A 
ATOM     44  C   UNL     1      -8.929 -12.210   7.895  1.00  0.00     0.049 A 
ATOM     45  H   UNL     1      -7.480 -13.626   8.384  1.00  0.00     0.167 HD
ATOM     46  C   UNL     1      -4.262 -16.486   9.279  1.00  0.00     0.034 A 
ATOM     47  C   UNL     1     -10.040 -12.884   7.534  1.00  0.00     0.034 A 
ATOM     48  C   UNL     1      -5.427 -17.290   8.997  1.00  0.00     0.049 A 
ATOM     49  C   UNL     1     -10.015 -14.392   7.552  1.00  0.00     0.074 A 
ATOM     50  C   UNL     1      -5.560 -18.666   9.054  1.00  0.00     0.029 A 
ATOM     51  N   UNL     1      -6.660 -16.790   8.596  1.00  0.00    -0.354 N 
ATOM     52  N   UNL     1      -9.027 -15.199   7.866  1.00  0.00    -0.248 NA
ATOM     53  C   UNL     1     -11.257 -15.079   7.176  1.00  0.00     0.031 C 
ATOM     54  C   UNL     1      -6.847 -19.002   8.621  1.00  0.00     0.029 A 
ATOM     55  C   UNL     1      -7.547 -17.832   8.372  1.00  0.00     0.049 A 
ATOM     56  H   UNL     1      -6.873 -15.835   8.486  1.00  0.00     0.167 HD
ATOM     57  C   UNL     1      -9.542 -16.488   7.757  1.00  0.00     0.074 A 
ATOM     58  C   UNL     1     -10.929 -16.348   7.363  1.00  0.00     0.031 C 
ATOM     59  C   UNL     1      -8.926 -17.679   7.969  1.00  0.00     0.034 A 
BRANCH  46  60
ATOM     60  C   UNL     1      -2.961 -17.177   9.617  1.00  0.00     0.023 A 
ATOM     61  C   UNL     1      -2.321 -16.980  10.855  1.00  0.00     0.031 A 
ATOM     62  C   UNL     1      -2.331 -18.014   8.680  1.00  0.00     0.131 A 
ATOM     63  C   UNL     1      -1.057 -17.541  11.088  1.00  0.00     0.055 A 
ATOM     64  C   UNL     1      -1.114 -18.642   8.953  1.00  0.00     0.041 A 
ATOM     65  F   UNL     1      -2.880 -18.224   7.473  1.00  0.00    -0.206 F 
ATOM     66  C   UNL     1      -0.461 -18.394  10.157  1.00  0.00     0.022 A 
BRANCH  63  67
ATOM     67  S   UNL     1      -0.136 -17.013  12.558  1.00  0.00     0.124 S 
ATOM     68  O   UNL     1      -0.048 -15.569  12.348  1.00  0.00    -0.237 OA
ATOM     69  O   UNL     1      -1.001 -17.449  13.648  1.00  0.00    -0.237 OA
ATOM     70  O   UNL     1       1.133 -17.729  12.443  1.00  0.00    -0.744 OA
ENDBRANCH  63  67
ENDBRANCH  46  60
BRANCH  47  71
ATOM     71  C   UNL     1     -11.269 -12.149   7.117  1.00  0.00     0.023 A 
ATOM     72  C   UNL     1     -12.455 -12.243   7.862  1.00  0.00     0.031 A 
ATOM     73  C   UNL     1     -11.290 -11.378   5.941  1.00  0.00     0.131 A 
ATOM     74  C   UNL     1     -13.625 -11.621   7.400  1.00  0.00     0.055 A 
ATOM     75  C   UNL     1     -12.442 -10.714   5.514  1.00  0.00     0.041 A 
ATOM     76  F   UNL     1     -10.183 -11.250   5.193  1.00  0.00    -0.206 F 
ATOM     77  C   UNL     1     -13.623 -10.845   6.238  1.00  0.00     0.022 A 
BRANCH  74  78
ATOM     78  S   UNL     1     -15.176 -11.914   8.294  1.00  0.00     0.124 S 
ATOM     79  O   UNL     1     -15.287 -13.367   8.227  1.00  0.00    -0.237 OA
ATOM     80  O   UNL     1     -14.879 -11.352   9.607  1.00  0.00    -0.237 OA
ATOM     81  O   UNL     1     -16.164 -11.175   7.511  1.00  0.00    -0.744 OA
ENDBRANCH  74  78
ENDBRANCH  47  71
BRANCH  59  82
ATOM     82  C   UNL     1      -9.770 -18.923   7.827  1.00  0.00     0.023 A 
ATOM     83  C   UNL     1     -10.299 -19.324   6.588  1.00  0.00     0.031 A 
ATOM     84  C   UNL     1     -10.057 -19.713   8.955  1.00  0.00     0.131 A 
ATOM     85  C   UNL     1     -11.133 -20.450   6.515  1.00  0.00     0.055 A 
ATOM     86  C   UNL     1     -10.835 -20.868   8.865  1.00  0.00     0.041 A 
ATOM     87  F   UNL     1      -9.581 -19.377  10.164  1.00  0.00    -0.206 F 
ATOM     88  C   UNL     1     -11.390 -21.235   7.643  1.00  0.00     0.022 A 
BRANCH  85  89
ATOM     89  S   UNL     1     -11.958 -20.825   4.944  1.00  0.00     0.124 S 
ATOM     90  O   UNL     1     -12.714 -19.600   4.699  1.00  0.00    -0.237 OA
ATOM     91  O   UNL     1     -10.831 -21.068   4.050  1.00  0.00    -0.237 OA
ATOM     92  O   UNL     1     -12.768 -22.002   5.253  1.00  0.00    -0.744 OA
ENDBRANCH  85  89
ENDBRANCH  59  82
ENDBRANCH  33  34
ENDBRANCH  25  28
ENDBRANCH  23  24
ENDBRANCH  22  23
ENDBRANCH   1  22
TORSDOF 18
