REMARK SMILES O=C(CCn1ccnc1)N[C@H]1C=C[C@H](C(=O)NCCCCNC(=O)c2ccc(-c3c4nc(c(-c5cc(S(=O)(=O)[O-])ccc5F)c5ccc([nH]5)c(-c5cc(S(=O)(=O)[O-])ccc5F)c5nc(c(-c6cc(S(=O)(=O)[O-])ccc6F)c6ccc3[nH]6)C=C5)C=C4)cc2)C1
REMARK SMILES IDX 19 1 18 2 17 3 15 4 16 5 14 7 11 8 12 9 88 10 13 11 10 12
REMARK SMILES IDX 1 13 2 14 3 16 4 17 5 18 6 19 9 20 7 21 8 22 20 23 21 24
REMARK SMILES IDX 22 25 23 26 24 28 25 29 26 30 87 31 27 32 86 33 28 34 29 35
REMARK SMILES IDX 30 36 80 37 31 38 85 39 79 40 81 41 32 42 84 43 78 44 77 45
REMARK SMILES IDX 33 47 65 48 45 49 64 50 46 51 49 52 63 53 82 54 47 55 48 56
REMARK SMILES IDX 62 58 83 59 50 60 34 61 35 62 43 63 36 64 42 65 44 66 41 67
REMARK SMILES IDX 37 68 38 69 39 70 40 71 66 72 67 73 75 74 68 75 74 76 76 77
REMARK SMILES IDX 73 78 69 79 70 80 71 81 72 82 51 83 52 84 60 85 53 86 59 87
REMARK SMILES IDX 61 88 58 89 54 90 55 91 56 92 57 93
REMARK H PARENT 17 6 10 15 22 27 81 46 49 57
REMARK Flexibility Score: inf
ROOT
ATOM      1  C   UNL     1       0.275  -5.750   3.467  1.00  0.00     0.023 C 
ENDROOT
BRANCH   1   2
ATOM      2  C   UNL     1       0.174  -4.224   3.563  1.00  0.00     0.116 C 
BRANCH   2   3
ATOM      3  N   UNL     1       0.776  -3.721   4.784  1.00  0.00    -0.356 N 
ATOM      4  C   UNL     1       2.006  -3.219   5.064  1.00  0.00     0.227 C 
ATOM      5  O   UNL     1       2.257  -3.012   6.258  1.00  0.00    -0.274 OA
ATOM      6  H   UNL     1       0.175  -3.750   5.562  1.00  0.00     0.163 HD
BRANCH   4   7
ATOM      7  C   UNL     1       3.039  -2.800   4.007  1.00  0.00     0.103 C 
ATOM      8  C   UNL     1       2.236  -1.467   2.117  1.00  0.00     0.106 C 
ATOM      9  C   UNL     1       2.716  -2.820   1.686  1.00  0.00    -0.006 C 
ATOM     10  C   UNL     1       2.787  -1.357   3.541  1.00  0.00     0.047 C 
ATOM     11  C   UNL     1       3.137  -3.557   2.721  1.00  0.00    -0.016 C 
BRANCH   8  12
ATOM     12  N   UNL     1       2.833  -0.510   1.225  1.00  0.00    -0.350 N 
ATOM     13  O   UNL     1       0.948  -0.125  -0.001  1.00  0.00    -0.275 OA
ATOM     14  C   UNL     1       2.148   0.056   0.182  1.00  0.00     0.222 C 
ATOM     15  H   UNL     1       3.771  -0.250   1.371  1.00  0.00     0.164 HD
BRANCH  14  16
ATOM     16  C   UNL     1       2.982   0.799  -0.847  1.00  0.00     0.122 C 
BRANCH  16  17
ATOM     17  C   UNL     1       3.962   1.835  -0.307  1.00  0.00     0.133 C 
BRANCH  17  18
ATOM     18  N   UNL     1       5.130   1.319   0.384  1.00  0.00    -0.337 N 
ATOM     19  C   UNL     1       5.684   1.870   1.507  1.00  0.00     0.107 A 
ATOM     20  C   UNL     1       5.816   0.167   0.116  1.00  0.00     0.199 A 
ATOM     21  C   UNL     1       6.629   0.963   1.923  1.00  0.00     0.130 A 
ATOM     22  N   UNL     1       6.694  -0.097   1.058  1.00  0.00    -0.245 NA
ENDBRANCH  17  18
ENDBRANCH  16  17
ENDBRANCH  14  16
ENDBRANCH   8  12
ENDBRANCH   4   7
ENDBRANCH   2   3
ENDBRANCH   1   2
BRANCH   1  23
ATOM     23  C   UNL     1      -0.694  -6.526   4.372  1.00  0.00     0.023 C 
BRANCH  23  24
ATOM     24  C   UNL     1      -2.171  -6.346   4.032  1.00  0.00     0.116 C 
BRANCH  24  25
ATOM     25  N   UNL     1      -2.516  -6.809   2.686  1.00  0.00    -0.352 N 
ATOM     26  C   UNL     1      -3.702  -6.605   1.990  1.00  0.00     0.251 C 
ATOM     27  H   UNL     1      -1.823  -7.327   2.216  1.00  0.00     0.163 HD
ATOM     28  O   UNL     1      -4.032  -7.342   1.081  1.00  0.00    -0.269 OA
BRANCH  26  29
ATOM     29  C   UNL     1      -4.535  -5.452   2.384  1.00  0.00     0.039 A 
ATOM     30  C   UNL     1      -5.924  -5.532   2.529  1.00  0.00     0.014 A 
ATOM     31  C   UNL     1      -3.853  -4.279   2.672  1.00  0.00     0.014 A 
ATOM     32  C   UNL     1      -6.608  -4.433   3.054  1.00  0.00     0.010 A 
ATOM     33  C   UNL     1      -4.489  -3.288   3.364  1.00  0.00     0.010 A 
ATOM     34  C   UNL     1      -5.877  -3.317   3.481  1.00  0.00    -0.014 A 
BRANCH  34  35
ATOM     35  C   UNL     1      -6.493  -2.159   4.122  1.00  0.00     0.031 A 
ATOM     36  C   UNL     1      -7.153  -2.419   5.435  1.00  0.00     0.074 A 
ATOM     37  C   UNL     1      -6.170  -0.909   3.716  1.00  0.00     0.049 A 
ATOM     38  N   UNL     1      -8.383  -2.216   5.772  1.00  0.00    -0.248 NA
ATOM     39  C   UNL     1      -6.367  -3.098   6.480  1.00  0.00     0.031 C 
ATOM     40  C   UNL     1      -5.238  -0.520   2.644  1.00  0.00     0.029 A 
ATOM     41  N   UNL     1      -6.469   0.287   4.285  1.00  0.00    -0.354 N 
ATOM     42  C   UNL     1      -8.479  -2.530   7.128  1.00  0.00     0.074 A 
ATOM     43  C   UNL     1      -7.277  -3.253   7.444  1.00  0.00     0.031 C 
ATOM     44  C   UNL     1      -4.854   0.762   2.817  1.00  0.00     0.029 A 
ATOM     45  C   UNL     1      -5.651   1.341   3.882  1.00  0.00     0.049 A 
ATOM     46  H   UNL     1      -7.204   0.400   4.929  1.00  0.00     0.167 HD
ATOM     47  C   UNL     1      -9.436  -1.973   7.926  1.00  0.00     0.034 A 
ATOM     48  C   UNL     1      -5.604   2.594   4.406  1.00  0.00     0.034 A 
ATOM     49  C   UNL     1     -10.474  -1.362   7.123  1.00  0.00     0.049 A 
ATOM     50  C   UNL     1      -6.886   2.790   5.128  1.00  0.00     0.074 A 
ATOM     51  C   UNL     1     -11.365  -1.829   6.176  1.00  0.00     0.029 A 
ATOM     52  N   UNL     1     -10.434   0.004   6.942  1.00  0.00    -0.354 N 
ATOM     53  N   UNL     1      -8.049   2.783   4.532  1.00  0.00    -0.248 NA
ATOM     54  C   UNL     1      -6.921   2.480   6.550  1.00  0.00     0.031 C 
ATOM     55  C   UNL     1     -11.380  -0.820   5.166  1.00  0.00     0.029 A 
ATOM     56  C   UNL     1     -10.577   0.240   5.595  1.00  0.00     0.049 A 
ATOM     57  H   UNL     1     -10.323   0.683   7.645  1.00  0.00     0.167 HD
ATOM     58  C   UNL     1      -8.879   2.054   5.371  1.00  0.00     0.074 A 
ATOM     59  C   UNL     1      -8.160   1.986   6.643  1.00  0.00     0.031 C 
ATOM     60  C   UNL     1      -9.928   1.325   4.880  1.00  0.00     0.034 A 
BRANCH  47  61
ATOM     61  C   UNL     1      -9.293  -1.665   9.407  1.00  0.00     0.023 A 
ATOM     62  C   UNL     1     -10.380  -1.024  10.039  1.00  0.00     0.031 A 
ATOM     63  C   UNL     1      -8.098  -1.706  10.159  1.00  0.00     0.131 A 
ATOM     64  C   UNL     1     -10.226  -0.372  11.277  1.00  0.00     0.055 A 
ATOM     65  C   UNL     1      -7.967  -1.114  11.421  1.00  0.00     0.041 A 
ATOM     66  F   UNL     1      -6.963  -2.239   9.695  1.00  0.00    -0.206 F 
ATOM     67  C   UNL     1      -9.022  -0.410  11.972  1.00  0.00     0.022 A 
BRANCH  64  68
ATOM     68  S   UNL     1     -11.571   0.688  11.867  1.00  0.00     0.124 S 
ATOM     69  O   UNL     1     -11.835   1.513  10.693  1.00  0.00    -0.237 OA
ATOM     70  O   UNL     1     -12.595  -0.293  12.210  1.00  0.00    -0.237 OA
ATOM     71  O   UNL     1     -10.975   1.391  13.001  1.00  0.00    -0.744 OA
ENDBRANCH  64  68
ENDBRANCH  47  61
BRANCH  48  72
ATOM     72  C   UNL     1      -4.393   3.442   4.595  1.00  0.00     0.023 A 
ATOM     73  C   UNL     1      -4.440   4.846   4.719  1.00  0.00     0.031 A 
ATOM     74  C   UNL     1      -3.155   2.823   4.888  1.00  0.00     0.131 A 
ATOM     75  C   UNL     1      -3.286   5.567   5.115  1.00  0.00     0.055 A 
ATOM     76  C   UNL     1      -2.020   3.538   5.278  1.00  0.00     0.041 A 
ATOM     77  F   UNL     1      -3.031   1.486   4.885  1.00  0.00    -0.206 F 
ATOM     78  C   UNL     1      -2.083   4.916   5.401  1.00  0.00     0.022 A 
BRANCH  75  79
ATOM     79  S   UNL     1      -3.352   7.376   5.343  1.00  0.00     0.124 S 
ATOM     80  O   UNL     1      -3.557   7.854   3.981  1.00  0.00    -0.237 OA
ATOM     81  O   UNL     1      -4.472   7.535   6.263  1.00  0.00    -0.237 OA
ATOM     82  O   UNL     1      -2.043   7.697   5.914  1.00  0.00    -0.744 OA
ENDBRANCH  75  79
ENDBRANCH  48  72
BRANCH  60  83
ATOM     83  C   UNL     1     -10.309   1.501   3.418  1.00  0.00     0.023 A 
ATOM     84  C   UNL     1      -9.458   1.230   2.320  1.00  0.00     0.031 A 
ATOM     85  C   UNL     1     -11.649   1.816   3.134  1.00  0.00     0.131 A 
ATOM     86  C   UNL     1      -9.959   1.286   1.002  1.00  0.00     0.055 A 
ATOM     87  C   UNL     1     -12.146   1.849   1.832  1.00  0.00     0.041 A 
ATOM     88  F   UNL     1     -12.517   2.053   4.132  1.00  0.00    -0.206 F 
ATOM     89  C   UNL     1     -11.302   1.588   0.759  1.00  0.00     0.022 A 
BRANCH  86  90
ATOM     90  S   UNL     1      -8.870   0.969  -0.428  1.00  0.00     0.124 S 
ATOM     91  O   UNL     1      -7.721   1.831  -0.179  1.00  0.00    -0.237 OA
ATOM     92  O   UNL     1      -8.627  -0.468  -0.332  1.00  0.00    -0.237 OA
ATOM     93  O   UNL     1      -9.690   1.367  -1.575  1.00  0.00    -0.744 OA
ENDBRANCH  86  90
ENDBRANCH  60  83
ENDBRANCH  34  35
ENDBRANCH  26  29
ENDBRANCH  24  25
ENDBRANCH  23  24
ENDBRANCH   1  23
TORSDOF 18
