REMARK SMILES Nc1nc(N)nc(N/C=C/C(=O)NCCCCNC(=O)c2ccc(-c3c4nc(c(-c5cc(S(=O)(=O)[O-])ccc5F)c5ccc([nH]5)c(-c5cc(S(=O)(=O)[O-])ccc5F)c5nc(c(-c6cc(S(=O)(=O)[O-])ccc6F)c6ccc3[nH]6)C=C5)C=C4)cc2)n1
REMARK SMILES IDX 15 1 14 2 13 3 11 4 12 5 10 7 9 8 8 9 7 11 2 12 3 13 84 14
REMARK SMILES IDX 4 15 6 16 1 17 5 20 16 23 17 24 18 25 19 26 20 28 21 29
REMARK SMILES IDX 22 30 83 31 23 32 82 33 24 34 25 35 26 36 76 37 27 38 81 39
REMARK SMILES IDX 75 40 77 41 28 42 80 43 74 44 73 45 29 47 61 48 41 49 60 50
REMARK SMILES IDX 42 51 45 52 59 53 78 54 43 55 44 56 58 58 79 59 46 60 30 61
REMARK SMILES IDX 31 62 39 63 32 64 38 65 40 66 37 67 33 68 34 69 35 70 36 71
REMARK SMILES IDX 62 72 63 73 71 74 64 75 70 76 72 77 69 78 65 79 66 80 67 81
REMARK SMILES IDX 68 82 47 83 48 84 56 85 49 86 55 87 57 88 54 89 50 90 51 91
REMARK SMILES IDX 52 92 53 93
REMARK H PARENT 13 6 8 10 1 18 1 19 5 21 5 22 18 27 77 46 45 57
REMARK Flexibility Score: inf
ROOT
ATOM      1  C   UNL     1       4.418   3.303  -1.044  1.00  0.00     0.023 C 
ENDROOT
BRANCH   1   2
ATOM      2  C   UNL     1       3.986   3.998   0.249  1.00  0.00     0.116 C 
BRANCH   2   3
ATOM      3  N   UNL     1       3.541   5.357  -0.012  1.00  0.00    -0.353 N 
ATOM      4  C   UNL     1       2.294   5.897  -0.087  1.00  0.00     0.245 C 
ATOM      5  O   UNL     1       2.171   7.112  -0.235  1.00  0.00    -0.270 OA
ATOM      6  H   UNL     1       4.270   6.002  -0.160  1.00  0.00     0.163 HD
BRANCH   4   7
ATOM      7  C   UNL     1       1.069   5.081   0.092  1.00  0.00     0.089 C 
ATOM      8  C   UNL     1       0.900   3.827  -0.339  1.00  0.00     0.091 C 
BRANCH   8   9
ATOM      9  N   UNL     1      -0.189   3.016  -0.178  1.00  0.00    -0.330 N 
ATOM     10  H   UNL     1      -1.062   3.454  -0.048  1.00  0.00     0.169 HD
BRANCH   9  11
ATOM     11  C   UNL     1      -0.169   1.620  -0.182  1.00  0.00     0.233 A 
ATOM     12  C   UNL     1      -1.283  -0.310  -0.004  1.00  0.00     0.226 A 
ATOM     13  N   UNL     1      -0.175  -1.030  -0.035  1.00  0.00    -0.177 NA
ATOM     14  N   UNL     1      -1.341   1.011  -0.053  1.00  0.00    -0.177 NA
ATOM     15  C   UNL     1       0.940  -0.332  -0.148  1.00  0.00     0.226 A 
ATOM     16  N   UNL     1       0.998   0.983  -0.245  1.00  0.00    -0.177 NA
BRANCH  12  17
ATOM     17  N   UNL     1      -2.466  -0.989   0.085  1.00  0.00    -0.368 N 
ATOM     18  H   UNL     1      -2.468  -1.972   0.124  1.00  0.00     0.159 HD
ATOM     19  H   UNL     1      -3.317  -0.494   0.109  1.00  0.00     0.159 HD
ENDBRANCH  12  17
BRANCH  15  20
ATOM     20  N   UNL     1       2.122  -1.016  -0.143  1.00  0.00    -0.368 N 
ATOM     21  H   UNL     1       2.122  -1.998  -0.073  1.00  0.00     0.159 HD
ATOM     22  H   UNL     1       2.974  -0.527  -0.210  1.00  0.00     0.159 HD
ENDBRANCH  15  20
ENDBRANCH   9  11
ENDBRANCH   8   9
ENDBRANCH   4   7
ENDBRANCH   2   3
ENDBRANCH   1   2
BRANCH   1  23
ATOM     23  C   UNL     1       5.827   3.675  -1.519  1.00  0.00     0.023 C 
BRANCH  23  24
ATOM     24  C   UNL     1       6.957   3.270  -0.576  1.00  0.00     0.116 C 
BRANCH  24  25
ATOM     25  N   UNL     1       6.992   1.842  -0.302  1.00  0.00    -0.352 N 
ATOM     26  C   UNL     1       8.083   1.039  -0.061  1.00  0.00     0.251 C 
ATOM     27  H   UNL     1       6.118   1.389  -0.288  1.00  0.00     0.163 HD
ATOM     28  O   UNL     1       7.938  -0.172   0.041  1.00  0.00    -0.269 OA
BRANCH  26  29
ATOM     29  C   UNL     1       9.428   1.650   0.025  1.00  0.00     0.039 A 
ATOM     30  C   UNL     1      10.471   1.088  -0.715  1.00  0.00     0.014 A 
ATOM     31  C   UNL     1       9.650   2.789   0.804  1.00  0.00     0.014 A 
ATOM     32  C   UNL     1      11.721   1.711  -0.731  1.00  0.00     0.010 A 
ATOM     33  C   UNL     1      10.876   3.444   0.735  1.00  0.00     0.010 A 
ATOM     34  C   UNL     1      11.922   2.916  -0.037  1.00  0.00    -0.014 A 
BRANCH  34  35
ATOM     35  C   UNL     1      13.216   3.642  -0.112  1.00  0.00     0.031 A 
ATOM     36  C   UNL     1      14.057   3.815   1.123  1.00  0.00     0.074 A 
ATOM     37  C   UNL     1      13.595   4.209  -1.274  1.00  0.00     0.049 A 
ATOM     38  N   UNL     1      15.170   4.483   1.281  1.00  0.00    -0.248 NA
ATOM     39  C   UNL     1      13.556   3.178   2.349  1.00  0.00     0.031 C 
ATOM     40  C   UNL     1      12.841   4.150  -2.528  1.00  0.00     0.029 A 
ATOM     41  N   UNL     1      14.702   4.956  -1.588  1.00  0.00    -0.354 N 
ATOM     42  C   UNL     1      15.497   4.361   2.628  1.00  0.00     0.074 A 
ATOM     43  C   UNL     1      14.427   3.608   3.249  1.00  0.00     0.031 C 
ATOM     44  C   UNL     1      13.518   4.812  -3.480  1.00  0.00     0.029 A 
ATOM     45  C   UNL     1      14.730   5.379  -2.897  1.00  0.00     0.049 A 
ATOM     46  H   UNL     1      15.410   5.170  -0.938  1.00  0.00     0.167 HD
ATOM     47  C   UNL     1      16.598   4.813   3.279  1.00  0.00     0.034 A 
ATOM     48  C   UNL     1      15.626   6.144  -3.551  1.00  0.00     0.034 A 
ATOM     49  C   UNL     1      17.659   5.554   2.640  1.00  0.00     0.049 A 
ATOM     50  C   UNL     1      16.833   6.652  -2.805  1.00  0.00     0.074 A 
ATOM     51  C   UNL     1      18.848   6.007   3.187  1.00  0.00     0.029 A 
ATOM     52  N   UNL     1      17.656   5.961   1.311  1.00  0.00    -0.354 N 
ATOM     53  N   UNL     1      17.157   6.482  -1.544  1.00  0.00    -0.248 NA
ATOM     54  C   UNL     1      17.797   7.448  -3.574  1.00  0.00     0.031 C 
ATOM     55  C   UNL     1      19.530   6.741   2.209  1.00  0.00     0.029 A 
ATOM     56  C   UNL     1      18.805   6.686   1.030  1.00  0.00     0.049 A 
ATOM     57  H   UNL     1      16.942   5.764   0.663  1.00  0.00     0.167 HD
ATOM     58  C   UNL     1      18.380   7.126  -1.377  1.00  0.00     0.074 A 
ATOM     59  C   UNL     1      18.738   7.677  -2.669  1.00  0.00     0.031 C 
ATOM     60  C   UNL     1      19.141   7.246  -0.259  1.00  0.00     0.034 A 
BRANCH  47  61
ATOM     61  C   UNL     1      16.683   4.537   4.763  1.00  0.00     0.023 A 
ATOM     62  C   UNL     1      16.713   3.225   5.268  1.00  0.00     0.031 A 
ATOM     63  C   UNL     1      16.683   5.596   5.688  1.00  0.00     0.131 A 
ATOM     64  C   UNL     1      16.644   3.004   6.652  1.00  0.00     0.055 A 
ATOM     65  C   UNL     1      16.706   5.370   7.066  1.00  0.00     0.041 A 
ATOM     66  F   UNL     1      16.637   6.871   5.269  1.00  0.00    -0.206 F 
ATOM     67  C   UNL     1      16.666   4.068   7.556  1.00  0.00     0.022 A 
BRANCH  64  68
ATOM     68  S   UNL     1      16.352   1.314   7.243  1.00  0.00     0.124 S 
ATOM     69  O   UNL     1      15.101   0.978   6.568  1.00  0.00    -0.237 OA
ATOM     70  O   UNL     1      17.539   0.608   6.777  1.00  0.00    -0.237 OA
ATOM     71  O   UNL     1      16.247   1.471   8.692  1.00  0.00    -0.744 OA
ENDBRANCH  64  68
ENDBRANCH  47  61
BRANCH  48  72
ATOM     72  C   UNL     1      15.421   6.480  -4.987  1.00  0.00     0.023 A 
ATOM     73  C   UNL     1      16.285   5.982  -5.975  1.00  0.00     0.031 A 
ATOM     74  C   UNL     1      14.370   7.322  -5.391  1.00  0.00     0.131 A 
ATOM     75  C   UNL     1      16.108   6.361  -7.314  1.00  0.00     0.055 A 
ATOM     76  C   UNL     1      14.171   7.660  -6.731  1.00  0.00     0.041 A 
ATOM     77  F   UNL     1      13.510   7.817  -4.487  1.00  0.00    -0.206 F 
ATOM     78  C   UNL     1      15.050   7.187  -7.701  1.00  0.00     0.022 A 
BRANCH  75  79
ATOM     79  S   UNL     1      17.322   5.805  -8.542  1.00  0.00     0.124 S 
ATOM     80  O   UNL     1      18.556   6.385  -8.023  1.00  0.00    -0.237 OA
ATOM     81  O   UNL     1      17.206   4.354  -8.447  1.00  0.00    -0.237 OA
ATOM     82  O   UNL     1      16.834   6.387  -9.790  1.00  0.00    -0.744 OA
ENDBRANCH  75  79
ENDBRANCH  48  72
BRANCH  60  83
ATOM     83  C   UNL     1      20.457   7.970  -0.404  1.00  0.00     0.023 A 
ATOM     84  C   UNL     1      20.518   9.348  -0.672  1.00  0.00     0.031 A 
ATOM     85  C   UNL     1      21.667   7.263  -0.287  1.00  0.00     0.131 A 
ATOM     86  C   UNL     1      21.763   9.967  -0.867  1.00  0.00     0.055 A 
ATOM     87  C   UNL     1      22.903   7.895  -0.424  1.00  0.00     0.041 A 
ATOM     88  F   UNL     1      21.667   5.944  -0.034  1.00  0.00    -0.206 F 
ATOM     89  C   UNL     1      22.956   9.252  -0.729  1.00  0.00     0.022 A 
BRANCH  86  90
ATOM     90  S   UNL     1      21.801  11.703  -1.391  1.00  0.00     0.124 S 
ATOM     91  O   UNL     1      21.051  11.659  -2.642  1.00  0.00    -0.237 OA
ATOM     92  O   UNL     1      21.144  12.380  -0.278  1.00  0.00    -0.237 OA
ATOM     93  O   UNL     1      23.228  11.988  -1.533  1.00  0.00    -0.744 OA
ENDBRANCH  86  90
ENDBRANCH  60  83
ENDBRANCH  34  35
ENDBRANCH  26  29
ENDBRANCH  24  25
ENDBRANCH  23  24
ENDBRANCH   1  23
TORSDOF 18
