REMARK SMILES CC[C@H]1CC[C@](O)([C@H](F)C(=O)NCCCCNC(=O)c2ccc(-c3c4nc(c(-c5cc(S(=O)(=O)[O-])ccc5F)c5ccc([nH]5)c(-c5cc(S(=O)(=O)[O-])ccc5F)c5nc(c(-c6cc(S(=O)(=O)[O-])ccc6F)c6ccc3[nH]6)C=C5)C=C4)cc2)CC1
REMARK SMILES IDX 15 1 14 2 13 3 12 4 10 5 11 6 8 8 9 9 6 10 3 11 4 12 84 13
REMARK SMILES IDX 5 14 83 15 2 16 1 17 7 18 16 20 17 21 18 22 19 24 20 25
REMARK SMILES IDX 21 26 82 27 22 28 81 29 23 30 24 31 25 32 75 33 26 34 80 35
REMARK SMILES IDX 74 36 76 37 27 38 79 39 73 40 72 41 28 43 60 44 40 45 59 46
REMARK SMILES IDX 41 47 44 48 58 49 77 50 42 51 43 52 57 54 78 55 45 56 29 57
REMARK SMILES IDX 30 58 38 59 31 60 37 61 39 62 36 63 32 64 33 65 34 66 35 67
REMARK SMILES IDX 61 68 62 69 70 70 63 71 69 72 71 73 68 74 64 75 65 76 66 77
REMARK SMILES IDX 67 78 46 79 47 80 55 81 48 82 54 83 56 84 53 85 49 86 50 87
REMARK SMILES IDX 51 88 52 89
REMARK H PARENT 12 7 7 19 17 23 76 42 44 53
REMARK Flexibility Score: inf
ROOT
ATOM      1  C   UNL     1       2.045   4.672  -1.542  1.00  0.00     0.023 C 
ENDROOT
BRANCH   1   2
ATOM      2  C   UNL     1       1.283   3.551  -0.829  1.00  0.00     0.023 C 
BRANCH   2   3
ATOM      3  C   UNL     1       1.343   3.579   0.697  1.00  0.00     0.116 C 
BRANCH   3   4
ATOM      4  N   UNL     1       0.827   4.816   1.245  1.00  0.00    -0.353 N 
ATOM      5  C   UNL     1       0.207   5.015   2.439  1.00  0.00     0.257 C 
ATOM      6  O   UNL     1      -0.110   6.174   2.729  1.00  0.00    -0.272 OA
ATOM      7  H   UNL     1       0.938   5.615   0.681  1.00  0.00     0.163 HD
BRANCH   5   8
ATOM      8  C   UNL     1      -0.060   3.870   3.416  1.00  0.00     0.286 C 
ATOM      9  F   UNL     1      -0.825   2.878   2.858  1.00  0.00    -0.234 F 
BRANCH   8  10
ATOM     10  C   UNL     1       1.184   3.243   4.114  1.00  0.00     0.105 C 
ATOM     11  C   UNL     1       1.813   4.756   6.661  1.00  0.00    -0.011 C 
ATOM     12  C   UNL     1       0.607   3.800   6.574  1.00  0.00     0.006 C 
ATOM     13  C   UNL     1       2.130   5.311   5.267  1.00  0.00     0.006 C 
ATOM     14  C   UNL     1       0.774   2.704   5.509  1.00  0.00     0.039 C 
ATOM     15  C   UNL     1       2.383   4.196   4.264  1.00  0.00     0.039 C 
BRANCH  11  16
ATOM     16  C   UNL     1       3.007   4.069   7.360  1.00  0.00    -0.000 C 
ATOM     17  C   UNL     1       4.322   4.830   7.267  1.00  0.00     0.004 C 
ENDBRANCH  11  16
BRANCH  10  18
ATOM     18  O   UNL     1       1.646   2.113   3.346  1.00  0.00    -0.386 OA
ATOM     19  H   UNL     1       2.421   1.722   3.780  1.00  0.00     0.211 HD
ENDBRANCH  10  18
ENDBRANCH   8  10
ENDBRANCH   5   8
ENDBRANCH   3   4
ENDBRANCH   2   3
ENDBRANCH   1   2
BRANCH   1  20
ATOM     20  C   UNL     1       3.525   4.781  -1.192  1.00  0.00     0.116 C 
BRANCH  20  21
ATOM     21  N   UNL     1       4.282   3.610  -1.610  1.00  0.00    -0.352 N 
ATOM     22  C   UNL     1       5.314   3.521  -2.515  1.00  0.00     0.251 C 
ATOM     23  H   UNL     1       4.018   2.763  -1.184  1.00  0.00     0.163 HD
ATOM     24  O   UNL     1       5.716   2.420  -2.881  1.00  0.00    -0.269 OA
BRANCH  22  25
ATOM     25  C   UNL     1       5.916   4.756  -3.062  1.00  0.00     0.039 A 
ATOM     26  C   UNL     1       6.082   4.884  -4.444  1.00  0.00     0.014 A 
ATOM     27  C   UNL     1       6.294   5.796  -2.209  1.00  0.00     0.014 A 
ATOM     28  C   UNL     1       6.553   6.089  -4.976  1.00  0.00     0.010 A 
ATOM     29  C   UNL     1       6.695   7.016  -2.744  1.00  0.00     0.010 A 
ATOM     30  C   UNL     1       6.824   7.178  -4.134  1.00  0.00    -0.014 A 
BRANCH  30  31
ATOM     31  C   UNL     1       7.262   8.498  -4.664  1.00  0.00     0.031 A 
ATOM     32  C   UNL     1       8.613   9.037  -4.281  1.00  0.00     0.074 A 
ATOM     33  C   UNL     1       6.415   9.250  -5.394  1.00  0.00     0.049 A 
ATOM     34  N   UNL     1       9.115  10.231  -4.465  1.00  0.00    -0.248 NA
ATOM     35  C   UNL     1       9.501   8.114  -3.558  1.00  0.00     0.031 C 
ATOM     36  C   UNL     1       5.070   8.849  -5.812  1.00  0.00     0.029 A 
ATOM     37  N   UNL     1       6.551  10.521  -5.896  1.00  0.00    -0.354 N 
ATOM     38  C   UNL     1      10.364  10.214  -3.853  1.00  0.00     0.074 A 
ATOM     39  C   UNL     1      10.516   8.906  -3.250  1.00  0.00     0.031 C 
ATOM     40  C   UNL     1       4.510   9.850  -6.511  1.00  0.00     0.029 A 
ATOM     41  C   UNL     1       5.430  10.982  -6.547  1.00  0.00     0.049 A 
ATOM     42  H   UNL     1       7.374  11.053  -5.798  1.00  0.00     0.167 HD
ATOM     43  C   UNL     1      11.303  11.193  -3.812  1.00  0.00     0.034 A 
ATOM     44  C   UNL     1       5.165  12.188  -7.089  1.00  0.00     0.034 A 
ATOM     45  C   UNL     1      11.143  12.482  -4.440  1.00  0.00     0.049 A 
ATOM     46  C   UNL     1       6.217  13.267  -7.022  1.00  0.00     0.074 A 
ATOM     47  C   UNL     1      12.044  13.531  -4.500  1.00  0.00     0.029 A 
ATOM     48  N   UNL     1      10.004  12.900  -5.118  1.00  0.00    -0.354 N 
ATOM     49  N   UNL     1       7.402  13.232  -6.456  1.00  0.00    -0.248 NA
ATOM     50  C   UNL     1       5.900  14.546  -7.673  1.00  0.00     0.031 C 
ATOM     51  C   UNL     1      11.432  14.600  -5.164  1.00  0.00     0.029 A 
ATOM     52  C   UNL     1      10.175  14.195  -5.582  1.00  0.00     0.049 A 
ATOM     53  H   UNL     1       9.195  12.355  -5.250  1.00  0.00     0.167 HD
ATOM     54  C   UNL     1       7.984  14.469  -6.718  1.00  0.00     0.074 A 
ATOM     55  C   UNL     1       7.023  15.226  -7.493  1.00  0.00     0.031 C 
ATOM     56  C   UNL     1       9.207  14.934  -6.359  1.00  0.00     0.034 A 
BRANCH  43  57
ATOM     57  C   UNL     1      12.566  10.907  -3.037  1.00  0.00     0.023 A 
ATOM     58  C   UNL     1      13.443   9.872  -3.408  1.00  0.00     0.031 A 
ATOM     59  C   UNL     1      12.879  11.650  -1.884  1.00  0.00     0.131 A 
ATOM     60  C   UNL     1      14.535   9.550  -2.589  1.00  0.00     0.055 A 
ATOM     61  C   UNL     1      14.018  11.382  -1.122  1.00  0.00     0.041 A 
ATOM     62  F   UNL     1      12.071  12.638  -1.467  1.00  0.00    -0.206 F 
ATOM     63  C   UNL     1      14.844  10.315  -1.462  1.00  0.00     0.022 A 
BRANCH  60  64
ATOM     64  S   UNL     1      15.450   8.022  -2.930  1.00  0.00     0.124 S 
ATOM     65  O   UNL     1      14.397   7.016  -2.809  1.00  0.00    -0.237 OA
ATOM     66  O   UNL     1      15.961   8.254  -4.276  1.00  0.00    -0.237 OA
ATOM     67  O   UNL     1      16.460   7.984  -1.875  1.00  0.00    -0.744 OA
ENDBRANCH  60  64
ENDBRANCH  43  57
BRANCH  44  68
ATOM     68  C   UNL     1       3.845  12.456  -7.729  1.00  0.00     0.023 A 
ATOM     69  C   UNL     1       3.750  12.707  -9.106  1.00  0.00     0.031 A 
ATOM     70  C   UNL     1       2.665  12.506  -6.965  1.00  0.00     0.131 A 
ATOM     71  C   UNL     1       2.510  13.043  -9.673  1.00  0.00     0.055 A 
ATOM     72  C   UNL     1       1.426  12.791  -7.542  1.00  0.00     0.041 A 
ATOM     73  F   UNL     1       2.700  12.268  -5.645  1.00  0.00    -0.206 F 
ATOM     74  C   UNL     1       1.346  13.075  -8.902  1.00  0.00     0.022 A 
BRANCH  71  75
ATOM     75  S   UNL     1       2.456  13.517 -11.422  1.00  0.00     0.124 S 
ATOM     76  O   UNL     1       3.368  14.655 -11.450  1.00  0.00    -0.237 OA
ATOM     77  O   UNL     1       2.925  12.302 -12.080  1.00  0.00    -0.237 OA
ATOM     78  O   UNL     1       1.048  13.839 -11.644  1.00  0.00    -0.744 OA
ENDBRANCH  71  75
ENDBRANCH  44  68
BRANCH  56  79
ATOM     79  C   UNL     1       9.600  16.300  -6.863  1.00  0.00     0.023 A 
ATOM     80  C   UNL     1       8.986  17.473  -6.393  1.00  0.00     0.031 A 
ATOM     81  C   UNL     1      10.614  16.422  -7.830  1.00  0.00     0.131 A 
ATOM     82  C   UNL     1       9.362  18.717  -6.924  1.00  0.00     0.055 A 
ATOM     83  C   UNL     1      11.019  17.665  -8.316  1.00  0.00     0.041 A 
ATOM     84  F   UNL     1      11.231  15.332  -8.313  1.00  0.00    -0.206 F 
ATOM     85  C   UNL     1      10.386  18.821  -7.870  1.00  0.00     0.022 A 
BRANCH  82  86
ATOM     86  S   UNL     1       8.449  20.198  -6.411  1.00  0.00     0.124 S 
ATOM     87  O   UNL     1       7.088  19.876  -6.829  1.00  0.00    -0.237 OA
ATOM     88  O   UNL     1       8.683  20.227  -4.971  1.00  0.00    -0.237 OA
ATOM     89  O   UNL     1       9.090  21.275  -7.164  1.00  0.00    -0.744 OA
ENDBRANCH  82  86
ENDBRANCH  56  79
ENDBRANCH  30  31
ENDBRANCH  22  25
ENDBRANCH  20  21
ENDBRANCH   1  20
TORSDOF 17
