REMARK SMILES CO[C@@H]1C[C@H](C(=O)NCCCCNC(=O)c2ccc(-c3c4nc(c(-c5cc(S(=O)(=O)[O-])ccc5F)c5ccc([nH]5)c(-c5cc(S(=O)(=O)[O-])ccc5F)c5nc(c(-c6cc(S(=O)(=O)[O-])ccc6F)c6ccc3[nH]6)C=C5)C=C4)cc2)N(C(=O)c2ccc([N+](=O)[O-])s2)C1
REMARK SMILES IDX 10 1 9 2 8 3 6 4 7 5 5 7 3 8 4 9 90 10 79 11 2 12 1 13 80 14
REMARK SMILES IDX 81 15 82 16 83 17 89 18 84 19 85 20 86 21 87 22 88 23 11 24
REMARK SMILES IDX 12 25 13 26 14 27 15 29 16 30 17 31 78 32 18 33 77 34 19 35
REMARK SMILES IDX 20 36 21 37 71 38 22 39 76 40 70 41 72 42 23 43 75 44 69 45
REMARK SMILES IDX 68 46 24 48 56 49 36 50 55 51 37 52 40 53 54 54 73 55 38 56
REMARK SMILES IDX 39 57 53 59 74 60 41 61 25 62 26 63 34 64 27 65 33 66 35 67
REMARK SMILES IDX 32 68 28 69 29 70 30 71 31 72 57 73 58 74 66 75 59 76 65 77
REMARK SMILES IDX 67 78 64 79 60 80 61 81 62 82 63 83 42 84 43 85 51 86 44 87
REMARK SMILES IDX 50 88 52 89 49 90 45 91 46 92 47 93 48 94
REMARK H PARENT 8 6 13 28 72 47 40 58
REMARK Flexibility Score: inf
ROOT
ATOM      1  C   UNL     1      -0.372   0.683  -1.727  1.00  0.00     0.023 C 
ENDROOT
BRANCH   1   2
ATOM      2  C   UNL     1       0.650   1.729  -2.177  1.00  0.00     0.116 C 
BRANCH   2   3
ATOM      3  N   UNL     1       0.038   3.026  -2.382  1.00  0.00    -0.354 N 
ATOM      4  C   UNL     1       0.022   4.141  -1.607  1.00  0.00     0.242 C 
ATOM      5  O   UNL     1      -0.619   5.109  -2.037  1.00  0.00    -0.273 OA
ATOM      6  H   UNL     1      -0.451   3.115  -3.231  1.00  0.00     0.163 HD
BRANCH   4   7
ATOM      7  C   UNL     1       0.720   4.259  -0.229  1.00  0.00     0.177 C 
ATOM      8  C   UNL     1       1.348   2.417   1.282  1.00  0.00     0.139 C 
ATOM      9  C   UNL     1       0.185   3.319   0.849  1.00  0.00     0.069 C 
ATOM     10  C   UNL     1       2.596   2.985   0.601  1.00  0.00     0.152 C 
ATOM     11  N   UNL     1       2.167   4.092  -0.231  1.00  0.00    -0.323 N 
BRANCH   8  12
ATOM     12  O   UNL     1       1.037   1.085   0.885  1.00  0.00    -0.380 OA
ATOM     13  C   UNL     1       1.919   0.096   1.396  1.00  0.00     0.195 C 
ENDBRANCH   8  12
BRANCH  11  14
ATOM     14  C   UNL     1       3.121   4.928  -0.798  1.00  0.00     0.264 C 
ATOM     15  O   UNL     1       4.309   4.605  -0.783  1.00  0.00    -0.268 OA
BRANCH  14  16
ATOM     16  C   UNL     1       2.686   6.201  -1.348  1.00  0.00     0.099 A 
ATOM     17  C   UNL     1       2.022   7.243  -0.723  1.00  0.00     0.033 A 
ATOM     18  S   UNL     1       3.117   6.612  -2.957  1.00  0.00    -0.058 S 
ATOM     19  C   UNL     1       1.827   8.361  -1.587  1.00  0.00     0.099 A 
ATOM     20  C   UNL     1       2.387   8.140  -2.826  1.00  0.00     0.324 A 
BRANCH  20  21
ATOM     21  N   UNL     1       2.415   9.070  -3.925  1.00  0.00     0.074 N 
ATOM     22  O   UNL     1       1.865  10.164  -3.730  1.00  0.00    -0.258 OA
ATOM     23  O   UNL     1       2.995   8.739  -4.966  1.00  0.00    -0.258 OA
ENDBRANCH  20  21
ENDBRANCH  14  16
ENDBRANCH  11  14
ENDBRANCH   4   7
ENDBRANCH   2   3
ENDBRANCH   1   2
BRANCH   1  24
ATOM     24  C   UNL     1      -0.944  -0.184  -2.845  1.00  0.00     0.023 C 
BRANCH  24  25
ATOM     25  C   UNL     1       0.084  -1.007  -3.616  1.00  0.00     0.116 C 
BRANCH  25  26
ATOM     26  N   UNL     1       0.952  -1.833  -2.786  1.00  0.00    -0.352 N 
ATOM     27  C   UNL     1       1.477  -3.079  -3.078  1.00  0.00     0.251 C 
ATOM     28  H   UNL     1       1.194  -1.458  -1.909  1.00  0.00     0.163 HD
ATOM     29  O   UNL     1       2.156  -3.678  -2.263  1.00  0.00    -0.269 OA
BRANCH  27  30
ATOM     30  C   UNL     1       1.135  -3.683  -4.385  1.00  0.00     0.039 A 
ATOM     31  C   UNL     1       0.500  -4.926  -4.409  1.00  0.00     0.014 A 
ATOM     32  C   UNL     1       1.305  -2.946  -5.558  1.00  0.00     0.014 A 
ATOM     33  C   UNL     1      -0.074  -5.377  -5.600  1.00  0.00     0.010 A 
ATOM     34  C   UNL     1       0.654  -3.354  -6.715  1.00  0.00     0.010 A 
ATOM     35  C   UNL     1      -0.061  -4.563  -6.745  1.00  0.00    -0.014 A 
BRANCH  35  36
ATOM     36  C   UNL     1      -0.806  -4.929  -7.979  1.00  0.00     0.031 A 
ATOM     37  C   UNL     1      -0.064  -5.083  -9.279  1.00  0.00     0.074 A 
ATOM     38  C   UNL     1      -2.153  -5.014  -7.955  1.00  0.00     0.049 A 
ATOM     39  N   UNL     1      -0.534  -5.237 -10.489  1.00  0.00    -0.248 NA
ATOM     40  C   UNL     1       1.402  -5.006  -9.207  1.00  0.00     0.031 C 
ATOM     41  C   UNL     1      -2.994  -4.832  -6.769  1.00  0.00     0.029 A 
ATOM     42  N   UNL     1      -3.055  -5.256  -8.961  1.00  0.00    -0.354 N 
ATOM     43  C   UNL     1       0.576  -5.245 -11.326  1.00  0.00     0.074 A 
ATOM     44  C   UNL     1       1.734  -5.014 -10.488  1.00  0.00     0.031 C 
ATOM     45  C   UNL     1      -4.282  -4.994  -7.112  1.00  0.00     0.029 A 
ATOM     46  C   UNL     1      -4.368  -5.237  -8.548  1.00  0.00     0.049 A 
ATOM     47  H   UNL     1      -2.788  -5.426  -9.893  1.00  0.00     0.167 HD
ATOM     48  C   UNL     1       0.629  -5.452 -12.666  1.00  0.00     0.034 A 
ATOM     49  C   UNL     1      -5.512  -5.382  -9.247  1.00  0.00     0.034 A 
ATOM     50  C   UNL     1      -0.531  -5.711 -13.481  1.00  0.00     0.049 A 
ATOM     51  C   UNL     1      -5.430  -5.609 -10.736  1.00  0.00     0.074 A 
ATOM     52  C   UNL     1      -0.588  -6.000 -14.833  1.00  0.00     0.029 A 
ATOM     53  N   UNL     1      -1.842  -5.713 -13.020  1.00  0.00    -0.354 N 
ATOM     54  N   UNL     1      -4.368  -5.661 -11.507  1.00  0.00    -0.248 NA
ATOM     55  C   UNL     1      -6.700  -5.805 -11.448  1.00  0.00     0.031 C 
ATOM     56  C   UNL     1      -1.933  -6.118 -15.201  1.00  0.00     0.029 A 
ATOM     57  C   UNL     1      -2.714  -5.974 -14.066  1.00  0.00     0.049 A 
ATOM     58  H   UNL     1      -2.112  -5.552 -12.087  1.00  0.00     0.167 HD
ATOM     59  C   UNL     1      -4.842  -5.928 -12.788  1.00  0.00     0.074 A 
ATOM     60  C   UNL     1      -6.283  -6.036 -12.684  1.00  0.00     0.031 C 
ATOM     61  C   UNL     1      -4.149  -6.076 -13.945  1.00  0.00     0.034 A 
BRANCH  48  62
ATOM     62  C   UNL     1       1.987  -5.385 -13.322  1.00  0.00     0.023 A 
ATOM     63  C   UNL     1       3.015  -6.281 -12.980  1.00  0.00     0.031 A 
ATOM     64  C   UNL     1       2.274  -4.388 -14.271  1.00  0.00     0.131 A 
ATOM     65  C   UNL     1       4.302  -6.108 -13.509  1.00  0.00     0.055 A 
ATOM     66  C   UNL     1       3.534  -4.276 -14.863  1.00  0.00     0.041 A 
ATOM     67  F   UNL     1       1.340  -3.492 -14.625  1.00  0.00    -0.206 F 
ATOM     68  C   UNL     1       4.563  -5.127 -14.469  1.00  0.00     0.022 A 
BRANCH  65  69
ATOM     69  S   UNL     1       5.662  -7.079 -12.806  1.00  0.00     0.124 S 
ATOM     70  O   UNL     1       5.621  -6.669 -11.404  1.00  0.00    -0.237 OA
ATOM     71  O   UNL     1       5.247  -8.450 -13.082  1.00  0.00    -0.237 OA
ATOM     72  O   UNL     1       6.833  -6.619 -13.549  1.00  0.00    -0.744 OA
ENDBRANCH  65  69
ENDBRANCH  48  62
BRANCH  49  73
ATOM     73  C   UNL     1      -6.835  -5.309  -8.563  1.00  0.00     0.023 A 
ATOM     74  C   UNL     1      -7.678  -6.430  -8.502  1.00  0.00     0.031 A 
ATOM     75  C   UNL     1      -7.298  -4.106  -8.001  1.00  0.00     0.131 A 
ATOM     76  C   UNL     1      -8.957  -6.315  -7.935  1.00  0.00     0.055 A 
ATOM     77  C   UNL     1      -8.551  -4.009  -7.393  1.00  0.00     0.041 A 
ATOM     78  F   UNL     1      -6.529  -3.005  -8.026  1.00  0.00    -0.206 F 
ATOM     79  C   UNL     1      -9.394  -5.116  -7.369  1.00  0.00     0.022 A 
BRANCH  76  80
ATOM     80  S   UNL     1     -10.076  -7.740  -8.021  1.00  0.00     0.124 S 
ATOM     81  O   UNL     1     -10.157  -7.968  -9.460  1.00  0.00    -0.237 OA
ATOM     82  O   UNL     1      -9.348  -8.744  -7.252  1.00  0.00    -0.237 OA
ATOM     83  O   UNL     1     -11.302  -7.248  -7.397  1.00  0.00    -0.744 OA
ENDBRANCH  76  80
ENDBRANCH  49  73
BRANCH  61  84
ATOM     84  C   UNL     1      -4.941  -6.427 -15.180  1.00  0.00     0.023 A 
ATOM     85  C   UNL     1      -5.826  -5.514 -15.778  1.00  0.00     0.031 A 
ATOM     86  C   UNL     1      -4.800  -7.698 -15.767  1.00  0.00     0.131 A 
ATOM     87  C   UNL     1      -6.573  -5.901 -16.901  1.00  0.00     0.055 A 
ATOM     88  C   UNL     1      -5.504  -8.057 -16.916  1.00  0.00     0.041 A 
ATOM     89  F   UNL     1      -3.969  -8.607 -15.234  1.00  0.00    -0.206 F 
ATOM     90  C   UNL     1      -6.404  -7.161 -17.484  1.00  0.00     0.022 A 
BRANCH  87  91
ATOM     91  S   UNL     1      -7.824  -4.761 -17.552  1.00  0.00     0.124 S 
ATOM     92  O   UNL     1      -8.712  -4.599 -16.406  1.00  0.00    -0.237 OA
ATOM     93  O   UNL     1      -7.027  -3.593 -17.911  1.00  0.00    -0.237 OA
ATOM     94  O   UNL     1      -8.397  -5.490 -18.683  1.00  0.00    -0.744 OA
ENDBRANCH  87  91
ENDBRANCH  61  84
ENDBRANCH  35  36
ENDBRANCH  27  30
ENDBRANCH  25  26
ENDBRANCH  24  25
ENDBRANCH   1  24
TORSDOF 18
