REMARK SMILES CCCn1nc(C(=O)NCCCCNC(=O)c2ccc(-c3c4nc(c(-c5cc(S(=O)(=O)[O-])ccc5F)c5ccc([nH]5)c(-c5cc(S(=O)(=O)[O-])ccc5F)c5nc(c(-c6cc(S(=O)(=O)[O-])ccc6F)c6ccc3[nH]6)C=C5)C=C4)cc2)c2c1CC[C@@H]([NH+]1CC[NH+](Cc3ccccn3)CC1)C2
REMARK SMILES IDX 11 1 10 2 9 3 7 4 8 5 6 7 4 8 5 9 81 10 80 11 82 12 98 13
REMARK SMILES IDX 83 14 84 15 3 16 2 17 1 18 85 19 86 20 97 21 87 23 96 24
REMARK SMILES IDX 88 25 89 27 90 28 91 29 95 30 92 31 94 32 93 33 12 34 13 35
REMARK SMILES IDX 14 36 15 37 16 39 17 40 18 41 79 42 19 43 78 44 20 45 21 46
REMARK SMILES IDX 22 47 72 48 23 49 77 50 71 51 73 52 24 53 76 54 70 55 69 56
REMARK SMILES IDX 25 58 57 59 37 60 56 61 38 62 41 63 55 64 74 65 39 66 40 67
REMARK SMILES IDX 54 69 75 70 42 71 26 72 27 73 35 74 28 75 34 76 36 77 33 78
REMARK SMILES IDX 29 79 30 80 31 81 32 82 58 83 59 84 67 85 60 86 66 87 68 88
REMARK SMILES IDX 65 89 61 90 62 91 63 92 64 93 43 94 44 95 52 96 45 97 51 98
REMARK SMILES IDX 53 99 50 100 46 101 47 102 48 103 49 104
REMARK H PARENT 9 6 85 22 88 26 14 38 73 57 41 68
REMARK Flexibility Score: inf
ROOT
ATOM      1  C   UNL     1      -2.322  -4.507   6.070  1.00  0.00     0.023 C 
ENDROOT
BRANCH   1   2
ATOM      2  C   UNL     1      -0.856  -4.979   5.976  1.00  0.00     0.116 C 
BRANCH   2   3
ATOM      3  N   UNL     1      -0.584  -5.774   4.782  1.00  0.00    -0.351 N 
ATOM      4  C   UNL     1      -0.067  -5.569   3.517  1.00  0.00     0.272 C 
ATOM      5  O   UNL     1       0.133  -6.627   2.902  1.00  0.00    -0.267 OA
ATOM      6  H   UNL     1      -0.838  -6.716   4.915  1.00  0.00     0.163 HD
BRANCH   4   7
ATOM      7  C   UNL     1       0.206  -4.254   2.866  1.00  0.00     0.153 A 
ATOM      8  N   UNL     1       0.815  -2.986   1.203  1.00  0.00    -0.269 N 
ATOM      9  N   UNL     1       0.859  -4.250   1.679  1.00  0.00    -0.167 NA
ATOM     10  C   UNL     1       0.281  -2.132   2.118  1.00  0.00     0.043 A 
ATOM     11  C   UNL     1      -0.177  -2.920   3.159  1.00  0.00     0.012 A 
ATOM     12  C   UNL     1       0.019  -0.675   2.000  1.00  0.00     0.062 C 
ATOM     13  C   UNL     1      -1.026  -2.362   4.232  1.00  0.00     0.105 C 
ATOM     14  C   UNL     1      -0.449  -0.099   3.343  1.00  0.00     0.072 C 
ATOM     15  C   UNL     1      -1.559  -0.940   3.990  1.00  0.00     0.189 C 
BRANCH   8  16
ATOM     16  C   UNL     1       1.208  -2.824  -0.189  1.00  0.00     0.144 C 
BRANCH  16  17
ATOM     17  C   UNL     1       0.902  -1.538  -0.965  1.00  0.00     0.020 C 
ATOM     18  C   UNL     1       2.031  -0.519  -0.918  1.00  0.00     0.006 C 
ENDBRANCH  16  17
ENDBRANCH   8  16
BRANCH  15  19
ATOM     19  N   UNL     1      -2.819  -0.860   3.262  1.00  0.00    -0.323 N 
ATOM     20  C   UNL     1      -3.278  -1.832   2.296  1.00  0.00     0.324 C 
ATOM     21  C   UNL     1      -3.685   0.280   3.509  1.00  0.00     0.324 C 
ATOM     22  H   UNL     1      -2.152  -1.632   3.236  1.00  0.00     0.348 HD
ATOM     23  C   UNL     1      -3.745  -1.190   0.966  1.00  0.00     0.324 C 
ATOM     24  C   UNL     1      -4.750   0.511   2.411  1.00  0.00     0.324 C 
ATOM     25  N   UNL     1      -4.372   0.134   1.046  1.00  0.00    -0.321 N 
ATOM     26  H   UNL     1      -5.261   0.023   0.558  1.00  0.00     0.348 HD
BRANCH  25  27
ATOM     27  C   UNL     1      -3.748   1.191   0.236  1.00  0.00     0.319 C 
BRANCH  27  28
ATOM     28  C   UNL     1      -2.469   1.875   0.704  1.00  0.00     0.095 A 
ATOM     29  C   UNL     1      -1.277   1.705  -0.002  1.00  0.00     0.030 A 
ATOM     30  N   UNL     1      -2.546   2.723   1.763  1.00  0.00    -0.255 NA
ATOM     31  C   UNL     1      -0.121   2.356   0.435  1.00  0.00     0.004 A 
ATOM     32  C   UNL     1      -1.407   3.330   2.174  1.00  0.00     0.111 A 
ATOM     33  C   UNL     1      -0.180   3.170   1.557  1.00  0.00     0.020 A 
ENDBRANCH  27  28
ENDBRANCH  25  27
ENDBRANCH  15  19
ENDBRANCH   4   7
ENDBRANCH   2   3
ENDBRANCH   1   2
BRANCH   1  34
ATOM     34  C   UNL     1      -3.179  -5.062   7.209  1.00  0.00     0.023 C 
BRANCH  34  35
ATOM     35  C   UNL     1      -2.847  -4.470   8.576  1.00  0.00     0.116 C 
BRANCH  35  36
ATOM     36  N   UNL     1      -3.227  -3.059   8.715  1.00  0.00    -0.352 N 
ATOM     37  C   UNL     1      -2.784  -2.178   9.687  1.00  0.00     0.251 C 
ATOM     38  H   UNL     1      -3.861  -2.704   8.051  1.00  0.00     0.163 HD
ATOM     39  O   UNL     1      -3.423  -1.176   9.987  1.00  0.00    -0.269 OA
BRANCH  37  40
ATOM     40  C   UNL     1      -1.502  -2.488  10.339  1.00  0.00     0.039 A 
ATOM     41  C   UNL     1      -1.406  -2.631  11.724  1.00  0.00     0.014 A 
ATOM     42  C   UNL     1      -0.433  -2.792   9.497  1.00  0.00     0.014 A 
ATOM     43  C   UNL     1      -0.249  -3.200  12.256  1.00  0.00     0.010 A 
ATOM     44  C   UNL     1       0.657  -3.451  10.017  1.00  0.00     0.010 A 
ATOM     45  C   UNL     1       0.768  -3.646  11.396  1.00  0.00    -0.014 A 
BRANCH  45  46
ATOM     46  C   UNL     1       1.877  -4.453  11.914  1.00  0.00     0.031 A 
ATOM     47  C   UNL     1       1.497  -5.663  12.703  1.00  0.00     0.074 A 
ATOM     48  C   UNL     1       3.157  -4.302  11.508  1.00  0.00     0.049 A 
ATOM     49  N   UNL     1       1.740  -5.909  13.948  1.00  0.00    -0.248 NA
ATOM     50  C   UNL     1       0.660  -6.688  12.059  1.00  0.00     0.031 C 
ATOM     51  C   UNL     1       3.681  -3.386  10.490  1.00  0.00     0.029 A 
ATOM     52  N   UNL     1       4.248  -5.051  11.827  1.00  0.00    -0.354 N 
ATOM     53  C   UNL     1       1.292  -7.206  14.195  1.00  0.00     0.074 A 
ATOM     54  C   UNL     1       0.481  -7.556  13.058  1.00  0.00     0.031 C 
ATOM     55  C   UNL     1       4.901  -3.807  10.093  1.00  0.00     0.029 A 
ATOM     56  C   UNL     1       5.316  -4.905  10.948  1.00  0.00     0.049 A 
ATOM     57  H   UNL     1       4.279  -5.645  12.612  1.00  0.00     0.167 HD
ATOM     58  C   UNL     1       1.797  -7.955  15.220  1.00  0.00     0.034 A 
ATOM     59  C   UNL     1       6.449  -5.652  10.894  1.00  0.00     0.034 A 
ATOM     60  C   UNL     1       2.533  -7.125  16.151  1.00  0.00     0.049 A 
ATOM     61  C   UNL     1       6.616  -6.274  12.231  1.00  0.00     0.074 A 
ATOM     62  C   UNL     1       2.228  -5.995  16.888  1.00  0.00     0.029 A 
ATOM     63  N   UNL     1       3.910  -7.182  16.137  1.00  0.00    -0.354 N 
ATOM     64  N   UNL     1       6.839  -5.585  13.317  1.00  0.00    -0.248 NA
ATOM     65  C   UNL     1       6.060  -7.601  12.446  1.00  0.00     0.031 C 
ATOM     66  C   UNL     1       3.386  -5.169  16.774  1.00  0.00     0.029 A 
ATOM     67  C   UNL     1       4.355  -5.884  16.067  1.00  0.00     0.049 A 
ATOM     68  H   UNL     1       4.466  -7.994  16.171  1.00  0.00     0.167 HD
ATOM     69  C   UNL     1       6.054  -6.185  14.289  1.00  0.00     0.074 A 
ATOM     70  C   UNL     1       5.684  -7.482  13.723  1.00  0.00     0.031 C 
ATOM     71  C   UNL     1       5.537  -5.470  15.335  1.00  0.00     0.034 A 
BRANCH  58  72
ATOM     72  C   UNL     1       1.934  -9.467  15.237  1.00  0.00     0.023 A 
ATOM     73  C   UNL     1       2.515 -10.050  16.384  1.00  0.00     0.031 A 
ATOM     74  C   UNL     1       1.806 -10.324  14.122  1.00  0.00     0.131 A 
ATOM     75  C   UNL     1       3.045 -11.352  16.352  1.00  0.00     0.055 A 
ATOM     76  C   UNL     1       2.267 -11.646  14.120  1.00  0.00     0.041 A 
ATOM     77  F   UNL     1       1.316  -9.915  12.947  1.00  0.00    -0.206 F 
ATOM     78  C   UNL     1       2.925 -12.157  15.225  1.00  0.00     0.022 A 
BRANCH  75  79
ATOM     79  S   UNL     1       4.073 -11.895  17.743  1.00  0.00     0.124 S 
ATOM     80  O   UNL     1       5.037 -10.804  17.836  1.00  0.00    -0.237 OA
ATOM     81  O   UNL     1       3.095 -11.985  18.821  1.00  0.00    -0.237 OA
ATOM     82  O   UNL     1       4.616 -13.172  17.285  1.00  0.00    -0.744 OA
ENDBRANCH  75  79
ENDBRANCH  58  72
BRANCH  59  83
ATOM     83  C   UNL     1       7.212  -6.052   9.681  1.00  0.00     0.023 A 
ATOM     84  C   UNL     1       8.540  -6.519   9.741  1.00  0.00     0.031 A 
ATOM     85  C   UNL     1       6.544  -6.198   8.443  1.00  0.00     0.131 A 
ATOM     86  C   UNL     1       9.143  -7.099   8.600  1.00  0.00     0.055 A 
ATOM     87  C   UNL     1       7.147  -6.762   7.316  1.00  0.00     0.041 A 
ATOM     88  F   UNL     1       5.248  -5.874   8.307  1.00  0.00    -0.206 F 
ATOM     89  C   UNL     1       8.450  -7.226   7.394  1.00  0.00     0.022 A 
BRANCH  86  90
ATOM     90  S   UNL     1      10.819  -7.807   8.703  1.00  0.00     0.124 S 
ATOM     91  O   UNL     1      11.657  -6.614   8.734  1.00  0.00    -0.237 OA
ATOM     92  O   UNL     1      10.756  -8.589   9.933  1.00  0.00    -0.237 OA
ATOM     93  O   UNL     1      10.927  -8.604   7.480  1.00  0.00    -0.744 OA
ENDBRANCH  86  90
ENDBRANCH  59  83
BRANCH  71  94
ATOM     94  C   UNL     1       6.057  -4.071  15.607  1.00  0.00     0.023 A 
ATOM     95  C   UNL     1       6.109  -3.024  14.658  1.00  0.00     0.031 A 
ATOM     96  C   UNL     1       6.395  -3.755  16.937  1.00  0.00     0.131 A 
ATOM     97  C   UNL     1       6.502  -1.729  15.053  1.00  0.00     0.055 A 
ATOM     98  C   UNL     1       6.759  -2.467  17.329  1.00  0.00     0.041 A 
ATOM     99  F   UNL     1       6.342  -4.694  17.896  1.00  0.00    -0.206 F 
ATOM    100  C   UNL     1       6.822  -1.450  16.385  1.00  0.00     0.022 A 
BRANCH  97 101
ATOM    101  S   UNL     1       6.633  -0.380  13.835  1.00  0.00     0.124 S 
ATOM    102  O   UNL     1       7.284  -1.006  12.691  1.00  0.00    -0.237 OA
ATOM    103  O   UNL     1       5.238   0.008  13.643  1.00  0.00    -0.237 OA
ATOM    104  O   UNL     1       7.450   0.620  14.527  1.00  0.00    -0.744 OA
ENDBRANCH  97 101
ENDBRANCH  71  94
ENDBRANCH  45  46
ENDBRANCH  37  40
ENDBRANCH  35  36
ENDBRANCH  34  35
ENDBRANCH   1  34
TORSDOF 19
