REMARK SMILES [NH3+][C@]1(C(=O)NCCCCNC(=O)c2ccc(-c3c4nc(c(-c5cc(S(=O)(=O)[O-])ccc5F)c5ccc([nH]5)c(-c5cc(S(=O)(=O)[O-])ccc5F)c5nc(c(-c6cc(S(=O)(=O)[O-])ccc6F)c6ccc3[nH]6)C=C5)C=C4)cc2)CC[C@@H](Sc2ccc(Cl)c(Cl)c2)C1
REMARK SMILES IDX 8 1 7 2 6 3 5 4 3 5 4 6 2 8 76 9 88 10 77 11 78 12 1 13
REMARK SMILES IDX 79 17 80 18 81 19 87 20 82 21 85 22 83 23 86 24 84 25 9 26
REMARK SMILES IDX 10 27 11 28 12 30 13 31 14 32 75 33 15 34 74 35 16 36 17 37
REMARK SMILES IDX 18 38 68 39 19 40 73 41 67 42 69 43 20 44 72 45 66 46 65 47
REMARK SMILES IDX 21 49 53 50 33 51 52 52 34 53 37 54 51 55 70 56 35 57 36 58
REMARK SMILES IDX 50 60 71 61 38 62 22 63 23 64 31 65 24 66 30 67 32 68 29 69
REMARK SMILES IDX 25 70 26 71 27 72 28 73 54 74 55 75 63 76 56 77 62 78 64 79
REMARK SMILES IDX 61 80 57 81 58 82 59 83 60 84 39 85 40 86 48 87 41 88 47 89
REMARK SMILES IDX 49 90 46 91 42 92 43 93 44 94 45 95
REMARK H PARENT 5 7 1 14 1 15 1 16 10 29 69 48 37 59
REMARK Flexibility Score: inf
ROOT
ATOM      1  C   UNL     1       4.789   2.133   0.343  1.00  0.00     0.023 C 
ENDROOT
BRANCH   1   2
ATOM      2  C   UNL     1       3.901   1.512   1.422  1.00  0.00     0.023 C 
BRANCH   2   3
ATOM      3  C   UNL     1       2.406   1.829   1.293  1.00  0.00     0.116 C 
BRANCH   3   4
ATOM      4  N   UNL     1       1.794   1.165   0.155  1.00  0.00    -0.351 N 
ATOM      5  C   UNL     1       1.051   0.035   0.029  1.00  0.00     0.281 C 
ATOM      6  O   UNL     1       0.621  -0.205  -1.106  1.00  0.00    -0.268 OA
ATOM      7  H   UNL     1       1.949   1.629  -0.699  1.00  0.00     0.163 HD
BRANCH   5   8
ATOM      8  C   UNL     1       0.628  -0.878   1.224  1.00  0.00     0.175 C 
ATOM      9  C   UNL     1       0.531  -2.332   0.698  1.00  0.00     0.080 C 
ATOM     10  C   UNL     1       1.559  -0.990   2.443  1.00  0.00     0.094 C 
ATOM     11  C   UNL     1       0.730  -3.234   1.901  1.00  0.00     0.022 C 
ATOM     12  C   UNL     1       1.680  -2.470   2.807  1.00  0.00     0.058 C 
BRANCH   8  13
ATOM     13  N   UNL     1      -0.719  -0.451   1.678  1.00  0.00    -0.345 N 
ATOM     14  H   UNL     1      -1.016  -1.036   2.459  1.00  0.00     0.345 HD
ATOM     15  H   UNL     1      -1.383  -0.548   0.909  1.00  0.00     0.345 HD
ATOM     16  H   UNL     1      -0.684   0.523   1.976  1.00  0.00     0.345 HD
ENDBRANCH   8  13
BRANCH  12  17
ATOM     17  S   UNL     1       3.414  -3.110   2.900  1.00  0.00    -0.122 SA
BRANCH  17  18
ATOM     18  C   UNL     1       4.085  -3.183   1.246  1.00  0.00     0.009 A 
ATOM     19  C   UNL     1       4.938  -4.253   0.953  1.00  0.00     0.017 A 
ATOM     20  C   UNL     1       3.939  -2.192   0.277  1.00  0.00     0.037 A 
ATOM     21  C   UNL     1       5.599  -4.339  -0.280  1.00  0.00     0.023 A 
ATOM     22  C   UNL     1       4.590  -2.267  -0.962  1.00  0.00     0.060 A 
ATOM     23  C   UNL     1       5.424  -3.346  -1.244  1.00  0.00     0.059 A 
ATOM     24  Cl  UNL     1       4.328  -0.975  -2.081  1.00  0.00    -0.083 Cl
ATOM     25  Cl  UNL     1       6.273  -3.501  -2.737  1.00  0.00    -0.083 Cl
ENDBRANCH  17  18
ENDBRANCH  12  17
ENDBRANCH   5   8
ENDBRANCH   3   4
ENDBRANCH   2   3
ENDBRANCH   1   2
BRANCH   1  26
ATOM     26  C   UNL     1       4.938   3.642   0.450  1.00  0.00     0.116 C 
BRANCH  26  27
ATOM     27  N   UNL     1       5.546   4.058   1.705  1.00  0.00    -0.352 N 
ATOM     28  C   UNL     1       6.442   5.078   1.931  1.00  0.00     0.251 C 
ATOM     29  H   UNL     1       5.281   3.540   2.499  1.00  0.00     0.163 HD
ATOM     30  O   UNL     1       6.960   5.205   3.029  1.00  0.00    -0.269 OA
BRANCH  28  31
ATOM     31  C   UNL     1       6.792   5.985   0.816  1.00  0.00     0.039 A 
ATOM     32  C   UNL     1       8.137   6.276   0.581  1.00  0.00     0.014 A 
ATOM     33  C   UNL     1       5.798   6.513  -0.011  1.00  0.00     0.014 A 
ATOM     34  C   UNL     1       8.489   7.051  -0.524  1.00  0.00     0.010 A 
ATOM     35  C   UNL     1       6.156   7.214  -1.156  1.00  0.00     0.010 A 
ATOM     36  C   UNL     1       7.505   7.498  -1.420  1.00  0.00    -0.014 A 
BRANCH  36  37
ATOM     37  C   UNL     1       7.859   8.285  -2.629  1.00  0.00     0.031 A 
ATOM     38  C   UNL     1       7.350   9.695  -2.772  1.00  0.00     0.074 A 
ATOM     39  C   UNL     1       8.565   7.705  -3.620  1.00  0.00     0.049 A 
ATOM     40  N   UNL     1       7.465  10.517  -3.782  1.00  0.00    -0.248 NA
ATOM     41  C   UNL     1       6.575  10.238  -1.644  1.00  0.00     0.031 C 
ATOM     42  C   UNL     1       9.058   6.325  -3.612  1.00  0.00     0.029 A 
ATOM     43  N   UNL     1       8.980   8.195  -4.833  1.00  0.00    -0.354 N 
ATOM     44  C   UNL     1       6.752  11.657  -3.426  1.00  0.00     0.074 A 
ATOM     45  C   UNL     1       6.167  11.401  -2.128  1.00  0.00     0.031 C 
ATOM     46  C   UNL     1       9.722   6.088  -4.756  1.00  0.00     0.029 A 
ATOM     47  C   UNL     1       9.667   7.279  -5.596  1.00  0.00     0.049 A 
ATOM     48  H   UNL     1       8.802   9.117  -5.130  1.00  0.00     0.167 HD
ATOM     49  C   UNL     1       6.616  12.818  -4.113  1.00  0.00     0.034 A 
ATOM     50  C   UNL     1      10.181   7.385  -6.838  1.00  0.00     0.034 A 
ATOM     51  C   UNL     1       7.248  13.068  -5.384  1.00  0.00     0.049 A 
ATOM     52  C   UNL     1      10.040   8.700  -7.566  1.00  0.00     0.074 A 
ATOM     53  C   UNL     1       7.263  14.239  -6.120  1.00  0.00     0.029 A 
ATOM     54  N   UNL     1       7.972  12.131  -6.109  1.00  0.00    -0.354 N 
ATOM     55  N   UNL     1       9.435   9.799  -7.176  1.00  0.00    -0.248 NA
ATOM     56  C   UNL     1      10.664   8.796  -8.892  1.00  0.00     0.031 C 
ATOM     57  C   UNL     1       7.938  13.992  -7.320  1.00  0.00     0.029 A 
ATOM     58  C   UNL     1       8.409  12.689  -7.300  1.00  0.00     0.049 A 
ATOM     59  H   UNL     1       8.148  11.207  -5.821  1.00  0.00     0.167 HD
ATOM     60  C   UNL     1       9.637  10.725  -8.196  1.00  0.00     0.074 A 
ATOM     61  C   UNL     1      10.435  10.061  -9.207  1.00  0.00     0.031 C 
ATOM     62  C   UNL     1       9.205  12.008  -8.293  1.00  0.00     0.034 A 
BRANCH  49  63
ATOM     63  C   UNL     1       5.737  13.890  -3.518  1.00  0.00     0.023 A 
ATOM     64  C   UNL     1       6.052  14.524  -2.303  1.00  0.00     0.031 A 
ATOM     65  C   UNL     1       4.561  14.286  -4.180  1.00  0.00     0.131 A 
ATOM     66  C   UNL     1       5.173  15.472  -1.759  1.00  0.00     0.055 A 
ATOM     67  C   UNL     1       3.729  15.285  -3.672  1.00  0.00     0.041 A 
ATOM     68  F   UNL     1       4.197  13.701  -5.333  1.00  0.00    -0.206 F 
ATOM     69  C   UNL     1       4.027  15.876  -2.448  1.00  0.00     0.022 A 
BRANCH  66  70
ATOM     70  S   UNL     1       5.488  16.088  -0.083  1.00  0.00     0.124 S 
ATOM     71  O   UNL     1       5.406  14.859   0.702  1.00  0.00    -0.237 OA
ATOM     72  O   UNL     1       6.815  16.679  -0.207  1.00  0.00    -0.237 OA
ATOM     73  O   UNL     1       4.401  17.038   0.144  1.00  0.00    -0.744 OA
ENDBRANCH  66  70
ENDBRANCH  49  63
BRANCH  50  74
ATOM     74  C   UNL     1      10.863   6.226  -7.487  1.00  0.00     0.023 A 
ATOM     75  C   UNL     1      12.218   6.292  -7.848  1.00  0.00     0.031 A 
ATOM     76  C   UNL     1      10.151   5.060  -7.820  1.00  0.00     0.131 A 
ATOM     77  C   UNL     1      12.802   5.244  -8.577  1.00  0.00     0.055 A 
ATOM     78  C   UNL     1      10.752   3.993  -8.491  1.00  0.00     0.041 A 
ATOM     79  F   UNL     1       8.854   4.939  -7.495  1.00  0.00    -0.206 F 
ATOM     80  C   UNL     1      12.082   4.089  -8.890  1.00  0.00     0.022 A 
BRANCH  77  81
ATOM     81  S   UNL     1      14.486   5.464  -9.214  1.00  0.00     0.124 S 
ATOM     82  O   UNL     1      14.363   6.713  -9.956  1.00  0.00    -0.237 OA
ATOM     83  O   UNL     1      15.268   5.523  -7.984  1.00  0.00    -0.237 OA
ATOM     84  O   UNL     1      14.700   4.271 -10.030  1.00  0.00    -0.744 OA
ENDBRANCH  77  81
ENDBRANCH  50  74
BRANCH  62  85
ATOM     85  C   UNL     1       9.636  12.786  -9.511  1.00  0.00     0.023 A 
ATOM     86  C   UNL     1       9.178  12.458 -10.798  1.00  0.00     0.031 A 
ATOM     87  C   UNL     1      10.526  13.867  -9.379  1.00  0.00     0.131 A 
ATOM     88  C   UNL     1       9.655  13.167 -11.910  1.00  0.00     0.055 A 
ATOM     89  C   UNL     1      10.948  14.608 -10.482  1.00  0.00     0.041 A 
ATOM     90  F   UNL     1      10.995  14.222  -8.172  1.00  0.00    -0.206 F 
ATOM     91  C   UNL     1      10.523  14.251 -11.758  1.00  0.00     0.022 A 
BRANCH  88  92
ATOM     92  S   UNL     1       9.195  12.597 -13.568  1.00  0.00     0.124 S 
ATOM     93  O   UNL     1       9.706  11.230 -13.572  1.00  0.00    -0.237 OA
ATOM     94  O   UNL     1       7.742  12.734 -13.554  1.00  0.00    -0.237 OA
ATOM     95  O   UNL     1       9.895  13.523 -14.456  1.00  0.00    -0.744 OA
ENDBRANCH  88  92
ENDBRANCH  62  85
ENDBRANCH  36  37
ENDBRANCH  28  31
ENDBRANCH  26  27
ENDBRANCH   1  26
TORSDOF 17
