REMARK SMILES CC[C@@H](C)[C@H](NC(=O)[C@H](C)N1C(=O)N2CCC3=c4cc(OC)ccc4=N[C@H]3[C@@]2(C)C1=O)C(=O)NCCCCNC(=O)c1ccc(-c2c3nc(c(-c4cc(S(=O)(=O)[O-])ccc4F)c4ccc([nH]4)c(-c4cc(S(=O)(=O)[O-])ccc4F)c4nc(c(-c5cc(S(=O)(=O)[O-])ccc5F)c5ccc2[nH]5)C=C4)C=C3)cc1
REMARK SMILES IDX 36 1 35 2 34 3 32 4 33 5 5 7 3 8 4 9 2 10 1 11 6 12 7 13
REMARK SMILES IDX 8 15 9 16 10 17 11 18 12 19 30 20 14 21 13 22 28 23 31 24
REMARK SMILES IDX 15 25 27 26 29 27 16 28 17 29 26 30 18 31 25 32 19 33 24 34
REMARK SMILES IDX 20 35 23 36 21 37 22 38 37 39 38 40 39 41 40 42 41 44 42 45
REMARK SMILES IDX 43 46 104 47 44 48 103 49 45 50 46 51 47 52 97 53 48 54
REMARK SMILES IDX 102 55 96 56 98 57 49 58 101 59 95 60 94 61 50 63 82 64
REMARK SMILES IDX 62 65 81 66 63 67 66 68 80 69 99 70 64 71 65 72 79 74 100 75
REMARK SMILES IDX 67 76 51 77 52 78 60 79 53 80 59 81 61 82 58 83 54 84 55 85
REMARK SMILES IDX 56 86 57 87 83 88 84 89 92 90 85 91 91 92 93 93 90 94 86 95
REMARK SMILES IDX 87 96 88 97 89 98 68 99 69 100 77 101 70 102 76 103 78 104
REMARK SMILES IDX 75 105 71 106 72 107 73 108 74 109
REMARK H PARENT 34 6 6 14 39 43 98 62 66 73
REMARK Flexibility Score: inf
ROOT
ATOM      1  C   UNL     1      -0.888   1.641   3.555  1.00  0.00     0.023 C 
ENDROOT
BRANCH   1   2
ATOM      2  C   UNL     1       0.389   2.280   4.083  1.00  0.00     0.116 C 
BRANCH   2   3
ATOM      3  N   UNL     1       1.160   1.407   4.934  1.00  0.00    -0.354 N 
ATOM      4  C   UNL     1       2.250   0.638   4.713  1.00  0.00     0.242 C 
ATOM      5  O   UNL     1       2.792   0.200   5.735  1.00  0.00    -0.273 OA
ATOM      6  H   UNL     1       0.827   1.363   5.860  1.00  0.00     0.163 HD
BRANCH   4   7
ATOM      7  C   UNL     1       2.990   0.498   3.349  1.00  0.00     0.174 C 
BRANCH   7   8
ATOM      8  C   UNL     1       3.861   1.845   3.286  1.00  0.00     0.018 C 
ATOM      9  C   UNL     1       4.840   1.855   2.116  1.00  0.00     0.010 C 
BRANCH   8  10
ATOM     10  C   UNL     1       4.654   2.073   4.630  1.00  0.00     0.002 C 
ATOM     11  C   UNL     1       5.523   3.317   4.750  1.00  0.00     0.004 C 
ENDBRANCH   8  10
ENDBRANCH   7   8
BRANCH   7  12
ATOM     12  N   UNL     1       2.247   0.102   2.056  1.00  0.00    -0.342 N 
ATOM     13  C   UNL     1       1.817  -1.166   1.522  1.00  0.00     0.243 C 
ATOM     14  H   UNL     1       2.020   0.868   1.481  1.00  0.00     0.164 HD
ATOM     15  O   UNL     1       2.022  -1.344   0.315  1.00  0.00    -0.273 OA
BRANCH  13  16
ATOM     16  C   UNL     1       0.802  -2.142   2.339  1.00  0.00     0.181 C 
ATOM     17  C   UNL     1       1.109  -1.833   3.768  1.00  0.00     0.042 C 
BRANCH  16  18
ATOM     18  N   UNL     1      -0.241  -3.302   2.438  1.00  0.00    -0.250 N 
ATOM     19  C   UNL     1      -0.277  -4.730   2.705  1.00  0.00     0.328 C 
ATOM     20  C   UNL     1      -1.383  -2.777   2.980  1.00  0.00     0.259 C 
ATOM     21  N   UNL     1      -1.675  -5.053   3.262  1.00  0.00    -0.307 N 
ATOM     22  O   UNL     1       0.658  -5.513   2.662  1.00  0.00    -0.248 OA
ATOM     23  C   UNL     1      -2.000  -3.812   3.808  1.00  0.00     0.147 C 
ATOM     24  O   UNL     1      -1.748  -1.623   3.009  1.00  0.00    -0.271 OA
ATOM     25  C   UNL     1      -2.379  -6.132   4.337  1.00  0.00     0.127 C 
ATOM     26  C   UNL     1      -1.226  -3.926   5.198  1.00  0.00     0.168 C 
ATOM     27  C   UNL     1      -3.511  -3.575   3.584  1.00  0.00     0.048 C 
ATOM     28  C   UNL     1      -2.941  -5.286   5.905  1.00  0.00     0.055 C 
ATOM     29  C   UNL     1      -2.114  -3.911   6.336  1.00  0.00    -0.032 C 
ATOM     30  N   UNL     1       0.139  -4.468   5.736  1.00  0.00    -0.274 NA
ATOM     31  C   UNL     1      -1.241  -3.460   7.302  1.00  0.00     0.005 A 
ATOM     32  C   UNL     1      -0.155  -4.456   7.037  1.00  0.00     0.066 A 
ATOM     33  C   UNL     1      -0.290  -2.163   7.109  1.00  0.00     0.056 A 
ATOM     34  C   UNL     1       0.780  -4.575   8.181  1.00  0.00     0.032 A 
ATOM     35  C   UNL     1       1.065  -2.368   7.338  1.00  0.00     0.119 A 
ATOM     36  C   UNL     1       1.433  -3.407   8.285  1.00  0.00     0.048 A 
BRANCH  35  37
ATOM     37  O   UNL     1       2.042  -2.121   6.374  1.00  0.00    -0.497 OA
ATOM     38  C   UNL     1       2.941  -3.197   5.960  1.00  0.00     0.278 C 
ENDBRANCH  35  37
ENDBRANCH  16  18
ENDBRANCH  13  16
ENDBRANCH   7  12
ENDBRANCH   4   7
ENDBRANCH   2   3
ENDBRANCH   1   2
BRANCH   1  39
ATOM     39  C   UNL     1      -1.748   0.900   4.580  1.00  0.00     0.023 C 
BRANCH  39  40
ATOM     40  C   UNL     1      -2.107   1.631   5.860  1.00  0.00     0.116 C 
BRANCH  40  41
ATOM     41  N   UNL     1      -2.889   2.830   5.633  1.00  0.00    -0.352 N 
ATOM     42  C   UNL     1      -4.020   3.261   6.289  1.00  0.00     0.251 C 
ATOM     43  H   UNL     1      -2.568   3.416   4.911  1.00  0.00     0.163 HD
ATOM     44  O   UNL     1      -4.628   4.239   5.863  1.00  0.00    -0.269 OA
BRANCH  42  45
ATOM     45  C   UNL     1      -4.523   2.522   7.473  1.00  0.00     0.039 A 
ATOM     46  C   UNL     1      -3.649   2.025   8.441  1.00  0.00     0.014 A 
ATOM     47  C   UNL     1      -5.898   2.308   7.607  1.00  0.00     0.014 A 
ATOM     48  C   UNL     1      -4.125   1.174   9.432  1.00  0.00     0.010 A 
ATOM     49  C   UNL     1      -6.387   1.538   8.669  1.00  0.00     0.010 A 
ATOM     50  C   UNL     1      -5.501   0.922   9.566  1.00  0.00    -0.014 A 
BRANCH  50  51
ATOM     51  C   UNL     1      -5.976   0.031  10.662  1.00  0.00     0.031 A 
ATOM     52  C   UNL     1      -6.699  -1.256  10.360  1.00  0.00     0.074 A 
ATOM     53  C   UNL     1      -5.698   0.363  11.940  1.00  0.00     0.049 A 
ATOM     54  N   UNL     1      -7.116  -2.176  11.191  1.00  0.00    -0.248 NA
ATOM     55  C   UNL     1      -7.001  -1.550   8.949  1.00  0.00     0.031 C 
ATOM     56  C   UNL     1      -5.010   1.589  12.349  1.00  0.00     0.029 A 
ATOM     57  N   UNL     1      -5.919  -0.300  13.122  1.00  0.00    -0.354 N 
ATOM     58  C   UNL     1      -7.749  -3.140  10.414  1.00  0.00     0.074 A 
ATOM     59  C   UNL     1      -7.691  -2.679   9.045  1.00  0.00     0.031 C 
ATOM     60  C   UNL     1      -4.793   1.554  13.670  1.00  0.00     0.029 A 
ATOM     61  C   UNL     1      -5.398   0.345  14.222  1.00  0.00     0.049 A 
ATOM     62  H   UNL     1      -6.403  -1.155  13.177  1.00  0.00     0.167 HD
ATOM     63  C   UNL     1      -8.313  -4.306  10.808  1.00  0.00     0.034 A 
ATOM     64  C   UNL     1      -5.406   0.010  15.529  1.00  0.00     0.034 A 
ATOM     65  C   UNL     1      -8.334  -4.764  12.175  1.00  0.00     0.049 A 
ATOM     66  C   UNL     1      -6.048  -1.291  15.938  1.00  0.00     0.074 A 
ATOM     67  C   UNL     1      -8.844  -5.953  12.667  1.00  0.00     0.029 A 
ATOM     68  N   UNL     1      -7.826  -4.069  13.263  1.00  0.00    -0.354 N 
ATOM     69  N   UNL     1      -6.587  -2.216  15.180  1.00  0.00    -0.248 NA
ATOM     70  C   UNL     1      -6.083  -1.599  17.374  1.00  0.00     0.031 C 
ATOM     71  C   UNL     1      -8.715  -5.943  14.054  1.00  0.00     0.029 A 
ATOM     72  C   UNL     1      -8.038  -4.793  14.425  1.00  0.00     0.049 A 
ATOM     73  H   UNL     1      -7.381  -3.192  13.216  1.00  0.00     0.167 HD
ATOM     74  C   UNL     1      -6.997  -3.228  16.043  1.00  0.00     0.074 A 
ATOM     75  C   UNL     1      -6.621  -2.812  17.377  1.00  0.00     0.031 C 
ATOM     76  C   UNL     1      -7.631  -4.391  15.752  1.00  0.00     0.034 A 
BRANCH  63  77
ATOM     77  C   UNL     1      -8.955  -5.202   9.774  1.00  0.00     0.023 A 
ATOM     78  C   UNL     1     -10.327  -5.507   9.873  1.00  0.00     0.031 A 
ATOM     79  C   UNL     1      -8.193  -5.880   8.807  1.00  0.00     0.131 A 
ATOM     80  C   UNL     1     -10.882  -6.501   9.057  1.00  0.00     0.055 A 
ATOM     81  C   UNL     1      -8.762  -6.836   7.963  1.00  0.00     0.041 A 
ATOM     82  F   UNL     1      -6.881  -5.627   8.670  1.00  0.00    -0.206 F 
ATOM     83  C   UNL     1     -10.108  -7.162   8.098  1.00  0.00     0.022 A 
BRANCH  80  84
ATOM     84  S   UNL     1     -12.603  -7.035   9.267  1.00  0.00     0.124 S 
ATOM     85  O   UNL     1     -13.152  -6.802   7.933  1.00  0.00    -0.237 OA
ATOM     86  O   UNL     1     -12.442  -8.437   9.640  1.00  0.00    -0.237 OA
ATOM     87  O   UNL     1     -13.117  -6.157  10.312  1.00  0.00    -0.744 OA
ENDBRANCH  80  84
ENDBRANCH  63  77
BRANCH  64  88
ATOM     88  C   UNL     1      -4.730   0.902  16.520  1.00  0.00     0.023 A 
ATOM     89  C   UNL     1      -5.128   2.242  16.681  1.00  0.00     0.031 A 
ATOM     90  C   UNL     1      -3.611   0.457  17.244  1.00  0.00     0.131 A 
ATOM     91  C   UNL     1      -4.369   3.106  17.481  1.00  0.00     0.055 A 
ATOM     92  C   UNL     1      -2.906   1.301  18.105  1.00  0.00     0.041 A 
ATOM     93  F   UNL     1      -3.180  -0.807  17.116  1.00  0.00    -0.206 F 
ATOM     94  C   UNL     1      -3.272   2.639  18.211  1.00  0.00     0.022 A 
BRANCH  91  95
ATOM     95  S   UNL     1      -4.689   4.892  17.480  1.00  0.00     0.124 S 
ATOM     96  O   UNL     1      -5.023   5.141  18.879  1.00  0.00    -0.237 OA
ATOM     97  O   UNL     1      -3.405   5.425  17.032  1.00  0.00    -0.237 OA
ATOM     98  O   UNL     1      -5.787   5.044  16.531  1.00  0.00    -0.744 OA
ENDBRANCH  91  95
ENDBRANCH  64  88
BRANCH  76  99
ATOM     99  C   UNL     1      -7.952  -5.348  16.876  1.00  0.00     0.023 A 
ATOM    100  C   UNL     1      -7.410  -6.649  16.857  1.00  0.00     0.031 A 
ATOM    101  C   UNL     1      -8.915  -5.045  17.853  1.00  0.00     0.131 A 
ATOM    102  C   UNL     1      -7.874  -7.612  17.759  1.00  0.00     0.055 A 
ATOM    103  C   UNL     1      -9.332  -5.992  18.788  1.00  0.00     0.041 A 
ATOM    104  F   UNL     1      -9.472  -3.824  17.905  1.00  0.00    -0.206 F 
ATOM    105  C   UNL     1      -8.825  -7.288  18.732  1.00  0.00     0.022 A 
BRANCH 102 106
ATOM    106  S   UNL     1      -7.346  -9.343  17.631  1.00  0.00     0.124 S 
ATOM    107  O   UNL     1      -6.706  -9.559  18.927  1.00  0.00    -0.237 OA
ATOM    108  O   UNL     1      -8.616 -10.038  17.439  1.00  0.00    -0.237 OA
ATOM    109  O   UNL     1      -6.445  -9.353  16.484  1.00  0.00    -0.744 OA
ENDBRANCH 102 106
ENDBRANCH  76  99
ENDBRANCH  50  51
ENDBRANCH  42  45
ENDBRANCH  40  41
ENDBRANCH  39  40
ENDBRANCH   1  39
TORSDOF 20
