REMARK SMILES CCN1C(=O)[C@@H](CC(=O)Nc2cccc(C(=O)NCCCCNC(=O)c3ccc(-c4c5nc(c(-c6cc(S(=O)(=O)[O-])ccc6F)c6ccc([nH]6)c(-c6cc(S(=O)(=O)[O-])ccc6F)c6nc(c(-c7cc(S(=O)(=O)[O-])ccc7F)c7ccc4[nH]7)C=C6)C=C5)cc3)c2)S/C1=[NH+]\c1cc(Cl)c(O)c(Cl)c1
REMARK SMILES IDX 19 1 18 2 16 3 17 4 15 6 11 7 12 8 89 9 13 10 14 11 10 12
REMARK SMILES IDX 8 13 9 14 7 16 6 17 3 18 4 19 91 20 5 21 90 22 92 23 2 25
REMARK SMILES IDX 1 26 93 27 94 28 101 29 95 30 99 31 96 32 97 33 100 34 98 35
REMARK SMILES IDX 20 37 21 38 22 39 23 40 24 41 25 43 26 44 27 45 88 46 28 47
REMARK SMILES IDX 87 48 29 49 30 50 31 51 81 52 32 53 86 54 80 55 82 56 33 57
REMARK SMILES IDX 85 58 79 59 78 60 34 62 66 63 46 64 65 65 47 66 50 67 64 68
REMARK SMILES IDX 83 69 48 70 49 71 63 73 84 74 51 75 35 76 36 77 44 78 37 79
REMARK SMILES IDX 43 80 45 81 42 82 38 83 39 84 40 85 41 86 67 87 68 88 76 89
REMARK SMILES IDX 69 90 75 91 77 92 74 93 70 94 71 95 72 96 73 97 52 98 53 99
REMARK SMILES IDX 61 100 54 101 60 102 62 103 59 104 55 105 56 106 57 107
REMARK SMILES IDX 58 108
REMARK H PARENT 18 5 10 15 92 24 98 36 23 42 82 61 50 72
REMARK Flexibility Score: inf
ROOT
ATOM      1  C   UNL     1      -1.887   0.726   3.208  1.00  0.00     0.116 C 
ENDROOT
BRANCH   1   2
ATOM      2  N   UNL     1      -1.523   1.159   1.762  1.00  0.00    -0.352 N 
ATOM      3  C   UNL     1      -0.577   1.445   0.749  1.00  0.00     0.251 C 
ATOM      4  O   UNL     1      -1.188   1.715  -0.308  1.00  0.00    -0.269 OA
ATOM      5  H   UNL     1      -2.393   1.315   1.331  1.00  0.00     0.163 HD
BRANCH   3   6
ATOM      6  C   UNL     1       0.989   1.474   0.520  1.00  0.00     0.041 A 
ATOM      7  C   UNL     1       3.452   1.928   0.935  1.00  0.00     0.041 A 
ATOM      8  C   UNL     1       3.762   1.694  -0.388  1.00  0.00     0.026 A 
ATOM      9  C   UNL     1       2.091   1.863   1.319  1.00  0.00     0.040 A 
ATOM     10  C   UNL     1       2.737   1.323  -1.255  1.00  0.00     0.003 A 
ATOM     11  C   UNL     1       1.396   1.206  -0.807  1.00  0.00     0.014 A 
BRANCH   7  12
ATOM     12  N   UNL     1       4.452   2.451   1.796  1.00  0.00    -0.326 N 
ATOM     13  C   UNL     1       4.574   2.397   3.167  1.00  0.00     0.226 C 
ATOM     14  O   UNL     1       5.010   3.371   3.782  1.00  0.00    -0.275 OA
ATOM     15  H   UNL     1       5.179   2.931   1.337  1.00  0.00     0.169 HD
BRANCH  13  16
ATOM     16  C   UNL     1       4.460   1.044   3.844  1.00  0.00     0.128 C 
BRANCH  16  17
ATOM     17  C   UNL     1       3.435   0.822   4.960  1.00  0.00     0.183 C 
ATOM     18  N   UNL     1       1.430   0.059   3.888  1.00  0.00    -0.190 N 
ATOM     19  C   UNL     1       2.609  -0.345   4.503  1.00  0.00     0.324 C 
ATOM     20  C   UNL     1       1.141   1.435   4.088  1.00  0.00     0.319 C 
ATOM     21  O   UNL     1       3.039  -1.495   4.549  1.00  0.00    -0.245 OA
ATOM     22  S   UNL     1       2.224   2.104   5.278  1.00  0.00    -0.022 SA
ATOM     23  N   UNL     1       0.306   2.180   3.429  1.00  0.00    -0.235 N 
ATOM     24  H   UNL     1      -0.366   1.655   2.939  1.00  0.00     0.313 HD
BRANCH  18  25
ATOM     25  C   UNL     1       0.785  -1.087   3.132  1.00  0.00     0.243 C 
ATOM     26  C   UNL     1       1.216  -1.378   1.692  1.00  0.00     0.054 C 
ENDBRANCH  18  25
BRANCH  23  27
ATOM     27  C   UNL     1       0.139   3.613   3.249  1.00  0.00     0.128 A 
ATOM     28  C   UNL     1      -1.079   4.060   2.672  1.00  0.00     0.076 A 
ATOM     29  C   UNL     1       1.151   4.579   3.272  1.00  0.00     0.076 A 
ATOM     30  C   UNL     1      -1.315   5.354   2.197  1.00  0.00     0.088 A 
ATOM     31  C   UNL     1       0.938   5.883   2.764  1.00  0.00     0.088 A 
ATOM     32  Cl  UNL     1      -2.861   5.721   1.516  1.00  0.00    -0.080 Cl
ATOM     33  C   UNL     1      -0.293   6.278   2.234  1.00  0.00     0.153 A 
ATOM     34  Cl  UNL     1       2.263   6.993   2.723  1.00  0.00    -0.080 Cl
BRANCH  33  35
ATOM     35  O   UNL     1      -0.497   7.530   1.716  1.00  0.00    -0.505 OA
ATOM     36  H   UNL     1      -1.335   7.762   1.368  1.00  0.00     0.293 HD
ENDBRANCH  33  35
ENDBRANCH  23  27
ENDBRANCH  16  17
ENDBRANCH  13  16
ENDBRANCH   7  12
ENDBRANCH   3   6
ENDBRANCH   1   2
BRANCH   1  37
ATOM     37  C   UNL     1      -2.445   1.743   4.261  1.00  0.00     0.023 C 
BRANCH  37  38
ATOM     38  C   UNL     1      -2.900   1.181   5.628  1.00  0.00     0.023 C 
BRANCH  38  39
ATOM     39  C   UNL     1      -1.866   0.442   6.498  1.00  0.00     0.116 C 
BRANCH  39  40
ATOM     40  N   UNL     1      -1.051   1.278   7.386  1.00  0.00    -0.352 N 
ATOM     41  C   UNL     1      -1.052   1.400   8.767  1.00  0.00     0.251 C 
ATOM     42  H   UNL     1      -0.394   1.848   6.924  1.00  0.00     0.163 HD
ATOM     43  O   UNL     1      -0.258   2.162   9.317  1.00  0.00    -0.269 OA
BRANCH  41  44
ATOM     44  C   UNL     1      -2.045   0.668   9.587  1.00  0.00     0.039 A 
ATOM     45  C   UNL     1      -2.864   1.382  10.470  1.00  0.00     0.014 A 
ATOM     46  C   UNL     1      -2.224  -0.705   9.434  1.00  0.00     0.014 A 
ATOM     47  C   UNL     1      -3.970   0.753  11.055  1.00  0.00     0.010 A 
ATOM     48  C   UNL     1      -3.373  -1.306   9.944  1.00  0.00     0.010 A 
ATOM     49  C   UNL     1      -4.287  -0.572  10.720  1.00  0.00    -0.014 A 
BRANCH  49  50
ATOM     50  C   UNL     1      -5.586  -1.203  11.094  1.00  0.00     0.031 A 
ATOM     51  C   UNL     1      -5.606  -2.483  11.883  1.00  0.00     0.074 A 
ATOM     52  C   UNL     1      -6.742  -0.703  10.608  1.00  0.00     0.049 A 
ATOM     53  N   UNL     1      -6.601  -3.298  12.124  1.00  0.00    -0.248 NA
ATOM     54  C   UNL     1      -4.318  -2.922  12.434  1.00  0.00     0.031 C 
ATOM     55  C   UNL     1      -6.869   0.514   9.802  1.00  0.00     0.029 A 
ATOM     56  N   UNL     1      -8.032  -1.168  10.702  1.00  0.00    -0.354 N 
ATOM     57  C   UNL     1      -6.055  -4.364  12.832  1.00  0.00     0.074 A 
ATOM     58  C   UNL     1      -4.628  -4.117  12.911  1.00  0.00     0.031 C 
ATOM     59  C   UNL     1      -8.163   0.714   9.504  1.00  0.00     0.029 A 
ATOM     60  C   UNL     1      -8.953  -0.390  10.038  1.00  0.00     0.049 A 
ATOM     61  H   UNL     1      -8.275  -1.982  11.199  1.00  0.00     0.167 HD
ATOM     62  C   UNL     1      -6.683  -5.433  13.385  1.00  0.00     0.034 A 
ATOM     63  C   UNL     1     -10.280  -0.552   9.861  1.00  0.00     0.034 A 
ATOM     64  C   UNL     1      -8.106  -5.660  13.305  1.00  0.00     0.049 A 
ATOM     65  C   UNL     1     -10.953  -1.771  10.439  1.00  0.00     0.074 A 
ATOM     66  C   UNL     1      -8.851  -6.688  13.858  1.00  0.00     0.029 A 
ATOM     67  N   UNL     1      -9.004  -4.846  12.625  1.00  0.00    -0.354 N 
ATOM     68  N   UNL     1     -10.426  -2.762  11.120  1.00  0.00    -0.248 NA
ATOM     69  C   UNL     1     -12.402  -1.891  10.225  1.00  0.00     0.031 C 
ATOM     70  C   UNL     1     -10.184  -6.530  13.461  1.00  0.00     0.029 A 
ATOM     71  C   UNL     1     -10.289  -5.362  12.724  1.00  0.00     0.049 A 
ATOM     72  H   UNL     1      -8.764  -4.022  12.142  1.00  0.00     0.167 HD
ATOM     73  C   UNL     1     -11.487  -3.601  11.451  1.00  0.00     0.074 A 
ATOM     74  C   UNL     1     -12.682  -3.000  10.894  1.00  0.00     0.031 C 
ATOM     75  C   UNL     1     -11.475  -4.757  12.162  1.00  0.00     0.034 A 
BRANCH  62  76
ATOM     76  C   UNL     1      -5.811  -6.443  14.098  1.00  0.00     0.023 A 
ATOM     77  C   UNL     1      -5.012  -6.075  15.196  1.00  0.00     0.031 A 
ATOM     78  C   UNL     1      -5.714  -7.767  13.634  1.00  0.00     0.131 A 
ATOM     79  C   UNL     1      -4.067  -6.975  15.708  1.00  0.00     0.055 A 
ATOM     80  C   UNL     1      -4.846  -8.692  14.220  1.00  0.00     0.041 A 
ATOM     81  F   UNL     1      -6.438  -8.178  12.581  1.00  0.00    -0.206 F 
ATOM     82  C   UNL     1      -3.996  -8.291  15.247  1.00  0.00     0.022 A 
BRANCH  79  83
ATOM     83  S   UNL     1      -2.796  -6.335  16.834  1.00  0.00     0.124 S 
ATOM     84  O   UNL     1      -2.194  -5.277  16.024  1.00  0.00    -0.237 OA
ATOM     85  O   UNL     1      -3.582  -5.894  17.979  1.00  0.00    -0.237 OA
ATOM     86  O   UNL     1      -1.935  -7.491  17.072  1.00  0.00    -0.744 OA
ENDBRANCH  79  83
ENDBRANCH  62  76
BRANCH  63  87
ATOM     87  C   UNL     1     -11.073   0.461   9.106  1.00  0.00     0.023 A 
ATOM     88  C   UNL     1     -12.049   1.231   9.758  1.00  0.00     0.031 A 
ATOM     89  C   UNL     1     -10.894   0.653   7.725  1.00  0.00     0.131 A 
ATOM     90  C   UNL     1     -12.839   2.129   9.023  1.00  0.00     0.055 A 
ATOM     91  C   UNL     1     -11.649   1.583   7.007  1.00  0.00     0.041 A 
ATOM     92  F   UNL     1      -9.970  -0.054   7.054  1.00  0.00    -0.206 F 
ATOM     93  C   UNL     1     -12.637   2.320   7.655  1.00  0.00     0.022 A 
BRANCH  90  94
ATOM     94  S   UNL     1     -14.186   2.996   9.874  1.00  0.00     0.124 S 
ATOM     95  O   UNL     1     -15.013   1.884  10.329  1.00  0.00    -0.237 OA
ATOM     96  O   UNL     1     -13.468   3.728  10.912  1.00  0.00    -0.237 OA
ATOM     97  O   UNL     1     -14.774   3.824   8.824  1.00  0.00    -0.744 OA
ENDBRANCH  90  94
ENDBRANCH  63  87
BRANCH  75  98
ATOM     98  C   UNL     1     -12.807  -5.412  12.436  1.00  0.00     0.023 A 
ATOM     99  C   UNL     1     -13.578  -5.994  11.415  1.00  0.00     0.031 A 
ATOM    100  C   UNL     1     -13.310  -5.451  13.749  1.00  0.00     0.131 A 
ATOM    101  C   UNL     1     -14.832  -6.548  11.717  1.00  0.00     0.055 A 
ATOM    102  C   UNL     1     -14.532  -6.053  14.052  1.00  0.00     0.041 A 
ATOM    103  F   UNL     1     -12.617  -4.908  14.763  1.00  0.00    -0.206 F 
ATOM    104  C   UNL     1     -15.306  -6.597  13.031  1.00  0.00     0.022 A 
BRANCH 101 105
ATOM    105  S   UNL     1     -15.877  -7.140  10.357  1.00  0.00     0.124 S 
ATOM    106  O   UNL     1     -16.044  -5.932   9.555  1.00  0.00    -0.237 OA
ATOM    107  O   UNL     1     -15.053  -8.189   9.764  1.00  0.00    -0.237 OA
ATOM    108  O   UNL     1     -17.086  -7.610  11.031  1.00  0.00    -0.744 OA
ENDBRANCH 101 105
ENDBRANCH  75  98
ENDBRANCH  49  50
ENDBRANCH  41  44
ENDBRANCH  39  40
ENDBRANCH  38  39
ENDBRANCH  37  38
ENDBRANCH   1  37
TORSDOF 20
