REMARK SMILES C[C@@H]1CCCN(C(=O)N[C@@H]2CCCCC[C@@H]2C(=O)NCCCCNC(=O)c2ccc(-c3c4nc(c(-c5cc(S(=O)(=O)[O-])ccc5F)c5ccc([nH]5)c(-c5cc(S(=O)(=O)[O-])ccc5F)c5nc(c(-c6cc(S(=O)(=O)[O-])ccc6F)c6ccc3[nH]6)C=C5)C=C4)cc2)C1
REMARK SMILES IDX 21 1 20 2 19 3 17 4 18 5 16 7 10 8 9 9 7 10 8 11 6 13 1 14
REMARK SMILES IDX 2 15 3 16 90 17 4 18 5 19 11 20 15 22 14 23 13 24 12 25
REMARK SMILES IDX 22 27 23 28 24 29 25 30 26 32 27 33 28 34 89 35 29 36 88 37
REMARK SMILES IDX 30 38 31 39 32 40 82 41 33 42 87 43 81 44 83 45 34 46 86 47
REMARK SMILES IDX 80 48 79 49 35 51 67 52 47 53 66 54 48 55 51 56 65 57 84 58
REMARK SMILES IDX 49 59 50 60 64 62 85 63 52 64 36 65 37 66 45 67 38 68 44 69
REMARK SMILES IDX 46 70 43 71 39 72 40 73 41 74 42 75 68 76 69 77 77 78 70 79
REMARK SMILES IDX 76 80 78 81 75 82 71 83 72 84 73 85 74 86 53 87 54 88 62 89
REMARK SMILES IDX 55 90 61 91 63 92 60 93 56 94 57 95 58 96 59 97
REMARK H PARENT 19 6 9 12 24 31 83 50 51 61
REMARK Flexibility Score: 90.00
ROOT
ATOM      1  C   UNL     1       5.694   3.698  -2.262  1.00  0.00     0.023 C 
ENDROOT
BRANCH   1   2
ATOM      2  C   UNL     1       6.226   3.212  -0.914  1.00  0.00     0.116 C 
BRANCH   2   3
ATOM      3  N   UNL     1       5.271   3.444   0.151  1.00  0.00    -0.356 N 
ATOM      4  C   UNL     1       4.494   2.562   0.845  1.00  0.00     0.225 C 
ATOM      5  O   UNL     1       3.769   3.010   1.734  1.00  0.00    -0.275 OA
ATOM      6  H   UNL     1       5.166   4.386   0.417  1.00  0.00     0.163 HD
BRANCH   4   7
ATOM      7  C   UNL     1       4.563   1.065   0.522  1.00  0.00     0.101 C 
BRANCH   7   8
ATOM      8  C   UNL     1       3.869   0.752  -0.831  1.00  0.00     0.096 C 
BRANCH   8   9
ATOM      9  N   UNL     1       2.665   1.533  -1.172  1.00  0.00    -0.334 N 
ATOM     10  C   UNL     1       1.361   1.674  -0.901  1.00  0.00     0.317 C 
ATOM     11  O   UNL     1       0.836   2.632  -1.482  1.00  0.00    -0.249 OA
ATOM     12  H   UNL     1       2.912   2.200  -1.853  1.00  0.00     0.165 HD
BRANCH  10  13
ATOM     13  N   UNL     1       0.641   0.856  -0.093  1.00  0.00    -0.325 N 
ATOM     14  C   UNL     1      -3.130   0.277   0.001  1.00  0.00     0.009 C 
ATOM     15  C   UNL     1      -1.675   0.032  -0.388  1.00  0.00     0.005 C 
ATOM     16  C   UNL     1      -1.219  -1.345   0.126  1.00  0.00     0.007 C 
ATOM     17  C   UNL     1      -0.772   1.162   0.142  1.00  0.00     0.124 C 
ATOM     18  C   UNL     1       0.275  -1.550  -0.096  1.00  0.00     0.022 C 
ATOM     19  C   UNL     1       1.048  -0.389   0.511  1.00  0.00     0.121 C 
ENDBRANCH  10  13
ENDBRANCH   8   9
BRANCH   8  20
ATOM     20  C   UNL     1       3.849  -0.686  -1.376  1.00  0.00     0.026 CG0
ATOM     21  G   UNL     1       4.775  -1.682  -0.688  1.00  0.00     0.000 G0
ENDBRANCH   8  20
ENDBRANCH   7   8
BRANCH   7  22
ATOM     22  C   UNL     1       4.143   0.265   1.762  1.00  0.00     0.015 C 
BRANCH  22  23
ATOM     23  C   UNL     1       4.663  -1.169   1.828  1.00  0.00     0.001 C 
BRANCH  23  24
ATOM     24  C   UNL     1       4.301  -2.119   0.693  1.00  0.00     0.000 C 
BRANCH  24  25
ATOM     25  C   UNL     1       4.775  -1.682  -0.688  1.00  0.00     0.002 CG0
ATOM     26  G   UNL     1       3.849  -0.686  -1.376  1.00  0.00     0.000 G0
ENDBRANCH  24  25
ENDBRANCH  23  24
ENDBRANCH  22  23
ENDBRANCH   7  22
ENDBRANCH   4   7
ENDBRANCH   2   3
ENDBRANCH   1   2
BRANCH   1  27
ATOM     27  C   UNL     1       5.549   5.216  -2.376  1.00  0.00     0.023 C 
BRANCH  27  28
ATOM     28  C   UNL     1       6.819   6.000  -2.079  1.00  0.00     0.116 C 
BRANCH  28  29
ATOM     29  N   UNL     1       7.949   5.572  -2.890  1.00  0.00    -0.352 N 
ATOM     30  C   UNL     1       8.928   6.345  -3.470  1.00  0.00     0.251 C 
ATOM     31  H   UNL     1       8.022   4.603  -3.044  1.00  0.00     0.163 HD
ATOM     32  O   UNL     1       9.732   5.840  -4.240  1.00  0.00    -0.269 OA
BRANCH  30  33
ATOM     33  C   UNL     1       8.961   7.791  -3.174  1.00  0.00     0.039 A 
ATOM     34  C   UNL     1       9.040   8.696  -4.234  1.00  0.00     0.014 A 
ATOM     35  C   UNL     1       8.860   8.245  -1.856  1.00  0.00     0.014 A 
ATOM     36  C   UNL     1       8.954  10.064  -3.974  1.00  0.00     0.010 A 
ATOM     37  C   UNL     1       8.695   9.602  -1.608  1.00  0.00     0.010 A 
ATOM     38  C   UNL     1       8.746  10.525  -2.664  1.00  0.00    -0.014 A 
BRANCH  38  39
ATOM     39  C   UNL     1       8.587  11.972  -2.374  1.00  0.00     0.031 A 
ATOM     40  C   UNL     1       9.593  12.676  -1.507  1.00  0.00     0.074 A 
ATOM     41  C   UNL     1       7.502  12.627  -2.828  1.00  0.00     0.049 A 
ATOM     42  N   UNL     1       9.595  13.910  -1.073  1.00  0.00    -0.248 NA
ATOM     43  C   UNL     1      10.726  11.868  -1.033  1.00  0.00     0.031 C 
ATOM     44  C   UNL     1       6.429  12.032  -3.628  1.00  0.00     0.029 A 
ATOM     45  N   UNL     1       7.113  13.933  -2.669  1.00  0.00    -0.354 N 
ATOM     46  C   UNL     1      10.720  14.023  -0.264  1.00  0.00     0.074 A 
ATOM     47  C   UNL     1      11.327  12.710  -0.208  1.00  0.00     0.031 C 
ATOM     48  C   UNL     1       5.515  12.974  -3.906  1.00  0.00     0.029 A 
ATOM     49  C   UNL     1       5.912  14.227  -3.271  1.00  0.00     0.049 A 
ATOM     50  H   UNL     1       7.643  14.597  -2.172  1.00  0.00     0.167 HD
ATOM     51  C   UNL     1      11.217  15.126   0.351  1.00  0.00     0.034 A 
ATOM     52  C   UNL     1       5.204  15.373  -3.296  1.00  0.00     0.034 A 
ATOM     53  C   UNL     1      10.594  16.426   0.278  1.00  0.00     0.049 A 
ATOM     54  C   UNL     1       5.761  16.586  -2.598  1.00  0.00     0.074 A 
ATOM     55  C   UNL     1      11.034  17.627   0.805  1.00  0.00     0.029 A 
ATOM     56  N   UNL     1       9.383  16.692  -0.353  1.00  0.00    -0.354 N 
ATOM     57  N   UNL     1       6.862  16.699  -1.892  1.00  0.00    -0.248 NA
ATOM     58  C   UNL     1       4.987  17.827  -2.713  1.00  0.00     0.031 C 
ATOM     59  C   UNL     1      10.059  18.600   0.556  1.00  0.00     0.029 A 
ATOM     60  C   UNL     1       9.046  18.029  -0.198  1.00  0.00     0.049 A 
ATOM     61  H   UNL     1       8.843  16.028  -0.840  1.00  0.00     0.167 HD
ATOM     62  C   UNL     1       6.925  18.032  -1.496  1.00  0.00     0.074 A 
ATOM     63  C   UNL     1       5.757  18.683  -2.057  1.00  0.00     0.031 C 
ATOM     64  C   UNL     1       7.864  18.661  -0.744  1.00  0.00     0.034 A 
BRANCH  51  65
ATOM     65  C   UNL     1      12.474  14.948   1.173  1.00  0.00     0.023 A 
ATOM     66  C   UNL     1      13.670  14.477   0.599  1.00  0.00     0.031 A 
ATOM     67  C   UNL     1      12.463  15.182   2.559  1.00  0.00     0.131 A 
ATOM     68  C   UNL     1      14.761  14.150   1.418  1.00  0.00     0.055 A 
ATOM     69  C   UNL     1      13.587  14.949   3.355  1.00  0.00     0.041 A 
ATOM     70  F   UNL     1      11.349  15.613   3.172  1.00  0.00    -0.206 F 
ATOM     71  C   UNL     1      14.738  14.408   2.789  1.00  0.00     0.022 A 
BRANCH  68  72
ATOM     72  S   UNL     1      16.130  13.204   0.693  1.00  0.00     0.124 S 
ATOM     73  O   UNL     1      15.432  12.033   0.167  1.00  0.00    -0.237 OA
ATOM     74  O   UNL     1      16.662  14.130  -0.300  1.00  0.00    -0.237 OA
ATOM     75  O   UNL     1      17.005  12.938   1.833  1.00  0.00    -0.744 OA
ENDBRANCH  68  72
ENDBRANCH  51  65
BRANCH  52  76
ATOM     76  C   UNL     1       3.892  15.421  -4.001  1.00  0.00     0.023 A 
ATOM     77  C   UNL     1       3.722  16.177  -5.171  1.00  0.00     0.031 A 
ATOM     78  C   UNL     1       2.787  14.702  -3.511  1.00  0.00     0.131 A 
ATOM     79  C   UNL     1       2.467  16.220  -5.798  1.00  0.00     0.055 A 
ATOM     80  C   UNL     1       1.553  14.713  -4.162  1.00  0.00     0.041 A 
ATOM     81  F   UNL     1       2.901  13.955  -2.401  1.00  0.00    -0.206 F 
ATOM     82  C   UNL     1       1.385  15.482  -5.309  1.00  0.00     0.022 A 
BRANCH  79  83
ATOM     83  S   UNL     1       2.252  17.295  -7.243  1.00  0.00     0.124 S 
ATOM     84  O   UNL     1       2.548  18.609  -6.683  1.00  0.00    -0.237 OA
ATOM     85  O   UNL     1       3.241  16.756  -8.172  1.00  0.00    -0.237 OA
ATOM     86  O   UNL     1       0.859  17.077  -7.626  1.00  0.00    -0.744 OA
ENDBRANCH  79  83
ENDBRANCH  52  76
BRANCH  64  87
ATOM     87  C   UNL     1       7.679  20.142  -0.516  1.00  0.00     0.023 A 
ATOM     88  C   UNL     1       6.614  20.646   0.251  1.00  0.00     0.031 A 
ATOM     89  C   UNL     1       8.579  21.061  -1.083  1.00  0.00     0.131 A 
ATOM     90  C   UNL     1       6.445  22.033   0.385  1.00  0.00     0.055 A 
ATOM     91  C   UNL     1       8.442  22.437  -0.895  1.00  0.00     0.041 A 
ATOM     92  F   UNL     1       9.613  20.636  -1.828  1.00  0.00    -0.206 F 
ATOM     93  C   UNL     1       7.362  22.930  -0.168  1.00  0.00     0.022 A 
BRANCH  90  94
ATOM     94  S   UNL     1       4.957  22.654   1.214  1.00  0.00     0.124 S 
ATOM     95  O   UNL     1       3.892  22.078   0.399  1.00  0.00    -0.237 OA
ATOM     96  O   UNL     1       5.097  22.107   2.560  1.00  0.00    -0.237 OA
ATOM     97  O   UNL     1       5.092  24.107   1.119  1.00  0.00    -0.744 OA
ENDBRANCH  90  94
ENDBRANCH  64  87
ENDBRANCH  38  39
ENDBRANCH  30  33
ENDBRANCH  28  29
ENDBRANCH  27  28
ENDBRANCH   1  27
TORSDOF 16
