REMARK SMILES O=C(NC1(C(=O)NCCCCNC(=O)c2ccc(-c3c4nc(c(-c5cc(S(=O)(=O)[O-])ccc5F)c5ccc([nH]5)c(-c5cc(S(=O)(=O)[O-])ccc5F)c5nc(c(-c6cc(S(=O)(=O)[O-])ccc6F)c6ccc3[nH]6)C=C5)C=C4)cc2)Cc2ccccc2C1)OCC1c2ccccc2-c2ccccc21
REMARK SMILES IDX 9 1 8 2 7 3 5 4 6 5 4 7 78 8 85 9 79 10 84 11 80 12 83 13
REMARK SMILES IDX 81 14 82 15 3 16 1 17 2 18 86 20 87 21 88 22 89 23 100 24
REMARK SMILES IDX 90 25 94 26 95 27 99 28 91 29 93 30 96 31 98 32 92 33 97 34
REMARK SMILES IDX 10 35 11 36 12 37 13 38 14 40 15 41 16 42 77 43 17 44 76 45
REMARK SMILES IDX 18 46 19 47 20 48 70 49 21 50 75 51 69 52 71 53 22 54 74 55
REMARK SMILES IDX 68 56 67 57 23 59 55 60 35 61 54 62 36 63 39 64 53 65 72 66
REMARK SMILES IDX 37 67 38 68 52 70 73 71 40 72 24 73 25 74 33 75 26 76 32 77
REMARK SMILES IDX 34 78 31 79 27 80 28 81 29 82 30 83 56 84 57 85 65 86 58 87
REMARK SMILES IDX 64 88 66 89 63 90 59 91 60 92 61 93 62 94 41 95 42 96 50 97
REMARK SMILES IDX 43 98 49 99 51 100 48 101 44 102 45 103 46 104 47 105
REMARK H PARENT 7 6 3 19 12 39 71 58 39 69
REMARK Flexibility Score: inf
ROOT
ATOM      1  C   UNL     1       8.207  -1.545  -0.419  1.00  0.00     0.023 C 
ENDROOT
BRANCH   1   2
ATOM      2  C   UNL     1       7.374  -2.360  -1.394  1.00  0.00     0.116 C 
BRANCH   2   3
ATOM      3  N   UNL     1       6.082  -2.711  -0.856  1.00  0.00    -0.354 N 
ATOM      4  C   UNL     1       4.861  -2.132  -0.974  1.00  0.00     0.246 C 
ATOM      5  O   UNL     1       3.928  -2.841  -0.562  1.00  0.00    -0.272 OA
ATOM      6  H   UNL     1       6.088  -3.522  -0.299  1.00  0.00     0.163 HD
BRANCH   4   7
ATOM      7  C   UNL     1       4.578  -0.731  -1.640  1.00  0.00     0.130 C 
ATOM      8  C   UNL     1       4.857  -0.770  -3.174  1.00  0.00     0.075 C 
ATOM      9  C   UNL     1       5.402   0.469  -1.103  1.00  0.00     0.075 C 
ATOM     10  C   UNL     1       6.126   0.028  -3.323  1.00  0.00    -0.042 A 
ATOM     11  C   UNL     1       6.417   0.728  -2.155  1.00  0.00    -0.042 A 
ATOM     12  C   UNL     1       7.029   0.035  -4.373  1.00  0.00     0.004 A 
ATOM     13  C   UNL     1       7.568   1.484  -2.009  1.00  0.00     0.004 A 
ATOM     14  C   UNL     1       8.227   0.746  -4.218  1.00  0.00     0.000 A 
ATOM     15  C   UNL     1       8.491   1.474  -3.048  1.00  0.00     0.000 A 
BRANCH   7  16
ATOM     16  N   UNL     1       3.141  -0.488  -1.359  1.00  0.00    -0.306 N 
ATOM     17  O   UNL     1       1.459   0.021   0.077  1.00  0.00    -0.225 OA
ATOM     18  C   UNL     1       2.644  -0.139  -0.125  1.00  0.00     0.408 C 
ATOM     19  H   UNL     1       2.504  -0.582  -2.104  1.00  0.00     0.168 HD
BRANCH  18  20
ATOM     20  O   UNL     1       3.635   0.059   0.788  1.00  0.00    -0.449 OA
BRANCH  20  21
ATOM     21  C   UNL     1       3.260   0.722   1.997  1.00  0.00     0.248 C 
BRANCH  21  22
ATOM     22  C   UNL     1       4.466   1.368   2.716  1.00  0.00     0.088 C 
ATOM     23  C   UNL     1       5.827   0.669   2.719  1.00  0.00    -0.029 A 
ATOM     24  C   UNL     1       4.832   2.735   2.135  1.00  0.00    -0.029 A 
ATOM     25  C   UNL     1       6.172  -0.581   3.207  1.00  0.00     0.005 A 
ATOM     26  C   UNL     1       6.830   1.564   2.264  1.00  0.00    -0.014 A 
ATOM     27  C   UNL     1       6.206   2.794   1.834  1.00  0.00    -0.014 A 
ATOM     28  C   UNL     1       4.011   3.835   1.947  1.00  0.00     0.005 A 
ATOM     29  C   UNL     1       7.533  -0.899   3.306  1.00  0.00     0.000 A 
ATOM     30  C   UNL     1       8.176   1.245   2.353  1.00  0.00     0.009 A 
ATOM     31  C   UNL     1       6.750   3.919   1.235  1.00  0.00     0.009 A 
ATOM     32  C   UNL     1       4.561   4.976   1.364  1.00  0.00     0.000 A 
ATOM     33  C   UNL     1       8.524   0.016   2.909  1.00  0.00     0.001 A 
ATOM     34  C   UNL     1       5.912   5.009   0.986  1.00  0.00     0.001 A 
ENDBRANCH  21  22
ENDBRANCH  20  21
ENDBRANCH  18  20
ENDBRANCH   7  16
ENDBRANCH   4   7
ENDBRANCH   2   3
ENDBRANCH   1   2
BRANCH   1  35
ATOM     35  C   UNL     1       9.050  -2.413   0.499  1.00  0.00     0.023 C 
BRANCH  35  36
ATOM     36  C   UNL     1      10.149  -3.166  -0.220  1.00  0.00     0.116 C 
BRANCH  36  37
ATOM     37  N   UNL     1      11.144  -2.279  -0.806  1.00  0.00    -0.352 N 
ATOM     38  C   UNL     1      12.510  -2.282  -0.648  1.00  0.00     0.251 C 
ATOM     39  H   UNL     1      10.789  -1.578  -1.399  1.00  0.00     0.163 HD
ATOM     40  O   UNL     1      13.175  -1.342  -1.072  1.00  0.00    -0.269 OA
BRANCH  38  41
ATOM     41  C   UNL     1      13.155  -3.402   0.073  1.00  0.00     0.039 A 
ATOM     42  C   UNL     1      14.222  -3.141   0.932  1.00  0.00     0.014 A 
ATOM     43  C   UNL     1      12.673  -4.705  -0.064  1.00  0.00     0.014 A 
ATOM     44  C   UNL     1      14.757  -4.180   1.695  1.00  0.00     0.010 A 
ATOM     45  C   UNL     1      13.094  -5.694   0.812  1.00  0.00     0.010 A 
ATOM     46  C   UNL     1      14.170  -5.458   1.674  1.00  0.00    -0.014 A 
BRANCH  46  47
ATOM     47  C   UNL     1      14.703  -6.573   2.499  1.00  0.00     0.031 A 
ATOM     48  C   UNL     1      15.147  -7.853   1.831  1.00  0.00     0.074 A 
ATOM     49  C   UNL     1      14.747  -6.450   3.841  1.00  0.00     0.049 A 
ATOM     50  N   UNL     1      15.594  -8.957   2.371  1.00  0.00    -0.248 NA
ATOM     51  C   UNL     1      15.021  -7.920   0.365  1.00  0.00     0.031 C 
ATOM     52  C   UNL     1      14.262  -5.295   4.603  1.00  0.00     0.029 A 
ATOM     53  N   UNL     1      15.228  -7.299   4.804  1.00  0.00    -0.354 N 
ATOM     54  C   UNL     1      15.780  -9.846   1.316  1.00  0.00     0.074 A 
ATOM     55  C   UNL     1      15.300  -9.190   0.122  1.00  0.00     0.031 C 
ATOM     56  C   UNL     1      14.524  -5.485   5.906  1.00  0.00     0.029 A 
ATOM     57  C   UNL     1      15.152  -6.789   6.080  1.00  0.00     0.049 A 
ATOM     58  H   UNL     1      15.594  -8.190   4.601  1.00  0.00     0.167 HD
ATOM     59  C   UNL     1      16.345 -11.078   1.329  1.00  0.00     0.034 A 
ATOM     60  C   UNL     1      15.552  -7.314   7.254  1.00  0.00     0.034 A 
ATOM     61  C   UNL     1      16.858 -11.697   2.524  1.00  0.00     0.049 A 
ATOM     62  C   UNL     1      16.222  -8.665   7.239  1.00  0.00     0.074 A 
ATOM     63  C   UNL     1      17.494 -12.918   2.662  1.00  0.00     0.029 A 
ATOM     64  N   UNL     1      16.803 -11.132   3.792  1.00  0.00    -0.354 N 
ATOM     65  N   UNL     1      16.441  -9.468   6.221  1.00  0.00    -0.248 NA
ATOM     66  C   UNL     1      16.719  -9.169   8.523  1.00  0.00     0.031 C 
ATOM     67  C   UNL     1      17.778 -13.113   4.018  1.00  0.00     0.029 A 
ATOM     68  C   UNL     1      17.383 -11.984   4.719  1.00  0.00     0.049 A 
ATOM     69  H   UNL     1      16.410 -10.254   4.002  1.00  0.00     0.167 HD
ATOM     70  C   UNL     1      17.119 -10.564   6.744  1.00  0.00     0.074 A 
ATOM     71  C   UNL     1      17.308 -10.296   8.156  1.00  0.00     0.031 C 
ATOM     72  C   UNL     1      17.541 -11.697   6.124  1.00  0.00     0.034 A 
BRANCH  59  73
ATOM     73  C   UNL     1      16.438 -11.816   0.013  1.00  0.00     0.023 A 
ATOM     74  C   UNL     1      17.177 -11.303  -1.069  1.00  0.00     0.031 A 
ATOM     75  C   UNL     1      15.753 -13.028  -0.180  1.00  0.00     0.131 A 
ATOM     76  C   UNL     1      17.148 -11.952  -2.312  1.00  0.00     0.055 A 
ATOM     77  C   UNL     1      15.800 -13.716  -1.395  1.00  0.00     0.041 A 
ATOM     78  F   UNL     1      15.011 -13.559   0.805  1.00  0.00    -0.206 F 
ATOM     79  C   UNL     1      16.488 -13.170  -2.475  1.00  0.00     0.022 A 
BRANCH  76  80
ATOM     80  S   UNL     1      17.867 -11.106  -3.747  1.00  0.00     0.124 S 
ATOM     81  O   UNL     1      17.041  -9.903  -3.822  1.00  0.00    -0.237 OA
ATOM     82  O   UNL     1      19.252 -10.906  -3.336  1.00  0.00    -0.237 OA
ATOM     83  O   UNL     1      17.671 -12.057  -4.839  1.00  0.00    -0.744 OA
ENDBRANCH  76  80
ENDBRANCH  59  73
BRANCH  60  84
ATOM     84  C   UNL     1      15.349  -6.571   8.532  1.00  0.00     0.023 A 
ATOM     85  C   UNL     1      16.439  -6.150   9.311  1.00  0.00     0.031 A 
ATOM     86  C   UNL     1      14.056  -6.310   9.020  1.00  0.00     0.131 A 
ATOM     87  C   UNL     1      16.220  -5.547  10.560  1.00  0.00     0.055 A 
ATOM     88  C   UNL     1      13.842  -5.657  10.236  1.00  0.00     0.041 A 
ATOM     89  F   UNL     1      12.976  -6.681   8.314  1.00  0.00    -0.206 F 
ATOM     90  C   UNL     1      14.928  -5.287  11.022  1.00  0.00     0.022 A 
BRANCH  87  91
ATOM     91  S   UNL     1      17.650  -5.202  11.621  1.00  0.00     0.124 S 
ATOM     92  O   UNL     1      18.282  -6.513  11.707  1.00  0.00    -0.237 OA
ATOM     93  O   UNL     1      18.366  -4.195  10.844  1.00  0.00    -0.237 OA
ATOM     94  O   UNL     1      17.045  -4.717  12.860  1.00  0.00    -0.744 OA
ENDBRANCH  87  91
ENDBRANCH  60  84
BRANCH  72  95
ATOM     95  C   UNL     1      18.264 -12.705   6.983  1.00  0.00     0.023 A 
ATOM     96  C   UNL     1      17.614 -13.365   8.040  1.00  0.00     0.031 A 
ATOM     97  C   UNL     1      19.628 -12.973   6.771  1.00  0.00     0.131 A 
ATOM     98  C   UNL     1      18.347 -14.193   8.900  1.00  0.00     0.055 A 
ATOM     99  C   UNL     1      20.334 -13.858   7.586  1.00  0.00     0.041 A 
ATOM    100  F   UNL     1      20.297 -12.372   5.775  1.00  0.00    -0.206 F 
ATOM    101  C   UNL     1      19.699 -14.458   8.670  1.00  0.00     0.022 A 
BRANCH  98 102
ATOM    102  S   UNL     1      17.538 -14.811  10.400  1.00  0.00     0.124 S 
ATOM    103  O   UNL     1      17.096 -13.575  11.037  1.00  0.00    -0.237 OA
ATOM    104  O   UNL     1      16.483 -15.661   9.857  1.00  0.00    -0.237 OA
ATOM    105  O   UNL     1      18.608 -15.520  11.099  1.00  0.00    -0.744 OA
ENDBRANCH  98 102
ENDBRANCH  72  95
ENDBRANCH  46  47
ENDBRANCH  38  41
ENDBRANCH  36  37
ENDBRANCH  35  36
ENDBRANCH   1  35
TORSDOF 18
