REMARK SMILES O=C(C[C@H]([NH2+]Cc1ccccc1C1CC1)c1cccs1)NCCCCNC(=O)c1ccc(-c2c3nc(c(-c4cc(S(=O)(=O)[O-])ccc4F)c4ccc([nH]4)c(-c4cc(S(=O)(=O)[O-])ccc4F)c4nc(c(-c5cc(S(=O)(=O)[O-])ccc5F)c5ccc2[nH]5)C=C4)C=C3)cc1
REMARK SMILES IDX 22 1 21 2 1 3 2 4 3 6 4 7 16 8 17 9 20 10 18 11 19 12 5 13
REMARK SMILES IDX 6 16 7 17 8 18 12 19 9 20 11 21 10 22 13 23 14 24 15 25
REMARK SMILES IDX 23 26 24 27 25 28 26 29 27 30 28 32 29 33 30 34 91 35 31 36
REMARK SMILES IDX 90 37 32 38 33 39 34 40 84 41 35 42 89 43 83 44 85 45 36 46
REMARK SMILES IDX 88 47 82 48 81 49 37 51 69 52 49 53 68 54 50 55 53 56 67 57
REMARK SMILES IDX 86 58 51 59 52 60 66 62 87 63 54 64 38 65 39 66 47 67 40 68
REMARK SMILES IDX 46 69 48 70 45 71 41 72 42 73 43 74 44 75 70 76 71 77 79 78
REMARK SMILES IDX 72 79 78 80 80 81 77 82 73 83 74 84 75 85 76 86 55 87 56 88
REMARK SMILES IDX 64 89 57 90 63 91 65 92 62 93 58 94 59 95 60 96 61 97
REMARK H PARENT 21 5 5 14 5 15 26 31 85 50 53 61
REMARK Flexibility Score: inf
ROOT
ATOM      1  C   UNL     1       8.080   2.434   1.128  1.00  0.00     0.116 C 
ENDROOT
BRANCH   1   2
ATOM      2  N   UNL     1       6.858   1.710   0.862  1.00  0.00    -0.356 N 
ATOM      3  O   UNL     1       7.152   0.060   2.445  1.00  0.00    -0.275 OA
ATOM      4  C   UNL     1       6.451   0.632   1.617  1.00  0.00     0.226 C 
ATOM      5  H   UNL     1       6.292   1.999   0.110  1.00  0.00     0.163 HD
BRANCH   4   6
ATOM      6  C   UNL     1       5.047   0.170   1.291  1.00  0.00     0.171 C 
BRANCH   6   7
ATOM      7  C   UNL     1       3.865   1.081   1.713  1.00  0.00     0.233 C 
BRANCH   7   8
ATOM      8  C   UNL     1       4.259   2.446   2.253  1.00  0.00     0.062 A 
ATOM      9  C   UNL     1       4.073   3.703   1.699  1.00  0.00     0.021 A 
ATOM     10  S   UNL     1       5.013   2.580   3.800  1.00  0.00    -0.143 S 
ATOM     11  C   UNL     1       4.692   4.738   2.458  1.00  0.00     0.012 A 
ATOM     12  C   UNL     1       5.299   4.251   3.592  1.00  0.00     0.065 A 
ENDBRANCH   7   8
BRANCH   7  13
ATOM     13  N   UNL     1       2.937   1.260   0.576  1.00  0.00    -0.335 N 
ATOM     14  H   UNL     1       3.423   0.994  -0.281  1.00  0.00     0.347 HD
ATOM     15  H   UNL     1       2.653   2.240   0.575  1.00  0.00     0.347 HD
BRANCH  13  16
ATOM     16  C   UNL     1       1.720   0.464   0.680  1.00  0.00     0.298 C 
BRANCH  16  17
ATOM     17  C   UNL     1       0.893   0.567  -0.587  1.00  0.00     0.010 A 
ATOM     18  C   UNL     1       0.015   1.681  -0.652  1.00  0.00     0.010 A 
ATOM     19  C   UNL     1       0.961  -0.336  -1.681  1.00  0.00    -0.036 A 
ATOM     20  C   UNL     1      -0.832   1.891  -1.735  1.00  0.00     0.001 A 
ATOM     21  C   UNL     1       0.055  -0.093  -2.748  1.00  0.00     0.004 A 
ATOM     22  C   UNL     1      -0.825   0.990  -2.782  1.00  0.00     0.000 A 
BRANCH  19  23
ATOM     23  C   UNL     1       1.890  -1.527  -1.896  1.00  0.00     0.020 C 
ATOM     24  C   UNL     1       3.088  -1.928  -1.090  1.00  0.00     0.009 C 
ATOM     25  C   UNL     1       1.821  -2.722  -0.976  1.00  0.00     0.009 C 
ENDBRANCH  19  23
ENDBRANCH  16  17
ENDBRANCH  13  16
ENDBRANCH   7  13
ENDBRANCH   6   7
ENDBRANCH   4   6
ENDBRANCH   1   2
BRANCH   1  26
ATOM     26  C   UNL     1       8.819   2.821  -0.149  1.00  0.00     0.023 C 
BRANCH  26  27
ATOM     27  C   UNL     1       7.995   3.596  -1.183  1.00  0.00     0.023 C 
BRANCH  27  28
ATOM     28  C   UNL     1       7.311   4.860  -0.672  1.00  0.00     0.116 C 
BRANCH  28  29
ATOM     29  N   UNL     1       8.256   5.868  -0.221  1.00  0.00    -0.352 N 
ATOM     30  C   UNL     1       8.467   7.145  -0.681  1.00  0.00     0.251 C 
ATOM     31  H   UNL     1       8.832   5.593   0.528  1.00  0.00     0.163 HD
ATOM     32  O   UNL     1       9.441   7.778  -0.274  1.00  0.00    -0.269 OA
BRANCH  30  33
ATOM     33  C   UNL     1       7.555   7.749  -1.679  1.00  0.00     0.039 A 
ATOM     34  C   UNL     1       8.105   8.447  -2.758  1.00  0.00     0.014 A 
ATOM     35  C   UNL     1       6.167   7.645  -1.554  1.00  0.00     0.014 A 
ATOM     36  C   UNL     1       7.268   8.973  -3.747  1.00  0.00     0.010 A 
ATOM     37  C   UNL     1       5.339   8.106  -2.578  1.00  0.00     0.010 A 
ATOM     38  C   UNL     1       5.879   8.771  -3.689  1.00  0.00    -0.014 A 
BRANCH  38  39
ATOM     39  C   UNL     1       4.987   9.236  -4.788  1.00  0.00     0.031 A 
ATOM     40  C   UNL     1       3.928  10.274  -4.524  1.00  0.00     0.074 A 
ATOM     41  C   UNL     1       5.093   8.683  -6.014  1.00  0.00     0.049 A 
ATOM     42  N   UNL     1       3.020  10.755  -5.334  1.00  0.00    -0.248 NA
ATOM     43  C   UNL     1       3.868  10.822  -3.162  1.00  0.00     0.031 C 
ATOM     44  C   UNL     1       6.058   7.648  -6.391  1.00  0.00     0.029 A 
ATOM     45  N   UNL     1       4.384   8.907  -7.168  1.00  0.00    -0.354 N 
ATOM     46  C   UNL     1       2.273  11.654  -4.580  1.00  0.00     0.074 A 
ATOM     47  C   UNL     1       2.800  11.603  -3.232  1.00  0.00     0.031 C 
ATOM     48  C   UNL     1       5.901   7.351  -7.691  1.00  0.00     0.029 A 
ATOM     49  C   UNL     1       4.790   8.130  -8.229  1.00  0.00     0.049 A 
ATOM     50  H   UNL     1       3.653   9.563  -7.232  1.00  0.00     0.167 HD
ATOM     51  C   UNL     1       1.256  12.460  -4.978  1.00  0.00     0.034 A 
ATOM     52  C   UNL     1       4.316   8.041  -9.489  1.00  0.00     0.034 A 
ATOM     53  C   UNL     1       0.746  12.504  -6.328  1.00  0.00     0.049 A 
ATOM     54  C   UNL     1       3.153   8.913  -9.894  1.00  0.00     0.074 A 
ATOM     55  C   UNL     1      -0.240  13.324  -6.849  1.00  0.00     0.029 A 
ATOM     56  N   UNL     1       1.168  11.686  -7.369  1.00  0.00    -0.354 N 
ATOM     57  N   UNL     1       2.493   9.795  -9.180  1.00  0.00    -0.248 NA
ATOM     58  C   UNL     1       2.679   8.783 -11.278  1.00  0.00     0.031 C 
ATOM     59  C   UNL     1      -0.473  12.945  -8.175  1.00  0.00     0.029 A 
ATOM     60  C   UNL     1       0.432  11.954  -8.515  1.00  0.00     0.049 A 
ATOM     61  H   UNL     1       1.885  11.014  -7.303  1.00  0.00     0.167 HD
ATOM     62  C   UNL     1       1.549  10.350 -10.042  1.00  0.00     0.074 A 
ATOM     63  C   UNL     1       1.738   9.713 -11.329  1.00  0.00     0.031 C 
ATOM     64  C   UNL     1       0.617  11.306  -9.793  1.00  0.00     0.034 A 
BRANCH  51  65
ATOM     65  C   UNL     1       0.607  13.335  -3.930  1.00  0.00     0.023 A 
ATOM     66  C   UNL     1       1.325  14.330  -3.244  1.00  0.00     0.031 A 
ATOM     67  C   UNL     1      -0.750  13.161  -3.600  1.00  0.00     0.131 A 
ATOM     68  C   UNL     1       0.709  15.056  -2.213  1.00  0.00     0.055 A 
ATOM     69  C   UNL     1      -1.381  13.949  -2.635  1.00  0.00     0.041 A 
ATOM     70  F   UNL     1      -1.485  12.214  -4.203  1.00  0.00    -0.206 F 
ATOM     71  C   UNL     1      -0.647  14.892  -1.923  1.00  0.00     0.022 A 
BRANCH  68  72
ATOM     72  S   UNL     1       1.744  16.106  -1.156  1.00  0.00     0.124 S 
ATOM     73  O   UNL     1       2.714  15.142  -0.644  1.00  0.00    -0.237 OA
ATOM     74  O   UNL     1       2.258  17.093  -2.099  1.00  0.00    -0.237 OA
ATOM     75  O   UNL     1       0.805  16.622  -0.162  1.00  0.00    -0.744 OA
ENDBRANCH  68  72
ENDBRANCH  51  65
BRANCH  52  76
ATOM     76  C   UNL     1       4.922   7.085 -10.462  1.00  0.00     0.023 A 
ATOM     77  C   UNL     1       5.542   7.544 -11.635  1.00  0.00     0.031 A 
ATOM     78  C   UNL     1       4.843   5.695 -10.260  1.00  0.00     0.131 A 
ATOM     79  C   UNL     1       6.012   6.623 -12.585  1.00  0.00     0.055 A 
ATOM     80  C   UNL     1       5.368   4.784 -11.179  1.00  0.00     0.041 A 
ATOM     81  F   UNL     1       4.261   5.200  -9.156  1.00  0.00    -0.206 F 
ATOM     82  C   UNL     1       5.944   5.247 -12.358  1.00  0.00     0.022 A 
BRANCH  79  83
ATOM     83  S   UNL     1       6.625   7.251 -14.173  1.00  0.00     0.124 S 
ATOM     84  O   UNL     1       5.464   7.982 -14.669  1.00  0.00    -0.237 OA
ATOM     85  O   UNL     1       7.765   8.061 -13.758  1.00  0.00    -0.237 OA
ATOM     86  O   UNL     1       6.961   6.036 -14.912  1.00  0.00    -0.744 OA
ENDBRANCH  79  83
ENDBRANCH  52  76
BRANCH  64  87
ATOM     87  C   UNL     1      -0.238  11.756 -10.955  1.00  0.00     0.023 A 
ATOM     88  C   UNL     1      -1.149  10.892 -11.588  1.00  0.00     0.031 A 
ATOM     89  C   UNL     1      -0.130  13.071 -11.442  1.00  0.00     0.131 A 
ATOM     90  C   UNL     1      -1.871  11.335 -12.708  1.00  0.00     0.055 A 
ATOM     91  C   UNL     1      -0.901  13.527 -12.512  1.00  0.00     0.041 A 
ATOM     92  F   UNL     1       0.727  13.940 -10.881  1.00  0.00    -0.206 F 
ATOM     93  C   UNL     1      -1.768  12.653 -13.161  1.00  0.00     0.022 A 
BRANCH  90  94
ATOM     94  S   UNL     1      -2.872  10.136 -13.630  1.00  0.00     0.124 S 
ATOM     95  O   UNL     1      -1.878   9.135 -14.003  1.00  0.00    -0.237 OA
ATOM     96  O   UNL     1      -3.854   9.718 -12.635  1.00  0.00    -0.237 OA
ATOM     97  O   UNL     1      -3.410  10.920 -14.740  1.00  0.00    -0.744 OA
ENDBRANCH  90  94
ENDBRANCH  64  87
ENDBRANCH  38  39
ENDBRANCH  30  33
ENDBRANCH  28  29
ENDBRANCH  27  28
ENDBRANCH  26  27
ENDBRANCH   1  26
TORSDOF 20
