REMARK SMILES C[N@@H+](Cc1ncccc1C(=O)NCCCCNC(=O)c1ccc(-c2c3nc(c(-c4cc(S(=O)(=O)[O-])ccc4F)c4ccc([nH]4)c(-c4cc(S(=O)(=O)[O-])ccc4F)c4nc(c(-c5cc(S(=O)(=O)[O-])ccc5F)c5ccc2[nH]5)C=C4)C=C3)cc1)C[C@@H]1CCN(c2ccccc2)C1
REMARK SMILES IDX 13 1 12 2 10 3 11 4 9 6 4 7 5 8 6 9 8 10 7 11 3 12 2 13 1 14
REMARK SMILES IDX 83 16 84 17 85 18 94 19 86 20 87 21 88 22 89 23 93 24 90 25
REMARK SMILES IDX 92 26 91 27 14 28 15 29 16 30 17 31 18 32 19 34 20 35 21 36
REMARK SMILES IDX 82 37 22 38 81 39 23 40 24 41 25 42 75 43 26 44 80 45 74 46
REMARK SMILES IDX 76 47 27 48 79 49 73 50 72 51 28 53 60 54 40 55 59 56 41 57
REMARK SMILES IDX 44 58 58 59 77 60 42 61 43 62 57 64 78 65 45 66 29 67 30 68
REMARK SMILES IDX 38 69 31 70 37 71 39 72 36 73 32 74 33 75 34 76 35 77 61 78
REMARK SMILES IDX 62 79 70 80 63 81 69 82 71 83 68 84 64 85 65 86 66 87 67 88
REMARK SMILES IDX 46 89 47 90 55 91 48 92 54 93 56 94 53 95 49 96 50 97 51 98
REMARK SMILES IDX 52 99
REMARK H PARENT 12 5 2 15 17 33 76 52 44 63
REMARK Flexibility Score: inf
ROOT
ATOM      1  C   UNL     1      -4.495  -0.728  -2.773  1.00  0.00     0.116 C 
ENDROOT
BRANCH   1   2
ATOM      2  N   UNL     1      -3.938   0.175  -1.786  1.00  0.00    -0.352 N 
ATOM      3  C   UNL     1      -3.230  -0.028  -0.625  1.00  0.00     0.253 C 
ATOM      4  O   UNL     1      -3.048   0.976   0.063  1.00  0.00    -0.269 OA
ATOM      5  H   UNL     1      -4.099   1.125  -1.988  1.00  0.00     0.163 HD
BRANCH   3   6
ATOM      6  C   UNL     1      -2.722  -1.360  -0.162  1.00  0.00     0.067 A 
ATOM      7  C   UNL     1      -1.695  -1.484   0.784  1.00  0.00     0.107 A 
ATOM      8  N   UNL     1      -1.365  -2.717   1.263  1.00  0.00    -0.254 NA
ATOM      9  C   UNL     1      -1.927  -3.842   0.801  1.00  0.00     0.111 A 
ATOM     10  C   UNL     1      -3.314  -2.569  -0.587  1.00  0.00     0.017 A 
ATOM     11  C   UNL     1      -2.910  -3.819  -0.135  1.00  0.00     0.021 A 
BRANCH   7  12
ATOM     12  C   UNL     1      -0.878  -0.354   1.424  1.00  0.00     0.320 C 
BRANCH  12  13
ATOM     13  N   UNL     1       0.593  -0.342   1.235  1.00  0.00    -0.332 N 
ATOM     14  C   UNL     1       1.001  -0.344  -0.158  1.00  0.00     0.333 C 
ATOM     15  H   UNL     1       0.778   0.580   1.629  1.00  0.00     0.348 HD
BRANCH  13  16
ATOM     16  C   UNL     1       1.485  -1.089   2.134  1.00  0.00     0.267 C 
BRANCH  16  17
ATOM     17  C   UNL     1       1.167  -2.547   2.490  1.00  0.00     0.065 C 
ATOM     18  C   UNL     1       0.294  -2.672   3.759  1.00  0.00     0.032 C 
ATOM     19  C   UNL     1       2.364  -3.469   2.768  1.00  0.00     0.126 C 
ATOM     20  C   UNL     1       0.841  -3.863   4.537  1.00  0.00     0.117 C 
ATOM     21  N   UNL     1       1.769  -4.509   3.620  1.00  0.00    -0.371 N 
BRANCH  21  22
ATOM     22  C   UNL     1       1.607  -5.809   3.182  1.00  0.00     0.037 A 
ATOM     23  C   UNL     1       2.702  -6.533   2.688  1.00  0.00     0.026 A 
ATOM     24  C   UNL     1       0.384  -6.498   3.254  1.00  0.00     0.026 A 
ATOM     25  C   UNL     1       2.598  -7.886   2.338  1.00  0.00     0.002 A 
ATOM     26  C   UNL     1       0.267  -7.848   2.900  1.00  0.00     0.002 A 
ATOM     27  C   UNL     1       1.380  -8.548   2.455  1.00  0.00     0.000 A 
ENDBRANCH  21  22
ENDBRANCH  16  17
ENDBRANCH  13  16
ENDBRANCH  12  13
ENDBRANCH   7  12
ENDBRANCH   3   6
ENDBRANCH   1   2
BRANCH   1  28
ATOM     28  C   UNL     1      -5.840  -1.290  -2.286  1.00  0.00     0.023 C 
BRANCH  28  29
ATOM     29  C   UNL     1      -7.060  -0.449  -2.637  1.00  0.00     0.023 C 
BRANCH  29  30
ATOM     30  C   UNL     1      -7.295  -0.281  -4.128  1.00  0.00     0.116 C 
BRANCH  30  31
ATOM     31  N   UNL     1      -7.327  -1.537  -4.859  1.00  0.00    -0.352 N 
ATOM     32  C   UNL     1      -7.944  -1.782  -6.069  1.00  0.00     0.251 C 
ATOM     33  H   UNL     1      -6.856  -2.296  -4.446  1.00  0.00     0.163 HD
ATOM     34  O   UNL     1      -7.968  -2.907  -6.545  1.00  0.00    -0.269 OA
BRANCH  32  35
ATOM     35  C   UNL     1      -8.623  -0.651  -6.726  1.00  0.00     0.039 A 
ATOM     36  C   UNL     1      -9.994  -0.739  -6.958  1.00  0.00     0.014 A 
ATOM     37  C   UNL     1      -7.923   0.534  -6.966  1.00  0.00     0.014 A 
ATOM     38  C   UNL     1     -10.688   0.401  -7.362  1.00  0.00     0.010 A 
ATOM     39  C   UNL     1      -8.628   1.685  -7.293  1.00  0.00     0.010 A 
ATOM     40  C   UNL     1     -10.017   1.629  -7.484  1.00  0.00    -0.014 A 
BRANCH  40  41
ATOM     41  C   UNL     1     -10.756   2.875  -7.798  1.00  0.00     0.031 A 
ATOM     42  C   UNL     1     -10.488   3.595  -9.088  1.00  0.00     0.074 A 
ATOM     43  C   UNL     1     -11.609   3.386  -6.888  1.00  0.00     0.049 A 
ATOM     44  N   UNL     1     -10.976   4.728  -9.519  1.00  0.00    -0.248 NA
ATOM     45  C   UNL     1      -9.514   2.972  -9.997  1.00  0.00     0.031 C 
ATOM     46  C   UNL     1     -11.902   2.797  -5.579  1.00  0.00     0.029 A 
ATOM     47  N   UNL     1     -12.378   4.521  -6.919  1.00  0.00    -0.354 N 
ATOM     48  C   UNL     1     -10.364   4.959 -10.745  1.00  0.00     0.074 A 
ATOM     49  C   UNL     1      -9.420   3.882 -10.954  1.00  0.00     0.031 C 
ATOM     50  C   UNL     1     -12.805   3.563  -4.944  1.00  0.00     0.029 A 
ATOM     51  C   UNL     1     -13.123   4.716  -5.780  1.00  0.00     0.049 A 
ATOM     52  H   UNL     1     -12.395   5.139  -7.686  1.00  0.00     0.167 HD
ATOM     53  C   UNL     1     -10.590   5.964 -11.626  1.00  0.00     0.034 A 
ATOM     54  C   UNL     1     -13.961   5.717  -5.445  1.00  0.00     0.034 A 
ATOM     55  C   UNL     1     -11.543   7.022 -11.401  1.00  0.00     0.049 A 
ATOM     56  C   UNL     1     -14.184   6.832  -6.434  1.00  0.00     0.074 A 
ATOM     57  C   UNL     1     -11.902   8.056 -12.248  1.00  0.00     0.029 A 
ATOM     58  N   UNL     1     -12.285   7.188 -10.237  1.00  0.00    -0.354 N 
ATOM     59  N   UNL     1     -13.646   7.004  -7.620  1.00  0.00    -0.248 NA
ATOM     60  C   UNL     1     -15.132   7.882  -6.043  1.00  0.00     0.031 C 
ATOM     61  C   UNL     1     -12.809   8.880 -11.573  1.00  0.00     0.029 A 
ATOM     62  C   UNL     1     -13.073   8.324 -10.331  1.00  0.00     0.049 A 
ATOM     63  H   UNL     1     -12.254   6.586  -9.458  1.00  0.00     0.167 HD
ATOM     64  C   UNL     1     -14.210   8.171  -8.126  1.00  0.00     0.074 A 
ATOM     65  C   UNL     1     -15.143   8.647  -7.125  1.00  0.00     0.031 C 
ATOM     66  C   UNL     1     -13.982   8.793  -9.311  1.00  0.00     0.034 A 
BRANCH  53  67
ATOM     67  C   UNL     1      -9.773   5.967 -12.895  1.00  0.00     0.023 A 
ATOM     68  C   UNL     1      -9.863   4.923 -13.833  1.00  0.00     0.031 A 
ATOM     69  C   UNL     1      -8.863   7.006 -13.155  1.00  0.00     0.131 A 
ATOM     70  C   UNL     1      -9.005   4.899 -14.941  1.00  0.00     0.055 A 
ATOM     71  C   UNL     1      -8.069   7.019 -14.304  1.00  0.00     0.041 A 
ATOM     72  F   UNL     1      -8.716   8.020 -12.287  1.00  0.00    -0.206 F 
ATOM     73  C   UNL     1      -8.126   5.953 -15.198  1.00  0.00     0.022 A 
BRANCH  70  74
ATOM     74  S   UNL     1      -8.952   3.401 -15.963  1.00  0.00     0.124 S 
ATOM     75  O   UNL     1      -8.556   2.391 -14.983  1.00  0.00    -0.237 OA
ATOM     76  O   UNL     1     -10.320   3.308 -16.459  1.00  0.00    -0.237 OA
ATOM     77  O   UNL     1      -7.941   3.709 -16.971  1.00  0.00    -0.744 OA
ENDBRANCH  70  74
ENDBRANCH  53  67
BRANCH  54  78
ATOM     78  C   UNL     1     -14.646   5.720  -4.122  1.00  0.00     0.023 A 
ATOM     79  C   UNL     1     -16.042   5.601  -4.030  1.00  0.00     0.031 A 
ATOM     80  C   UNL     1     -13.918   5.881  -2.929  1.00  0.00     0.131 A 
ATOM     81  C   UNL     1     -16.671   5.690  -2.778  1.00  0.00     0.055 A 
ATOM     82  C   UNL     1     -14.544   5.919  -1.682  1.00  0.00     0.041 A 
ATOM     83  F   UNL     1     -12.580   5.991  -2.961  1.00  0.00    -0.206 F 
ATOM     84  C   UNL     1     -15.930   5.836  -1.603  1.00  0.00     0.022 A 
BRANCH  81  85
ATOM     85  S   UNL     1     -18.484   5.688  -2.715  1.00  0.00     0.124 S 
ATOM     86  O   UNL     1     -18.812   6.832  -3.558  1.00  0.00    -0.237 OA
ATOM     87  O   UNL     1     -18.803   4.373  -3.263  1.00  0.00    -0.237 OA
ATOM     88  O   UNL     1     -18.775   5.855  -1.293  1.00  0.00    -0.744 OA
ENDBRANCH  81  85
ENDBRANCH  54  78
BRANCH  66  89
ATOM     89  C   UNL     1     -14.784  10.039  -9.590  1.00  0.00     0.023 A 
ATOM     90  C   UNL     1     -14.591  11.219  -8.851  1.00  0.00     0.031 A 
ATOM     91  C   UNL     1     -15.766  10.039 -10.596  1.00  0.00     0.131 A 
ATOM     92  C   UNL     1     -15.406  12.335  -9.092  1.00  0.00     0.055 A 
ATOM     93  C   UNL     1     -16.533  11.171 -10.872  1.00  0.00     0.041 A 
ATOM     94  F   UNL     1     -15.993   8.938 -11.330  1.00  0.00    -0.206 F 
ATOM     95  C   UNL     1     -16.364  12.323 -10.109  1.00  0.00     0.022 A 
BRANCH  92  96
ATOM     96  S   UNL     1     -15.257  13.773  -7.998  1.00  0.00     0.124 S 
ATOM     97  O   UNL     1     -15.566  13.195  -6.694  1.00  0.00    -0.237 OA
ATOM     98  O   UNL     1     -13.871  14.180  -8.204  1.00  0.00    -0.237 OA
ATOM     99  O   UNL     1     -16.259  14.703  -8.517  1.00  0.00    -0.744 OA
ENDBRANCH  92  96
ENDBRANCH  66  89
ENDBRANCH  40  41
ENDBRANCH  32  35
ENDBRANCH  30  31
ENDBRANCH  29  30
ENDBRANCH  28  29
ENDBRANCH   1  28
TORSDOF 19
